# generated using pymatgen
data_Nb12Co8Os4CN3
_symmetry_space_group_name_H-M   'P 1'
_cell_length_a   8.10980375
_cell_length_b   8.10980387
_cell_length_c   8.11990714
_cell_angle_alpha   60.04114759
_cell_angle_beta   60.04114803
_cell_angle_gamma   59.99999747
_symmetry_Int_Tables_number   1
_chemical_formula_structural   Nb12Co8Os4CN3
_chemical_formula_sum   'Nb12 Co8 Os4 C1 N3'
_cell_volume   377.85622570
_cell_formula_units_Z   1
loop_
 _symmetry_equiv_pos_site_id
 _symmetry_equiv_pos_as_xyz
  1  'x, y, z'
loop_
 _atom_site_type_symbol
 _atom_site_label
 _atom_site_symmetry_multiplicity
 _atom_site_fract_x
 _atom_site_fract_y
 _atom_site_fract_z
 _atom_site_occupancy
  Nb  Nb0  1  0.805936  0.805936  0.193676  1
  Nb  Nb1  1  0.194468  0.194468  0.805916  1
  Nb  Nb2  1  0.805147  0.194468  0.805916  1
  Nb  Nb3  1  0.194452  0.805936  0.193676  1
  Nb  Nb4  1  0.194468  0.805147  0.805916  1
  Nb  Nb5  1  0.805936  0.194452  0.193676  1
  Nb  Nb6  1  0.444064  0.444064  0.056324  1
  Nb  Nb7  1  0.055532  0.055532  0.444084  1
  Nb  Nb8  1  0.444853  0.055532  0.444084  1
  Nb  Nb9  1  0.055548  0.444064  0.056324  1
  Nb  Nb10  1  0.055532  0.444853  0.444084  1
  Nb  Nb11  1  0.444064  0.055548  0.056324  1
  Co  Co12  1  0.733663  0.422115  0.422108  1
  Co  Co13  1  0.422115  0.733663  0.422108  1
  Co  Co14  1  0.422185  0.422185  0.733447  1
  Co  Co15  1  0.422115  0.422115  0.422108  1
  Co  Co16  1  0.516337  0.827885  0.827892  1
  Co  Co17  1  0.827885  0.516337  0.827892  1
  Co  Co18  1  0.827815  0.827815  0.516553  1
  Co  Co19  1  0.827885  0.827885  0.827892  1
  Os  Os20  1  0.125000  0.625000  0.625000  1
  Os  Os21  1  0.625000  0.125000  0.625000  1
  Os  Os22  1  0.625000  0.625000  0.125000  1
  Os  Os23  1  0.625000  0.625000  0.625000  1
  C  C24  1  0.125000  0.125000  0.625000  1
  N  N25  1  0.625000  0.125000  0.125000  1
  N  N26  1  0.125000  0.625000  0.125000  1
  N  N27  1  0.125000  0.125000  0.125000  1
