# generated using pymatgen
data_RbZr2V3O12
_symmetry_space_group_name_H-M   'P 1'
_cell_length_a   10.05573283
_cell_length_b   10.05573376
_cell_length_c   10.05573407
_cell_angle_alpha   55.69710597
_cell_angle_beta   55.69710631
_cell_angle_gamma   55.69710151
_symmetry_Int_Tables_number   1
_chemical_formula_structural   RbZr2V3O12
_chemical_formula_sum   'Rb2 Zr4 V6 O24'
_cell_volume   647.22554478
_cell_formula_units_Z   2
loop_
 _symmetry_equiv_pos_site_id
 _symmetry_equiv_pos_as_xyz
  1  'x, y, z'
loop_
 _atom_site_type_symbol
 _atom_site_label
 _atom_site_symmetry_multiplicity
 _atom_site_fract_x
 _atom_site_fract_y
 _atom_site_fract_z
 _atom_site_occupancy
  Rb  Rb0  1  0.500000  0.500000  0.500000  1
  Rb  Rb1  1  0.000000  0.000000  0.000000  1
  Zr  Zr2  1  0.647290  0.647290  0.647290  1
  Zr  Zr3  1  0.852710  0.852710  0.852710  1
  Zr  Zr4  1  0.352710  0.352710  0.352710  1
  Zr  Zr5  1  0.147290  0.147290  0.147290  1
  V  V6  1  0.465963  0.034037  0.750000  1
  V  V7  1  0.034037  0.750000  0.465963  1
  V  V8  1  0.750000  0.465963  0.034037  1
  V  V9  1  0.534037  0.965963  0.250000  1
  V  V10  1  0.965963  0.250000  0.534037  1
  V  V11  1  0.250000  0.534037  0.965963  1
  O  O12  1  0.494954  0.854913  0.735393  1
  O  O13  1  0.854913  0.735393  0.494954  1
  O  O14  1  0.735393  0.494954  0.854913  1
  O  O15  1  0.645087  0.005046  0.764607  1
  O  O16  1  0.005046  0.764607  0.645087  1
  O  O17  1  0.764607  0.645087  0.005046  1
  O  O18  1  0.505046  0.145087  0.264607  1
  O  O19  1  0.145087  0.264607  0.505046  1
  O  O20  1  0.264607  0.505046  0.145087  1
  O  O21  1  0.354913  0.994954  0.235393  1
  O  O22  1  0.994954  0.235393  0.354913  1
  O  O23  1  0.235393  0.354913  0.994954  1
  O  O24  1  0.569784  0.786313  0.432761  1
  O  O25  1  0.786313  0.432761  0.569784  1
  O  O26  1  0.432761  0.569784  0.786313  1
  O  O27  1  0.713687  0.930216  0.067239  1
  O  O28  1  0.930216  0.067239  0.713687  1
  O  O29  1  0.067239  0.713687  0.930216  1
  O  O30  1  0.430216  0.213687  0.567239  1
  O  O31  1  0.213687  0.567239  0.430216  1
  O  O32  1  0.567239  0.430216  0.213687  1
  O  O33  1  0.286313  0.069784  0.932761  1
  O  O34  1  0.069784  0.932761  0.286313  1
  O  O35  1  0.932761  0.286313  0.069784  1
