# generated using pymatgen
data_YHo16Er3Sn16
_symmetry_space_group_name_H-M   'P 1'
_cell_length_a   8.02756151
_cell_length_b   8.13730495
_cell_length_c   15.41305383
_cell_angle_alpha   90.01165405
_cell_angle_beta   89.83179522
_cell_angle_gamma   89.91230709
_symmetry_Int_Tables_number   1
_chemical_formula_structural   YHo16Er3Sn16
_chemical_formula_sum   'Y1 Ho16 Er3 Sn16'
_cell_volume   1006.81699960
_cell_formula_units_Z   1
loop_
 _symmetry_equiv_pos_site_id
 _symmetry_equiv_pos_as_xyz
  1  'x, y, z'
loop_
 _atom_site_type_symbol
 _atom_site_label
 _atom_site_symmetry_multiplicity
 _atom_site_fract_x
 _atom_site_fract_y
 _atom_site_fract_z
 _atom_site_occupancy
  Y  Y0  1  0.020811  0.178704  0.903699  1
  Ho  Ho1  1  0.368339  0.837577  0.877130  1
  Ho  Ho2  1  0.869039  0.662080  0.622009  1
  Ho  Ho3  1  0.630423  0.162246  0.377437  1
  Ho  Ho4  1  0.132059  0.337905  0.122717  1
  Ho  Ho5  1  0.631743  0.162548  0.122918  1
  Ho  Ho6  1  0.130674  0.337984  0.377675  1
  Ho  Ho7  1  0.369726  0.837694  0.622400  1
  Ho  Ho8  1  0.868468  0.662181  0.877465  1
  Ho  Ho9  1  0.522181  0.321938  0.903217  1
  Ho  Ho10  1  0.022552  0.178747  0.597085  1
  Ho  Ho11  1  0.477227  0.678497  0.402698  1
  Ho  Ho12  1  0.978630  0.821131  0.096738  1
  Ho  Ho13  1  0.478258  0.678437  0.096933  1
  Ho  Ho14  1  0.977597  0.821550  0.402959  1
  Ho  Ho15  1  0.522637  0.321606  0.596837  1
  Ho  Ho16  1  0.199869  0.503924  0.749664  1
  Er  Er17  1  0.699773  0.996112  0.749694  1
  Er  Er18  1  0.800061  0.496131  0.250181  1
  Er  Er19  1  0.300079  0.003776  0.250321  1
  Sn  Sn20  1  0.293365  0.036600  0.041920  1
  Sn  Sn21  1  0.791424  0.462720  0.458243  1
  Sn  Sn22  1  0.708379  0.963240  0.541483  1
  Sn  Sn23  1  0.207740  0.537721  0.958696  1
  Sn  Sn24  1  0.705963  0.961603  0.958848  1
  Sn  Sn25  1  0.208545  0.537240  0.541296  1
  Sn  Sn26  1  0.291489  0.036959  0.458543  1
  Sn  Sn27  1  0.792778  0.462485  0.041657  1
  Sn  Sn28  1  0.566552  0.617808  0.749925  1
  Sn  Sn29  1  0.065880  0.882105  0.749797  1
  Sn  Sn30  1  0.433712  0.382751  0.250191  1
  Sn  Sn31  1  0.934150  0.117588  0.250027  1
  Sn  Sn32  1  0.333356  0.149365  0.750127  1
  Sn  Sn33  1  0.832298  0.350761  0.749824  1
  Sn  Sn34  1  0.667249  0.850627  0.249840  1
  Sn  Sn35  1  0.166974  0.649657  0.249804  1
