# generated using pymatgen
data_RbTb(SeO4)2
_symmetry_space_group_name_H-M   'P 1'
_cell_length_a   5.41620039
_cell_length_b   5.41620131
_cell_length_c   8.80324105
_cell_angle_alpha   93.62919736
_cell_angle_beta   93.62919671
_cell_angle_gamma   65.26695218
_symmetry_Int_Tables_number   1
_chemical_formula_structural   RbTb(SeO4)2
_chemical_formula_sum   'Rb1 Tb1 Se2 O8'
_cell_volume   233.89198924
_cell_formula_units_Z   1
loop_
 _symmetry_equiv_pos_site_id
 _symmetry_equiv_pos_as_xyz
  1  'x, y, z'
loop_
 _atom_site_type_symbol
 _atom_site_label
 _atom_site_symmetry_multiplicity
 _atom_site_fract_x
 _atom_site_fract_y
 _atom_site_fract_z
 _atom_site_occupancy
  Rb  Rb0  1  0.000000  0.000000  0.000000  1
  Tb  Tb1  1  0.000000  0.000000  0.500000  1
  Se  Se2  1  0.626533  0.626533  0.290067  1
  Se  Se3  1  0.373468  0.373468  0.709934  1
  O  O4  1  0.688631  0.688631  0.119745  1
  O  O5  1  0.754506  0.288364  0.312019  1
  O  O6  1  0.288364  0.754506  0.312019  1
  O  O7  1  0.757163  0.757163  0.434423  1
  O  O8  1  0.242837  0.242837  0.565576  1
  O  O9  1  0.711636  0.245494  0.687981  1
  O  O10  1  0.245494  0.711636  0.687981  1
  O  O11  1  0.311368  0.311368  0.880255  1
