# generated using pymatgen
data_TbCu3PdPt
_symmetry_space_group_name_H-M   'P 1'
_cell_length_a   5.16355800
_cell_length_b   5.16355860
_cell_length_c   5.16355862
_cell_angle_alpha   58.25455174
_cell_angle_beta   58.25455162
_cell_angle_gamma   58.25455261
_symmetry_Int_Tables_number   1
_chemical_formula_structural   TbCu3PdPt
_chemical_formula_sum   'Tb1 Cu3 Pd1 Pt1'
_cell_volume   93.45685271
_cell_formula_units_Z   1
loop_
 _symmetry_equiv_pos_site_id
 _symmetry_equiv_pos_as_xyz
  1  'x, y, z'
loop_
 _atom_site_type_symbol
 _atom_site_label
 _atom_site_symmetry_multiplicity
 _atom_site_fract_x
 _atom_site_fract_y
 _atom_site_fract_z
 _atom_site_occupancy
  Tb  Tb0  1  0.250862  0.250862  0.250862  1
  Cu  Cu1  1  0.622500  0.622500  0.120003  1
  Cu  Cu2  1  0.622500  0.120003  0.622500  1
  Cu  Cu3  1  0.120003  0.622500  0.622500  1
  Pd  Pd4  1  0.012060  0.012060  0.012060  1
  Pt  Pt5  1  0.622075  0.622075  0.622075  1
