# generated using pymatgen
data_Nd4Gd5TmPb8
_symmetry_space_group_name_H-M   'P 1'
_cell_length_a   8.26078100
_cell_length_b   8.36062800
_cell_length_c   15.74962800
_cell_angle_alpha   90.00000000
_cell_angle_beta   90.00000000
_cell_angle_gamma   90.00000000
_symmetry_Int_Tables_number   1
_chemical_formula_structural   Nd4Gd5TmPb8
_chemical_formula_sum   'Nd8 Gd10 Tm2 Pb16'
_cell_volume   1087.75304936
_cell_formula_units_Z   2
loop_
 _symmetry_equiv_pos_site_id
 _symmetry_equiv_pos_as_xyz
  1  'x, y, z'
loop_
 _atom_site_type_symbol
 _atom_site_label
 _atom_site_symmetry_multiplicity
 _atom_site_fract_x
 _atom_site_fract_y
 _atom_site_fract_z
 _atom_site_occupancy
  Nd  Nd0  1  0.474222  0.678390  0.598347  1
  Nd  Nd1  1  0.974222  0.821610  0.901653  1
  Nd  Nd2  1  0.524464  0.320904  0.096344  1
  Nd  Nd3  1  0.024464  0.179096  0.403656  1
  Nd  Nd4  1  0.524464  0.320904  0.403656  1
  Nd  Nd5  1  0.024464  0.179096  0.096344  1
  Nd  Nd6  1  0.474222  0.678390  0.901653  1
  Nd  Nd7  1  0.974222  0.821610  0.598347  1
  Gd  Gd8  1  0.631776  0.158184  0.621952  1
  Gd  Gd9  1  0.131776  0.341816  0.878048  1
  Gd  Gd10  1  0.370763  0.839751  0.120497  1
  Gd  Gd11  1  0.870763  0.660249  0.379503  1
  Gd  Gd12  1  0.370763  0.839751  0.379503  1
  Gd  Gd13  1  0.870763  0.660249  0.120497  1
  Gd  Gd14  1  0.631776  0.158184  0.878048  1
  Gd  Gd15  1  0.131776  0.341816  0.621952  1
  Gd  Gd16  1  0.198851  0.505874  0.250000  1
  Gd  Gd17  1  0.698851  0.994126  0.250000  1
  Tm  Tm18  1  0.797793  0.495458  0.750000  1
  Tm  Tm19  1  0.297793  0.004542  0.750000  1
  Pb  Pb20  1  0.709983  0.962233  0.457008  1
  Pb  Pb21  1  0.209983  0.537767  0.042992  1
  Pb  Pb22  1  0.290396  0.037182  0.955626  1
  Pb  Pb23  1  0.790396  0.462818  0.544374  1
  Pb  Pb24  1  0.290396  0.037182  0.544374  1
  Pb  Pb25  1  0.790396  0.462818  0.955626  1
  Pb  Pb26  1  0.709983  0.962233  0.042992  1
  Pb  Pb27  1  0.209983  0.537767  0.457008  1
  Pb  Pb28  1  0.436147  0.375469  0.750000  1
  Pb  Pb29  1  0.936147  0.124531  0.750000  1
  Pb  Pb30  1  0.567513  0.619726  0.250000  1
  Pb  Pb31  1  0.067513  0.880274  0.250000  1
  Pb  Pb32  1  0.664758  0.847759  0.750000  1
  Pb  Pb33  1  0.164758  0.652241  0.750000  1
  Pb  Pb34  1  0.331728  0.148569  0.250000  1
  Pb  Pb35  1  0.831728  0.351431  0.250000  1
