# generated using pymatgen
data_YZnPt3Au
_symmetry_space_group_name_H-M   'P 1'
_cell_length_a   5.21569156
_cell_length_b   5.50992313
_cell_length_c   5.50992400
_cell_angle_alpha   60.00000677
_cell_angle_beta   58.11564722
_cell_angle_gamma   58.11565981
_symmetry_Int_Tables_number   1
_chemical_formula_structural   YZnPt3Au
_chemical_formula_sum   'Y1 Zn1 Pt3 Au1'
_cell_volume   108.67073764
_cell_formula_units_Z   1
loop_
 _symmetry_equiv_pos_site_id
 _symmetry_equiv_pos_as_xyz
  1  'x, y, z'
loop_
 _atom_site_type_symbol
 _atom_site_label
 _atom_site_symmetry_multiplicity
 _atom_site_fract_x
 _atom_site_fract_y
 _atom_site_fract_z
 _atom_site_occupancy
  Y  Y0  1  0.737638  0.754120  0.754120  1
  Zn  Zn1  1  0.881196  0.372934  0.372934  1
  Pt  Pt2  1  0.379492  0.372862  0.874783  1
  Pt  Pt3  1  0.379492  0.874783  0.372862  1
  Pt  Pt4  1  0.379492  0.372862  0.372862  1
  Au  Au5  1  0.992690  0.002437  0.002437  1
