# generated using pymatgen
data_ZrNbSnB2Ru5
_symmetry_space_group_name_H-M   'P 1'
_cell_length_a   9.51379770
_cell_length_b   9.51379883
_cell_length_c   3.09182100
_cell_angle_alpha   90.00000000
_cell_angle_beta   90.00000000
_cell_angle_gamma   90.72159565
_symmetry_Int_Tables_number   1
_chemical_formula_structural   ZrNbSnB2Ru5
_chemical_formula_sum   'Zr2 Nb2 Sn2 B4 Ru10'
_cell_volume   279.82581396
_cell_formula_units_Z   2
loop_
 _symmetry_equiv_pos_site_id
 _symmetry_equiv_pos_as_xyz
  1  'x, y, z'
loop_
 _atom_site_type_symbol
 _atom_site_label
 _atom_site_symmetry_multiplicity
 _atom_site_fract_x
 _atom_site_fract_y
 _atom_site_fract_z
 _atom_site_occupancy
  Zr  Zr0  1  0.823662  0.676338  0.000000  1
  Zr  Zr1  1  0.176338  0.323662  0.000000  1
  Nb  Nb2  1  0.324823  0.824823  0.000000  1
  Nb  Nb3  1  0.675177  0.175177  0.000000  1
  Sn  Sn4  1  0.500000  0.500000  0.000000  1
  Sn  Sn5  1  0.000000  0.000000  0.000000  1
  B  B6  1  0.621213  0.878787  0.000000  1
  B  B7  1  0.378787  0.121213  0.000000  1
  B  B8  1  0.122246  0.622246  0.000000  1
  B  B9  1  0.877754  0.377754  0.000000  1
  Ru  Ru10  1  0.563859  0.724392  0.500000  1
  Ru  Ru11  1  0.436141  0.275608  0.500000  1
  Ru  Ru12  1  0.077130  0.780406  0.500000  1
  Ru  Ru13  1  0.922870  0.219594  0.500000  1
  Ru  Ru14  1  0.280406  0.577130  0.500000  1
  Ru  Ru15  1  0.719594  0.422870  0.500000  1
  Ru  Ru16  1  0.224392  0.063859  0.500000  1
  Ru  Ru17  1  0.775608  0.936141  0.500000  1
  Ru  Ru18  1  0.500000  0.000000  0.500000  1
  Ru  Ru19  1  0.000000  0.500000  0.500000  1
