# generated using pymatgen
data_Lu8Hg3Os
_symmetry_space_group_name_H-M   'P 1'
_cell_length_a   9.95187900
_cell_length_b   9.95187972
_cell_length_c   7.14216000
_cell_angle_alpha   90.00000000
_cell_angle_beta   90.00000000
_cell_angle_gamma   120.00000756
_symmetry_Int_Tables_number   1
_chemical_formula_structural   Lu8Hg3Os
_chemical_formula_sum   'Lu16 Hg6 Os2'
_cell_volume   612.59067183
_cell_formula_units_Z   2
loop_
 _symmetry_equiv_pos_site_id
 _symmetry_equiv_pos_as_xyz
  1  'x, y, z'
loop_
 _atom_site_type_symbol
 _atom_site_label
 _atom_site_symmetry_multiplicity
 _atom_site_fract_x
 _atom_site_fract_y
 _atom_site_fract_z
 _atom_site_occupancy
  Lu  Lu0  1  0.537690  0.075380  0.511932  1
  Lu  Lu1  1  0.924620  0.462310  0.511932  1
  Lu  Lu2  1  0.537690  0.462310  0.511932  1
  Lu  Lu3  1  0.462310  0.924620  0.011932  1
  Lu  Lu4  1  0.075380  0.537690  0.011932  1
  Lu  Lu5  1  0.462310  0.537690  0.011932  1
  Lu  Lu6  1  0.174526  0.349050  0.699687  1
  Lu  Lu7  1  0.650950  0.825474  0.699687  1
  Lu  Lu8  1  0.174526  0.825474  0.699687  1
  Lu  Lu9  1  0.825474  0.650950  0.199687  1
  Lu  Lu10  1  0.349050  0.174526  0.199687  1
  Lu  Lu11  1  0.825474  0.174526  0.199687  1
  Lu  Lu12  1  0.666667  0.333333  0.893860  1
  Lu  Lu13  1  0.333333  0.666667  0.393860  1
  Lu  Lu14  1  0.000000  0.000000  0.468285  1
  Lu  Lu15  1  0.000000  0.000000  0.968285  1
  Hg  Hg16  1  0.833195  0.666389  0.767795  1
  Hg  Hg17  1  0.333611  0.166805  0.767795  1
  Hg  Hg18  1  0.833195  0.166805  0.767795  1
  Hg  Hg19  1  0.166805  0.333611  0.267795  1
  Hg  Hg20  1  0.666389  0.833195  0.267795  1
  Hg  Hg21  1  0.166805  0.833195  0.267795  1
  Os  Os22  1  0.666667  0.333333  0.278638  1
  Os  Os23  1  0.333333  0.666667  0.778638  1
