# generated using pymatgen
data_Sr3Ac16HoPb16
_symmetry_space_group_name_H-M   'P 1'
_cell_length_a   8.87231025
_cell_length_b   17.25411200
_cell_length_c   8.93973300
_cell_angle_alpha   90.00000000
_cell_angle_beta   89.70042245
_cell_angle_gamma   90.00000000
_symmetry_Int_Tables_number   1
_chemical_formula_structural   Sr3Ac16HoPb16
_chemical_formula_sum   'Sr3 Ac16 Ho1 Pb16'
_cell_volume   1368.50990255
_cell_formula_units_Z   1
loop_
 _symmetry_equiv_pos_site_id
 _symmetry_equiv_pos_as_xyz
  1  'x, y, z'
loop_
 _atom_site_type_symbol
 _atom_site_label
 _atom_site_symmetry_multiplicity
 _atom_site_fract_x
 _atom_site_fract_y
 _atom_site_fract_z
 _atom_site_occupancy
  Sr  Sr0  1  0.788341  0.750000  0.496296  1
  Sr  Sr1  1  0.289385  0.750000  0.003639  1
  Sr  Sr2  1  0.212822  0.250000  0.502274  1
  Ac  Ac3  1  0.617947  0.614636  0.158529  1
  Ac  Ac4  1  0.118568  0.884410  0.340940  1
  Ac  Ac5  1  0.378420  0.118654  0.841705  1
  Ac  Ac6  1  0.880516  0.381278  0.659112  1
  Ac  Ac7  1  0.378420  0.381346  0.841705  1
  Ac  Ac8  1  0.880516  0.118722  0.659112  1
  Ac  Ac9  1  0.617947  0.885364  0.158529  1
  Ac  Ac10  1  0.118568  0.615590  0.340940  1
  Ac  Ac11  1  0.469744  0.598410  0.678922  1
  Ac  Ac12  1  0.972014  0.902479  0.817875  1
  Ac  Ac13  1  0.531784  0.100946  0.320522  1
  Ac  Ac14  1  0.031491  0.398871  0.178992  1
  Ac  Ac15  1  0.531784  0.399054  0.320522  1
  Ac  Ac16  1  0.031491  0.101129  0.178992  1
  Ac  Ac17  1  0.469744  0.901590  0.678922  1
  Ac  Ac18  1  0.972014  0.597521  0.817875  1
  Ho  Ho19  1  0.713527  0.250000  0.999046  1
  Pb  Pb20  1  0.719331  0.450418  0.971222  1
  Pb  Pb21  1  0.219248  0.043435  0.532856  1
  Pb  Pb22  1  0.280069  0.957044  0.030972  1
  Pb  Pb23  1  0.779766  0.542648  0.468173  1
  Pb  Pb24  1  0.280069  0.542956  0.030972  1
  Pb  Pb25  1  0.779766  0.957352  0.468173  1
  Pb  Pb26  1  0.719331  0.049582  0.971222  1
  Pb  Pb27  1  0.219248  0.456565  0.532856  1
  Pb  Pb28  1  0.419238  0.750000  0.387992  1
  Pb  Pb29  1  0.916932  0.750000  0.111740  1
  Pb  Pb30  1  0.582762  0.250000  0.625458  1
  Pb  Pb31  1  0.068015  0.250000  0.888516  1
  Pb  Pb32  1  0.667622  0.750000  0.859495  1
  Pb  Pb33  1  0.167071  0.750000  0.640286  1
  Pb  Pb34  1  0.348122  0.250000  0.140207  1
  Pb  Pb35  1  0.828362  0.250000  0.345409  1
