# generated using pymatgen
data_HoLu2Fe8Os
_symmetry_space_group_name_H-M   'P 1'
_cell_length_a   8.68950231
_cell_length_b   8.68950283
_cell_length_c   8.68950303
_cell_angle_alpha   33.81251884
_cell_angle_beta   33.81251270
_cell_angle_gamma   33.81251649
_symmetry_Int_Tables_number   1
_chemical_formula_structural   HoLu2Fe8Os
_chemical_formula_sum   'Ho1 Lu2 Fe8 Os1'
_cell_volume   181.05279699
_cell_formula_units_Z   1
loop_
 _symmetry_equiv_pos_site_id
 _symmetry_equiv_pos_as_xyz
  1  'x, y, z'
loop_
 _atom_site_type_symbol
 _atom_site_label
 _atom_site_symmetry_multiplicity
 _atom_site_fract_x
 _atom_site_fract_y
 _atom_site_fract_z
 _atom_site_occupancy
  Ho  Ho0  1  0.000000  0.000000  0.000000  1
  Lu  Lu1  1  0.142107  0.142107  0.142107  1
  Lu  Lu2  1  0.857893  0.857893  0.857893  1
  Fe  Fe3  1  0.332899  0.332899  0.332899  1
  Fe  Fe4  1  0.667101  0.667101  0.667101  1
  Fe  Fe5  1  0.077541  0.582899  0.582899  1
  Fe  Fe6  1  0.582899  0.582899  0.077541  1
  Fe  Fe7  1  0.582899  0.077541  0.582899  1
  Fe  Fe8  1  0.417101  0.922459  0.417101  1
  Fe  Fe9  1  0.922459  0.417101  0.417101  1
  Fe  Fe10  1  0.417101  0.417101  0.922459  1
  Os  Os11  1  0.500000  0.500000  0.500000  1
