# generated using pymatgen
data_BaLa(PPt3)4
_symmetry_space_group_name_H-M   'P 1'
_cell_length_a   8.62065069
_cell_length_b   8.63333900
_cell_length_c   8.63434965
_cell_angle_alpha   90.00000000
_cell_angle_beta   90.11919408
_cell_angle_gamma   90.00000000
_symmetry_Int_Tables_number   1
_chemical_formula_structural   BaLa(PPt3)4
_chemical_formula_sum   'Ba2 La2 P8 Pt24'
_cell_volume   642.61008009
_cell_formula_units_Z   2
loop_
 _symmetry_equiv_pos_site_id
 _symmetry_equiv_pos_as_xyz
  1  'x, y, z'
loop_
 _atom_site_type_symbol
 _atom_site_label
 _atom_site_symmetry_multiplicity
 _atom_site_fract_x
 _atom_site_fract_y
 _atom_site_fract_z
 _atom_site_occupancy
  Ba  Ba0  1  0.500000  0.500000  0.000000  1
  Ba  Ba1  1  0.500000  0.000000  0.500000  1
  La  La2  1  0.000000  0.500000  0.500000  1
  La  La3  1  0.000000  0.000000  0.000000  1
  P  P4  1  0.805195  0.307387  0.196097  1
  P  P5  1  0.194805  0.807387  0.303903  1
  P  P6  1  0.694290  0.696782  0.693722  1
  P  P7  1  0.305710  0.196782  0.806278  1
  P  P8  1  0.194805  0.692613  0.803903  1
  P  P9  1  0.805195  0.192613  0.696097  1
  P  P10  1  0.305710  0.303218  0.306278  1
  P  P11  1  0.694290  0.803218  0.193722  1
  Pt  Pt12  1  0.423887  0.842928  0.155313  1
  Pt  Pt13  1  0.576113  0.342928  0.344687  1
  Pt  Pt14  1  0.079846  0.157382  0.656893  1
  Pt  Pt15  1  0.920154  0.657382  0.843107  1
  Pt  Pt16  1  0.150738  0.423461  0.837680  1
  Pt  Pt17  1  0.337443  0.579356  0.346866  1
  Pt  Pt18  1  0.662557  0.079356  0.153134  1
  Pt  Pt19  1  0.849262  0.923461  0.662320  1
  Pt  Pt20  1  0.847699  0.162513  0.422550  1
  Pt  Pt21  1  0.335988  0.349140  0.577475  1
  Pt  Pt22  1  0.152301  0.662513  0.077450  1
  Pt  Pt23  1  0.664012  0.849140  0.922525  1
  Pt  Pt24  1  0.576113  0.157072  0.844687  1
  Pt  Pt25  1  0.423887  0.657072  0.655313  1
  Pt  Pt26  1  0.920154  0.842618  0.343107  1
  Pt  Pt27  1  0.079846  0.342618  0.156893  1
  Pt  Pt28  1  0.849262  0.576539  0.162320  1
  Pt  Pt29  1  0.662557  0.420644  0.653134  1
  Pt  Pt30  1  0.337443  0.920644  0.846866  1
  Pt  Pt31  1  0.150738  0.076539  0.337680  1
  Pt  Pt32  1  0.152301  0.837487  0.577450  1
  Pt  Pt33  1  0.664012  0.650860  0.422525  1
  Pt  Pt34  1  0.847699  0.337487  0.922550  1
  Pt  Pt35  1  0.335988  0.150860  0.077475  1
