# generated using pymatgen
data_V5Os(PbO3)8
_symmetry_space_group_name_H-M   'P 1'
_cell_length_a   9.69435654
_cell_length_b   9.69435574
_cell_length_c   9.69435580
_cell_angle_alpha   109.19189968
_cell_angle_beta   109.19190047
_cell_angle_gamma   110.03131085
_symmetry_Int_Tables_number   1
_chemical_formula_structural   V5Os(PbO3)8
_chemical_formula_sum   'V5 Os1 Pb8 O24'
_cell_volume   701.30006637
_cell_formula_units_Z   1
loop_
 _symmetry_equiv_pos_site_id
 _symmetry_equiv_pos_as_xyz
  1  'x, y, z'
loop_
 _atom_site_type_symbol
 _atom_site_label
 _atom_site_symmetry_multiplicity
 _atom_site_fract_x
 _atom_site_fract_y
 _atom_site_fract_z
 _atom_site_occupancy
  V  V0  1  0.375000  0.625000  0.750000  1
  V  V1  1  0.877735  0.253989  0.127898  1
  V  V2  1  0.626090  0.749837  0.372102  1
  V  V3  1  0.250163  0.122265  0.876253  1
  V  V4  1  0.746011  0.373910  0.623747  1
  Os  Os5  1  0.125000  0.875000  0.250000  1
  Pb  Pb6  1  0.346372  0.362217  0.327153  1
  Pb  Pb7  1  0.167495  0.488480  0.987670  1
  Pb  Pb8  1  0.000810  0.179825  0.512330  1
  Pb  Pb9  1  0.820175  0.832505  0.820986  1
  Pb  Pb10  1  0.535064  0.019219  0.172847  1
  Pb  Pb11  1  0.637783  0.464936  0.984155  1
  Pb  Pb12  1  0.511520  0.999190  0.679014  1
  Pb  Pb13  1  0.980781  0.653628  0.515845  1
  O  O14  1  0.304232  0.158823  0.079446  1
  O  O15  1  0.190197  0.263556  0.840037  1
  O  O16  1  0.923519  0.350161  0.659963  1
  O  O17  1  0.139685  0.073937  0.303558  1
  O  O18  1  0.805143  0.576782  0.644939  1
  O  O19  1  0.579378  0.224786  0.420554  1
  O  O20  1  0.270379  0.836128  0.196442  1
  O  O21  1  0.685267  0.348371  0.767590  1
  O  O22  1  0.344168  0.652502  0.922773  1
  O  O23  1  0.431843  0.160203  0.855061  1
  O  O24  1  0.229728  0.421394  0.577227  1
  O  O25  1  0.080781  0.917677  0.732410  1
  O  O26  1  0.082323  0.314733  0.163103  1
  O  O27  1  0.649839  0.809803  0.573359  1
  O  O28  1  0.651629  0.919219  0.336897  1
  O  O29  1  0.841177  0.420622  0.145408  1
  O  O30  1  0.423218  0.568157  0.228360  1
  O  O31  1  0.736444  0.076481  0.926641  1
  O  O32  1  0.839797  0.194857  0.271640  1
  O  O33  1  0.775214  0.695768  0.354592  1
  O  O34  1  0.578606  0.655832  0.808334  1
  O  O35  1  0.347498  0.770272  0.691666  1
  O  O36  1  0.926063  0.729621  0.065749  1
  O  O37  1  0.163872  0.860315  0.434251  1
