# generated using pymatgen
data_TaRe5Sb14
_symmetry_space_group_name_H-M   'P 1'
_cell_length_a   8.30526885
_cell_length_b   8.30526814
_cell_length_c   8.30526813
_cell_angle_alpha   109.24828888
_cell_angle_beta   109.24828934
_cell_angle_gamma   109.91801743
_symmetry_Int_Tables_number   1
_chemical_formula_structural   TaRe5Sb14
_chemical_formula_sum   'Ta1 Re5 Sb14'
_cell_volume   440.98036633
_cell_formula_units_Z   1
loop_
 _symmetry_equiv_pos_site_id
 _symmetry_equiv_pos_as_xyz
  1  'x, y, z'
loop_
 _atom_site_type_symbol
 _atom_site_label
 _atom_site_symmetry_multiplicity
 _atom_site_fract_x
 _atom_site_fract_y
 _atom_site_fract_z
 _atom_site_occupancy
  Ta  Ta0  1  0.343959  0.343959  0.000000  1
  Re  Re1  1  0.000218  0.342215  0.341997  1
  Re  Re2  1  0.000218  0.658220  0.658003  1
  Re  Re3  1  0.658220  0.000218  0.658003  1
  Re  Re4  1  0.342215  0.000218  0.341997  1
  Re  Re5  1  0.663840  0.663840  0.000000  1
  Sb  Sb6  1  0.750874  0.250874  0.500000  1
  Sb  Sb7  1  0.499569  0.247120  0.747551  1
  Sb  Sb8  1  0.499569  0.752017  0.252449  1
  Sb  Sb9  1  0.247120  0.499569  0.747551  1
  Sb  Sb10  1  0.752017  0.499569  0.252449  1
  Sb  Sb11  1  0.250874  0.750874  0.500000  1
  Sb  Sb12  1  0.325856  0.325856  0.327747  1
  Sb  Sb13  1  0.999291  0.999291  0.326894  1
  Sb  Sb14  1  0.325856  0.998109  0.000000  1
  Sb  Sb15  1  0.998109  0.325856  0.000000  1
  Sb  Sb16  1  0.672397  0.999291  0.000000  1
  Sb  Sb17  1  0.999291  0.672397  0.000000  1
  Sb  Sb18  1  0.998109  0.998109  0.672253  1
  Sb  Sb19  1  0.672397  0.672397  0.673106  1
