# generated using pymatgen
data_Th3Mg2Sn3C
_symmetry_space_group_name_H-M   'P 1'
_cell_length_a   9.08149000
_cell_length_b   9.08148960
_cell_length_c   6.33771800
_cell_angle_alpha   90.00000000
_cell_angle_beta   90.00000000
_cell_angle_gamma   120.00000876
_symmetry_Int_Tables_number   1
_chemical_formula_structural   Th3Mg2Sn3C
_chemical_formula_sum   'Th6 Mg4 Sn6 C2'
_cell_volume   452.66582038
_cell_formula_units_Z   2
loop_
 _symmetry_equiv_pos_site_id
 _symmetry_equiv_pos_as_xyz
  1  'x, y, z'
loop_
 _atom_site_type_symbol
 _atom_site_label
 _atom_site_symmetry_multiplicity
 _atom_site_fract_x
 _atom_site_fract_y
 _atom_site_fract_z
 _atom_site_occupancy
  Th  Th0  1  0.770951  0.770951  0.250000  1
  Th  Th1  1  0.229049  0.000000  0.250000  1
  Th  Th2  1  0.000000  0.229049  0.250000  1
  Th  Th3  1  0.229049  0.229049  0.750000  1
  Th  Th4  1  0.770951  0.000000  0.750000  1
  Th  Th5  1  0.000000  0.770951  0.750000  1
  Mg  Mg6  1  0.666667  0.333333  0.500000  1
  Mg  Mg7  1  0.333333  0.666667  0.500000  1
  Mg  Mg8  1  0.333333  0.666667  0.000000  1
  Mg  Mg9  1  0.666667  0.333333  0.000000  1
  Sn  Sn10  1  0.408067  0.408067  0.250000  1
  Sn  Sn11  1  0.591933  0.000000  0.250000  1
  Sn  Sn12  1  0.000000  0.591933  0.250000  1
  Sn  Sn13  1  0.591933  0.591933  0.750000  1
  Sn  Sn14  1  0.408067  0.000000  0.750000  1
  Sn  Sn15  1  0.000000  0.408067  0.750000  1
  C  C16  1  0.000000  0.000000  0.500000  1
  C  C17  1  0.000000  0.000000  0.000000  1
