# generated using pymatgen
data_LaCeHfZrO7
_symmetry_space_group_name_H-M   'P 1'
_cell_length_a   7.62843672
_cell_length_b   7.64366864
_cell_length_c   7.64366916
_cell_angle_alpha   60.17408321
_cell_angle_beta   60.06590030
_cell_angle_gamma   60.06590043
_symmetry_Int_Tables_number   1
_chemical_formula_structural   LaCeHfZrO7
_chemical_formula_sum   'La2 Ce2 Hf2 Zr2 O14'
_cell_volume   315.88238999
_cell_formula_units_Z   2
loop_
 _symmetry_equiv_pos_site_id
 _symmetry_equiv_pos_as_xyz
  1  'x, y, z'
loop_
 _atom_site_type_symbol
 _atom_site_label
 _atom_site_symmetry_multiplicity
 _atom_site_fract_x
 _atom_site_fract_y
 _atom_site_fract_z
 _atom_site_occupancy
  La  La0  1  0.125000  0.625000  0.125000  1
  La  La1  1  0.125000  0.125000  0.625000  1
  Ce  Ce2  1  0.625000  0.125000  0.125000  1
  Ce  Ce3  1  0.125000  0.125000  0.125000  1
  Hf  Hf4  1  0.125000  0.625000  0.625000  1
  Hf  Hf5  1  0.625000  0.625000  0.625000  1
  Zr  Zr6  1  0.625000  0.125000  0.625000  1
  Zr  Zr7  1  0.625000  0.625000  0.125000  1
  O  O8  1  0.997581  0.002419  0.002419  1
  O  O9  1  0.252419  0.247581  0.247581  1
  O  O10  1  0.290578  0.294960  0.706410  1
  O  O11  1  0.541949  0.543590  0.955040  1
  O  O12  1  0.708051  0.294960  0.706410  1
  O  O13  1  0.710289  0.289711  0.289711  1
  O  O14  1  0.295370  0.704630  0.704630  1
  O  O15  1  0.290578  0.706410  0.294960  1
  O  O16  1  0.708051  0.706410  0.294960  1
  O  O17  1  0.954630  0.545370  0.545370  1
  O  O18  1  0.539711  0.960289  0.960289  1
  O  O19  1  0.959422  0.955040  0.543590  1
  O  O20  1  0.959422  0.543590  0.955040  1
  O  O21  1  0.541949  0.955040  0.543590  1
