# generated using pymatgen
data_NdThZn5Sn
_symmetry_space_group_name_H-M   'P 1'
_cell_length_a   8.57344901
_cell_length_b   8.57344871
_cell_length_c   9.08746300
_cell_angle_alpha   90.00000000
_cell_angle_beta   90.00000000
_cell_angle_gamma   149.65319690
_symmetry_Int_Tables_number   1
_chemical_formula_structural   NdThZn5Sn
_chemical_formula_sum   'Nd2 Th2 Zn10 Sn2'
_cell_volume   337.47784042
_cell_formula_units_Z   2
loop_
 _symmetry_equiv_pos_site_id
 _symmetry_equiv_pos_as_xyz
  1  'x, y, z'
loop_
 _atom_site_type_symbol
 _atom_site_label
 _atom_site_symmetry_multiplicity
 _atom_site_fract_x
 _atom_site_fract_y
 _atom_site_fract_z
 _atom_site_occupancy
  Nd  Nd0  1  0.000000  0.000000  0.500000  1
  Nd  Nd1  1  0.000000  0.000000  0.000000  1
  Th  Th2  1  0.204605  0.795395  0.250000  1
  Th  Th3  1  0.795395  0.204605  0.750000  1
  Zn  Zn4  1  0.814194  0.185806  0.392125  1
  Zn  Zn5  1  0.185806  0.814194  0.607875  1
  Zn  Zn6  1  0.814194  0.185806  0.107875  1
  Zn  Zn7  1  0.185806  0.814194  0.892125  1
  Zn  Zn8  1  0.656422  0.343578  0.483204  1
  Zn  Zn9  1  0.343578  0.656422  0.516796  1
  Zn  Zn10  1  0.656422  0.343578  0.016796  1
  Zn  Zn11  1  0.343578  0.656422  0.983204  1
  Zn  Zn12  1  0.394441  0.605559  0.250000  1
  Zn  Zn13  1  0.605559  0.394441  0.750000  1
  Sn  Sn14  1  0.554373  0.445627  0.250000  1
  Sn  Sn15  1  0.445627  0.554373  0.750000  1
