# generated using pymatgen
data_Ba4PdAu
_symmetry_space_group_name_H-M   'P 1'
_cell_length_a   7.77861468
_cell_length_b   7.77861365
_cell_length_c   4.79703500
_cell_angle_alpha   90.00000000
_cell_angle_beta   90.00000000
_cell_angle_gamma   90.08540690
_symmetry_Int_Tables_number   1
_chemical_formula_structural   Ba4PdAu
_chemical_formula_sum   'Ba4 Pd1 Au1'
_cell_volume   290.25309871
_cell_formula_units_Z   1
loop_
 _symmetry_equiv_pos_site_id
 _symmetry_equiv_pos_as_xyz
  1  'x, y, z'
loop_
 _atom_site_type_symbol
 _atom_site_label
 _atom_site_symmetry_multiplicity
 _atom_site_fract_x
 _atom_site_fract_y
 _atom_site_fract_z
 _atom_site_occupancy
  Ba  Ba0  1  0.302918  0.302918  0.000000  1
  Ba  Ba1  1  0.697082  0.697082  0.000000  1
  Ba  Ba2  1  0.793291  0.206709  0.499999  1
  Ba  Ba3  1  0.206709  0.793291  0.499999  1
  Pd  Pd4  1  0.500001  0.500001  0.499999  1
  Au  Au5  1  0.000000  0.000000  0.000000  1
