# generated using pymatgen
data_Rb4SnPtBr12
_symmetry_space_group_name_H-M   'P 1'
_cell_length_a   7.62425700
_cell_length_b   7.62425700
_cell_length_c   10.99623300
_cell_angle_alpha   90.00000000
_cell_angle_beta   90.00000000
_cell_angle_gamma   90.00000000
_symmetry_Int_Tables_number   1
_chemical_formula_structural   Rb4SnPtBr12
_chemical_formula_sum   'Rb4 Sn1 Pt1 Br12'
_cell_volume   639.20326977
_cell_formula_units_Z   1
loop_
 _symmetry_equiv_pos_site_id
 _symmetry_equiv_pos_as_xyz
  1  'x, y, z'
loop_
 _atom_site_type_symbol
 _atom_site_label
 _atom_site_symmetry_multiplicity
 _atom_site_fract_x
 _atom_site_fract_y
 _atom_site_fract_z
 _atom_site_occupancy
  Rb  Rb0  1  0.500000  0.000000  0.757773  1
  Rb  Rb1  1  0.000000  0.500000  0.757773  1
  Rb  Rb2  1  0.500000  0.000000  0.242227  1
  Rb  Rb3  1  0.000000  0.500000  0.242227  1
  Sn  Sn4  1  0.500000  0.500000  0.500000  1
  Pt  Pt5  1  0.000000  0.000000  0.000000  1
  Br  Br6  1  0.746550  0.210117  0.000000  1
  Br  Br7  1  0.700301  0.216342  0.500000  1
  Br  Br8  1  0.299699  0.783658  0.500000  1
  Br  Br9  1  0.253450  0.789883  0.000000  1
  Br  Br10  1  0.783658  0.700301  0.500000  1
  Br  Br11  1  0.216342  0.299699  0.500000  1
  Br  Br12  1  0.000000  0.000000  0.228405  1
  Br  Br13  1  0.500000  0.500000  0.257886  1
  Br  Br14  1  0.000000  0.000000  0.771595  1
  Br  Br15  1  0.500000  0.500000  0.742114  1
  Br  Br16  1  0.789883  0.746550  0.000000  1
  Br  Br17  1  0.210117  0.253450  0.000000  1
