# generated using pymatgen
data_NbNi2B6Mo5
_symmetry_space_group_name_H-M   'P 1'
_cell_length_a   3.19904400
_cell_length_b   4.53929385
_cell_length_c   10.84225927
_cell_angle_alpha   90.06941879
_cell_angle_beta   90.00000000
_cell_angle_gamma   110.63249231
_symmetry_Int_Tables_number   1
_chemical_formula_structural   NbNi2B6Mo5
_chemical_formula_sum   'Nb1 Ni2 B6 Mo5'
_cell_volume   147.34613691
_cell_formula_units_Z   1
loop_
 _symmetry_equiv_pos_site_id
 _symmetry_equiv_pos_as_xyz
  1  'x, y, z'
loop_
 _atom_site_type_symbol
 _atom_site_label
 _atom_site_symmetry_multiplicity
 _atom_site_fract_x
 _atom_site_fract_y
 _atom_site_fract_z
 _atom_site_occupancy
  Nb  Nb0  1  0.209764  0.419526  0.393112  1
  Ni  Ni1  1  0.498075  0.996149  0.501616  1
  Ni  Ni2  1  0.499943  0.999886  0.999899  1
  B  B3  1  0.914331  0.828663  0.393140  1
  B  B4  1  0.086667  0.173334  0.606796  1
  B  B5  1  0.912567  0.825135  0.103279  1
  B  B6  1  0.088724  0.177448  0.895876  1
  B  B7  1  0.793659  0.587319  0.247710  1
  B  B8  1  0.207156  0.414312  0.751287  1
  Mo  Mo9  1  0.787153  0.574307  0.611583  1
  Mo  Mo10  1  0.213330  0.426659  0.105680  1
  Mo  Mo11  1  0.787297  0.574595  0.891725  1
  Mo  Mo12  1  0.499691  0.999381  0.247588  1
  Mo  Mo13  1  0.501642  0.003285  0.750709  1
