# generated using pymatgen
data_Pa(Al5Tc)2
_symmetry_space_group_name_H-M   'P 1'
_cell_length_a   6.88996590
_cell_length_b   6.88997079
_cell_length_c   9.15827000
_cell_angle_alpha   90.00000000
_cell_angle_beta   90.00000000
_cell_angle_gamma   97.29199740
_symmetry_Int_Tables_number   1
_chemical_formula_structural   Pa(Al5Tc)2
_chemical_formula_sum   'Pa2 Al20 Tc4'
_cell_volume   431.24206757
_cell_formula_units_Z   2
loop_
 _symmetry_equiv_pos_site_id
 _symmetry_equiv_pos_as_xyz
  1  'x, y, z'
loop_
 _atom_site_type_symbol
 _atom_site_label
 _atom_site_symmetry_multiplicity
 _atom_site_fract_x
 _atom_site_fract_y
 _atom_site_fract_z
 _atom_site_occupancy
  Pa  Pa0  1  0.869016  0.130983  0.750000  1
  Pa  Pa1  1  0.130984  0.869017  0.250000  1
  Al  Al2  1  0.520611  0.784381  0.750000  1
  Al  Al3  1  0.784382  0.520611  0.250000  1
  Al  Al4  1  0.479389  0.215619  0.250000  1
  Al  Al5  1  0.215618  0.479389  0.750000  1
  Al  Al6  1  0.622794  0.377206  0.955538  1
  Al  Al7  1  0.377206  0.622794  0.044462  1
  Al  Al8  1  0.622794  0.377206  0.544462  1
  Al  Al9  1  0.377206  0.622794  0.455538  1
  Al  Al10  1  0.408846  0.142717  0.750000  1
  Al  Al11  1  0.142717  0.408846  0.250000  1
  Al  Al12  1  0.591154  0.857283  0.250000  1
  Al  Al13  1  0.857283  0.591154  0.750000  1
  Al  Al14  1  0.843832  0.156168  0.398397  1
  Al  Al15  1  0.156168  0.843832  0.601603  1
  Al  Al16  1  0.843832  0.156168  0.101603  1
  Al  Al17  1  0.156168  0.843832  0.898397  1
  Al  Al18  1  0.775390  0.775390  0.000000  1
  Al  Al19  1  0.775390  0.775390  0.500000  1
  Al  Al20  1  0.224610  0.224610  0.000000  1
  Al  Al21  1  0.224610  0.224610  0.500000  1
  Tc  Tc22  1  0.500000  0.000000  0.000000  1
  Tc  Tc23  1  0.000000  0.500000  0.000000  1
  Tc  Tc24  1  0.500000  0.000000  0.500000  1
  Tc  Tc25  1  0.000000  0.500000  0.500000  1
