# generated using pymatgen
data_Tb6TiP12Rh17
_symmetry_space_group_name_H-M   'P 1'
_cell_length_a   3.92994800
_cell_length_b   11.20511700
_cell_length_c   12.80085100
_cell_angle_alpha   90.00000000
_cell_angle_beta   90.00000000
_cell_angle_gamma   90.00000000
_symmetry_Int_Tables_number   1
_chemical_formula_structural   Tb6TiP12Rh17
_chemical_formula_sum   'Tb6 Ti1 P12 Rh17'
_cell_volume   563.69222168
_cell_formula_units_Z   1
loop_
 _symmetry_equiv_pos_site_id
 _symmetry_equiv_pos_as_xyz
  1  'x, y, z'
loop_
 _atom_site_type_symbol
 _atom_site_label
 _atom_site_symmetry_multiplicity
 _atom_site_fract_x
 _atom_site_fract_y
 _atom_site_fract_z
 _atom_site_occupancy
  Tb  Tb0  1  0.000000  0.500000  0.519622  1
  Tb  Tb1  1  0.500000  0.000000  0.478342  1
  Tb  Tb2  1  0.500000  0.815585  0.205572  1
  Tb  Tb3  1  0.500000  0.184415  0.205572  1
  Tb  Tb4  1  0.000000  0.682525  0.798243  1
  Tb  Tb5  1  0.000000  0.317475  0.798243  1
  Ti  Ti6  1  0.500000  0.500000  0.155608  1
  P  P7  1  0.500000  0.500000  0.877932  1
  P  P8  1  0.000000  0.000000  0.121501  1
  P  P9  1  0.500000  0.500000  0.348865  1
  P  P10  1  0.000000  0.000000  0.649781  1
  P  P11  1  0.500000  0.315023  0.618515  1
  P  P12  1  0.500000  0.684977  0.618515  1
  P  P13  1  0.000000  0.186401  0.383162  1
  P  P14  1  0.000000  0.813599  0.383162  1
  P  P15  1  0.500000  0.848410  0.890050  1
  P  P16  1  0.500000  0.151590  0.890050  1
  P  P17  1  0.000000  0.655588  0.108303  1
  P  P18  1  0.000000  0.344412  0.108303  1
  Rh  Rh19  1  0.000000  0.000000  0.831961  1
  Rh  Rh20  1  0.500000  0.500000  0.700105  1
  Rh  Rh21  1  0.000000  0.000000  0.299468  1
  Rh  Rh22  1  0.000000  0.500000  0.985206  1
  Rh  Rh23  1  0.500000  0.000000  0.020334  1
  Rh  Rh24  1  0.500000  0.331847  0.990986  1
  Rh  Rh25  1  0.500000  0.668153  0.990986  1
  Rh  Rh26  1  0.000000  0.165737  0.008465  1
  Rh  Rh27  1  0.000000  0.834263  0.008465  1
  Rh  Rh28  1  0.500000  0.291198  0.432662  1
  Rh  Rh29  1  0.500000  0.708802  0.432662  1
  Rh  Rh30  1  0.000000  0.204741  0.570200  1
  Rh  Rh31  1  0.000000  0.795259  0.570200  1
  Rh  Rh32  1  0.500000  0.873525  0.709434  1
  Rh  Rh33  1  0.500000  0.126475  0.709434  1
  Rh  Rh34  1  0.000000  0.626405  0.290045  1
  Rh  Rh35  1  0.000000  0.373595  0.290045  1
