# generated using pymatgen
data_Pa2Nb8Al4Os
_symmetry_space_group_name_H-M   'P 1'
_cell_length_a   10.00954500
_cell_length_b   10.00954500
_cell_length_c   5.40727400
_cell_angle_alpha   90.00000000
_cell_angle_beta   90.00000000
_cell_angle_gamma   90.00000000
_symmetry_Int_Tables_number   1
_chemical_formula_structural   Pa2Nb8Al4Os
_chemical_formula_sum   'Pa4 Nb16 Al8 Os2'
_cell_volume   541.76014125
_cell_formula_units_Z   2
loop_
 _symmetry_equiv_pos_site_id
 _symmetry_equiv_pos_as_xyz
  1  'x, y, z'
loop_
 _atom_site_type_symbol
 _atom_site_label
 _atom_site_symmetry_multiplicity
 _atom_site_fract_x
 _atom_site_fract_y
 _atom_site_fract_z
 _atom_site_occupancy
  Pa  Pa0  1  0.398456  0.398456  0.000000  1
  Pa  Pa1  1  0.898456  0.101544  0.500000  1
  Pa  Pa2  1  0.101544  0.898456  0.500000  1
  Pa  Pa3  1  0.601544  0.601544  0.000000  1
  Nb  Nb4  1  0.132466  0.461478  0.000000  1
  Nb  Nb5  1  0.961478  0.367534  0.500000  1
  Nb  Nb6  1  0.038522  0.632466  0.500000  1
  Nb  Nb7  1  0.867534  0.538522  0.000000  1
  Nb  Nb8  1  0.367534  0.961478  0.500000  1
  Nb  Nb9  1  0.632466  0.038522  0.500000  1
  Nb  Nb10  1  0.461478  0.132466  0.000000  1
  Nb  Nb11  1  0.538522  0.867534  0.000000  1
  Nb  Nb12  1  0.183131  0.183131  0.246185  1
  Nb  Nb13  1  0.683131  0.316869  0.746185  1
  Nb  Nb14  1  0.316869  0.683131  0.746185  1
  Nb  Nb15  1  0.816869  0.816869  0.246185  1
  Nb  Nb16  1  0.316869  0.683131  0.253815  1
  Nb  Nb17  1  0.683131  0.316869  0.253815  1
  Nb  Nb18  1  0.183131  0.183131  0.753815  1
  Nb  Nb19  1  0.816869  0.816869  0.753815  1
  Al  Al20  1  0.263569  0.936031  0.000000  1
  Al  Al21  1  0.436031  0.236431  0.500000  1
  Al  Al22  1  0.563969  0.763569  0.500000  1
  Al  Al23  1  0.736431  0.063969  0.000000  1
  Al  Al24  1  0.236431  0.436031  0.500000  1
  Al  Al25  1  0.763569  0.563969  0.500000  1
  Al  Al26  1  0.936031  0.263569  0.000000  1
  Al  Al27  1  0.063969  0.736431  0.000000  1
  Os  Os28  1  0.000000  0.000000  0.000000  1
  Os  Os29  1  0.500000  0.500000  0.500000  1
