# generated using pymatgen
data_Pr4Sn8Ir3Rh
_symmetry_space_group_name_H-M   'P 1'
_cell_length_a   8.87856797
_cell_length_b   8.87856784
_cell_length_c   9.69830000
_cell_angle_alpha   89.91256826
_cell_angle_beta   90.08743048
_cell_angle_gamma   149.26957875
_symmetry_Int_Tables_number   1
_chemical_formula_structural   Pr4Sn8Ir3Rh
_chemical_formula_sum   'Pr4 Sn8 Ir3 Rh1'
_cell_volume   390.66210791
_cell_formula_units_Z   1
loop_
 _symmetry_equiv_pos_site_id
 _symmetry_equiv_pos_as_xyz
  1  'x, y, z'
loop_
 _atom_site_type_symbol
 _atom_site_label
 _atom_site_symmetry_multiplicity
 _atom_site_fract_x
 _atom_site_fract_y
 _atom_site_fract_z
 _atom_site_occupancy
  Pr  Pr0  1  0.502278  0.497722  0.499500  1
  Pr  Pr1  1  0.499525  0.500475  0.000958  1
  Pr  Pr2  1  0.295293  0.704707  0.248958  1
  Pr  Pr3  1  0.703702  0.296298  0.749801  1
  Sn  Sn4  1  0.909308  0.090692  0.749532  1
  Sn  Sn5  1  0.923359  0.076641  0.251038  1
  Sn  Sn6  1  0.089301  0.910699  0.250205  1
  Sn  Sn7  1  0.075672  0.924328  0.749842  1
  Sn  Sn8  1  0.698242  0.301758  0.409599  1
  Sn  Sn9  1  0.303609  0.696391  0.590234  1
  Sn  Sn10  1  0.302094  0.697906  0.909549  1
  Sn  Sn11  1  0.697582  0.302418  0.089645  1
  Ir  Ir12  1  0.147514  0.852486  0.504864  1
  Ir  Ir13  1  0.852896  0.147104  0.004389  1
  Ir  Ir14  1  0.147006  0.852994  0.995562  1
  Rh  Rh15  1  0.852621  0.147379  0.496325  1
