# generated using pymatgen
data_BeNb8GaTe8
_symmetry_space_group_name_H-M   'P 1'
_cell_length_a   4.84265300
_cell_length_b   11.01054100
_cell_length_c   19.36873400
_cell_angle_alpha   90.00000000
_cell_angle_beta   90.00000000
_cell_angle_gamma   90.00000000
_symmetry_Int_Tables_number   1
_chemical_formula_structural   BeNb8GaTe8
_chemical_formula_sum   'Be2 Nb16 Ga2 Te16'
_cell_volume   1032.74534017
_cell_formula_units_Z   2
loop_
 _symmetry_equiv_pos_site_id
 _symmetry_equiv_pos_as_xyz
  1  'x, y, z'
loop_
 _atom_site_type_symbol
 _atom_site_label
 _atom_site_symmetry_multiplicity
 _atom_site_fract_x
 _atom_site_fract_y
 _atom_site_fract_z
 _atom_site_occupancy
  Be  Be0  1  0.249965  0.500000  0.500000  1
  Be  Be1  1  0.750035  0.000000  0.000000  1
  Nb  Nb2  1  0.491572  0.597686  0.608058  1
  Nb  Nb3  1  0.491572  0.402314  0.391942  1
  Nb  Nb4  1  0.508428  0.097686  0.891942  1
  Nb  Nb5  1  0.508428  0.902314  0.108058  1
  Nb  Nb6  1  0.008576  0.295814  0.462810  1
  Nb  Nb7  1  0.008576  0.704186  0.537190  1
  Nb  Nb8  1  0.991424  0.795814  0.037190  1
  Nb  Nb9  1  0.991424  0.204186  0.962810  1
  Nb  Nb10  1  0.492019  0.309308  0.555765  1
  Nb  Nb11  1  0.492019  0.690692  0.444235  1
  Nb  Nb12  1  0.507981  0.809308  0.944235  1
  Nb  Nb13  1  0.507981  0.190692  0.055765  1
  Nb  Nb14  1  0.007768  0.434505  0.615718  1
  Nb  Nb15  1  0.007768  0.565495  0.384282  1
  Nb  Nb16  1  0.992232  0.934505  0.884282  1
  Nb  Nb17  1  0.992232  0.065495  0.115718  1
  Ga  Ga18  1  0.750054  0.500000  0.500000  1
  Ga  Ga19  1  0.249946  0.000000  0.000000  1
  Te  Te20  1  0.996984  0.664965  0.682783  1
  Te  Te21  1  0.996984  0.335035  0.317217  1
  Te  Te22  1  0.003016  0.164965  0.817217  1
  Te  Te23  1  0.003016  0.835035  0.182783  1
  Te  Te24  1  0.502675  0.389378  0.695691  1
  Te  Te25  1  0.502675  0.610622  0.304309  1
  Te  Te26  1  0.497325  0.889378  0.804309  1
  Te  Te27  1  0.497325  0.110622  0.195691  1
  Te  Te28  1  0.502943  0.155073  0.437169  1
  Te  Te29  1  0.502943  0.844927  0.562831  1
  Te  Te30  1  0.497057  0.655073  0.062831  1
  Te  Te31  1  0.497057  0.344927  0.937169  1
  Te  Te32  1  0.003023  0.322173  0.094118  1
  Te  Te33  1  0.003023  0.677827  0.905882  1
  Te  Te34  1  0.996977  0.822173  0.405882  1
  Te  Te35  1  0.996977  0.177827  0.594118  1
