# generated using pymatgen
data_Tb9Y3InGaCo4
_symmetry_space_group_name_H-M   'P 1'
_cell_length_a   8.38785169
_cell_length_b   8.37463848
_cell_length_c   8.37464178
_cell_angle_alpha   111.93381430
_cell_angle_beta   109.46298743
_cell_angle_gamma   106.99453357
_symmetry_Int_Tables_number   1
_chemical_formula_structural   Tb9Y3InGaCo4
_chemical_formula_sum   'Tb9 Y3 In1 Ga1 Co4'
_cell_volume   452.35050612
_cell_formula_units_Z   1
loop_
 _symmetry_equiv_pos_site_id
 _symmetry_equiv_pos_as_xyz
  1  'x, y, z'
loop_
 _atom_site_type_symbol
 _atom_site_label
 _atom_site_symmetry_multiplicity
 _atom_site_fract_x
 _atom_site_fract_y
 _atom_site_fract_z
 _atom_site_occupancy
  Tb  Tb0  1  0.431173  0.731754  0.699418  1
  Tb  Tb1  1  0.675360  0.860861  0.186243  1
  Tb  Tb2  1  0.324877  0.510709  0.185550  1
  Tb  Tb3  1  0.324877  0.139327  0.814168  1
  Tb  Tb4  1  0.675360  0.489117  0.814499  1
  Tb  Tb5  1  0.180946  0.217610  0.398131  1
  Tb  Tb6  1  0.818922  0.217069  0.036531  1
  Tb  Tb7  1  0.180946  0.782815  0.963336  1
  Tb  Tb8  1  0.818922  0.782390  0.601853  1
  Y  Y9  1  0.034423  0.732980  0.301443  1
  Y  Y10  1  0.965470  0.266792  0.698678  1
  Y  Y11  1  0.568738  0.267315  0.301423  1
  In  In12  1  0.499987  0.000073  0.499915  1
  Ga  Ga13  1  0.999487  0.499650  0.499838  1
  Co  Co14  1  0.658021  0.500165  0.157856  1
  Co  Co15  1  0.341488  0.500755  0.840734  1
  Co  Co16  1  0.888053  0.887494  0.000558  1
  Co  Co17  1  0.112951  0.113124  0.999827  1
