# generated using pymatgen
data_Lu4PtPb2Au3
_symmetry_space_group_name_H-M   'P 1'
_cell_length_a   8.03736468
_cell_length_b   8.03736518
_cell_length_c   3.57442300
_cell_angle_alpha   90.00000000
_cell_angle_beta   90.00000000
_cell_angle_gamma   90.36145342
_symmetry_Int_Tables_number   1
_chemical_formula_structural   Lu4PtPb2Au3
_chemical_formula_sum   'Lu4 Pt1 Pb2 Au3'
_cell_volume   230.90039659
_cell_formula_units_Z   1
loop_
 _symmetry_equiv_pos_site_id
 _symmetry_equiv_pos_as_xyz
  1  'x, y, z'
loop_
 _atom_site_type_symbol
 _atom_site_label
 _atom_site_symmetry_multiplicity
 _atom_site_fract_x
 _atom_site_fract_y
 _atom_site_fract_z
 _atom_site_occupancy
  Lu  Lu0  1  0.676676  0.176676  0.500000  1
  Lu  Lu1  1  0.150436  0.329586  0.500000  1
  Lu  Lu2  1  0.829586  0.650436  0.500000  1
  Lu  Lu3  1  0.337091  0.837091  0.500000  1
  Pt  Pt4  1  0.873959  0.373959  0.000000  1
  Pb  Pb5  1  0.998712  0.998282  0.000000  1
  Pb  Pb6  1  0.498282  0.498712  0.000000  1
  Au  Au7  1  0.375203  0.130410  0.000000  1
  Au  Au8  1  0.129645  0.629645  0.000000  1
  Au  Au9  1  0.630410  0.875203  0.000000  1
