# generated using pymatgen
data_Ho8Al3Si8Hg
_symmetry_space_group_name_H-M   'P 1'
_cell_length_a   5.58129792
_cell_length_b   5.58129791
_cell_length_c   19.28978955
_cell_angle_alpha   83.86070506
_cell_angle_beta   83.86070436
_cell_angle_gamma   43.14547611
_symmetry_Int_Tables_number   1
_chemical_formula_structural   Ho8Al3Si8Hg
_chemical_formula_sum   'Ho8 Al3 Si8 Hg1'
_cell_volume   408.19689677
_cell_formula_units_Z   1
loop_
 _symmetry_equiv_pos_site_id
 _symmetry_equiv_pos_as_xyz
  1  'x, y, z'
loop_
 _atom_site_type_symbol
 _atom_site_label
 _atom_site_symmetry_multiplicity
 _atom_site_fract_x
 _atom_site_fract_y
 _atom_site_fract_z
 _atom_site_occupancy
  Ho  Ho0  1  0.463087  0.463087  0.676281  1
  Ho  Ho1  1  0.713185  0.713185  0.925899  1
  Ho  Ho2  1  0.973195  0.973195  0.180648  1
  Ho  Ho3  1  0.219236  0.219236  0.428305  1
  Ho  Ho4  1  0.780764  0.780764  0.571695  1
  Ho  Ho5  1  0.026805  0.026805  0.819352  1
  Ho  Ho6  1  0.286815  0.286815  0.074101  1
  Ho  Ho7  1  0.536913  0.536913  0.323719  1
  Al  Al8  1  0.256313  0.256313  0.251925  1
  Al  Al9  1  0.500000  0.500000  0.500000  1
  Al  Al10  1  0.743687  0.743687  0.748075  1
  Si  Si11  1  0.174549  0.174549  0.676235  1
  Si  Si12  1  0.420197  0.420197  0.922197  1
  Si  Si13  1  0.685582  0.685582  0.180256  1
  Si  Si14  1  0.929844  0.929844  0.428082  1
  Si  Si15  1  0.070156  0.070156  0.571918  1
  Si  Si16  1  0.314418  0.314418  0.819744  1
  Si  Si17  1  0.579803  0.579803  0.077803  1
  Si  Si18  1  0.825451  0.825451  0.323765  1
  Hg  Hg19  1  0.000000  0.000000  0.000000  1
