# generated using pymatgen
data_Ca20Zn8Cd3Ga
_symmetry_space_group_name_H-M   'P 1'
_cell_length_a   8.01805100
_cell_length_b   8.01805100
_cell_length_c   15.15818200
_cell_angle_alpha   90.00000000
_cell_angle_beta   90.00000000
_cell_angle_gamma   90.00000000
_symmetry_Int_Tables_number   1
_chemical_formula_structural   Ca20Zn8Cd3Ga
_chemical_formula_sum   'Ca20 Zn8 Cd3 Ga1'
_cell_volume   974.50651261
_cell_formula_units_Z   1
loop_
 _symmetry_equiv_pos_site_id
 _symmetry_equiv_pos_as_xyz
  1  'x, y, z'
loop_
 _atom_site_type_symbol
 _atom_site_label
 _atom_site_symmetry_multiplicity
 _atom_site_fract_x
 _atom_site_fract_y
 _atom_site_fract_z
 _atom_site_occupancy
  Ca  Ca0  1  0.678006  0.164797  0.102301  1
  Ca  Ca1  1  0.168943  0.671294  0.606403  1
  Ca  Ca2  1  0.321994  0.835203  0.102301  1
  Ca  Ca3  1  0.831057  0.328706  0.606403  1
  Ca  Ca4  1  0.835203  0.678006  0.102301  1
  Ca  Ca5  1  0.328706  0.168943  0.606403  1
  Ca  Ca6  1  0.164797  0.321994  0.102301  1
  Ca  Ca7  1  0.671294  0.831057  0.606403  1
  Ca  Ca8  1  0.835203  0.321994  0.897699  1
  Ca  Ca9  1  0.328706  0.831057  0.393597  1
  Ca  Ca10  1  0.164797  0.678006  0.897699  1
  Ca  Ca11  1  0.671294  0.168943  0.393597  1
  Ca  Ca12  1  0.678006  0.835203  0.897699  1
  Ca  Ca13  1  0.168943  0.328706  0.393597  1
  Ca  Ca14  1  0.321994  0.164797  0.897699  1
  Ca  Ca15  1  0.831057  0.671294  0.393597  1
  Ca  Ca16  1  0.500000  0.500000  0.755068  1
  Ca  Ca17  1  0.000000  0.000000  0.248203  1
  Ca  Ca18  1  0.000000  0.000000  0.751797  1
  Ca  Ca19  1  0.500000  0.500000  0.244932  1
  Zn  Zn20  1  0.617434  0.118709  0.750991  1
  Zn  Zn21  1  0.118709  0.617434  0.249009  1
  Zn  Zn22  1  0.881291  0.382566  0.249009  1
  Zn  Zn23  1  0.382566  0.881291  0.750991  1
  Zn  Zn24  1  0.881291  0.617434  0.750991  1
  Zn  Zn25  1  0.382566  0.118709  0.249009  1
  Zn  Zn26  1  0.118709  0.382566  0.750991  1
  Zn  Zn27  1  0.617434  0.881291  0.249009  1
  Cd  Cd28  1  0.500000  0.500000  0.500000  1
  Cd  Cd29  1  0.500000  0.500000  0.000000  1
  Cd  Cd30  1  0.000000  0.000000  0.500000  1
  Ga  Ga31  1  0.000000  0.000000  0.000000  1
