# generated using pymatgen
data_Tb5YHo10(CdPt)4
_symmetry_space_group_name_H-M   'P 1'
_cell_length_a   9.67045806
_cell_length_b   9.67045839
_cell_length_c   9.66622400
_cell_angle_alpha   60.01449037
_cell_angle_beta   60.01448923
_cell_angle_gamma   60.05138353
_symmetry_Int_Tables_number   1
_chemical_formula_structural   Tb5YHo10(CdPt)4
_chemical_formula_sum   'Tb5 Y1 Ho10 Cd4 Pt4'
_cell_volume   639.58679008
_cell_formula_units_Z   1
loop_
 _symmetry_equiv_pos_site_id
 _symmetry_equiv_pos_as_xyz
  1  'x, y, z'
loop_
 _atom_site_type_symbol
 _atom_site_label
 _atom_site_symmetry_multiplicity
 _atom_site_fract_x
 _atom_site_fract_y
 _atom_site_fract_z
 _atom_site_occupancy
  Tb  Tb0  1  0.936250  0.563732  0.564169  1
  Tb  Tb1  1  0.563732  0.936250  0.935849  1
  Tb  Tb2  1  0.563732  0.936250  0.564169  1
  Tb  Tb3  1  0.936250  0.563732  0.935849  1
  Tb  Tb4  1  0.564390  0.564390  0.935610  1
  Y  Y5  1  0.936403  0.936403  0.563597  1
  Ho  Ho6  1  0.352158  0.352158  0.351263  1
  Ho  Ho7  1  0.352158  0.352158  0.944422  1
  Ho  Ho8  1  0.352979  0.942576  0.352223  1
  Ho  Ho9  1  0.942576  0.352979  0.352223  1
  Ho  Ho10  1  0.811023  0.189046  0.189362  1
  Ho  Ho11  1  0.189046  0.811023  0.810570  1
  Ho  Ho12  1  0.189046  0.811023  0.189362  1
  Ho  Ho13  1  0.811023  0.189046  0.810570  1
  Ho  Ho14  1  0.189491  0.189491  0.810509  1
  Ho  Ho15  1  0.811015  0.811015  0.188985  1
  Cd  Cd16  1  0.581406  0.581406  0.581765  1
  Cd  Cd17  1  0.581406  0.581406  0.255423  1
  Cd  Cd18  1  0.581673  0.254842  0.581742  1
  Cd  Cd19  1  0.254842  0.581673  0.581742  1
  Pt  Pt20  1  0.143147  0.143147  0.144157  1
  Pt  Pt21  1  0.143147  0.143147  0.569551  1
  Pt  Pt22  1  0.142773  0.570339  0.143445  1
  Pt  Pt23  1  0.570339  0.142773  0.143445  1
