# generated using pymatgen
data_Y4BiPd15
_symmetry_space_group_name_H-M   'P 1'
_cell_length_a   4.14623000
_cell_length_b   4.14623000
_cell_length_c   20.70412000
_cell_angle_alpha   90.00000000
_cell_angle_beta   90.00000000
_cell_angle_gamma   90.00000000
_symmetry_Int_Tables_number   1
_chemical_formula_structural   Y4BiPd15
_chemical_formula_sum   'Y4 Bi1 Pd15'
_cell_volume   355.92914835
_cell_formula_units_Z   1
loop_
 _symmetry_equiv_pos_site_id
 _symmetry_equiv_pos_as_xyz
  1  'x, y, z'
loop_
 _atom_site_type_symbol
 _atom_site_label
 _atom_site_symmetry_multiplicity
 _atom_site_fract_x
 _atom_site_fract_y
 _atom_site_fract_z
 _atom_site_occupancy
  Y  Y0  1  0.000000  0.000000  0.201626  1
  Y  Y1  1  0.000000  0.000000  0.400428  1
  Y  Y2  1  0.000000  0.000000  0.599572  1
  Y  Y3  1  0.000000  0.000000  0.798374  1
  Bi  Bi4  1  0.000000  0.000000  0.000000  1
  Pd  Pd5  1  0.500000  0.500000  0.000000  1
  Pd  Pd6  1  0.500000  0.500000  0.197333  1
  Pd  Pd7  1  0.500000  0.500000  0.399624  1
  Pd  Pd8  1  0.500000  0.500000  0.600376  1
  Pd  Pd9  1  0.500000  0.500000  0.802667  1
  Pd  Pd10  1  0.500000  0.000000  0.099116  1
  Pd  Pd11  1  0.500000  0.000000  0.299716  1
  Pd  Pd12  1  0.500000  0.000000  0.500000  1
  Pd  Pd13  1  0.500000  0.000000  0.700284  1
  Pd  Pd14  1  0.500000  0.000000  0.900884  1
  Pd  Pd15  1  0.000000  0.500000  0.099116  1
  Pd  Pd16  1  0.000000  0.500000  0.299716  1
  Pd  Pd17  1  0.000000  0.500000  0.500000  1
  Pd  Pd18  1  0.000000  0.500000  0.700284  1
  Pd  Pd19  1  0.000000  0.500000  0.900884  1
