# generated using pymatgen
data_Li2ThSe3
_symmetry_space_group_name_H-M   'P 1'
_cell_length_a   7.18916434
_cell_length_b   7.18916448
_cell_length_c   6.90407084
_cell_angle_alpha   79.96190473
_cell_angle_beta   79.96190196
_cell_angle_gamma   119.92337647
_symmetry_Int_Tables_number   1
_chemical_formula_structural   Li2ThSe3
_chemical_formula_sum   'Li4 Th2 Se6'
_cell_volume   289.90878922
_cell_formula_units_Z   2
loop_
 _symmetry_equiv_pos_site_id
 _symmetry_equiv_pos_as_xyz
  1  'x, y, z'
loop_
 _atom_site_type_symbol
 _atom_site_label
 _atom_site_symmetry_multiplicity
 _atom_site_fract_x
 _atom_site_fract_y
 _atom_site_fract_z
 _atom_site_occupancy
  Li  Li0  1  0.000000  0.000000  0.000000  1
  Li  Li1  1  0.500000  0.500000  0.500000  1
  Li  Li2  1  0.833843  0.166157  0.500000  1
  Li  Li3  1  0.166157  0.833843  0.500000  1
  Th  Th4  1  0.666716  0.333284  0.000000  1
  Th  Th5  1  0.333284  0.666716  0.000000  1
  Se  Se6  1  0.250790  0.250790  0.258096  1
  Se  Se7  1  0.420248  0.085056  0.745784  1
  Se  Se8  1  0.085056  0.420248  0.745784  1
  Se  Se9  1  0.749210  0.749210  0.741904  1
  Se  Se10  1  0.579752  0.914944  0.254216  1
  Se  Se11  1  0.914944  0.579752  0.254216  1
