# generated using pymatgen
data_Zr8Nb12Si15Pd
_symmetry_space_group_name_H-M   'P 1'
_cell_length_a   6.93268569
_cell_length_b   6.91003353
_cell_length_c   12.78326224
_cell_angle_alpha   89.89032263
_cell_angle_beta   89.75888399
_cell_angle_gamma   89.96159072
_symmetry_Int_Tables_number   1
_chemical_formula_structural   Zr8Nb12Si15Pd
_chemical_formula_sum   'Zr8 Nb12 Si15 Pd1'
_cell_volume   612.37665739
_cell_formula_units_Z   1
loop_
 _symmetry_equiv_pos_site_id
 _symmetry_equiv_pos_as_xyz
  1  'x, y, z'
loop_
 _atom_site_type_symbol
 _atom_site_label
 _atom_site_symmetry_multiplicity
 _atom_site_fract_x
 _atom_site_fract_y
 _atom_site_fract_z
 _atom_site_occupancy
  Zr  Zr0  1  0.000854  0.659124  0.031328  1
  Zr  Zr1  1  0.996537  0.333259  0.532413  1
  Zr  Zr2  1  0.659355  0.999975  0.969413  1
  Zr  Zr3  1  0.157542  0.498746  0.783202  1
  Zr  Zr4  1  0.836782  0.496103  0.278281  1
  Zr  Zr5  1  0.498553  0.156542  0.216111  1
  Zr  Zr6  1  0.499763  0.842575  0.717741  1
  Zr  Zr7  1  0.349885  0.004512  0.468752  1
  Nb  Nb8  1  0.356516  0.500719  0.373654  1
  Nb  Nb9  1  0.840221  0.001651  0.369876  1
  Nb  Nb10  1  0.004206  0.153310  0.126280  1
  Nb  Nb11  1  0.995478  0.849351  0.632072  1
  Nb  Nb12  1  0.651695  0.494842  0.876453  1
  Nb  Nb13  1  0.503263  0.349317  0.624043  1
  Nb  Nb14  1  0.495559  0.652582  0.122657  1
  Nb  Nb15  1  0.151556  0.004619  0.873776  1
  Nb  Nb16  1  0.665030  0.672120  0.501777  1
  Nb  Nb17  1  0.829725  0.169707  0.750175  1
  Nb  Nb18  1  0.171070  0.831918  0.248512  1
  Nb  Nb19  1  0.328707  0.330142  0.000373  1
  Si  Si20  1  0.954418  0.297643  0.937022  1
  Si  Si21  1  0.706826  0.044790  0.562554  1
  Si  Si22  1  0.200919  0.455364  0.187965  1
  Si  Si23  1  0.798783  0.545336  0.685780  1
  Si  Si24  1  0.455022  0.202146  0.813546  1
  Si  Si25  1  0.545246  0.796780  0.313326  1
  Si  Si26  1  0.297225  0.954929  0.062681  1
  Si  Si27  1  0.863156  0.791615  0.823735  1
  Si  Si28  1  0.135962  0.207154  0.324843  1
  Si  Si29  1  0.792229  0.863785  0.176797  1
  Si  Si30  1  0.291821  0.637854  0.571062  1
  Si  Si31  1  0.707646  0.365307  0.072287  1
  Si  Si32  1  0.637667  0.294007  0.428519  1
  Si  Si33  1  0.364580  0.708100  0.926958  1
  Si  Si34  1  0.209585  0.135811  0.677452  1
  Pd  Pd35  1  0.046617  0.698268  0.438586  1
