# generated using pymatgen
data_Tb9Er3InGaNi4
_symmetry_space_group_name_H-M   'P 1'
_cell_length_a   8.38380366
_cell_length_b   8.38174288
_cell_length_c   8.38380368
_cell_angle_alpha   113.73840768
_cell_angle_beta   109.40249847
_cell_angle_gamma   105.39074693
_symmetry_Int_Tables_number   1
_chemical_formula_structural   Tb9Er3InGaNi4
_chemical_formula_sum   'Tb9 Er3 In1 Ga1 Ni4'
_cell_volume   451.05129883
_cell_formula_units_Z   1
loop_
 _symmetry_equiv_pos_site_id
 _symmetry_equiv_pos_as_xyz
  1  'x, y, z'
loop_
 _atom_site_type_symbol
 _atom_site_label
 _atom_site_symmetry_multiplicity
 _atom_site_fract_x
 _atom_site_fract_y
 _atom_site_fract_z
 _atom_site_occupancy
  Tb  Tb0  1  0.425634  0.228504  0.196068  1
  Tb  Tb1  1  0.575107  0.771174  0.804835  1
  Tb  Tb2  1  0.032436  0.228504  0.802869  1
  Tb  Tb3  1  0.966339  0.771174  0.196067  1
  Tb  Tb4  1  0.181094  0.289744  0.471782  1
  Tb  Tb5  1  0.819479  0.709879  0.528877  1
  Tb  Tb6  1  0.181002  0.709879  0.890400  1
  Tb  Tb7  1  0.817961  0.289744  0.108650  1
  Tb  Tb8  1  0.324375  0.634186  0.309813  1
  Er  Er9  1  0.675068  0.363721  0.688651  1
  Er  Er10  1  0.325376  0.014932  0.689556  1
  Er  Er11  1  0.675076  0.985903  0.310827  1
  In  In12  1  0.500350  0.499768  0.999417  1
  Ga  Ga13  1  0.000336  0.000365  0.000027  1
  Ni  Ni14  1  0.352970  0.001307  0.353173  1
  Ni  Ni15  1  0.648136  0.001307  0.648337  1
  Ni  Ni16  1  0.123126  0.624075  0.500949  1
  Ni  Ni17  1  0.876137  0.375837  0.499701  1
