# generated using pymatgen
data_DyThSe3
_symmetry_space_group_name_H-M   'P 1'
_cell_length_a   11.23527300
_cell_length_b   4.08413000
_cell_length_c   11.04624000
_cell_angle_alpha   90.00000000
_cell_angle_beta   90.00000000
_cell_angle_gamma   90.00000000
_symmetry_Int_Tables_number   1
_chemical_formula_structural   DyThSe3
_chemical_formula_sum   'Dy4 Th4 Se12'
_cell_volume   506.87125392
_cell_formula_units_Z   4
loop_
 _symmetry_equiv_pos_site_id
 _symmetry_equiv_pos_as_xyz
  1  'x, y, z'
loop_
 _atom_site_type_symbol
 _atom_site_label
 _atom_site_symmetry_multiplicity
 _atom_site_fract_x
 _atom_site_fract_y
 _atom_site_fract_z
 _atom_site_occupancy
  Dy  Dy0  1  0.482802  0.250000  0.186957  1
  Dy  Dy1  1  0.982802  0.250000  0.313043  1
  Dy  Dy2  1  0.517198  0.750000  0.813043  1
  Dy  Dy3  1  0.017198  0.750000  0.686957  1
  Th  Th4  1  0.697937  0.750000  0.497717  1
  Th  Th5  1  0.197937  0.750000  0.002283  1
  Th  Th6  1  0.302063  0.250000  0.502283  1
  Th  Th7  1  0.802063  0.250000  0.997717  1
  Se  Se8  1  0.546916  0.250000  0.627302  1
  Se  Se9  1  0.046916  0.250000  0.872698  1
  Se  Se10  1  0.453084  0.750000  0.372698  1
  Se  Se11  1  0.953084  0.750000  0.127302  1
  Se  Se12  1  0.615958  0.750000  0.054818  1
  Se  Se13  1  0.115958  0.750000  0.445182  1
  Se  Se14  1  0.384042  0.250000  0.945182  1
  Se  Se15  1  0.884042  0.250000  0.554818  1
  Se  Se16  1  0.724307  0.250000  0.295453  1
  Se  Se17  1  0.224307  0.250000  0.204547  1
  Se  Se18  1  0.275693  0.750000  0.704547  1
  Se  Se19  1  0.775693  0.750000  0.795453  1
