# generated using pymatgen
data_Pr6Zn(SiSe7)2
_symmetry_space_group_name_H-M   'P 1'
_cell_length_a   10.73567800
_cell_length_b   10.73567774
_cell_length_c   6.05256500
_cell_angle_alpha   90.00000000
_cell_angle_beta   90.00000000
_cell_angle_gamma   120.00000696
_symmetry_Int_Tables_number   1
_chemical_formula_structural   Pr6Zn(SiSe7)2
_chemical_formula_sum   'Pr6 Zn1 Si2 Se14'
_cell_volume   604.12805876
_cell_formula_units_Z   1
loop_
 _symmetry_equiv_pos_site_id
 _symmetry_equiv_pos_as_xyz
  1  'x, y, z'
loop_
 _atom_site_type_symbol
 _atom_site_label
 _atom_site_symmetry_multiplicity
 _atom_site_fract_x
 _atom_site_fract_y
 _atom_site_fract_z
 _atom_site_occupancy
  Pr  Pr0  1  0.311635  0.101941  0.749998  1
  Pr  Pr1  1  0.790305  0.688365  0.749998  1
  Pr  Pr2  1  0.898059  0.209695  0.749998  1
  Pr  Pr3  1  0.022296  0.564667  0.249856  1
  Pr  Pr4  1  0.542371  0.977704  0.249856  1
  Pr  Pr5  1  0.435333  0.457629  0.249856  1
  Zn  Zn6  1  0.666667  0.333333  0.508755  1
  Si  Si7  1  0.000000  0.000000  0.164720  1
  Si  Si8  1  0.333333  0.666667  0.660481  1
  Se  Se9  1  0.000000  0.000000  0.538018  1
  Se  Se10  1  0.333333  0.666667  0.034287  1
  Se  Se11  1  0.419528  0.172937  0.276763  1
  Se  Se12  1  0.753409  0.580472  0.276763  1
  Se  Se13  1  0.827063  0.246591  0.276763  1
  Se  Se14  1  0.915139  0.497063  0.755441  1
  Se  Se15  1  0.581924  0.084861  0.755441  1
  Se  Se16  1  0.502937  0.418076  0.755441  1
  Se  Se17  1  0.146723  0.224986  0.015319  1
  Se  Se18  1  0.078262  0.853277  0.015319  1
  Se  Se19  1  0.775014  0.921738  0.015319  1
  Se  Se20  1  0.187137  0.441448  0.511878  1
  Se  Se21  1  0.254311  0.812863  0.511878  1
  Se  Se22  1  0.558552  0.745689  0.511878  1
