# generated using pymatgen
data_Nd2Si5(PRh6)2
_symmetry_space_group_name_H-M   'P 1'
_cell_length_a   9.74928979
_cell_length_b   9.75168867
_cell_length_c   3.86949400
_cell_angle_alpha   90.03435389
_cell_angle_beta   89.90018637
_cell_angle_gamma   119.78715993
_symmetry_Int_Tables_number   1
_chemical_formula_structural   Nd2Si5(PRh6)2
_chemical_formula_sum   'Nd2 Si5 P2 Rh12'
_cell_volume   319.27461267
_cell_formula_units_Z   1
loop_
 _symmetry_equiv_pos_site_id
 _symmetry_equiv_pos_as_xyz
  1  'x, y, z'
loop_
 _atom_site_type_symbol
 _atom_site_label
 _atom_site_symmetry_multiplicity
 _atom_site_fract_x
 _atom_site_fract_y
 _atom_site_fract_z
 _atom_site_occupancy
  Nd  Nd0  1  0.333617  0.667579  0.745937  1
  Nd  Nd1  1  0.668792  0.333994  0.245344  1
  Si  Si2  1  0.996299  0.999387  0.690034  1
  Si  Si3  1  0.890785  0.603101  0.745517  1
  Si  Si4  1  0.398902  0.287798  0.746315  1
  Si  Si5  1  0.714217  0.111206  0.745466  1
  Si  Si6  1  0.106722  0.398258  0.245468  1
  P  P7  1  0.599459  0.707315  0.244411  1
  P  P8  1  0.291209  0.892579  0.244938  1
  Rh  Rh9  1  0.621388  0.556378  0.745968  1
  Rh  Rh10  1  0.444274  0.063380  0.746603  1
  Rh  Rh11  1  0.937615  0.379971  0.745795  1
  Rh  Rh12  1  0.385244  0.442694  0.245052  1
  Rh  Rh13  1  0.556050  0.940019  0.244573  1
  Rh  Rh14  1  0.060156  0.621743  0.244557  1
  Rh  Rh15  1  0.124477  0.853681  0.744749  1
  Rh  Rh16  1  0.148783  0.270589  0.745038  1
  Rh  Rh17  1  0.722242  0.872740  0.744169  1
  Rh  Rh18  1  0.886977  0.132876  0.247670  1
  Rh  Rh19  1  0.859783  0.753241  0.247419  1
  Rh  Rh20  1  0.253009  0.111469  0.249260  1
