# generated using pymatgen
data_Tb2DyErSbRh3O14
_symmetry_space_group_name_H-M   'P 1'
_cell_length_a   7.31172614
_cell_length_b   7.31691458
_cell_length_c   7.31425985
_cell_angle_alpha   59.06052520
_cell_angle_beta   59.08396705
_cell_angle_gamma   59.11091045
_symmetry_Int_Tables_number   1
_chemical_formula_structural   Tb2DyErSbRh3O14
_chemical_formula_sum   'Tb2 Dy1 Er1 Sb1 Rh3 O14'
_cell_volume   270.92479016
_cell_formula_units_Z   1
loop_
 _symmetry_equiv_pos_site_id
 _symmetry_equiv_pos_as_xyz
  1  'x, y, z'
loop_
 _atom_site_type_symbol
 _atom_site_label
 _atom_site_symmetry_multiplicity
 _atom_site_fract_x
 _atom_site_fract_y
 _atom_site_fract_z
 _atom_site_occupancy
  Tb  Tb0  1  0.125000  0.125000  0.625000  1
  Tb  Tb1  1  0.125000  0.125000  0.125000  1
  Dy  Dy2  1  0.125000  0.625000  0.125000  1
  Er  Er3  1  0.625000  0.125000  0.125000  1
  Sb  Sb4  1  0.625000  0.625000  0.625000  1
  Rh  Rh5  1  0.125000  0.625000  0.625000  1
  Rh  Rh6  1  0.625000  0.125000  0.625000  1
  Rh  Rh7  1  0.625000  0.625000  0.125000  1
  O  O8  1  0.289635  0.711220  0.712235  1
  O  O9  1  0.544344  0.963496  0.963197  1
  O  O10  1  0.710086  0.289607  0.713256  1
  O  O11  1  0.287015  0.286541  0.707613  1
  O  O12  1  0.710625  0.712833  0.289694  1
  O  O13  1  0.996657  0.000666  0.002735  1
  O  O14  1  0.286851  0.707082  0.286638  1
  O  O15  1  0.963149  0.542918  0.963362  1
  O  O16  1  0.962985  0.963459  0.542387  1
  O  O17  1  0.539375  0.537167  0.960306  1
  O  O18  1  0.253343  0.249334  0.247265  1
  O  O19  1  0.539914  0.960393  0.536744  1
  O  O20  1  0.705656  0.286504  0.286803  1
  O  O21  1  0.960365  0.538780  0.537765  1
