# generated using pymatgen
data_Er10Tl4In4IrPd3
_symmetry_space_group_name_H-M   'P 1'
_cell_length_a   3.59600200
_cell_length_b   8.15074837
_cell_length_c   18.25577809
_cell_angle_alpha   89.98843906
_cell_angle_beta   90.00000000
_cell_angle_gamma   90.00000000
_symmetry_Int_Tables_number   1
_chemical_formula_structural   Er10Tl4In4IrPd3
_chemical_formula_sum   'Er10 Tl4 In4 Ir1 Pd3'
_cell_volume   535.07880642
_cell_formula_units_Z   1
loop_
 _symmetry_equiv_pos_site_id
 _symmetry_equiv_pos_as_xyz
  1  'x, y, z'
loop_
 _atom_site_type_symbol
 _atom_site_label
 _atom_site_symmetry_multiplicity
 _atom_site_fract_x
 _atom_site_fract_y
 _atom_site_fract_z
 _atom_site_occupancy
  Er  Er0  1  0.000000  0.500193  0.500109  1
  Er  Er1  1  0.000000  0.999425  0.000479  1
  Er  Er2  1  0.000000  0.730371  0.278849  1
  Er  Er3  1  0.000000  0.258198  0.718404  1
  Er  Er4  1  0.000000  0.758098  0.781077  1
  Er  Er5  1  0.000000  0.258310  0.218874  1
  Er  Er6  1  0.000000  0.614746  0.088914  1
  Er  Er7  1  0.000000  0.382604  0.914205  1
  Er  Er8  1  0.000000  0.883208  0.585350  1
  Er  Er9  1  0.000000  0.115593  0.413225  1
  Tl  Tl10  1  0.500000  0.708264  0.934327  1
  Tl  Tl11  1  0.500000  0.290391  0.065659  1
  Tl  Tl12  1  0.500000  0.791287  0.433489  1
  Tl  Tl13  1  0.500000  0.208406  0.565631  1
  In  In14  1  0.500000  0.582164  0.650195  1
  In  In15  1  0.500000  0.417893  0.350786  1
  In  In16  1  0.500000  0.920766  0.151358  1
  In  In17  1  0.500000  0.081481  0.849463  1
  Ir  Ir18  1  0.500000  0.527847  0.197764  1
  Pd  Pd19  1  0.500000  0.470974  0.802177  1
  Pd  Pd20  1  0.500000  0.970878  0.697841  1
  Pd  Pd21  1  0.500000  0.028905  0.301824  1
