# generated using pymatgen
data_Ca7TaAs2N9
_symmetry_space_group_name_H-M   'P 1'
_cell_length_a   5.96755154
_cell_length_b   10.17787900
_cell_length_c   9.20619432
_cell_angle_alpha   90.00000000
_cell_angle_beta   88.01269566
_cell_angle_gamma   90.00000000
_symmetry_Int_Tables_number   1
_chemical_formula_structural   Ca7TaAs2N9
_chemical_formula_sum   'Ca14 Ta2 As4 N18'
_cell_volume   558.82047231
_cell_formula_units_Z   2
loop_
 _symmetry_equiv_pos_site_id
 _symmetry_equiv_pos_as_xyz
  1  'x, y, z'
loop_
 _atom_site_type_symbol
 _atom_site_label
 _atom_site_symmetry_multiplicity
 _atom_site_fract_x
 _atom_site_fract_y
 _atom_site_fract_z
 _atom_site_occupancy
  Ca  Ca0  1  0.078333  0.409845  0.169936  1
  Ca  Ca1  1  0.921667  0.909844  0.830064  1
  Ca  Ca2  1  0.921667  0.590156  0.830064  1
  Ca  Ca3  1  0.078333  0.090156  0.169936  1
  Ca  Ca4  1  0.238783  0.923145  0.487143  1
  Ca  Ca5  1  0.761217  0.423145  0.512857  1
  Ca  Ca6  1  0.761217  0.076855  0.512857  1
  Ca  Ca7  1  0.238783  0.576855  0.487143  1
  Ca  Ca8  1  0.584968  0.934212  0.178188  1
  Ca  Ca9  1  0.415032  0.434212  0.821812  1
  Ca  Ca10  1  0.415032  0.065788  0.821812  1
  Ca  Ca11  1  0.584968  0.565788  0.178188  1
  Ca  Ca12  1  0.940232  0.250000  0.822799  1
  Ca  Ca13  1  0.059768  0.750000  0.177201  1
  Ta  Ta14  1  0.272430  0.250000  0.553961  1
  Ta  Ta15  1  0.727570  0.750000  0.446039  1
  As  As16  1  0.566153  0.250000  0.292947  1
  As  As17  1  0.433847  0.750000  0.707053  1
  As  As18  1  0.581689  0.250000  0.036565  1
  As  As19  1  0.418311  0.750000  0.963435  1
  N  N20  1  0.109915  0.399597  0.650596  1
  N  N21  1  0.890085  0.899597  0.349404  1
  N  N22  1  0.890085  0.600403  0.349404  1
  N  N23  1  0.109915  0.100403  0.650596  1
  N  N24  1  0.260052  0.901998  0.013669  1
  N  N25  1  0.739948  0.401998  0.986331  1
  N  N26  1  0.739948  0.098002  0.986331  1
  N  N27  1  0.260052  0.598002  0.013669  1
  N  N28  1  0.399309  0.390546  0.359145  1
  N  N29  1  0.600691  0.890546  0.640855  1
  N  N30  1  0.600691  0.609454  0.640855  1
  N  N31  1  0.399309  0.109454  0.359145  1
  N  N32  1  0.282304  0.250000  0.991605  1
  N  N33  1  0.717696  0.750000  0.008395  1
  N  N34  1  0.546102  0.250000  0.657519  1
  N  N35  1  0.453898  0.750000  0.342481  1
  N  N36  1  0.863918  0.250000  0.331059  1
  N  N37  1  0.136082  0.750000  0.668941  1
