# generated using pymatgen
data_LiTh4Ir13
_symmetry_space_group_name_H-M   'P 1'
_cell_length_a   5.37310034
_cell_length_b   5.37310091
_cell_length_c   13.49153580
_cell_angle_alpha   78.51398970
_cell_angle_beta   78.51398999
_cell_angle_gamma   59.99999383
_symmetry_Int_Tables_number   1
_chemical_formula_structural   LiTh4Ir13
_chemical_formula_sum   'Li1 Th4 Ir13'
_cell_volume   328.28181409
_cell_formula_units_Z   1
loop_
 _symmetry_equiv_pos_site_id
 _symmetry_equiv_pos_as_xyz
  1  'x, y, z'
loop_
 _atom_site_type_symbol
 _atom_site_label
 _atom_site_symmetry_multiplicity
 _atom_site_fract_x
 _atom_site_fract_y
 _atom_site_fract_z
 _atom_site_occupancy
  Li  Li0  1  0.389709  0.389709  0.830872  1
  Th  Th1  1  0.948389  0.948389  0.154833  1
  Th  Th2  1  0.047656  0.047656  0.857032  1
  Th  Th3  1  0.851591  0.851591  0.445228  1
  Th  Th4  1  0.145846  0.145846  0.562462  1
  Ir  Ir5  1  0.389631  0.389631  0.328360  1
  Ir  Ir6  1  0.892379  0.389631  0.328360  1
  Ir  Ir7  1  0.389631  0.892379  0.328360  1
  Ir  Ir8  1  0.609192  0.609192  0.670414  1
  Ir  Ir9  1  0.111201  0.609192  0.670414  1
  Ir  Ir10  1  0.609192  0.111201  0.670414  1
  Ir  Ir11  1  0.000141  0.500842  0.998175  1
  Ir  Ir12  1  0.500842  0.000141  0.998175  1
  Ir  Ir13  1  0.500842  0.500842  0.998175  1
  Ir  Ir14  1  0.722855  0.722855  0.831434  1
  Ir  Ir15  1  0.279087  0.279087  0.162739  1
  Ir  Ir16  1  0.611968  0.611968  0.164099  1
  Ir  Ir17  1  0.499849  0.499849  0.500455  1
