# generated using pymatgen
data_La6PuO11F
_symmetry_space_group_name_H-M   'P 1'
_cell_length_a   6.95241481
_cell_length_b   6.93022096
_cell_length_c   6.92184400
_cell_angle_alpha   98.98297959
_cell_angle_beta   98.86005623
_cell_angle_gamma   98.96847949
_symmetry_Int_Tables_number   1
_chemical_formula_structural   La6PuO11F
_chemical_formula_sum   'La6 Pu1 O11 F1'
_cell_volume   319.90529104
_cell_formula_units_Z   1
loop_
 _symmetry_equiv_pos_site_id
 _symmetry_equiv_pos_as_xyz
  1  'x, y, z'
loop_
 _atom_site_type_symbol
 _atom_site_label
 _atom_site_symmetry_multiplicity
 _atom_site_fract_x
 _atom_site_fract_y
 _atom_site_fract_z
 _atom_site_occupancy
  La  La0  1  0.307191  0.606678  0.147793  1
  La  La1  1  0.612388  0.133478  0.282391  1
  La  La2  1  0.394269  0.846850  0.703009  1
  La  La3  1  0.703470  0.402572  0.868104  1
  La  La4  1  0.856004  0.695001  0.397609  1
  La  La5  1  0.126734  0.309984  0.607136  1
  Pu  Pu6  1  0.003247  0.001381  0.998484  1
  O  O7  1  0.930179  0.700951  0.046059  1
  O  O8  1  0.173824  0.591408  0.441855  1
  O  O9  1  0.817545  0.402248  0.563414  1
  O  O10  1  0.564032  0.829195  0.415616  1
  O  O11  1  0.592836  0.439521  0.179768  1
  O  O12  1  0.408145  0.554704  0.819331  1
  O  O13  1  0.958218  0.071268  0.297281  1
  O  O14  1  0.051308  0.935128  0.700901  1
  O  O15  1  0.693641  0.056460  0.932789  1
  O  O16  1  0.066966  0.302379  0.953854  1
  O  O17  1  0.308857  0.944065  0.064604  1
  F  F18  1  0.431145  0.176729  0.580000  1
