# generated using pymatgen
data_TbDy11AlCo4Sn
_symmetry_space_group_name_H-M   'P 1'
_cell_length_a   8.33554717
_cell_length_b   8.33666091
_cell_length_c   8.33554813
_cell_angle_alpha   112.09783571
_cell_angle_beta   109.35007144
_cell_angle_gamma   107.00064337
_symmetry_Int_Tables_number   1
_chemical_formula_structural   TbDy11AlCo4Sn
_chemical_formula_sum   'Tb1 Dy11 Al1 Co4 Sn1'
_cell_volume   445.04518509
_cell_formula_units_Z   1
loop_
 _symmetry_equiv_pos_site_id
 _symmetry_equiv_pos_as_xyz
  1  'x, y, z'
loop_
 _atom_site_type_symbol
 _atom_site_label
 _atom_site_symmetry_multiplicity
 _atom_site_fract_x
 _atom_site_fract_y
 _atom_site_fract_z
 _atom_site_occupancy
  Tb  Tb0  1  0.676502  0.989403  0.312901  1
  Dy  Dy1  1  0.435431  0.233600  0.202008  1
  Dy  Dy2  1  0.564413  0.766478  0.797812  1
  Dy  Dy3  1  0.031592  0.233600  0.798170  1
  Dy  Dy4  1  0.968666  0.766478  0.202065  1
  Dy  Dy5  1  0.181367  0.282456  0.463613  1
  Dy  Dy6  1  0.818826  0.717577  0.536492  1
  Dy  Dy7  1  0.181084  0.717577  0.898751  1
  Dy  Dy8  1  0.818844  0.282456  0.101089  1
  Dy  Dy9  1  0.323436  0.636583  0.313147  1
  Dy  Dy10  1  0.676443  0.363495  0.687051  1
  Dy  Dy11  1  0.323514  0.010346  0.686832  1
  Al  Al12  1  0.999988  0.999969  0.999981  1
  Co  Co13  1  0.335984  0.000002  0.336159  1
  Co  Co14  1  0.663842  0.000002  0.664018  1
  Co  Co15  1  0.113782  0.613760  0.499978  1
  Co  Co16  1  0.886356  0.386406  0.500049  1
  Sn  Sn17  1  0.499929  0.499812  0.999883  1
