# generated using pymatgen
data_Nb4Al6PtRh
_symmetry_space_group_name_H-M   'P 1'
_cell_length_a   5.22755300
_cell_length_b   5.22755351
_cell_length_c   7.98653100
_cell_angle_alpha   90.00000000
_cell_angle_beta   90.00000000
_cell_angle_gamma   120.00000309
_symmetry_Int_Tables_number   1
_chemical_formula_structural   Nb4Al6PtRh
_chemical_formula_sum   'Nb4 Al6 Pt1 Rh1'
_cell_volume   189.01041328
_cell_formula_units_Z   1
loop_
 _symmetry_equiv_pos_site_id
 _symmetry_equiv_pos_as_xyz
  1  'x, y, z'
loop_
 _atom_site_type_symbol
 _atom_site_label
 _atom_site_symmetry_multiplicity
 _atom_site_fract_x
 _atom_site_fract_y
 _atom_site_fract_z
 _atom_site_occupancy
  Nb  Nb0  1  0.666667  0.333333  0.072176  1
  Nb  Nb1  1  0.666667  0.333333  0.426440  1
  Nb  Nb2  1  0.333334  0.666667  0.573560  1
  Nb  Nb3  1  0.333334  0.666667  0.927824  1
  Al  Al4  1  0.170489  0.340978  0.252863  1
  Al  Al5  1  0.170489  0.829511  0.252863  1
  Al  Al6  1  0.659021  0.829511  0.252863  1
  Al  Al7  1  0.340979  0.170489  0.747138  1
  Al  Al8  1  0.829511  0.170489  0.747138  1
  Al  Al9  1  0.829511  0.659022  0.747138  1
  Pt  Pt10  1  0.000000  0.000000  0.000000  1
  Rh  Rh11  1  0.000000  0.000000  0.500000  1
