# generated using pymatgen
data_Pr3NdAl6(Si2Pt3)2
_symmetry_space_group_name_H-M   'P 1'
_cell_length_a   8.47833902
_cell_length_b   8.47814216
_cell_length_c   8.47814231
_cell_angle_alpha   137.99186026
_cell_angle_beta   103.54998574
_cell_angle_gamma   91.29789770
_symmetry_Int_Tables_number   1
_chemical_formula_structural   Pr3NdAl6(Si2Pt3)2
_chemical_formula_sum   'Pr3 Nd1 Al6 Si4 Pt6'
_cell_volume   377.92684819
_cell_formula_units_Z   1
loop_
 _symmetry_equiv_pos_site_id
 _symmetry_equiv_pos_as_xyz
  1  'x, y, z'
loop_
 _atom_site_type_symbol
 _atom_site_label
 _atom_site_symmetry_multiplicity
 _atom_site_fract_x
 _atom_site_fract_y
 _atom_site_fract_z
 _atom_site_occupancy
  Pr  Pr0  1  0.129282  0.370936  0.758345  1
  Pr  Pr1  1  0.387344  0.128992  0.258352  1
  Pr  Pr2  1  0.612711  0.871055  0.741656  1
  Nd  Nd3  1  0.870630  0.628961  0.241669  1
  Al  Al4  1  0.500190  0.750037  0.250053  1
  Al  Al5  1  0.500190  0.250137  0.750152  1
  Al  Al6  1  0.238269  0.988258  0.749790  1
  Al  Al7  1  0.761591  0.511568  0.750183  1
  Al  Al8  1  0.761591  0.011408  0.250023  1
  Al  Al9  1  0.238269  0.488480  0.250011  1
  Si  Si10  1  0.033612  0.889002  0.144611  1
  Si  Si11  1  0.966195  0.110861  0.855333  1
  Si  Si12  1  0.744747  0.389397  0.355350  1
  Si  Si13  1  0.255423  0.610833  0.644590  1
  Pt  Pt14  1  0.999950  0.750023  0.749863  1
  Pt  Pt15  1  0.999950  0.250087  0.249928  1
  Pt  Pt16  1  0.240791  0.867778  0.373016  1
  Pt  Pt17  1  0.759028  0.131973  0.627053  1
  Pt  Pt18  1  0.495129  0.368210  0.126919  1
  Pt  Pt19  1  0.505107  0.632005  0.873103  1
