# generated using pymatgen
data_Er2UO6
_symmetry_space_group_name_H-M   'P 1'
_cell_length_a   6.45735946
_cell_length_b   6.45735952
_cell_length_c   6.60678556
_cell_angle_alpha   80.57730405
_cell_angle_beta   80.57730976
_cell_angle_gamma   120.53993165
_symmetry_Int_Tables_number   1
_chemical_formula_structural   Er2UO6
_chemical_formula_sum   'Er4 U2 O12'
_cell_volume   223.96708648
_cell_formula_units_Z   2
loop_
 _symmetry_equiv_pos_site_id
 _symmetry_equiv_pos_as_xyz
  1  'x, y, z'
loop_
 _atom_site_type_symbol
 _atom_site_label
 _atom_site_symmetry_multiplicity
 _atom_site_fract_x
 _atom_site_fract_y
 _atom_site_fract_z
 _atom_site_occupancy
  Er  Er0  1  0.915216  0.084784  0.750000  1
  Er  Er1  1  0.249081  0.750919  0.750000  1
  Er  Er2  1  0.084784  0.915216  0.250000  1
  Er  Er3  1  0.750919  0.249081  0.250000  1
  U  U4  1  0.586290  0.413710  0.750000  1
  U  U5  1  0.413710  0.586290  0.250000  1
  O  O6  1  0.936301  0.773351  0.627998  1
  O  O7  1  0.627817  0.138963  0.625187  1
  O  O8  1  0.691879  0.534884  0.379258  1
  O  O9  1  0.465116  0.308121  0.120742  1
  O  O10  1  0.308121  0.465116  0.620742  1
  O  O11  1  0.138963  0.627817  0.125187  1
  O  O12  1  0.372183  0.861037  0.374813  1
  O  O13  1  0.226649  0.063699  0.872002  1
  O  O14  1  0.063699  0.226649  0.372002  1
  O  O15  1  0.773351  0.936301  0.127998  1
  O  O16  1  0.861037  0.372183  0.874813  1
  O  O17  1  0.534884  0.691879  0.879258  1
