# generated using pymatgen
data_Gd(AlB14)2
_symmetry_space_group_name_H-M   'P 1'
_cell_length_a   7.23189984
_cell_length_b   7.23189948
_cell_length_c   5.82753305
_cell_angle_alpha   66.46644365
_cell_angle_beta   66.46644601
_cell_angle_gamma   92.29231885
_symmetry_Int_Tables_number   1
_chemical_formula_structural   Gd(AlB14)2
_chemical_formula_sum   'Gd1 Al2 B28'
_cell_volume   248.87618584
_cell_formula_units_Z   1
loop_
 _symmetry_equiv_pos_site_id
 _symmetry_equiv_pos_as_xyz
  1  'x, y, z'
loop_
 _atom_site_type_symbol
 _atom_site_label
 _atom_site_symmetry_multiplicity
 _atom_site_fract_x
 _atom_site_fract_y
 _atom_site_fract_z
 _atom_site_occupancy
  Gd  Gd0  1  0.891739  0.891739  0.358474  1
  Al  Al1  1  0.497177  0.497177  0.507026  1
  Al  Al2  1  0.158011  0.158011  0.504407  1
  B  B3  1  0.417271  0.736901  0.171186  1
  B  B4  1  0.583190  0.257821  0.834671  1
  B  B5  1  0.257821  0.583190  0.834671  1
  B  B6  1  0.736901  0.417271  0.171186  1
  B  B7  1  0.694378  0.861026  0.972579  1
  B  B8  1  0.305453  0.135080  0.034793  1
  B  B9  1  0.135080  0.305453  0.034793  1
  B  B10  1  0.861026  0.694378  0.972579  1
  B  B11  1  0.533858  0.872591  0.299143  1
  B  B12  1  0.469539  0.124216  0.205235  1
  B  B13  1  0.124216  0.469539  0.205235  1
  B  B14  1  0.872591  0.533858  0.299143  1
  B  B15  1  0.462421  0.121503  0.711103  1
  B  B16  1  0.531675  0.870587  0.800805  1
  B  B17  1  0.870587  0.531675  0.800805  1
  B  B18  1  0.121503  0.462421  0.711103  1
  B  B19  1  0.722796  0.100431  0.999304  1
  B  B20  1  0.280384  0.893637  0.325414  1
  B  B21  1  0.893637  0.280384  0.325414  1
  B  B22  1  0.100431  0.722796  0.999304  1
  B  B23  1  0.277655  0.895826  0.007342  1
  B  B24  1  0.719691  0.101205  0.684689  1
  B  B25  1  0.101205  0.719691  0.684689  1
  B  B26  1  0.895826  0.277655  0.007342  1
  B  B27  1  0.272478  0.473881  0.378107  1
  B  B28  1  0.716384  0.521193  0.640675  1
  B  B29  1  0.521193  0.716384  0.640675  1
  B  B30  1  0.473881  0.272478  0.378107  1
