# generated using pymatgen
data_Tb2Si5Pt3
_symmetry_space_group_name_H-M   'P 1'
_cell_length_a   6.05088946
_cell_length_b   8.17299895
_cell_length_c   8.17299968
_cell_angle_alpha   104.37275095
_cell_angle_beta   68.27355384
_cell_angle_gamma   111.72643843
_symmetry_Int_Tables_number   1
_chemical_formula_structural   Tb2Si5Pt3
_chemical_formula_sum   'Tb4 Si10 Pt6'
_cell_volume   345.89326493
_cell_formula_units_Z   2
loop_
 _symmetry_equiv_pos_site_id
 _symmetry_equiv_pos_as_xyz
  1  'x, y, z'
loop_
 _atom_site_type_symbol
 _atom_site_label
 _atom_site_symmetry_multiplicity
 _atom_site_fract_x
 _atom_site_fract_y
 _atom_site_fract_z
 _atom_site_occupancy
  Tb  Tb0  1  0.629952  0.401016  0.141112  1
  Tb  Tb1  1  0.870049  0.141112  0.401016  1
  Tb  Tb2  1  0.129951  0.858888  0.598984  1
  Tb  Tb3  1  0.370049  0.598984  0.858888  1
  Si  Si4  1  0.112469  0.264017  0.039079  1
  Si  Si5  1  0.022345  0.772345  0.227654  1
  Si  Si6  1  0.522345  0.772345  0.227654  1
  Si  Si7  1  0.387531  0.039079  0.264017  1
  Si  Si8  1  0.250000  0.500000  0.500000  1
  Si  Si9  1  0.750000  0.500000  0.500000  1
  Si  Si10  1  0.612469  0.960921  0.735983  1
  Si  Si11  1  0.477655  0.227654  0.772345  1
  Si  Si12  1  0.977655  0.227654  0.772345  1
  Si  Si13  1  0.887531  0.735983  0.960921  1
  Pt  Pt14  1  0.250000  0.000000  0.000000  1
  Pt  Pt15  1  0.750000  0.000000  0.000000  1
  Pt  Pt16  1  0.137421  0.524864  0.250020  1
  Pt  Pt17  1  0.637422  0.749980  0.475136  1
  Pt  Pt18  1  0.362579  0.250020  0.524864  1
  Pt  Pt19  1  0.862579  0.475136  0.749980  1
