# generated using pymatgen
data_La12Th2RuRh5
_symmetry_space_group_name_H-M   'P 1'
_cell_length_a   10.25545100
_cell_length_b   10.24804469
_cell_length_c   6.48515472
_cell_angle_alpha   90.17124446
_cell_angle_beta   90.00000000
_cell_angle_gamma   120.02391944
_symmetry_Int_Tables_number   1
_chemical_formula_structural   La12Th2RuRh5
_chemical_formula_sum   'La12 Th2 Ru1 Rh5'
_cell_volume   590.11877629
_cell_formula_units_Z   1
loop_
 _symmetry_equiv_pos_site_id
 _symmetry_equiv_pos_as_xyz
  1  'x, y, z'
loop_
 _atom_site_type_symbol
 _atom_site_label
 _atom_site_symmetry_multiplicity
 _atom_site_fract_x
 _atom_site_fract_y
 _atom_site_fract_z
 _atom_site_occupancy
  La  La0  1  0.873037  0.746074  0.769132  1
  La  La1  1  0.253005  0.128247  0.770077  1
  La  La2  1  0.875242  0.128247  0.770077  1
  La  La3  1  0.127304  0.254609  0.264528  1
  La  La4  1  0.745526  0.872548  0.269154  1
  La  La5  1  0.127021  0.872548  0.269154  1
  La  La6  1  0.459704  0.919410  0.591117  1
  La  La7  1  0.082106  0.538973  0.594105  1
  La  La8  1  0.456866  0.538973  0.594105  1
  La  La9  1  0.540204  0.080408  0.090981  1
  La  La10  1  0.919579  0.458714  0.090478  1
  La  La11  1  0.539136  0.458714  0.090478  1
  Th  Th12  1  0.666415  0.332829  0.558914  1
  Th  Th13  1  0.331577  0.663156  0.055950  1
  Ru  Ru14  1  0.194491  0.388982  0.858523  1
  Rh  Rh15  1  0.615891  0.808911  0.855332  1
  Rh  Rh16  1  0.193021  0.808911  0.855332  1
  Rh  Rh17  1  0.806865  0.613731  0.355634  1
  Rh  Rh18  1  0.386949  0.193009  0.355988  1
  Rh  Rh19  1  0.806058  0.193009  0.355988  1
