# generated using pymatgen
data_Pa2Pd2Pb
_symmetry_space_group_name_H-M   'P 1'
_cell_length_a   7.83641000
_cell_length_b   7.83641000
_cell_length_c   3.74954800
_cell_angle_alpha   90.00000000
_cell_angle_beta   90.00000000
_cell_angle_gamma   90.00000000
_symmetry_Int_Tables_number   1
_chemical_formula_structural   Pa2Pd2Pb
_chemical_formula_sum   'Pa4 Pd4 Pb2'
_cell_volume   230.25719932
_cell_formula_units_Z   2
loop_
 _symmetry_equiv_pos_site_id
 _symmetry_equiv_pos_as_xyz
  1  'x, y, z'
loop_
 _atom_site_type_symbol
 _atom_site_label
 _atom_site_symmetry_multiplicity
 _atom_site_fract_x
 _atom_site_fract_y
 _atom_site_fract_z
 _atom_site_occupancy
  Pa  Pa0  1  0.326506  0.826506  0.500000  1
  Pa  Pa1  1  0.673494  0.173494  0.500000  1
  Pa  Pa2  1  0.173494  0.326506  0.500000  1
  Pa  Pa3  1  0.826506  0.673494  0.500000  1
  Pd  Pd4  1  0.873010  0.373010  0.000000  1
  Pd  Pd5  1  0.626990  0.873010  0.000000  1
  Pd  Pd6  1  0.373010  0.126990  0.000000  1
  Pd  Pd7  1  0.126990  0.626990  0.000000  1
  Pb  Pb8  1  0.500000  0.500000  0.000000  1
  Pb  Pb9  1  0.000000  0.000000  0.000000  1
