# generated using pymatgen
data_Ho11Tm9CoBi8Os3
_symmetry_space_group_name_H-M   'P 1'
_cell_length_a   7.88202383
_cell_length_b   8.96727500
_cell_length_c   12.36511422
_cell_angle_alpha   90.00000000
_cell_angle_beta   89.75099546
_cell_angle_gamma   90.00000000
_symmetry_Int_Tables_number   1
_chemical_formula_structural   Ho11Tm9CoBi8Os3
_chemical_formula_sum   'Ho11 Tm9 Co1 Bi8 Os3'
_cell_volume   873.96142272
_cell_formula_units_Z   1
loop_
 _symmetry_equiv_pos_site_id
 _symmetry_equiv_pos_as_xyz
  1  'x, y, z'
loop_
 _atom_site_type_symbol
 _atom_site_label
 _atom_site_symmetry_multiplicity
 _atom_site_fract_x
 _atom_site_fract_y
 _atom_site_fract_z
 _atom_site_occupancy
  Ho  Ho0  1  0.345286  0.750000  0.701010  1
  Ho  Ho1  1  0.842782  0.250000  0.791095  1
  Ho  Ho2  1  0.156140  0.750000  0.206998  1
  Ho  Ho3  1  0.879446  0.750000  0.806113  1
  Ho  Ho4  1  0.119530  0.250000  0.193172  1
  Ho  Ho5  1  0.378962  0.250000  0.692598  1
  Ho  Ho6  1  0.615891  0.750000  0.313433  1
  Ho  Ho7  1  0.055673  0.750000  0.496838  1
  Ho  Ho8  1  0.944171  0.250000  0.502998  1
  Ho  Ho9  1  0.558030  0.250000  0.003899  1
  Ho  Ho10  1  0.442876  0.750000  0.995643  1
  Tm  Tm11  1  0.657490  0.250000  0.293045  1
  Tm  Tm12  1  0.673813  0.542604  0.563489  1
  Tm  Tm13  1  0.327377  0.460511  0.437162  1
  Tm  Tm14  1  0.173194  0.457501  0.936100  1
  Tm  Tm15  1  0.327377  0.039489  0.437162  1
  Tm  Tm16  1  0.825666  0.543393  0.064313  1
  Tm  Tm17  1  0.673813  0.957396  0.563489  1
  Tm  Tm18  1  0.825666  0.956607  0.064313  1
  Tm  Tm19  1  0.173194  0.042499  0.936100  1
  Co  Co20  1  0.429891  0.750000  0.491455  1
  Bi  Bi21  1  0.569836  0.508666  0.827300  1
  Bi  Bi22  1  0.430342  0.491987  0.173159  1
  Bi  Bi23  1  0.071111  0.492157  0.671999  1
  Bi  Bi24  1  0.430342  0.008013  0.173159  1
  Bi  Bi25  1  0.929327  0.508518  0.328215  1
  Bi  Bi26  1  0.569836  0.991334  0.827300  1
  Bi  Bi27  1  0.929327  0.991482  0.328215  1
  Bi  Bi28  1  0.071111  0.007843  0.671999  1
  Os  Os29  1  0.074636  0.750000  0.989622  1
  Os  Os30  1  0.924881  0.250000  0.009758  1
  Os  Os31  1  0.572990  0.250000  0.508850  1
