# generated using pymatgen
data_La8Al2IrOs
_symmetry_space_group_name_H-M   'P 1'
_cell_length_a   9.99072322
_cell_length_b   9.99072279
_cell_length_c   10.04853156
_cell_angle_alpha   59.91470590
_cell_angle_beta   59.91470603
_cell_angle_gamma   59.86726920
_symmetry_Int_Tables_number   1
_chemical_formula_structural   La8Al2IrOs
_chemical_formula_sum   'La16 Al4 Ir2 Os2'
_cell_volume   707.59363488
_cell_formula_units_Z   2
loop_
 _symmetry_equiv_pos_site_id
 _symmetry_equiv_pos_as_xyz
  1  'x, y, z'
loop_
 _atom_site_type_symbol
 _atom_site_label
 _atom_site_symmetry_multiplicity
 _atom_site_fract_x
 _atom_site_fract_y
 _atom_site_fract_z
 _atom_site_occupancy
  La  La0  1  0.598051  0.598051  0.599598  1
  La  La1  1  0.599427  0.599427  0.201197  1
  La  La2  1  0.598609  0.204019  0.598873  1
  La  La3  1  0.204019  0.598609  0.598873  1
  La  La4  1  0.057399  0.444285  0.445240  1
  La  La5  1  0.444216  0.057776  0.053620  1
  La  La6  1  0.444285  0.057399  0.445240  1
  La  La7  1  0.057776  0.444216  0.053620  1
  La  La8  1  0.444080  0.444080  0.055748  1
  La  La9  1  0.054099  0.054099  0.446323  1
  La  La10  1  0.190704  0.807367  0.811814  1
  La  La11  1  0.807682  0.189720  0.191090  1
  La  La12  1  0.807367  0.190704  0.811814  1
  La  La13  1  0.189720  0.807682  0.191090  1
  La  La14  1  0.810958  0.810958  0.189949  1
  La  La15  1  0.190628  0.190628  0.809812  1
  Al  Al16  1  0.824058  0.824058  0.823214  1
  Al  Al17  1  0.823874  0.823874  0.528082  1
  Al  Al18  1  0.823621  0.528298  0.823745  1
  Al  Al19  1  0.528298  0.823621  0.823745  1
  Ir  Ir20  1  0.391787  0.830796  0.388863  1
  Ir  Ir21  1  0.830796  0.391787  0.388863  1
  Os  Os22  1  0.389077  0.389077  0.386819  1
  Os  Os23  1  0.389465  0.389465  0.832768  1
