# generated using pymatgen
data_SmY3(IO4)4
_symmetry_space_group_name_H-M   'P 1'
_cell_length_a   5.66143150
_cell_length_b   11.05751161
_cell_length_c   5.62991900
_cell_angle_alpha   90.23785628
_cell_angle_beta   89.88795963
_cell_angle_gamma   89.58259393
_symmetry_Int_Tables_number   1
_chemical_formula_structural   SmY3(IO4)4
_chemical_formula_sum   'Sm1 Y3 I4 O16'
_cell_volume   352.42741489
_cell_formula_units_Z   1
loop_
 _symmetry_equiv_pos_site_id
 _symmetry_equiv_pos_as_xyz
  1  'x, y, z'
loop_
 _atom_site_type_symbol
 _atom_site_label
 _atom_site_symmetry_multiplicity
 _atom_site_fract_x
 _atom_site_fract_y
 _atom_site_fract_z
 _atom_site_occupancy
  Sm  Sm0  1  0.507676  0.603312  0.679022  1
  Y  Y1  1  0.485143  0.399708  0.177347  1
  Y  Y2  1  0.982318  0.596823  0.178045  1
  Y  Y3  1  0.011658  0.400024  0.676592  1
  I  I4  1  0.008672  0.141577  0.177261  1
  I  I5  1  0.509499  0.861014  0.175671  1
  I  I6  1  0.493153  0.141396  0.677328  1
  I  I7  1  0.996161  0.858949  0.675029  1
  O  O8  1  0.138031  0.282939  0.062914  1
  O  O9  1  0.641428  0.717472  0.066234  1
  O  O10  1  0.251886  0.064466  0.337234  1
  O  O11  1  0.750217  0.937299  0.337969  1
  O  O12  1  0.860600  0.221134  0.432110  1
  O  O13  1  0.360434  0.783484  0.429342  1
  O  O14  1  0.742858  0.488134  0.426272  1
  O  O15  1  0.239874  0.508940  0.426138  1
  O  O16  1  0.361091  0.283008  0.562317  1
  O  O17  1  0.868509  0.717255  0.558339  1
  O  O18  1  0.250755  0.064806  0.837032  1
  O  O19  1  0.750382  0.933803  0.838091  1
  O  O20  1  0.638628  0.220635  0.931996  1
  O  O21  1  0.145818  0.778084  0.925744  1
  O  O22  1  0.753989  0.487608  0.928695  1
  O  O23  1  0.251213  0.508139  0.929644  1
