# generated using pymatgen
data_CeHoZn16Fe
_symmetry_space_group_name_H-M   'P 1'
_cell_length_a   6.78369728
_cell_length_b   6.78369653
_cell_length_c   6.78369741
_cell_angle_alpha   83.15044233
_cell_angle_beta   83.15044624
_cell_angle_gamma   83.15045386
_symmetry_Int_Tables_number   1
_chemical_formula_structural   CeHoZn16Fe
_chemical_formula_sum   'Ce1 Ho1 Zn16 Fe1'
_cell_volume   305.98362618
_cell_formula_units_Z   1
loop_
 _symmetry_equiv_pos_site_id
 _symmetry_equiv_pos_as_xyz
  1  'x, y, z'
loop_
 _atom_site_type_symbol
 _atom_site_label
 _atom_site_symmetry_multiplicity
 _atom_site_fract_x
 _atom_site_fract_y
 _atom_site_fract_z
 _atom_site_occupancy
  Ce  Ce0  1  0.660156  0.660156  0.660156  1
  Ho  Ho1  1  0.325912  0.325912  0.325912  1
  Zn  Zn2  1  0.349470  0.849603  0.349470  1
  Zn  Zn3  1  0.349470  0.349470  0.849603  1
  Zn  Zn4  1  0.849603  0.349470  0.349470  1
  Zn  Zn5  1  0.644961  0.159583  0.644961  1
  Zn  Zn6  1  0.644961  0.644961  0.159583  1
  Zn  Zn7  1  0.159583  0.644961  0.644961  1
  Zn  Zn8  1  0.714152  0.288108  0.001971  1
  Zn  Zn9  1  0.001971  0.714152  0.288108  1
  Zn  Zn10  1  0.288108  0.001971  0.714152  1
  Zn  Zn11  1  0.001971  0.288108  0.714152  1
  Zn  Zn12  1  0.714152  0.001971  0.288108  1
  Zn  Zn13  1  0.288108  0.714152  0.001971  1
  Zn  Zn14  1  0.008099  0.008099  0.486468  1
  Zn  Zn15  1  0.486468  0.008099  0.008099  1
  Zn  Zn16  1  0.008099  0.486468  0.008099  1
  Zn  Zn17  1  0.903293  0.903293  0.903293  1
  Fe  Fe18  1  0.101465  0.101465  0.101465  1
