# generated using pymatgen
data_Nd13Th3Cd2(HgIr2)2
_symmetry_space_group_name_H-M   'P 1'
_cell_length_a   9.96735669
_cell_length_b   9.98218112
_cell_length_c   9.98996600
_cell_angle_alpha   59.97420512
_cell_angle_beta   59.92494230
_cell_angle_gamma   59.95535216
_symmetry_Int_Tables_number   1
_chemical_formula_structural   Nd13Th3Cd2(HgIr2)2
_chemical_formula_sum   'Nd13 Th3 Cd2 Hg2 Ir4'
_cell_volume   702.06339085
_cell_formula_units_Z   1
loop_
 _symmetry_equiv_pos_site_id
 _symmetry_equiv_pos_as_xyz
  1  'x, y, z'
loop_
 _atom_site_type_symbol
 _atom_site_label
 _atom_site_symmetry_multiplicity
 _atom_site_fract_x
 _atom_site_fract_y
 _atom_site_fract_z
 _atom_site_occupancy
  Nd  Nd0  1  0.947131  0.351406  0.350732  1
  Nd  Nd1  1  0.810248  0.189614  0.191364  1
  Nd  Nd2  1  0.189824  0.809974  0.809554  1
  Nd  Nd3  1  0.189824  0.809974  0.190649  1
  Nd  Nd4  1  0.810248  0.189614  0.808775  1
  Nd  Nd5  1  0.189784  0.189906  0.810155  1
  Nd  Nd6  1  0.809149  0.808207  0.191322  1
  Nd  Nd7  1  0.940447  0.560834  0.562620  1
  Nd  Nd8  1  0.560308  0.939298  0.938118  1
  Nd  Nd9  1  0.560308  0.939298  0.562276  1
  Nd  Nd10  1  0.940447  0.560834  0.936099  1
  Nd  Nd11  1  0.560825  0.561452  0.938861  1
  Nd  Nd12  1  0.939662  0.936497  0.561921  1
  Th  Th13  1  0.345656  0.347405  0.346789  1
  Th  Th14  1  0.345656  0.347405  0.960150  1
  Th  Th15  1  0.346954  0.956972  0.348037  1
  Cd  Cd16  1  0.578028  0.259215  0.581378  1
  Cd  Cd17  1  0.257695  0.579989  0.581157  1
  Hg  Hg18  1  0.582005  0.583872  0.585725  1
  Hg  Hg19  1  0.582005  0.583872  0.248397  1
  Ir  Ir20  1  0.150217  0.141224  0.142427  1
  Ir  Ir21  1  0.150217  0.141224  0.566132  1
  Ir  Ir22  1  0.149779  0.566821  0.141699  1
  Ir  Ir23  1  0.563580  0.145094  0.145662  1
