# generated using pymatgen
data_SmScReB6
_symmetry_space_group_name_H-M   'P 1'
_cell_length_a   3.62314100
_cell_length_b   9.05893400
_cell_length_c   11.48958300
_cell_angle_alpha   90.00000000
_cell_angle_beta   90.00000000
_cell_angle_gamma   90.00000000
_symmetry_Int_Tables_number   1
_chemical_formula_structural   SmScReB6
_chemical_formula_sum   'Sm4 Sc4 Re4 B24'
_cell_volume   377.10874006
_cell_formula_units_Z   4
loop_
 _symmetry_equiv_pos_site_id
 _symmetry_equiv_pos_as_xyz
  1  'x, y, z'
loop_
 _atom_site_type_symbol
 _atom_site_label
 _atom_site_symmetry_multiplicity
 _atom_site_fract_x
 _atom_site_fract_y
 _atom_site_fract_z
 _atom_site_occupancy
  Sm  Sm0  1  0.000000  0.321639  0.414482  1
  Sm  Sm1  1  0.000000  0.678361  0.585518  1
  Sm  Sm2  1  0.000000  0.821639  0.085518  1
  Sm  Sm3  1  0.000000  0.178361  0.914482  1
  Sc  Sc4  1  0.000000  0.944410  0.370598  1
  Sc  Sc5  1  0.000000  0.055590  0.629402  1
  Sc  Sc6  1  0.000000  0.444410  0.129402  1
  Sc  Sc7  1  0.000000  0.555590  0.870598  1
  Re  Re8  1  0.000000  0.641344  0.317584  1
  Re  Re9  1  0.000000  0.358656  0.682416  1
  Re  Re10  1  0.000000  0.141344  0.182416  1
  Re  Re11  1  0.000000  0.858656  0.817584  1
  B  B12  1  0.500000  0.555271  0.430993  1
  B  B13  1  0.500000  0.444729  0.569007  1
  B  B14  1  0.500000  0.055271  0.069007  1
  B  B15  1  0.500000  0.944729  0.930993  1
  B  B16  1  0.500000  0.754467  0.416801  1
  B  B17  1  0.500000  0.245533  0.583199  1
  B  B18  1  0.500000  0.254467  0.083199  1
  B  B19  1  0.500000  0.745533  0.916801  1
  B  B20  1  0.500000  0.795061  0.265609  1
  B  B21  1  0.500000  0.204939  0.734391  1
  B  B22  1  0.500000  0.295061  0.234391  1
  B  B23  1  0.500000  0.704939  0.765609  1
  B  B24  1  0.500000  0.628394  0.183596  1
  B  B25  1  0.500000  0.371606  0.816404  1
  B  B26  1  0.500000  0.128394  0.316404  1
  B  B27  1  0.500000  0.871606  0.683596  1
  B  B28  1  0.500000  0.982044  0.214514  1
  B  B29  1  0.500000  0.017956  0.785486  1
  B  B30  1  0.500000  0.482044  0.285486  1
  B  B31  1  0.500000  0.517956  0.714514  1
  B  B32  1  0.500000  0.594573  0.025696  1
  B  B33  1  0.500000  0.405427  0.974304  1
  B  B34  1  0.500000  0.094573  0.474304  1
  B  B35  1  0.500000  0.905427  0.525696  1
