# generated using pymatgen
data_Ho2Pa2Ge6Ir6W
_symmetry_space_group_name_H-M   'P 1'
_cell_length_a   7.28682194
_cell_length_b   7.28682233
_cell_length_c   7.31260048
_cell_angle_alpha   109.46558016
_cell_angle_beta   109.46558613
_cell_angle_gamma   109.33927692
_symmetry_Int_Tables_number   1
_chemical_formula_structural   Ho2Pa2Ge6Ir6W
_chemical_formula_sum   'Ho2 Pa2 Ge6 Ir6 W1'
_cell_volume   299.42704080
_cell_formula_units_Z   1
loop_
 _symmetry_equiv_pos_site_id
 _symmetry_equiv_pos_as_xyz
  1  'x, y, z'
loop_
 _atom_site_type_symbol
 _atom_site_label
 _atom_site_symmetry_multiplicity
 _atom_site_fract_x
 _atom_site_fract_y
 _atom_site_fract_z
 _atom_site_occupancy
  Ho  Ho0  1  0.000000  0.500000  0.000000  1
  Ho  Ho1  1  0.500000  0.000000  0.000000  1
  Pa  Pa2  1  0.000000  0.000000  0.500000  1
  Pa  Pa3  1  0.500000  0.500000  0.500000  1
  Ge  Ge4  1  0.683950  0.683950  0.000000  1
  Ge  Ge5  1  0.316445  0.994618  0.311064  1
  Ge  Ge6  1  0.994618  0.316445  0.311064  1
  Ge  Ge7  1  0.316050  0.316050  0.000000  1
  Ge  Ge8  1  0.683555  0.005382  0.688936  1
  Ge  Ge9  1  0.005382  0.683555  0.688936  1
  Ir  Ir10  1  0.750000  0.250000  0.500000  1
  Ir  Ir11  1  0.749736  0.505276  0.255012  1
  Ir  Ir12  1  0.494724  0.250264  0.744988  1
  Ir  Ir13  1  0.250264  0.494724  0.744988  1
  Ir  Ir14  1  0.250000  0.750000  0.500000  1
  Ir  Ir15  1  0.505276  0.749736  0.255012  1
  W  W16  1  0.000000  0.000000  0.000000  1
