# generated using pymatgen
data_Hf2Zr8AlSn6Sb
_symmetry_space_group_name_H-M   'P 1'
_cell_length_a   8.80740700
_cell_length_b   8.80740794
_cell_length_c   5.91144500
_cell_angle_alpha   90.00000000
_cell_angle_beta   90.00000000
_cell_angle_gamma   120.00000023
_symmetry_Int_Tables_number   1
_chemical_formula_structural   Hf2Zr8AlSn6Sb
_chemical_formula_sum   'Hf2 Zr8 Al1 Sn6 Sb1'
_cell_volume   397.11881363
_cell_formula_units_Z   1
loop_
 _symmetry_equiv_pos_site_id
 _symmetry_equiv_pos_as_xyz
  1  'x, y, z'
loop_
 _atom_site_type_symbol
 _atom_site_label
 _atom_site_symmetry_multiplicity
 _atom_site_fract_x
 _atom_site_fract_y
 _atom_site_fract_z
 _atom_site_occupancy
  Hf  Hf0  1  0.333333  0.666667  0.000000  1
  Hf  Hf1  1  0.666667  0.333333  0.500000  1
  Zr  Zr2  1  0.666667  0.333333  0.000000  1
  Zr  Zr3  1  0.333333  0.666667  0.500000  1
  Zr  Zr4  1  0.275668  0.000018  0.260368  1
  Zr  Zr5  1  0.275668  0.275650  0.739632  1
  Zr  Zr6  1  0.999982  0.724332  0.739632  1
  Zr  Zr7  1  0.999982  0.275650  0.260368  1
  Zr  Zr8  1  0.724350  0.724332  0.260368  1
  Zr  Zr9  1  0.724350  0.000018  0.739632  1
  Al  Al10  1  0.000000  0.000000  0.500000  1
  Sn  Sn11  1  0.611840  0.000041  0.249969  1
  Sn  Sn12  1  0.611840  0.611799  0.750031  1
  Sn  Sn13  1  0.999959  0.388160  0.750031  1
  Sn  Sn14  1  0.999959  0.611799  0.249969  1
  Sn  Sn15  1  0.388201  0.388160  0.249969  1
  Sn  Sn16  1  0.388201  0.000041  0.750031  1
  Sb  Sb17  1  0.000000  0.000000  0.000000  1
