# generated using pymatgen
data_Dy5Er3(Ga3Pt)4
_symmetry_space_group_name_H-M   'P 1'
_cell_length_a   8.84858700
_cell_length_b   8.84858721
_cell_length_c   6.99948700
_cell_angle_alpha   90.00000000
_cell_angle_beta   90.00000000
_cell_angle_gamma   119.99865714
_symmetry_Int_Tables_number   1
_chemical_formula_structural   Dy5Er3(Ga3Pt)4
_chemical_formula_sum   'Dy5 Er3 Ga12 Pt4'
_cell_volume   474.62496721
_cell_formula_units_Z   1
loop_
 _symmetry_equiv_pos_site_id
 _symmetry_equiv_pos_as_xyz
  1  'x, y, z'
loop_
 _atom_site_type_symbol
 _atom_site_label
 _atom_site_symmetry_multiplicity
 _atom_site_fract_x
 _atom_site_fract_y
 _atom_site_fract_z
 _atom_site_occupancy
  Dy  Dy0  1  0.000066  0.999934  0.250000  1
  Dy  Dy1  1  0.999925  0.000075  0.750000  1
  Dy  Dy2  1  0.519655  0.039400  0.250000  1
  Dy  Dy3  1  0.519590  0.480410  0.250000  1
  Dy  Dy4  1  0.960600  0.480345  0.250000  1
  Er  Er5  1  0.479791  0.959397  0.750000  1
  Er  Er6  1  0.479826  0.520174  0.750000  1
  Er  Er7  1  0.040603  0.520209  0.750000  1
  Ga  Ga8  1  0.166894  0.333911  0.045488  1
  Ga  Ga9  1  0.167050  0.832950  0.454486  1
  Ga  Ga10  1  0.666089  0.833106  0.454512  1
  Ga  Ga11  1  0.666089  0.833106  0.045488  1
  Ga  Ga12  1  0.167050  0.832950  0.045514  1
  Ga  Ga13  1  0.832805  0.665514  0.952082  1
  Ga  Ga14  1  0.832650  0.167350  0.952069  1
  Ga  Ga15  1  0.334486  0.167195  0.952082  1
  Ga  Ga16  1  0.166894  0.333911  0.454512  1
  Ga  Ga17  1  0.334486  0.167195  0.547918  1
  Ga  Ga18  1  0.832805  0.665514  0.547918  1
  Ga  Ga19  1  0.832650  0.167350  0.547931  1
  Pt  Pt20  1  0.333393  0.666607  0.026982  1
  Pt  Pt21  1  0.333393  0.666607  0.473018  1
  Pt  Pt22  1  0.666604  0.333396  0.967656  1
  Pt  Pt23  1  0.666604  0.333396  0.532344  1
