# generated using pymatgen
data_Dy3Lu7(Si5Ir2)4
_symmetry_space_group_name_H-M   'P 1'
_cell_length_a   12.56800093
_cell_length_b   12.56799931
_cell_length_c   4.21584500
_cell_angle_alpha   90.00000000
_cell_angle_beta   90.00000000
_cell_angle_gamma   89.96605015
_symmetry_Int_Tables_number   1
_chemical_formula_structural   Dy3Lu7(Si5Ir2)4
_chemical_formula_sum   'Dy3 Lu7 Si20 Ir8'
_cell_volume   665.91210769
_cell_formula_units_Z   1
loop_
 _symmetry_equiv_pos_site_id
 _symmetry_equiv_pos_as_xyz
  1  'x, y, z'
loop_
 _atom_site_type_symbol
 _atom_site_label
 _atom_site_symmetry_multiplicity
 _atom_site_fract_x
 _atom_site_fract_y
 _atom_site_fract_z
 _atom_site_occupancy
  Dy  Dy0  1  0.116070  0.616070  0.500000  1
  Dy  Dy1  1  0.384271  0.116030  0.500000  1
  Dy  Dy2  1  0.616030  0.884271  0.500000  1
  Lu  Lu3  1  0.500973  0.500021  0.000000  1
  Lu  Lu4  1  0.000021  0.000973  0.000000  1
  Lu  Lu5  1  0.676669  0.176669  0.500000  1
  Lu  Lu6  1  0.323425  0.823425  0.500000  1
  Lu  Lu7  1  0.174982  0.322919  0.500000  1
  Lu  Lu8  1  0.822919  0.674982  0.500000  1
  Lu  Lu9  1  0.882747  0.382747  0.500000  1
  Si  Si10  1  0.566455  0.066455  0.000000  1
  Si  Si11  1  0.433688  0.933688  0.000000  1
  Si  Si12  1  0.066380  0.434525  0.000000  1
  Si  Si13  1  0.934525  0.566380  0.000000  1
  Si  Si14  1  0.663170  0.701065  0.000000  1
  Si  Si15  1  0.336955  0.298570  0.000000  1
  Si  Si16  1  0.162628  0.798259  0.000000  1
  Si  Si17  1  0.836858  0.201910  0.000000  1
  Si  Si18  1  0.298259  0.662628  0.000000  1
  Si  Si19  1  0.701910  0.336858  0.000000  1
  Si  Si20  1  0.201065  0.163170  0.000000  1
  Si  Si21  1  0.798570  0.836955  0.000000  1
  Si  Si22  1  0.656068  0.500658  0.500000  1
  Si  Si23  1  0.346542  0.495697  0.500000  1
  Si  Si24  1  0.154084  0.995582  0.500000  1
  Si  Si25  1  0.846308  0.005861  0.500000  1
  Si  Si26  1  0.495582  0.654084  0.500000  1
  Si  Si27  1  0.505861  0.346308  0.500000  1
  Si  Si28  1  0.000658  0.156068  0.500000  1
  Si  Si29  1  0.995697  0.846542  0.500000  1
  Ir  Ir30  1  0.746716  0.521517  0.000000  1
  Ir  Ir31  1  0.255281  0.476847  0.000000  1
  Ir  Ir32  1  0.244761  0.977312  0.000000  1
  Ir  Ir33  1  0.755679  0.022518  0.000000  1
  Ir  Ir34  1  0.477312  0.744761  0.000000  1
  Ir  Ir35  1  0.522518  0.255679  0.000000  1
  Ir  Ir36  1  0.021517  0.246716  0.000000  1
  Ir  Ir37  1  0.976847  0.755281  0.000000  1
