# generated using pymatgen
data_Zr3TaNbSi3N
_symmetry_space_group_name_H-M   'P 1'
_cell_length_a   7.80871900
_cell_length_b   7.80871959
_cell_length_c   5.44501900
_cell_angle_alpha   90.00000000
_cell_angle_beta   90.00000000
_cell_angle_gamma   119.99999325
_symmetry_Int_Tables_number   1
_chemical_formula_structural   Zr3TaNbSi3N
_chemical_formula_sum   'Zr6 Ta2 Nb2 Si6 N2'
_cell_volume   287.53431614
_cell_formula_units_Z   2
loop_
 _symmetry_equiv_pos_site_id
 _symmetry_equiv_pos_as_xyz
  1  'x, y, z'
loop_
 _atom_site_type_symbol
 _atom_site_label
 _atom_site_symmetry_multiplicity
 _atom_site_fract_x
 _atom_site_fract_y
 _atom_site_fract_z
 _atom_site_occupancy
  Zr  Zr0  1  0.236691  0.000000  0.750193  1
  Zr  Zr1  1  0.763309  0.000000  0.249807  1
  Zr  Zr2  1  0.000000  0.236691  0.750193  1
  Zr  Zr3  1  0.000000  0.763309  0.249807  1
  Zr  Zr4  1  0.763309  0.763309  0.750193  1
  Zr  Zr5  1  0.236691  0.236691  0.249807  1
  Ta  Ta6  1  0.333333  0.666667  0.500000  1
  Ta  Ta7  1  0.666667  0.333333  0.500000  1
  Nb  Nb8  1  0.666667  0.333333  0.000000  1
  Nb  Nb9  1  0.333333  0.666667  0.000000  1
  Si  Si10  1  0.590795  0.000000  0.749964  1
  Si  Si11  1  0.409205  0.000000  0.250036  1
  Si  Si12  1  0.000000  0.590795  0.749964  1
  Si  Si13  1  0.000000  0.409205  0.250036  1
  Si  Si14  1  0.409205  0.409205  0.749964  1
  Si  Si15  1  0.590795  0.590795  0.250036  1
  N  N16  1  0.000000  0.000000  0.500000  1
  N  N17  1  0.000000  0.000000  0.000000  1
