# generated using pymatgen
data_Sr6Ti2IrRuO14
_symmetry_space_group_name_H-M   'P 1'
_cell_length_a   10.66753200
_cell_length_b   10.66754397
_cell_length_c   5.58498300
_cell_angle_alpha   89.99949117
_cell_angle_beta   89.99959187
_cell_angle_gamma   149.56889538
_symmetry_Int_Tables_number   1
_chemical_formula_structural   Sr6Ti2IrRuO14
_chemical_formula_sum   'Sr6 Ti2 Ir1 Ru1 O14'
_cell_volume   321.90769270
_cell_formula_units_Z   1
loop_
 _symmetry_equiv_pos_site_id
 _symmetry_equiv_pos_as_xyz
  1  'x, y, z'
loop_
 _atom_site_type_symbol
 _atom_site_label
 _atom_site_symmetry_multiplicity
 _atom_site_fract_x
 _atom_site_fract_y
 _atom_site_fract_z
 _atom_site_occupancy
  Sr  Sr0  1  0.500249  0.499757  0.999999  1
  Sr  Sr1  1  0.315162  0.684835  0.000001  1
  Sr  Sr2  1  0.684934  0.315068  0.999999  1
  Sr  Sr3  1  0.184353  0.815646  0.500001  1
  Sr  Sr4  1  0.815411  0.184589  0.500001  1
  Sr  Sr5  1  0.000220  0.999786  0.500000  1
  Ti  Ti6  1  0.098414  0.901586  0.000000  1
  Ti  Ti7  1  0.902410  0.097593  0.999999  1
  Ir  Ir8  1  0.597091  0.402907  0.500000  1
  Ru  Ru9  1  0.402850  0.597148  0.499999  1
  O  O10  1  0.194938  0.805063  0.000002  1
  O  O11  1  0.138908  0.332643  0.739821  1
  O  O12  1  0.643537  0.837268  0.763809  1
  O  O13  1  0.999116  0.000882  0.999999  1
  O  O14  1  0.805692  0.194308  0.999998  1
  O  O15  1  0.354084  0.161104  0.765178  1
  O  O16  1  0.305318  0.694682  0.500001  1
  O  O17  1  0.499132  0.500865  0.500001  1
  O  O18  1  0.162730  0.356461  0.236192  1
  O  O19  1  0.330414  0.137495  0.258672  1
  O  O20  1  0.696282  0.303716  0.500001  1
  O  O21  1  0.667358  0.861093  0.260180  1
  O  O22  1  0.862505  0.669586  0.741327  1
  O  O23  1  0.838894  0.645917  0.234823  1
