# generated using pymatgen
data_TbY11Tc3Pt
_symmetry_space_group_name_H-M   'P 1'
_cell_length_a   6.34090410
_cell_length_b   7.44580722
_cell_length_c   9.26438700
_cell_angle_alpha   90.00000000
_cell_angle_beta   90.00000000
_cell_angle_gamma   89.88367144
_symmetry_Int_Tables_number   1
_chemical_formula_structural   TbY11Tc3Pt
_chemical_formula_sum   'Tb1 Y11 Tc3 Pt1'
_cell_volume   437.39998762
_cell_formula_units_Z   1
loop_
 _symmetry_equiv_pos_site_id
 _symmetry_equiv_pos_as_xyz
  1  'x, y, z'
loop_
 _atom_site_type_symbol
 _atom_site_label
 _atom_site_symmetry_multiplicity
 _atom_site_fract_x
 _atom_site_fract_y
 _atom_site_fract_z
 _atom_site_occupancy
  Tb  Tb0  1  0.125548  0.040360  0.250000  1
  Y  Y1  1  0.629855  0.455488  0.750000  1
  Y  Y2  1  0.372075  0.543484  0.250000  1
  Y  Y3  1  0.869352  0.964298  0.750000  1
  Y  Y4  1  0.665080  0.176912  0.063976  1
  Y  Y5  1  0.168013  0.319503  0.940737  1
  Y  Y6  1  0.829304  0.675675  0.432515  1
  Y  Y7  1  0.336836  0.827169  0.561056  1
  Y  Y8  1  0.336836  0.827169  0.938944  1
  Y  Y9  1  0.829304  0.675675  0.067485  1
  Y  Y10  1  0.168013  0.319503  0.559263  1
  Y  Y11  1  0.665080  0.176912  0.436024  1
  Tc  Tc12  1  0.965122  0.383967  0.250000  1
  Tc  Tc13  1  0.457823  0.114190  0.750000  1
  Tc  Tc14  1  0.535965  0.885881  0.250000  1
  Pt  Pt15  1  0.045793  0.613813  0.750000  1
