# generated using pymatgen
data_Tb16Al6FeCo
_symmetry_space_group_name_H-M   'P 1'
_cell_length_a   10.23767600
_cell_length_b   10.23767557
_cell_length_c   6.89267100
_cell_angle_alpha   90.00000000
_cell_angle_beta   90.00000000
_cell_angle_gamma   120.00000138
_symmetry_Int_Tables_number   1
_chemical_formula_structural   Tb16Al6FeCo
_chemical_formula_sum   'Tb16 Al6 Fe1 Co1'
_cell_volume   625.63483045
_cell_formula_units_Z   1
loop_
 _symmetry_equiv_pos_site_id
 _symmetry_equiv_pos_as_xyz
  1  'x, y, z'
loop_
 _atom_site_type_symbol
 _atom_site_label
 _atom_site_symmetry_multiplicity
 _atom_site_fract_x
 _atom_site_fract_y
 _atom_site_fract_z
 _atom_site_occupancy
  Tb  Tb0  1  0.174895  0.825105  0.995719  1
  Tb  Tb1  1  0.349706  0.174853  0.495074  1
  Tb  Tb2  1  0.825147  0.650294  0.495074  1
  Tb  Tb3  1  0.174895  0.349788  0.995719  1
  Tb  Tb4  1  0.650212  0.825105  0.995719  1
  Tb  Tb5  1  0.825147  0.174853  0.495074  1
  Tb  Tb6  1  0.333333  0.666667  0.670677  1
  Tb  Tb7  1  0.666667  0.333333  0.171238  1
  Tb  Tb8  1  0.465102  0.534898  0.288990  1
  Tb  Tb9  1  0.932356  0.466179  0.789275  1
  Tb  Tb10  1  0.533821  0.067644  0.789275  1
  Tb  Tb11  1  0.465102  0.930202  0.288990  1
  Tb  Tb12  1  0.069798  0.534898  0.288990  1
  Tb  Tb13  1  0.533821  0.466179  0.789275  1
  Tb  Tb14  1  0.000000  0.000000  0.273690  1
  Tb  Tb15  1  0.000000  0.000000  0.773696  1
  Al  Al16  1  0.162658  0.837342  0.534160  1
  Al  Al17  1  0.326252  0.163126  0.033909  1
  Al  Al18  1  0.836874  0.673748  0.033909  1
  Al  Al19  1  0.162658  0.325314  0.534160  1
  Al  Al20  1  0.674686  0.837342  0.534160  1
  Al  Al21  1  0.836874  0.163126  0.033909  1
  Fe  Fe22  1  0.333333  0.666667  0.060853  1
  Co  Co23  1  0.666667  0.333333  0.562470  1
