# generated using pymatgen
data_Sc12Fe(Si4Au)3
_symmetry_space_group_name_H-M   'P 1'
_cell_length_a   4.04978000
_cell_length_b   10.34214806
_cell_length_c   11.75105239
_cell_angle_alpha   89.77581128
_cell_angle_beta   90.00000000
_cell_angle_gamma   90.00000000
_symmetry_Int_Tables_number   1
_chemical_formula_structural   Sc12Fe(Si4Au)3
_chemical_formula_sum   'Sc12 Fe1 Si12 Au3'
_cell_volume   492.17054651
_cell_formula_units_Z   1
loop_
 _symmetry_equiv_pos_site_id
 _symmetry_equiv_pos_as_xyz
  1  'x, y, z'
loop_
 _atom_site_type_symbol
 _atom_site_label
 _atom_site_symmetry_multiplicity
 _atom_site_fract_x
 _atom_site_fract_y
 _atom_site_fract_z
 _atom_site_occupancy
  Sc  Sc0  1  0.250000  0.873539  0.020223  1
  Sc  Sc1  1  0.250000  0.616297  0.528353  1
  Sc  Sc2  1  0.750000  0.127969  0.975099  1
  Sc  Sc3  1  0.750000  0.374091  0.481208  1
  Sc  Sc4  1  0.250000  0.919393  0.600395  1
  Sc  Sc5  1  0.250000  0.578834  0.097996  1
  Sc  Sc6  1  0.750000  0.079932  0.404155  1
  Sc  Sc7  1  0.750000  0.421074  0.900372  1
  Sc  Sc8  1  0.250000  0.647571  0.797885  1
  Sc  Sc9  1  0.250000  0.839862  0.302791  1
  Sc  Sc10  1  0.750000  0.340935  0.197735  1
  Sc  Sc11  1  0.750000  0.168660  0.698989  1
  Fe  Fe12  1  0.250000  0.390874  0.675362  1
  Si  Si13  1  0.250000  0.028562  0.827367  1
  Si  Si14  1  0.250000  0.477025  0.323788  1
  Si  Si15  1  0.750000  0.977047  0.173209  1
  Si  Si16  1  0.750000  0.499904  0.677711  1
  Si  Si17  1  0.250000  0.259986  0.834858  1
  Si  Si18  1  0.250000  0.253086  0.350276  1
  Si  Si19  1  0.750000  0.752852  0.151047  1
  Si  Si20  1  0.750000  0.738135  0.652505  1
  Si  Si21  1  0.250000  0.200057  0.549840  1
  Si  Si22  1  0.250000  0.317925  0.036748  1
  Si  Si23  1  0.750000  0.818984  0.462134  1
  Si  Si24  1  0.750000  0.681712  0.957324  1
  Au  Au25  1  0.250000  0.115415  0.178229  1
  Au  Au26  1  0.750000  0.614480  0.324610  1
  Au  Au27  1  0.750000  0.885799  0.819790  1
