# generated using pymatgen
data_Tm3Th(Sc3Ga4)2
_symmetry_space_group_name_H-M   'P 1'
_cell_length_a   7.27962860
_cell_length_b   7.56456533
_cell_length_c   14.48187188
_cell_angle_alpha   90.06756674
_cell_angle_beta   90.07791787
_cell_angle_gamma   90.08342251
_symmetry_Int_Tables_number   1
_chemical_formula_structural   Tm3Th(Sc3Ga4)2
_chemical_formula_sum   'Tm6 Th2 Sc12 Ga16'
_cell_volume   797.47437449
_cell_formula_units_Z   2
loop_
 _symmetry_equiv_pos_site_id
 _symmetry_equiv_pos_as_xyz
  1  'x, y, z'
loop_
 _atom_site_type_symbol
 _atom_site_label
 _atom_site_symmetry_multiplicity
 _atom_site_fract_x
 _atom_site_fract_y
 _atom_site_fract_z
 _atom_site_occupancy
  Tm  Tm0  1  0.490022  0.678998  0.904821  1
  Tm  Tm1  1  0.989285  0.820545  0.594659  1
  Tm  Tm2  1  0.509978  0.321002  0.095179  1
  Tm  Tm3  1  0.010715  0.179455  0.405341  1
  Tm  Tm4  1  0.511382  0.319971  0.406516  1
  Tm  Tm5  1  0.488618  0.680029  0.593484  1
  Th  Th6  1  0.011026  0.178278  0.095081  1
  Th  Th7  1  0.988974  0.821722  0.904919  1
  Sc  Sc8  1  0.165174  0.502863  0.748702  1
  Sc  Sc9  1  0.834826  0.497137  0.251298  1
  Sc  Sc10  1  0.338268  0.003352  0.251357  1
  Sc  Sc11  1  0.661732  0.996648  0.748643  1
  Sc  Sc12  1  0.329969  0.172069  0.623604  1
  Sc  Sc13  1  0.670031  0.827931  0.376396  1
  Sc  Sc14  1  0.171122  0.672962  0.376515  1
  Sc  Sc15  1  0.668512  0.826727  0.124830  1
  Sc  Sc16  1  0.828878  0.327038  0.623485  1
  Sc  Sc17  1  0.331488  0.173273  0.875170  1
  Sc  Sc18  1  0.828368  0.327676  0.875078  1
  Sc  Sc19  1  0.171632  0.672324  0.124922  1
  Ga  Ga20  1  0.031187  0.117361  0.749195  1
  Ga  Ga21  1  0.968813  0.882639  0.250805  1
  Ga  Ga22  1  0.468580  0.616571  0.249983  1
  Ga  Ga23  1  0.531420  0.383429  0.750017  1
  Ga  Ga24  1  0.287170  0.870796  0.748446  1
  Ga  Ga25  1  0.712830  0.129204  0.251554  1
  Ga  Ga26  1  0.217679  0.371511  0.250697  1
  Ga  Ga27  1  0.782321  0.628489  0.749303  1
  Ga  Ga28  1  0.162229  0.466322  0.540321  1
  Ga  Ga29  1  0.837771  0.533678  0.459679  1
  Ga  Ga30  1  0.337557  0.965814  0.459590  1
  Ga  Ga31  1  0.834275  0.535649  0.040530  1
  Ga  Ga32  1  0.662443  0.034186  0.540410  1
  Ga  Ga33  1  0.165725  0.464351  0.959470  1
  Ga  Ga34  1  0.656852  0.036487  0.959892  1
  Ga  Ga35  1  0.343148  0.963513  0.040108  1
