# generated using pymatgen
data_Nd5YSc4(GaO4)6
_symmetry_space_group_name_H-M   'P 1'
_cell_length_a   11.08596847
_cell_length_b   11.08596916
_cell_length_c   11.07530274
_cell_angle_alpha   109.41963008
_cell_angle_beta   109.41963693
_cell_angle_gamma   109.61334969
_symmetry_Int_Tables_number   1
_chemical_formula_structural   Nd5YSc4(GaO4)6
_chemical_formula_sum   'Nd10 Y2 Sc8 Ga12 O48'
_cell_volume   1047.29930327
_cell_formula_units_Z   2
loop_
 _symmetry_equiv_pos_site_id
 _symmetry_equiv_pos_as_xyz
  1  'x, y, z'
loop_
 _atom_site_type_symbol
 _atom_site_label
 _atom_site_symmetry_multiplicity
 _atom_site_fract_x
 _atom_site_fract_y
 _atom_site_fract_z
 _atom_site_occupancy
  Nd  Nd0  1  0.249767  0.375185  0.124167  1
  Nd  Nd1  1  0.750233  0.624815  0.875833  1
  Nd  Nd2  1  0.751018  0.125600  0.375833  1
  Nd  Nd3  1  0.124815  0.250233  0.375833  1
  Nd  Nd4  1  0.374400  0.748982  0.124167  1
  Nd  Nd5  1  0.248982  0.874400  0.624167  1
  Nd  Nd6  1  0.875185  0.749767  0.624167  1
  Nd  Nd7  1  0.625600  0.251018  0.875833  1
  Nd  Nd8  1  0.375000  0.125000  0.250000  1
  Nd  Nd9  1  0.625000  0.875000  0.750000  1
  Y  Y10  1  0.125000  0.375000  0.750000  1
  Y  Y11  1  0.875000  0.625000  0.250000  1
  Sc  Sc12  1  0.000000  0.000000  0.000000  1
  Sc  Sc13  1  0.500000  0.000000  0.500000  1
  Sc  Sc14  1  0.000000  0.500000  0.500000  1
  Sc  Sc15  1  0.500000  0.000000  0.000000  1
  Sc  Sc16  1  0.500000  0.500000  0.000000  1
  Sc  Sc17  1  0.500000  0.500000  0.500000  1
  Sc  Sc18  1  0.000000  0.000000  0.500000  1
  Sc  Sc19  1  0.000000  0.500000  0.000000  1
  Ga  Ga20  1  0.248717  0.624772  0.374296  1
  Ga  Ga21  1  0.751283  0.375228  0.625704  1
  Ga  Ga22  1  0.750476  0.874421  0.125704  1
  Ga  Ga23  1  0.374421  0.250476  0.625704  1
  Ga  Ga24  1  0.625579  0.749524  0.374296  1
  Ga  Ga25  1  0.249524  0.125579  0.874296  1
  Ga  Ga26  1  0.124772  0.748717  0.874296  1
  Ga  Ga27  1  0.875228  0.251283  0.125704  1
  Ga  Ga28  1  0.626390  0.376390  0.250000  1
  Ga  Ga29  1  0.373610  0.623610  0.750000  1
  Ga  Ga30  1  0.876390  0.126390  0.750000  1
  Ga  Ga31  1  0.123610  0.873610  0.250000  1
  O  O32  1  0.475070  0.377652  0.290989  1
  O  O33  1  0.524930  0.622348  0.709011  1
  O  O34  1  0.586663  0.184081  0.209011  1
  O  O35  1  0.919383  0.128518  0.600118  1
  O  O36  1  0.290676  0.474657  0.377637  1
  O  O37  1  0.315919  0.913337  0.290989  1
  O  O38  1  0.413337  0.815919  0.790989  1
  O  O39  1  0.080617  0.871482  0.399882  1
  O  O40  1  0.709324  0.525343  0.622363  1
  O  O41  1  0.684081  0.086663  0.709011  1
  O  O42  1  0.028400  0.319266  0.899882  1
  O  O43  1  0.208750  0.585928  0.182780  1
  O  O44  1  0.122348  0.024930  0.209011  1
  O  O45  1  0.971600  0.680734  0.100118  1
  O  O46  1  0.791250  0.414072  0.817220  1
  O  O47  1  0.877652  0.975070  0.790989  1
  O  O48  1  0.597021  0.913039  0.122363  1
  O  O49  1  0.180734  0.471600  0.600118  1
  O  O50  1  0.402979  0.086961  0.877637  1
  O  O51  1  0.819266  0.528400  0.399882  1
  O  O52  1  0.903147  0.025969  0.317220  1
  O  O53  1  0.371482  0.580617  0.899882  1
  O  O54  1  0.096853  0.974031  0.682780  1
  O  O55  1  0.628518  0.419383  0.100118  1
  O  O56  1  0.376809  0.290983  0.474429  1
  O  O57  1  0.586961  0.902979  0.377637  1
  O  O58  1  0.623191  0.709017  0.525571  1
  O  O59  1  0.413039  0.097021  0.622363  1
  O  O60  1  0.122416  0.594745  0.911488  1
  O  O61  1  0.025343  0.209324  0.122363  1
  O  O62  1  0.877584  0.405255  0.088512  1
  O  O63  1  0.974657  0.790676  0.877637  1
  O  O64  1  0.316554  0.902380  0.025571  1
  O  O65  1  0.914072  0.291250  0.317220  1
  O  O66  1  0.683446  0.097620  0.974429  1
  O  O67  1  0.085928  0.708750  0.682780  1
  O  O68  1  0.183257  0.210928  0.588512  1
  O  O69  1  0.474031  0.596853  0.182780  1
  O  O70  1  0.816743  0.789072  0.411488  1
  O  O71  1  0.525969  0.403147  0.817220  1
  O  O72  1  0.289072  0.316743  0.911488  1
  O  O73  1  0.710928  0.683257  0.088512  1
  O  O74  1  0.209017  0.123191  0.025571  1
  O  O75  1  0.790983  0.876809  0.974429  1
  O  O76  1  0.905255  0.377584  0.588512  1
  O  O77  1  0.094745  0.622416  0.411488  1
  O  O78  1  0.597620  0.183446  0.474429  1
  O  O79  1  0.402380  0.816554  0.525571  1
