# generated using pymatgen
data_Dy3Lu3Co17P12Os
_symmetry_space_group_name_H-M   'P 1'
_cell_length_a   3.67470100
_cell_length_b   10.45532007
_cell_length_c   12.15370909
_cell_angle_alpha   90.01372972
_cell_angle_beta   90.00000000
_cell_angle_gamma   90.00000000
_symmetry_Int_Tables_number   1
_chemical_formula_structural   Dy3Lu3Co17P12Os
_chemical_formula_sum   'Dy3 Lu3 Co17 P12 Os1'
_cell_volume   466.94761827
_cell_formula_units_Z   1
loop_
 _symmetry_equiv_pos_site_id
 _symmetry_equiv_pos_as_xyz
  1  'x, y, z'
loop_
 _atom_site_type_symbol
 _atom_site_label
 _atom_site_symmetry_multiplicity
 _atom_site_fract_x
 _atom_site_fract_y
 _atom_site_fract_z
 _atom_site_occupancy
  Dy  Dy0  1  0.000000  0.500060  0.524731  1
  Dy  Dy1  1  0.500000  0.999929  0.477677  1
  Dy  Dy2  1  0.000000  0.317227  0.794455  1
  Lu  Lu3  1  0.500000  0.817919  0.207501  1
  Lu  Lu4  1  0.500000  0.181157  0.206583  1
  Lu  Lu5  1  0.000000  0.682698  0.794352  1
  Co  Co6  1  0.000000  0.999248  0.840298  1
  Co  Co7  1  0.500000  0.501003  0.704410  1
  Co  Co8  1  0.000000  0.999693  0.294317  1
  Co  Co9  1  0.000000  0.500956  0.988919  1
  Co  Co10  1  0.500000  0.998904  0.015311  1
  Co  Co11  1  0.500000  0.332771  0.993174  1
  Co  Co12  1  0.500000  0.668504  0.990266  1
  Co  Co13  1  0.000000  0.165885  0.006651  1
  Co  Co14  1  0.000000  0.832742  0.006402  1
  Co  Co15  1  0.500000  0.297235  0.428464  1
  Co  Co16  1  0.500000  0.703029  0.430082  1
  Co  Co17  1  0.000000  0.202844  0.567652  1
  Co  Co18  1  0.000000  0.796968  0.569246  1
  Co  Co19  1  0.500000  0.877767  0.710119  1
  Co  Co20  1  0.500000  0.120343  0.709262  1
  Co  Co21  1  0.000000  0.621907  0.290908  1
  Co  Co22  1  0.000000  0.379032  0.289016  1
  P  P23  1  0.500000  0.501028  0.881304  1
  P  P24  1  0.000000  0.999242  0.118060  1
  P  P25  1  0.500000  0.500128  0.350626  1
  P  P26  1  0.000000  0.999996  0.655518  1
  P  P27  1  0.500000  0.311025  0.615706  1
  P  P28  1  0.500000  0.688745  0.617841  1
  P  P29  1  0.000000  0.187673  0.381799  1
  P  P30  1  0.000000  0.812375  0.383092  1
  P  P31  1  0.500000  0.848505  0.891077  1
  P  P32  1  0.500000  0.150006  0.892427  1
  P  P33  1  0.000000  0.657260  0.107499  1
  P  P34  1  0.000000  0.342981  0.106804  1
  Os  Os35  1  0.500000  0.503215  0.158452  1
