# generated using pymatgen
data_Li4NdTm3Si8
_symmetry_space_group_name_H-M   'P 1'
_cell_length_a   3.79850000
_cell_length_b   7.62986337
_cell_length_c   10.14181921
_cell_angle_alpha   89.74094065
_cell_angle_beta   90.00000000
_cell_angle_gamma   90.00000000
_symmetry_Int_Tables_number   1
_chemical_formula_structural   Li4NdTm3Si8
_chemical_formula_sum   'Li4 Nd1 Tm3 Si8'
_cell_volume   293.92756495
_cell_formula_units_Z   1
loop_
 _symmetry_equiv_pos_site_id
 _symmetry_equiv_pos_as_xyz
  1  'x, y, z'
loop_
 _atom_site_type_symbol
 _atom_site_label
 _atom_site_symmetry_multiplicity
 _atom_site_fract_x
 _atom_site_fract_y
 _atom_site_fract_z
 _atom_site_occupancy
  Li  Li0  1  0.250000  0.993856  0.393661  1
  Li  Li1  1  0.750000  0.013548  0.608900  1
  Li  Li2  1  0.250000  0.486261  0.106322  1
  Li  Li3  1  0.750000  0.512278  0.895327  1
  Nd  Nd4  1  0.750000  0.360422  0.362685  1
  Tm  Tm5  1  0.250000  0.131776  0.862458  1
  Tm  Tm6  1  0.750000  0.862710  0.135202  1
  Tm  Tm7  1  0.250000  0.637283  0.637232  1
  Si  Si8  1  0.750000  0.258664  0.060588  1
  Si  Si9  1  0.250000  0.733622  0.932573  1
  Si  Si10  1  0.750000  0.772959  0.433184  1
  Si  Si11  1  0.250000  0.234006  0.574898  1
  Si  Si12  1  0.750000  0.842048  0.818196  1
  Si  Si13  1  0.250000  0.150411  0.174096  1
  Si  Si14  1  0.750000  0.344650  0.686273  1
  Si  Si15  1  0.250000  0.665505  0.318405  1
