# generated using pymatgen
data_Pr8B8Ir17Rh3
_symmetry_space_group_name_H-M   'P 1'
_cell_length_a   5.56855201
_cell_length_b   5.56855385
_cell_length_c   21.31335100
_cell_angle_alpha   90.00000000
_cell_angle_beta   90.00000000
_cell_angle_gamma   119.99822199
_symmetry_Int_Tables_number   1
_chemical_formula_structural   Pr8B8Ir17Rh3
_chemical_formula_sum   'Pr8 B8 Ir17 Rh3'
_cell_volume   572.36735262
_cell_formula_units_Z   1
loop_
 _symmetry_equiv_pos_site_id
 _symmetry_equiv_pos_as_xyz
  1  'x, y, z'
loop_
 _atom_site_type_symbol
 _atom_site_label
 _atom_site_symmetry_multiplicity
 _atom_site_fract_x
 _atom_site_fract_y
 _atom_site_fract_z
 _atom_site_occupancy
  Pr  Pr0  1  0.666671  0.333329  0.522205  1
  Pr  Pr1  1  0.333323  0.666677  0.477905  1
  Pr  Pr2  1  0.333323  0.666677  0.022095  1
  Pr  Pr3  1  0.666671  0.333329  0.977795  1
  Pr  Pr4  1  0.666758  0.333242  0.674913  1
  Pr  Pr5  1  0.333239  0.666761  0.325141  1
  Pr  Pr6  1  0.333239  0.666761  0.174859  1
  Pr  Pr7  1  0.666758  0.333242  0.825087  1
  B  B8  1  0.000075  0.999925  0.678146  1
  B  B9  1  0.999924  0.000076  0.322467  1
  B  B10  1  0.999924  0.000076  0.177533  1
  B  B11  1  0.000075  0.999925  0.821854  1
  B  B12  1  0.666599  0.333401  0.326217  1
  B  B13  1  0.333402  0.666598  0.674356  1
  B  B14  1  0.333402  0.666598  0.825644  1
  B  B15  1  0.666599  0.333401  0.173783  1
  Ir  Ir16  1  0.000000  0.000000  0.499591  1
  Ir  Ir17  1  0.000000  0.000000  0.000409  1
  Ir  Ir18  1  0.167894  0.335540  0.750000  1
  Ir  Ir19  1  0.167877  0.832123  0.750000  1
  Ir  Ir20  1  0.664460  0.832106  0.750000  1
  Ir  Ir21  1  0.162483  0.324754  0.608009  1
  Ir  Ir22  1  0.162480  0.837520  0.607999  1
  Ir  Ir23  1  0.675246  0.837517  0.608009  1
  Ir  Ir24  1  0.837177  0.674564  0.391211  1
  Ir  Ir25  1  0.837184  0.162816  0.391220  1
  Ir  Ir26  1  0.325436  0.162823  0.391211  1
  Ir  Ir27  1  0.837177  0.674564  0.108789  1
  Ir  Ir28  1  0.837184  0.162816  0.108780  1
  Ir  Ir29  1  0.325436  0.162823  0.108789  1
  Ir  Ir30  1  0.162483  0.324754  0.891991  1
  Ir  Ir31  1  0.162480  0.837520  0.892001  1
  Ir  Ir32  1  0.675246  0.837517  0.891991  1
  Rh  Rh33  1  0.832305  0.664827  0.250000  1
  Rh  Rh34  1  0.832299  0.167701  0.250000  1
  Rh  Rh35  1  0.335173  0.167695  0.250000  1
