# generated using pymatgen
data_DyY3MnNiC8
_symmetry_space_group_name_H-M   'P 1'
_cell_length_a   6.62260310
_cell_length_b   6.62278460
_cell_length_c   6.62299804
_cell_angle_alpha   134.88339273
_cell_angle_beta   110.78062779
_cell_angle_gamma   86.53306388
_symmetry_Int_Tables_number   1
_chemical_formula_structural   DyY3MnNiC8
_chemical_formula_sum   'Dy1 Y3 Mn1 Ni1 C8'
_cell_volume   184.35672953
_cell_formula_units_Z   1
loop_
 _symmetry_equiv_pos_site_id
 _symmetry_equiv_pos_as_xyz
  1  'x, y, z'
loop_
 _atom_site_type_symbol
 _atom_site_label
 _atom_site_symmetry_multiplicity
 _atom_site_fract_x
 _atom_site_fract_y
 _atom_site_fract_z
 _atom_site_occupancy
  Dy  Dy0  1  0.513052  0.356259  0.158564  1
  Y  Y1  1  0.487027  0.645556  0.843246  1
  Y  Y2  1  0.197667  0.854423  0.341448  1
  Y  Y3  1  0.802328  0.143793  0.656769  1
  Mn  Mn4  1  0.000035  0.750007  0.750007  1
  Ni  Ni5  1  0.999947  0.250018  0.249991  1
  C  C6  1  0.250835  0.050233  0.141025  1
  C  C7  1  0.749160  0.890145  0.799298  1
  C  C8  1  0.909044  0.609694  0.358931  1
  C  C9  1  0.090841  0.449804  0.700640  1
  C  C10  1  0.466948  0.133388  0.344406  1
  C  C11  1  0.533030  0.877580  0.666364  1
  C  C12  1  0.788747  0.622375  0.155511  1
  C  C13  1  0.211338  0.366725  0.833802  1
