# generated using pymatgen
data_Er3ThAlGa23Pt9
_symmetry_space_group_name_H-M   'P 1'
_cell_length_a   7.60766712
_cell_length_b   7.61435993
_cell_length_c   13.27440976
_cell_angle_alpha   84.48227626
_cell_angle_beta   101.07825078
_cell_angle_gamma   119.89579330
_symmetry_Int_Tables_number   1
_chemical_formula_structural   Er3ThAlGa23Pt9
_chemical_formula_sum   'Er3 Th1 Al1 Ga23 Pt9'
_cell_volume   654.20920446
_cell_formula_units_Z   1
loop_
 _symmetry_equiv_pos_site_id
 _symmetry_equiv_pos_as_xyz
  1  'x, y, z'
loop_
 _atom_site_type_symbol
 _atom_site_label
 _atom_site_symmetry_multiplicity
 _atom_site_fract_x
 _atom_site_fract_y
 _atom_site_fract_z
 _atom_site_occupancy
  Er  Er0  1  0.267525  0.000697  0.806998  1
  Er  Er1  1  0.061743  0.668244  0.190866  1
  Er  Er2  1  0.937854  0.332307  0.807138  1
  Th  Th3  1  0.731622  0.998609  0.191908  1
  Al  Al4  1  0.147571  0.666768  0.442383  1
  Ga  Ga5  1  0.808347  0.868349  0.816317  1
  Ga  Ga6  1  0.196387  0.131455  0.183994  1
  Ga  Ga7  1  0.983511  0.666556  0.938886  1
  Ga  Ga8  1  0.020704  0.338211  0.057454  1
  Ga  Ga9  1  0.397706  0.663206  0.816561  1
  Ga  Ga10  1  0.601514  0.340501  0.183061  1
  Ga  Ga11  1  0.884621  0.665416  0.673256  1
  Ga  Ga12  1  0.120248  0.337925  0.330126  1
  Ga  Ga13  1  0.603482  0.458522  0.816659  1
  Ga  Ga14  1  0.392987  0.536767  0.183771  1
  Ga  Ga15  1  0.229494  0.338152  0.672790  1
  Ga  Ga16  1  0.771268  0.657438  0.330970  1
  Ga  Ga17  1  0.854263  0.335348  0.558064  1
  Ga  Ga18  1  0.185495  0.997933  0.558177  1
  Ga  Ga19  1  0.815273  0.000476  0.444374  1
  Ga  Ga20  1  0.348564  0.997345  0.057591  1
  Ga  Ga21  1  0.645268  0.003963  0.936125  1
  Ga  Ga22  1  0.556647  0.994484  0.673557  1
  Ga  Ga23  1  0.440566  0.005681  0.329963  1
  Ga  Ga24  1  0.518864  0.667023  0.561350  1
  Ga  Ga25  1  0.480236  0.332709  0.440488  1
  Ga  Ga26  1  0.686428  0.665924  0.050701  1
  Ga  Ga27  1  0.310969  0.329295  0.944210  1
  Pt  Pt28  1  0.331977  0.671927  0.000361  1
  Pt  Pt29  1  0.546209  0.324732  0.638454  1
  Pt  Pt30  1  0.451786  0.675530  0.362764  1
  Pt  Pt31  1  0.887978  0.008304  0.640265  1
  Pt  Pt32  1  0.111995  0.989459  0.361218  1
  Pt  Pt33  1  0.670030  0.328718  0.000110  1
  Pt  Pt34  1  0.203663  0.666482  0.637829  1
  Pt  Pt35  1  0.798596  0.334886  0.361103  1
  Pt  Pt36  1  0.998605  0.000658  0.000160  1
