# generated using pymatgen
data_Dy4Ho4Ti11Si16W
_symmetry_space_group_name_H-M   'P 1'
_cell_length_a   7.02321396
_cell_length_b   7.02323293
_cell_length_c   12.91140304
_cell_angle_alpha   89.99475015
_cell_angle_beta   90.01494098
_cell_angle_gamma   90.05570678
_symmetry_Int_Tables_number   1
_chemical_formula_structural   Dy4Ho4Ti11Si16W
_chemical_formula_sum   'Dy4 Ho4 Ti11 Si16 W1'
_cell_volume   636.86324894
_cell_formula_units_Z   1
loop_
 _symmetry_equiv_pos_site_id
 _symmetry_equiv_pos_as_xyz
  1  'x, y, z'
loop_
 _atom_site_type_symbol
 _atom_site_label
 _atom_site_symmetry_multiplicity
 _atom_site_fract_x
 _atom_site_fract_y
 _atom_site_fract_z
 _atom_site_occupancy
  Dy  Dy0  1  0.340408  0.003213  0.467079  1
  Dy  Dy1  1  0.497057  0.840001  0.717561  1
  Dy  Dy2  1  0.501152  0.159354  0.215471  1
  Dy  Dy3  1  0.840214  0.497150  0.282476  1
  Ho  Ho4  1  0.159110  0.500702  0.784598  1
  Ho  Ho5  1  0.658041  0.998695  0.967046  1
  Ho  Ho6  1  0.002852  0.340735  0.533109  1
  Ho  Ho7  1  0.998733  0.658064  0.032778  1
  Ti  Ti8  1  0.174038  0.827263  0.249326  1
  Ti  Ti9  1  0.827396  0.174324  0.750693  1
  Ti  Ti10  1  0.673219  0.672932  0.500055  1
  Ti  Ti11  1  0.153770  0.009361  0.876799  1
  Ti  Ti12  1  0.491605  0.651566  0.124056  1
  Ti  Ti13  1  0.507478  0.348736  0.626565  1
  Ti  Ti14  1  0.651447  0.491716  0.875823  1
  Ti  Ti15  1  0.348446  0.507332  0.373570  1
  Ti  Ti16  1  0.848258  0.991898  0.375741  1
  Ti  Ti17  1  0.009307  0.153808  0.123093  1
  Ti  Ti18  1  0.992183  0.848190  0.624389  1
  Si  Si19  1  0.201883  0.131012  0.684587  1
  Si  Si20  1  0.369452  0.700509  0.934303  1
  Si  Si21  1  0.630839  0.297444  0.434548  1
  Si  Si22  1  0.700810  0.369755  0.065426  1
  Si  Si23  1  0.297065  0.630175  0.565682  1
  Si  Si24  1  0.797951  0.869508  0.184114  1
  Si  Si25  1  0.130362  0.202156  0.315409  1
  Si  Si26  1  0.869770  0.797526  0.815920  1
  Si  Si27  1  0.290690  0.953930  0.064568  1
  Si  Si28  1  0.546541  0.791391  0.314724  1
  Si  Si29  1  0.452521  0.208751  0.815789  1
  Si  Si30  1  0.791945  0.546333  0.685256  1
  Si  Si31  1  0.208498  0.452866  0.184200  1
  Si  Si32  1  0.709333  0.047608  0.564996  1
  Si  Si33  1  0.954167  0.290922  0.935322  1
  Si  Si34  1  0.047250  0.708734  0.435061  1
  W  W35  1  0.326207  0.326344  0.999870  1
