# generated using pymatgen
data_Yb2Y2Mn3CrB16
_symmetry_space_group_name_H-M   'P 1'
_cell_length_a   3.38938400
_cell_length_b   5.91774525
_cell_length_c   11.44784261
_cell_angle_alpha   89.95300064
_cell_angle_beta   90.00000000
_cell_angle_gamma   90.00000000
_symmetry_Int_Tables_number   1
_chemical_formula_structural   Yb2Y2Mn3CrB16
_chemical_formula_sum   'Yb2 Y2 Mn3 Cr1 B16'
_cell_volume   229.61515253
_cell_formula_units_Z   1
loop_
 _symmetry_equiv_pos_site_id
 _symmetry_equiv_pos_as_xyz
  1  'x, y, z'
loop_
 _atom_site_type_symbol
 _atom_site_label
 _atom_site_symmetry_multiplicity
 _atom_site_fract_x
 _atom_site_fract_y
 _atom_site_fract_z
 _atom_site_occupancy
  Yb  Yb0  1  0.500000  0.124220  0.651216  1
  Yb  Yb1  1  0.500000  0.876098  0.348898  1
  Y  Y2  1  0.500000  0.373913  0.151126  1
  Y  Y3  1  0.500000  0.626396  0.849169  1
  Mn  Mn4  1  0.500000  0.623473  0.580930  1
  Mn  Mn5  1  0.500000  0.125911  0.917516  1
  Mn  Mn6  1  0.500000  0.873493  0.081774  1
  Cr  Cr7  1  0.500000  0.376935  0.419659  1
  B  B8  1  0.000000  0.111219  0.046579  1
  B  B9  1  0.000000  0.888153  0.953348  1
  B  B10  1  0.000000  0.386467  0.547384  1
  B  B11  1  0.000000  0.615065  0.454138  1
  B  B12  1  0.000000  0.136887  0.467440  1
  B  B13  1  0.000000  0.862922  0.532977  1
  B  B14  1  0.000000  0.361164  0.967646  1
  B  B15  1  0.000000  0.638917  0.032285  1
  B  B16  1  0.000000  0.023727  0.190845  1
  B  B17  1  0.000000  0.975476  0.808819  1
  B  B18  1  0.000000  0.475498  0.690730  1
  B  B19  1  0.000000  0.524870  0.309025  1
  B  B20  1  0.000000  0.217408  0.316128  1
  B  B21  1  0.000000  0.781384  0.682873  1
  B  B22  1  0.000000  0.279113  0.816153  1
  B  B23  1  0.000000  0.721292  0.183344  1
