# generated using pymatgen
data_NaCa2Si(PPd4)5
_symmetry_space_group_name_H-M   'P 1'
_cell_length_a   8.67107664
_cell_length_b   8.67544937
_cell_length_c   8.67544716
_cell_angle_alpha   59.96679911
_cell_angle_beta   60.01660404
_cell_angle_gamma   60.01659790
_symmetry_Int_Tables_number   1
_chemical_formula_structural   NaCa2Si(PPd4)5
_chemical_formula_sum   'Na1 Ca2 Si1 P5 Pd20'
_cell_volume   461.46807419
_cell_formula_units_Z   1
loop_
 _symmetry_equiv_pos_site_id
 _symmetry_equiv_pos_as_xyz
  1  'x, y, z'
loop_
 _atom_site_type_symbol
 _atom_site_label
 _atom_site_symmetry_multiplicity
 _atom_site_fract_x
 _atom_site_fract_y
 _atom_site_fract_z
 _atom_site_occupancy
  Na  Na0  1  0.999731  0.000269  0.000269  1
  Ca  Ca1  1  0.250350  0.249650  0.249650  1
  Ca  Ca2  1  0.750351  0.749650  0.749650  1
  Si  Si3  1  0.736854  0.263146  0.263146  1
  P  P4  1  0.261775  0.738225  0.738224  1
  P  P5  1  0.263206  0.736794  0.261487  1
  P  P6  1  0.738513  0.261487  0.736795  1
  P  P7  1  0.263206  0.261487  0.736794  1
  P  P8  1  0.738513  0.736795  0.261487  1
  Pd  Pd9  1  0.384428  0.386443  0.386443  1
  Pd  Pd10  1  0.613867  0.613885  0.613884  1
  Pd  Pd11  1  0.386116  0.386135  0.841635  1
  Pd  Pd12  1  0.386116  0.841635  0.386134  1
  Pd  Pd13  1  0.613556  0.615572  0.157314  1
  Pd  Pd14  1  0.613557  0.157314  0.615571  1
  Pd  Pd15  1  0.842686  0.386443  0.386443  1
  Pd  Pd16  1  0.158363  0.613885  0.613885  1
  Pd  Pd17  1  0.344226  0.000717  0.000717  1
  Pd  Pd18  1  0.654337  0.000718  0.000719  1
  Pd  Pd19  1  0.999283  0.345660  0.655774  1
  Pd  Pd20  1  0.999283  0.655774  0.345661  1
  Pd  Pd21  1  0.001935  0.346107  0.998066  1
  Pd  Pd22  1  0.653893  0.998066  0.346107  1
  Pd  Pd23  1  0.999792  0.654777  0.000210  1
  Pd  Pd24  1  0.345222  0.000208  0.654778  1
  Pd  Pd25  1  0.001934  0.998066  0.346107  1
  Pd  Pd26  1  0.999792  0.000209  0.654777  1
  Pd  Pd27  1  0.653893  0.346107  0.998066  1
  Pd  Pd28  1  0.345222  0.654777  0.000208  1
