# generated using pymatgen
data_CoHg(CO3)2
_symmetry_space_group_name_H-M   'P 1'
_cell_length_a   6.06215525
_cell_length_b   6.06215414
_cell_length_c   6.06215620
_cell_angle_alpha   47.71974065
_cell_angle_beta   47.71974675
_cell_angle_gamma   47.71974445
_symmetry_Int_Tables_number   1
_chemical_formula_structural   CoHg(CO3)2
_chemical_formula_sum   'Co1 Hg1 C2 O6'
_cell_volume   111.65285881
_cell_formula_units_Z   1
loop_
 _symmetry_equiv_pos_site_id
 _symmetry_equiv_pos_as_xyz
  1  'x, y, z'
loop_
 _atom_site_type_symbol
 _atom_site_label
 _atom_site_symmetry_multiplicity
 _atom_site_fract_x
 _atom_site_fract_y
 _atom_site_fract_z
 _atom_site_occupancy
  Co  Co0  1  0.500000  0.500000  0.500000  1
  Hg  Hg1  1  0.000000  0.000000  0.000000  1
  C  C2  1  0.242460  0.242460  0.242460  1
  C  C3  1  0.757540  0.757540  0.757540  1
  O  O4  1  0.963553  0.276107  0.490022  1
  O  O5  1  0.276107  0.490022  0.963553  1
  O  O6  1  0.490022  0.963553  0.276107  1
  O  O7  1  0.036447  0.723893  0.509978  1
  O  O8  1  0.723893  0.509978  0.036447  1
  O  O9  1  0.509978  0.036447  0.723893  1
