# generated using pymatgen
data_MoBr2F
_symmetry_space_group_name_H-M   'P 1'
_cell_length_a   7.57562625
_cell_length_b   7.57562599
_cell_length_c   7.57562600
_cell_angle_alpha   149.67771984
_cell_angle_beta   148.17293566
_cell_angle_gamma   44.53329892
_symmetry_Int_Tables_number   1
_chemical_formula_structural   MoBr2F
_chemical_formula_sum   'Mo1 Br2 F1'
_cell_volume   115.40759012
_cell_formula_units_Z   1
loop_
 _symmetry_equiv_pos_site_id
 _symmetry_equiv_pos_as_xyz
  1  'x, y, z'
loop_
 _atom_site_type_symbol
 _atom_site_label
 _atom_site_symmetry_multiplicity
 _atom_site_fract_x
 _atom_site_fract_y
 _atom_site_fract_z
 _atom_site_occupancy
  Mo  Mo0  1  0.000000  0.000000  0.000000  1
  Br  Br1  1  0.871501  0.371501  0.500000  1
  Br  Br2  1  0.128499  0.628499  0.500000  1
  F  F3  1  0.500000  0.000000  0.500000  1
