# generated using pymatgen
data_ErLuGa3Pt
_symmetry_space_group_name_H-M   'P 1'
_cell_length_a   8.80909236
_cell_length_b   8.82017054
_cell_length_c   6.94063600
_cell_angle_alpha   90.00000000
_cell_angle_beta   90.00000000
_cell_angle_gamma   120.04311147
_symmetry_Int_Tables_number   1
_chemical_formula_structural   ErLuGa3Pt
_chemical_formula_sum   'Er4 Lu4 Ga12 Pt4'
_cell_volume   466.81974416
_cell_formula_units_Z   4
loop_
 _symmetry_equiv_pos_site_id
 _symmetry_equiv_pos_as_xyz
  1  'x, y, z'
loop_
 _atom_site_type_symbol
 _atom_site_label
 _atom_site_symmetry_multiplicity
 _atom_site_fract_x
 _atom_site_fract_y
 _atom_site_fract_z
 _atom_site_occupancy
  Er  Er0  1  0.000183  0.999912  0.250000  1
  Er  Er1  1  0.999829  0.000068  0.750000  1
  Er  Er2  1  0.520346  0.040554  0.250000  1
  Er  Er3  1  0.520323  0.479995  0.250000  1
  Lu  Lu4  1  0.959101  0.479612  0.250000  1
  Lu  Lu5  1  0.479344  0.958567  0.750000  1
  Lu  Lu6  1  0.479492  0.520556  0.750000  1
  Lu  Lu7  1  0.041258  0.520601  0.750000  1
  Ga  Ga8  1  0.166414  0.333751  0.046932  1
  Ga  Ga9  1  0.166607  0.832605  0.453076  1
  Ga  Ga10  1  0.666271  0.833211  0.453516  1
  Ga  Ga11  1  0.666271  0.833211  0.046484  1
  Ga  Ga12  1  0.166607  0.832605  0.046924  1
  Ga  Ga13  1  0.833339  0.666184  0.952510  1
  Ga  Ga14  1  0.833139  0.167228  0.952527  1
  Ga  Ga15  1  0.333961  0.166916  0.952169  1
  Ga  Ga16  1  0.166414  0.333751  0.453068  1
  Ga  Ga17  1  0.333961  0.166916  0.547831  1
  Ga  Ga18  1  0.833339  0.666184  0.547490  1
  Ga  Ga19  1  0.833139  0.167228  0.547473  1
  Pt  Pt20  1  0.332870  0.666340  0.027023  1
  Pt  Pt21  1  0.332870  0.666340  0.472977  1
  Pt  Pt22  1  0.667460  0.333832  0.970388  1
  Pt  Pt23  1  0.667460  0.333832  0.529612  1
