# generated using pymatgen
data_YGa3NiAu
_symmetry_space_group_name_H-M   'P 1'
_cell_length_a   7.99191115
_cell_length_b   7.99191161
_cell_length_c   6.56896100
_cell_angle_alpha   90.00000000
_cell_angle_beta   90.00000000
_cell_angle_gamma   150.34732468
_symmetry_Int_Tables_number   1
_chemical_formula_structural   YGa3NiAu
_chemical_formula_sum   'Y2 Ga6 Ni2 Au2'
_cell_volume   207.57542491
_cell_formula_units_Z   2
loop_
 _symmetry_equiv_pos_site_id
 _symmetry_equiv_pos_as_xyz
  1  'x, y, z'
loop_
 _atom_site_type_symbol
 _atom_site_label
 _atom_site_symmetry_multiplicity
 _atom_site_fract_x
 _atom_site_fract_y
 _atom_site_fract_z
 _atom_site_occupancy
  Y  Y0  1  0.375174  0.624826  0.750000  1
  Y  Y1  1  0.624826  0.375174  0.250000  1
  Ga  Ga2  1  0.569837  0.430163  0.750000  1
  Ga  Ga3  1  0.430163  0.569837  0.250000  1
  Ga  Ga4  1  0.185150  0.814850  0.948540  1
  Ga  Ga5  1  0.814850  0.185150  0.051460  1
  Ga  Ga6  1  0.185150  0.814850  0.551460  1
  Ga  Ga7  1  0.814850  0.185150  0.448540  1
  Ni  Ni8  1  0.724208  0.275792  0.750000  1
  Ni  Ni9  1  0.275792  0.724208  0.250000  1
  Au  Au10  1  0.000000  0.000000  0.000000  1
  Au  Au11  1  0.000000  0.000000  0.500000  1
