# generated using pymatgen
data_Tb8Hf4Zr8Si15Au
_symmetry_space_group_name_H-M   'P 1'
_cell_length_a   7.34153775
_cell_length_b   7.38681028
_cell_length_c   13.53845551
_cell_angle_alpha   89.89859197
_cell_angle_beta   89.88128780
_cell_angle_gamma   89.95877723
_symmetry_Int_Tables_number   1
_chemical_formula_structural   Tb8Hf4Zr8Si15Au
_chemical_formula_sum   'Tb8 Hf4 Zr8 Si15 Au1'
_cell_volume   734.19492761
_cell_formula_units_Z   1
loop_
 _symmetry_equiv_pos_site_id
 _symmetry_equiv_pos_as_xyz
  1  'x, y, z'
loop_
 _atom_site_type_symbol
 _atom_site_label
 _atom_site_symmetry_multiplicity
 _atom_site_fract_x
 _atom_site_fract_y
 _atom_site_fract_z
 _atom_site_occupancy
  Tb  Tb0  1  0.991095  0.347518  0.213333  1
  Tb  Tb1  1  0.003622  0.654575  0.714554  1
  Tb  Tb2  1  0.154370  0.499450  0.465987  1
  Tb  Tb3  1  0.504408  0.843285  0.034140  1
  Tb  Tb4  1  0.845068  0.502481  0.964482  1
  Tb  Tb5  1  0.497401  0.152928  0.538360  1
  Tb  Tb6  1  0.344322  0.998056  0.785631  1
  Tb  Tb7  1  0.660937  0.996639  0.284215  1
  Hf  Hf8  1  0.493721  0.350779  0.121887  1
  Hf  Hf9  1  0.652026  0.511465  0.380367  1
  Hf  Hf10  1  0.994688  0.147685  0.626159  1
  Hf  Hf11  1  0.001941  0.850056  0.123720  1
  Zr  Zr12  1  0.175030  0.176849  0.998992  1
  Zr  Zr13  1  0.825894  0.824600  0.500330  1
  Zr  Zr14  1  0.325390  0.681825  0.248983  1
  Zr  Zr15  1  0.675392  0.324432  0.750140  1
  Zr  Zr16  1  0.144715  0.996964  0.374555  1
  Zr  Zr17  1  0.852352  0.003843  0.874876  1
  Zr  Zr18  1  0.504507  0.648908  0.625144  1
  Zr  Zr19  1  0.352220  0.495421  0.874840  1
  Si  Si20  1  0.638711  0.707557  0.817636  1
  Si  Si21  1  0.205289  0.863207  0.567562  1
  Si  Si22  1  0.138180  0.794425  0.933437  1
  Si  Si23  1  0.793828  0.137684  0.066723  1
  Si  Si24  1  0.858890  0.203753  0.435815  1
  Si  Si25  1  0.292687  0.360857  0.682997  1
  Si  Si26  1  0.705568  0.638143  0.181959  1
  Si  Si27  1  0.292206  0.046122  0.181712  1
  Si  Si28  1  0.706060  0.949692  0.686593  1
  Si  Si29  1  0.447949  0.794607  0.436616  1
  Si  Si30  1  0.204526  0.551707  0.063657  1
  Si  Si31  1  0.549957  0.204327  0.936545  1
  Si  Si32  1  0.795584  0.447454  0.565123  1
  Si  Si33  1  0.049976  0.295317  0.812889  1
  Si  Si34  1  0.949503  0.703970  0.312011  1
  Au  Au35  1  0.371994  0.293417  0.318030  1
