# generated using pymatgen
data_La2Dy4OsBr10
_symmetry_space_group_name_H-M   'P 1'
_cell_length_a   7.52440046
_cell_length_b   9.47224733
_cell_length_c   9.39443207
_cell_angle_alpha   107.30780071
_cell_angle_beta   94.82771048
_cell_angle_gamma   106.97696414
_symmetry_Int_Tables_number   1
_chemical_formula_structural   La2Dy4OsBr10
_chemical_formula_sum   'La2 Dy4 Os1 Br10'
_cell_volume   600.57405848
_cell_formula_units_Z   1
loop_
 _symmetry_equiv_pos_site_id
 _symmetry_equiv_pos_as_xyz
  1  'x, y, z'
loop_
 _atom_site_type_symbol
 _atom_site_label
 _atom_site_symmetry_multiplicity
 _atom_site_fract_x
 _atom_site_fract_y
 _atom_site_fract_z
 _atom_site_occupancy
  La  La0  1  0.627773  0.550111  0.262545  1
  La  La1  1  0.372227  0.449889  0.737455  1
  Dy  Dy2  1  0.526021  0.198110  0.403774  1
  Dy  Dy3  1  0.473979  0.801890  0.596226  1
  Dy  Dy4  1  0.135819  0.359258  0.322113  1
  Dy  Dy5  1  0.864181  0.640742  0.677887  1
  Os  Os6  1  0.500000  0.500000  0.500000  1
  Br  Br7  1  0.153129  0.051686  0.231414  1
  Br  Br8  1  0.846871  0.948314  0.768586  1
  Br  Br9  1  0.235429  0.411627  0.052106  1
  Br  Br10  1  0.764571  0.588373  0.947894  1
  Br  Br11  1  0.719197  0.237470  0.160101  1
  Br  Br12  1  0.280803  0.762530  0.839899  1
  Br  Br13  1  0.056032  0.674917  0.422663  1
  Br  Br14  1  0.943968  0.325083  0.577337  1
  Br  Br15  1  0.416426  0.120343  0.663800  1
  Br  Br16  1  0.583574  0.879657  0.336200  1
