# generated using pymatgen
data_Zn2NiRh3O8
_symmetry_space_group_name_H-M   'P 1'
_cell_length_a   6.00750477
_cell_length_b   6.13747889
_cell_length_c   6.13748000
_cell_angle_alpha   60.00000482
_cell_angle_beta   59.28169686
_cell_angle_gamma   59.28169997
_symmetry_Int_Tables_number   1
_chemical_formula_structural   Zn2NiRh3O8
_chemical_formula_sum   'Zn2 Ni1 Rh3 O8'
_cell_volume   158.25510386
_cell_formula_units_Z   1
loop_
 _symmetry_equiv_pos_site_id
 _symmetry_equiv_pos_as_xyz
  1  'x, y, z'
loop_
 _atom_site_type_symbol
 _atom_site_label
 _atom_site_symmetry_multiplicity
 _atom_site_fract_x
 _atom_site_fract_y
 _atom_site_fract_z
 _atom_site_occupancy
  Zn  Zn0  1  0.480176  0.506608  0.506608  1
  Zn  Zn1  1  0.769824  0.743392  0.743392  1
  Ni  Ni2  1  0.625000  0.125000  0.125000  1
  Rh  Rh3  1  0.125000  0.125000  0.125000  1
  Rh  Rh4  1  0.125000  0.625000  0.125000  1
  Rh  Rh5  1  0.125000  0.125000  0.625000  1
  O  O6  1  0.358568  0.367844  0.367844  1
  O  O7  1  0.345769  0.884744  0.884744  1
  O  O8  1  0.891432  0.882156  0.344257  1
  O  O9  1  0.891432  0.344257  0.882156  1
  O  O10  1  0.358568  0.367844  0.905743  1
  O  O11  1  0.358568  0.905743  0.367844  1
  O  O12  1  0.891432  0.882156  0.882156  1
  O  O13  1  0.904231  0.365256  0.365256  1
