# generated using pymatgen
data_Hf3ScF15
_symmetry_space_group_name_H-M   'P 1'
_cell_length_a   7.92621220
_cell_length_b   7.92621232
_cell_length_c   7.92621166
_cell_angle_alpha   99.93659323
_cell_angle_beta   99.93659767
_cell_angle_gamma   99.93660962
_symmetry_Int_Tables_number   1
_chemical_formula_structural   Hf3ScF15
_chemical_formula_sum   'Hf6 Sc2 F30'
_cell_volume   472.51269870
_cell_formula_units_Z   2
loop_
 _symmetry_equiv_pos_site_id
 _symmetry_equiv_pos_as_xyz
  1  'x, y, z'
loop_
 _atom_site_type_symbol
 _atom_site_label
 _atom_site_symmetry_multiplicity
 _atom_site_fract_x
 _atom_site_fract_y
 _atom_site_fract_z
 _atom_site_occupancy
  Hf  Hf0  1  0.680988  0.819012  0.250000  1
  Hf  Hf1  1  0.750000  0.319012  0.180988  1
  Hf  Hf2  1  0.819012  0.250000  0.680988  1
  Hf  Hf3  1  0.180988  0.750000  0.319012  1
  Hf  Hf4  1  0.250000  0.680988  0.819012  1
  Hf  Hf5  1  0.319012  0.180988  0.750000  1
  Sc  Sc6  1  0.750000  0.750000  0.750000  1
  Sc  Sc7  1  0.250000  0.250000  0.250000  1
  F  F8  1  0.961987  0.538013  0.250000  1
  F  F9  1  0.280163  0.515868  0.278833  1
  F  F10  1  0.150471  0.676616  0.048613  1
  F  F11  1  0.750000  0.038013  0.461987  1
  F  F12  1  0.778833  0.015868  0.780163  1
  F  F13  1  0.548613  0.176616  0.650471  1
  F  F14  1  0.984132  0.219837  0.221167  1
  F  F15  1  0.219837  0.221167  0.984132  1
  F  F16  1  0.676616  0.048613  0.150471  1
  F  F17  1  0.823384  0.349529  0.451387  1
  F  F18  1  0.538013  0.250000  0.961987  1
  F  F19  1  0.048613  0.150471  0.676616  1
  F  F20  1  0.349529  0.451387  0.823384  1
  F  F21  1  0.515868  0.278833  0.280163  1
  F  F22  1  0.278833  0.280163  0.515868  1
  F  F23  1  0.721167  0.719837  0.484132  1
  F  F24  1  0.484132  0.721167  0.719837  1
  F  F25  1  0.650471  0.548613  0.176616  1
  F  F26  1  0.951387  0.849529  0.323384  1
  F  F27  1  0.461987  0.750000  0.038013  1
  F  F28  1  0.176616  0.650471  0.548613  1
  F  F29  1  0.323384  0.951387  0.849529  1
  F  F30  1  0.780163  0.778833  0.015868  1
  F  F31  1  0.015868  0.780163  0.778833  1
  F  F32  1  0.451387  0.823384  0.349529  1
  F  F33  1  0.221167  0.984132  0.219837  1
  F  F34  1  0.250000  0.961987  0.538013  1
  F  F35  1  0.849529  0.323384  0.951387  1
  F  F36  1  0.719837  0.484132  0.721167  1
  F  F37  1  0.038013  0.461987  0.750000  1
