# generated using pymatgen
data_Tb5Ho5(Pb3Se)2
_symmetry_space_group_name_H-M   'P 1'
_cell_length_a   9.18118200
_cell_length_b   9.18126061
_cell_length_c   6.74185100
_cell_angle_alpha   90.00000000
_cell_angle_beta   90.00000000
_cell_angle_gamma   120.01937643
_symmetry_Int_Tables_number   1
_chemical_formula_structural   Tb5Ho5(Pb3Se)2
_chemical_formula_sum   'Tb5 Ho5 Pb6 Se2'
_cell_volume   492.06883977
_cell_formula_units_Z   1
loop_
 _symmetry_equiv_pos_site_id
 _symmetry_equiv_pos_as_xyz
  1  'x, y, z'
loop_
 _atom_site_type_symbol
 _atom_site_label
 _atom_site_symmetry_multiplicity
 _atom_site_fract_x
 _atom_site_fract_y
 _atom_site_fract_z
 _atom_site_occupancy
  Tb  Tb0  1  0.251651  0.000454  0.750000  1
  Tb  Tb1  1  0.000462  0.251654  0.750000  1
  Tb  Tb2  1  0.250722  0.250726  0.250000  1
  Tb  Tb3  1  0.748559  0.999558  0.250000  1
  Tb  Tb4  1  0.999566  0.748557  0.250000  1
  Ho  Ho5  1  0.750177  0.750188  0.750000  1
  Ho  Ho6  1  0.666682  0.333345  0.999922  1
  Ho  Ho7  1  0.333355  0.666680  0.999926  1
  Ho  Ho8  1  0.333355  0.666680  0.500074  1
  Ho  Ho9  1  0.666682  0.333345  0.500078  1
  Pb  Pb10  1  0.397961  0.397931  0.750000  1
  Pb  Pb11  1  0.603558  0.999411  0.750000  1
  Pb  Pb12  1  0.999405  0.603569  0.750000  1
  Pb  Pb13  1  0.602851  0.602879  0.250000  1
  Pb  Pb14  1  0.396674  0.999913  0.250000  1
  Pb  Pb15  1  0.999868  0.396645  0.250000  1
  Se  Se16  1  0.999240  0.999232  0.999112  1
  Se  Se17  1  0.999240  0.999232  0.500888  1
