# generated using pymatgen
data_Nd4Tm2Ga3Ge
_symmetry_space_group_name_H-M   'P 1'
_cell_length_a   7.69877610
_cell_length_b   7.69877610
_cell_length_c   4.50873900
_cell_angle_alpha   90.00000000
_cell_angle_beta   90.00000000
_cell_angle_gamma   90.33600062
_symmetry_Int_Tables_number   1
_chemical_formula_structural   Nd4Tm2Ga3Ge
_chemical_formula_sum   'Nd4 Tm2 Ga3 Ge1'
_cell_volume   267.23356558
_cell_formula_units_Z   1
loop_
 _symmetry_equiv_pos_site_id
 _symmetry_equiv_pos_as_xyz
  1  'x, y, z'
loop_
 _atom_site_type_symbol
 _atom_site_label
 _atom_site_symmetry_multiplicity
 _atom_site_fract_x
 _atom_site_fract_y
 _atom_site_fract_z
 _atom_site_occupancy
  Nd  Nd0  1  0.325825  0.174964  0.500000  1
  Nd  Nd1  1  0.823049  0.323049  0.500000  1
  Nd  Nd2  1  0.175096  0.675096  0.500000  1
  Nd  Nd3  1  0.674964  0.825825  0.500000  1
  Tm  Tm4  1  0.998109  0.999603  0.000000  1
  Tm  Tm5  1  0.499603  0.498109  0.000000  1
  Ga  Ga6  1  0.120558  0.380271  0.000000  1
  Ga  Ga7  1  0.880272  0.620558  0.000000  1
  Ga  Ga8  1  0.380129  0.880130  0.000000  1
  Ge  Ge9  1  0.622391  0.122391  0.000000  1
