# generated using pymatgen
data_YTm3Hf5Si8Mo
_symmetry_space_group_name_H-M   'P 1'
_cell_length_a   7.20368300
_cell_length_b   6.95426312
_cell_length_c   7.16275615
_cell_angle_alpha   71.91700531
_cell_angle_beta   90.15325943
_cell_angle_gamma   90.02782134
_symmetry_Int_Tables_number   1
_chemical_formula_structural   YTm3Hf5Si8Mo
_chemical_formula_sum   'Y1 Tm3 Hf5 Si8 Mo1'
_cell_volume   341.10313731
_cell_formula_units_Z   1
loop_
 _symmetry_equiv_pos_site_id
 _symmetry_equiv_pos_as_xyz
  1  'x, y, z'
loop_
 _atom_site_type_symbol
 _atom_site_label
 _atom_site_symmetry_multiplicity
 _atom_site_fract_x
 _atom_site_fract_y
 _atom_site_fract_z
 _atom_site_occupancy
  Y  Y0  1  0.673220  0.569275  0.809024  1
  Tm  Tm1  1  0.169970  0.927787  0.192653  1
  Tm  Tm2  1  0.325704  0.430049  0.192516  1
  Tm  Tm3  1  0.830308  0.072335  0.807258  1
  Hf  Hf4  1  0.823382  0.252764  0.251828  1
  Hf  Hf5  1  0.317645  0.253247  0.746525  1
  Hf  Hf6  1  0.176710  0.747029  0.748342  1
  Hf  Hf7  1  0.682063  0.746444  0.253282  1
  Hf  Hf8  1  0.499646  0.000341  0.499729  1
  Si  Si9  1  0.530771  0.131177  0.082887  1
  Si  Si10  1  0.373656  0.629978  0.489310  1
  Si  Si11  1  0.878840  0.867168  0.508138  1
  Si  Si12  1  0.031599  0.367524  0.916282  1
  Si  Si13  1  0.122123  0.133789  0.490623  1
  Si  Si14  1  0.625181  0.369609  0.508926  1
  Si  Si15  1  0.970504  0.631459  0.085435  1
  Si  Si16  1  0.468160  0.870085  0.917794  1
  Mo  Mo17  1  0.000520  0.499940  0.499449  1
