# generated using pymatgen
data_Ca5UTi2(Co4P3)4
_symmetry_space_group_name_H-M   'P 1'
_cell_length_a   3.74018700
_cell_length_b   10.70250768
_cell_length_c   12.45358100
_cell_angle_alpha   90.35779755
_cell_angle_beta   90.00000000
_cell_angle_gamma   90.00000000
_symmetry_Int_Tables_number   1
_chemical_formula_structural   Ca5UTi2(Co4P3)4
_chemical_formula_sum   'Ca5 U1 Ti2 Co16 P12'
_cell_volume   498.49940731
_cell_formula_units_Z   1
loop_
 _symmetry_equiv_pos_site_id
 _symmetry_equiv_pos_as_xyz
  1  'x, y, z'
loop_
 _atom_site_type_symbol
 _atom_site_label
 _atom_site_symmetry_multiplicity
 _atom_site_fract_x
 _atom_site_fract_y
 _atom_site_fract_z
 _atom_site_occupancy
  Ca  Ca0  1  0.000000  0.499835  0.526870  1
  Ca  Ca1  1  0.500000  0.999130  0.473962  1
  Ca  Ca2  1  0.500000  0.179758  0.204653  1
  Ca  Ca3  1  0.000000  0.677190  0.796039  1
  Ca  Ca4  1  0.000000  0.323174  0.795229  1
  U  U5  1  0.500000  0.827952  0.208542  1
  Ti  Ti6  1  0.500000  0.503818  0.153658  1
  Ti  Ti7  1  0.000000  0.999312  0.847155  1
  Co  Co8  1  0.500000  0.498540  0.703960  1
  Co  Co9  1  0.000000  0.983796  0.288890  1
  Co  Co10  1  0.000000  0.502480  0.990675  1
  Co  Co11  1  0.500000  0.999702  0.009952  1
  Co  Co12  1  0.500000  0.333706  0.996928  1
  Co  Co13  1  0.500000  0.671533  0.997151  1
  Co  Co14  1  0.000000  0.170446  0.004246  1
  Co  Co15  1  0.000000  0.834541  0.005074  1
  Co  Co16  1  0.500000  0.294495  0.432315  1
  Co  Co17  1  0.500000  0.700163  0.431974  1
  Co  Co18  1  0.000000  0.201911  0.567115  1
  Co  Co19  1  0.000000  0.795517  0.568725  1
  Co  Co20  1  0.500000  0.878648  0.705710  1
  Co  Co21  1  0.500000  0.119632  0.704898  1
  Co  Co22  1  0.000000  0.624393  0.290136  1
  Co  Co23  1  0.000000  0.381105  0.295908  1
  P  P24  1  0.500000  0.501389  0.885966  1
  P  P25  1  0.000000  0.002169  0.109406  1
  P  P26  1  0.500000  0.497831  0.351293  1
  P  P27  1  0.000000  0.999281  0.649657  1
  P  P28  1  0.500000  0.306772  0.616541  1
  P  P29  1  0.500000  0.690024  0.617300  1
  P  P30  1  0.000000  0.191671  0.383961  1
  P  P31  1  0.000000  0.802059  0.387913  1
  P  P32  1  0.500000  0.842580  0.891148  1
  P  P33  1  0.500000  0.157627  0.892337  1
  P  P34  1  0.000000  0.662214  0.107521  1
  P  P35  1  0.000000  0.345604  0.107183  1
