# generated using pymatgen
data_Tb20Cd6CoRu
_symmetry_space_group_name_H-M   'P 1'
_cell_length_a   9.64523400
_cell_length_b   9.64523429
_cell_length_c   9.89603300
_cell_angle_alpha   90.00000000
_cell_angle_beta   90.00000000
_cell_angle_gamma   119.99999902
_symmetry_Int_Tables_number   1
_chemical_formula_structural   Tb20Cd6CoRu
_chemical_formula_sum   'Tb20 Cd6 Co1 Ru1'
_cell_volume   797.29184229
_cell_formula_units_Z   1
loop_
 _symmetry_equiv_pos_site_id
 _symmetry_equiv_pos_as_xyz
  1  'x, y, z'
loop_
 _atom_site_type_symbol
 _atom_site_label
 _atom_site_symmetry_multiplicity
 _atom_site_fract_x
 _atom_site_fract_y
 _atom_site_fract_z
 _atom_site_occupancy
  Tb  Tb0  1  0.000000  0.000000  0.500169  1
  Tb  Tb1  1  0.000000  0.000000  0.999831  1
  Tb  Tb2  1  0.212211  0.787789  0.436115  1
  Tb  Tb3  1  0.212211  0.424424  0.436115  1
  Tb  Tb4  1  0.575576  0.787789  0.436115  1
  Tb  Tb5  1  0.790617  0.209383  0.560248  1
  Tb  Tb6  1  0.790617  0.581235  0.560248  1
  Tb  Tb7  1  0.418765  0.209383  0.560248  1
  Tb  Tb8  1  0.790617  0.209383  0.939752  1
  Tb  Tb9  1  0.790617  0.581235  0.939752  1
  Tb  Tb10  1  0.418765  0.209383  0.939752  1
  Tb  Tb11  1  0.212211  0.787789  0.063885  1
  Tb  Tb12  1  0.212211  0.424424  0.063885  1
  Tb  Tb13  1  0.575576  0.787789  0.063885  1
  Tb  Tb14  1  0.541893  0.458107  0.250000  1
  Tb  Tb15  1  0.541893  0.083785  0.250000  1
  Tb  Tb16  1  0.916215  0.458107  0.250000  1
  Tb  Tb17  1  0.458130  0.541870  0.750000  1
  Tb  Tb18  1  0.458130  0.916261  0.750000  1
  Tb  Tb19  1  0.083739  0.541870  0.750000  1
  Cd  Cd20  1  0.885435  0.114565  0.250000  1
  Cd  Cd21  1  0.885435  0.770871  0.250000  1
  Cd  Cd22  1  0.229129  0.114565  0.250000  1
  Cd  Cd23  1  0.114659  0.885341  0.750000  1
  Cd  Cd24  1  0.114659  0.229318  0.750000  1
  Cd  Cd25  1  0.770682  0.885341  0.750000  1
  Co  Co26  1  0.333333  0.666667  0.250000  1
  Ru  Ru27  1  0.666667  0.333333  0.750000  1
