# generated using pymatgen
data_La4Al3ZnPt4
_symmetry_space_group_name_H-M   'P 1'
_cell_length_a   4.55697700
_cell_length_b   7.20337256
_cell_length_c   7.99280960
_cell_angle_alpha   89.45096480
_cell_angle_beta   90.00000000
_cell_angle_gamma   90.00000000
_symmetry_Int_Tables_number   1
_chemical_formula_structural   La4Al3ZnPt4
_chemical_formula_sum   'La4 Al3 Zn1 Pt4'
_cell_volume   262.35674965
_cell_formula_units_Z   1
loop_
 _symmetry_equiv_pos_site_id
 _symmetry_equiv_pos_as_xyz
  1  'x, y, z'
loop_
 _atom_site_type_symbol
 _atom_site_label
 _atom_site_symmetry_multiplicity
 _atom_site_fract_x
 _atom_site_fract_y
 _atom_site_fract_z
 _atom_site_occupancy
  La  La0  1  0.250000  0.033322  0.686891  1
  La  La1  1  0.250000  0.532456  0.818965  1
  La  La2  1  0.750000  0.968465  0.314442  1
  La  La3  1  0.750000  0.463673  0.180363  1
  Al  Al4  1  0.250000  0.646113  0.434133  1
  Al  Al5  1  0.750000  0.854064  0.934225  1
  Al  Al6  1  0.750000  0.357928  0.564419  1
  Zn  Zn7  1  0.250000  0.149290  0.069242  1
  Pt  Pt8  1  0.250000  0.286809  0.395984  1
  Pt  Pt9  1  0.250000  0.774068  0.112092  1
  Pt  Pt10  1  0.750000  0.716722  0.612105  1
  Pt  Pt11  1  0.750000  0.217090  0.877140  1
