# generated using pymatgen
data_ScTa2(SiTc)3
_symmetry_space_group_name_H-M   'P 1'
_cell_length_a   6.93230332
_cell_length_b   6.93230222
_cell_length_c   3.30838400
_cell_angle_alpha   90.00000000
_cell_angle_beta   90.00000000
_cell_angle_gamma   120.87329263
_symmetry_Int_Tables_number   1
_chemical_formula_structural   ScTa2(SiTc)3
_chemical_formula_sum   'Sc1 Ta2 Si3 Tc3'
_cell_volume   136.46214365
_cell_formula_units_Z   1
loop_
 _symmetry_equiv_pos_site_id
 _symmetry_equiv_pos_as_xyz
  1  'x, y, z'
loop_
 _atom_site_type_symbol
 _atom_site_label
 _atom_site_symmetry_multiplicity
 _atom_site_fract_x
 _atom_site_fract_y
 _atom_site_fract_z
 _atom_site_occupancy
  Sc  Sc0  1  0.401991  0.401991  0.500000  1
  Ta  Ta1  1  0.600520  0.003030  0.500000  1
  Ta  Ta2  1  0.003030  0.600520  0.500000  1
  Si  Si3  1  0.667665  0.333576  0.000000  1
  Si  Si4  1  0.333576  0.667665  0.000000  1
  Si  Si5  1  0.999960  0.999960  0.500000  1
  Tc  Tc6  1  0.745895  0.745895  0.000000  1
  Tc  Tc7  1  0.254060  0.993305  0.000000  1
  Tc  Tc8  1  0.993305  0.254060  0.000000  1
