# generated using pymatgen
data_TbYb9Ir4
_symmetry_space_group_name_H-M   'P 1'
_cell_length_a   6.43644171
_cell_length_b   7.45516772
_cell_length_c   8.44525221
_cell_angle_alpha   97.03138000
_cell_angle_beta   112.39989117
_cell_angle_gamma   89.99999523
_symmetry_Int_Tables_number   1
_chemical_formula_structural   TbYb9Ir4
_chemical_formula_sum   'Tb1 Yb9 Ir4'
_cell_volume   371.36783065
_cell_formula_units_Z   1
loop_
 _symmetry_equiv_pos_site_id
 _symmetry_equiv_pos_as_xyz
  1  'x, y, z'
loop_
 _atom_site_type_symbol
 _atom_site_label
 _atom_site_symmetry_multiplicity
 _atom_site_fract_x
 _atom_site_fract_y
 _atom_site_fract_z
 _atom_site_occupancy
  Tb  Tb0  1  0.567954  0.750000  0.000000  1
  Yb  Yb1  1  0.795351  0.080028  0.828639  1
  Yb  Yb2  1  0.966712  0.419972  0.171361  1
  Yb  Yb3  1  0.202613  0.921462  0.172590  1
  Yb  Yb4  1  0.030022  0.578538  0.827410  1
  Yb  Yb5  1  0.202170  0.178922  0.564516  1
  Yb  Yb6  1  0.637654  0.321078  0.435484  1
  Yb  Yb7  1  0.799063  0.820811  0.439515  1
  Yb  Yb8  1  0.359547  0.679189  0.560485  1
  Yb  Yb9  1  0.428488  0.250000  0.000000  1
  Ir  Ir10  1  0.605322  0.427862  0.784655  1
  Ir  Ir11  1  0.820667  0.072138  0.215345  1
  Ir  Ir12  1  0.399825  0.582692  0.215213  1
  Ir  Ir13  1  0.184612  0.917308  0.784787  1
