# generated using pymatgen
data_GdThSb5
_symmetry_space_group_name_H-M   'P 1'
_cell_length_a   4.30674800
_cell_length_b   13.52062789
_cell_length_c   14.96090600
_cell_angle_alpha   78.44445815
_cell_angle_beta   90.00000000
_cell_angle_gamma   90.00000000
_symmetry_Int_Tables_number   1
_chemical_formula_structural   GdThSb5
_chemical_formula_sum   'Gd4 Th4 Sb20'
_cell_volume   853.51479970
_cell_formula_units_Z   4
loop_
 _symmetry_equiv_pos_site_id
 _symmetry_equiv_pos_as_xyz
  1  'x, y, z'
loop_
 _atom_site_type_symbol
 _atom_site_label
 _atom_site_symmetry_multiplicity
 _atom_site_fract_x
 _atom_site_fract_y
 _atom_site_fract_z
 _atom_site_occupancy
  Gd  Gd0  1  0.250000  0.390351  0.771233  1
  Gd  Gd1  1  0.750000  0.609649  0.228767  1
  Gd  Gd2  1  0.250000  0.660676  0.858757  1
  Gd  Gd3  1  0.750000  0.339324  0.141243  1
  Th  Th4  1  0.250000  0.668799  0.571828  1
  Th  Th5  1  0.750000  0.331201  0.428172  1
  Th  Th6  1  0.250000  0.950944  0.355442  1
  Th  Th7  1  0.750000  0.049056  0.644558  1
  Sb  Sb8  1  0.250000  0.142556  0.777058  1
  Sb  Sb9  1  0.750000  0.857444  0.222942  1
  Sb  Sb10  1  0.250000  0.142071  0.484592  1
  Sb  Sb11  1  0.750000  0.857929  0.515408  1
  Sb  Sb12  1  0.250000  0.149902  0.170750  1
  Sb  Sb13  1  0.750000  0.850098  0.829250  1
  Sb  Sb14  1  0.250000  0.422060  0.975850  1
  Sb  Sb15  1  0.750000  0.577940  0.024150  1
  Sb  Sb16  1  0.750000  0.031738  0.904771  1
  Sb  Sb17  1  0.250000  0.968262  0.095229  1
  Sb  Sb18  1  0.750000  0.142522  0.313312  1
  Sb  Sb19  1  0.250000  0.857478  0.686688  1
  Sb  Sb20  1  0.750000  0.282245  0.938594  1
  Sb  Sb21  1  0.250000  0.717755  0.061406  1
  Sb  Sb22  1  0.750000  0.284757  0.658165  1
  Sb  Sb23  1  0.250000  0.715243  0.341835  1
  Sb  Sb24  1  0.750000  0.577137  0.732395  1
  Sb  Sb25  1  0.250000  0.422863  0.267605  1
  Sb  Sb26  1  0.750000  0.571561  0.446493  1
  Sb  Sb27  1  0.250000  0.428439  0.553507  1
