# generated using pymatgen
data_Nb6Al6Cu5Pt
_symmetry_space_group_name_H-M   'P 1'
_cell_length_a   8.74529600
_cell_length_b   8.73894673
_cell_length_c   8.10427600
_cell_angle_alpha   90.00000000
_cell_angle_beta   90.00000000
_cell_angle_gamma   120.45307946
_symmetry_Int_Tables_number   1
_chemical_formula_structural   Nb6Al6Cu5Pt
_chemical_formula_sum   'Nb12 Al12 Cu10 Pt2'
_cell_volume   533.92163091
_cell_formula_units_Z   2
loop_
 _symmetry_equiv_pos_site_id
 _symmetry_equiv_pos_as_xyz
  1  'x, y, z'
loop_
 _atom_site_type_symbol
 _atom_site_label
 _atom_site_symmetry_multiplicity
 _atom_site_fract_x
 _atom_site_fract_y
 _atom_site_fract_z
 _atom_site_occupancy
  Nb  Nb0  1  0.332502  0.996207  0.069692  1
  Nb  Nb1  1  0.667498  0.003793  0.930308  1
  Nb  Nb2  1  0.996723  0.334623  0.068069  1
  Nb  Nb3  1  0.667498  0.003793  0.569692  1
  Nb  Nb4  1  0.996723  0.334623  0.431931  1
  Nb  Nb5  1  0.003277  0.665377  0.931931  1
  Nb  Nb6  1  0.332502  0.996207  0.430308  1
  Nb  Nb7  1  0.003277  0.665377  0.568069  1
  Nb  Nb8  1  0.662596  0.663216  0.068983  1
  Nb  Nb9  1  0.337404  0.336784  0.931017  1
  Nb  Nb10  1  0.337404  0.336784  0.568983  1
  Nb  Nb11  1  0.662596  0.663216  0.431017  1
  Al  Al12  1  0.842411  0.342626  0.750000  1
  Al  Al13  1  0.157589  0.657374  0.250000  1
  Al  Al14  1  0.339942  0.667165  0.507229  1
  Al  Al15  1  0.660058  0.332835  0.492771  1
  Al  Al16  1  0.660058  0.332835  0.007229  1
  Al  Al17  1  0.339942  0.667165  0.992771  1
  Al  Al18  1  0.184455  0.000013  0.750000  1
  Al  Al19  1  0.815545  0.999987  0.250000  1
  Al  Al20  1  0.008078  0.178472  0.750000  1
  Al  Al21  1  0.991922  0.821528  0.250000  1
  Al  Al22  1  0.820540  0.816986  0.750000  1
  Al  Al23  1  0.179460  0.183014  0.250000  1
  Cu  Cu24  1  0.165336  0.496412  0.750000  1
  Cu  Cu25  1  0.834664  0.503588  0.250000  1
  Cu  Cu26  1  0.506741  0.666873  0.750000  1
  Cu  Cu27  1  0.502265  0.165391  0.750000  1
  Cu  Cu28  1  0.493259  0.333127  0.250000  1
  Cu  Cu29  1  0.497735  0.834609  0.250000  1
  Cu  Cu30  1  0.337258  0.838535  0.750000  1
  Cu  Cu31  1  0.665432  0.500263  0.750000  1
  Cu  Cu32  1  0.662742  0.161465  0.250000  1
  Cu  Cu33  1  0.334568  0.499737  0.250000  1
  Pt  Pt34  1  0.000000  0.000000  0.500000  1
  Pt  Pt35  1  0.000000  0.000000  0.000000  1
