# generated using pymatgen
data_Zr10CuSnBi5Au
_symmetry_space_group_name_H-M   'P 1'
_cell_length_a   8.84245391
_cell_length_b   8.81389078
_cell_length_c   5.97986755
_cell_angle_alpha   89.94988337
_cell_angle_beta   90.02497022
_cell_angle_gamma   119.89321093
_symmetry_Int_Tables_number   1
_chemical_formula_structural   Zr10CuSnBi5Au
_chemical_formula_sum   'Zr10 Cu1 Sn1 Bi5 Au1'
_cell_volume   404.04415546
_cell_formula_units_Z   1
loop_
 _symmetry_equiv_pos_site_id
 _symmetry_equiv_pos_as_xyz
  1  'x, y, z'
loop_
 _atom_site_type_symbol
 _atom_site_label
 _atom_site_symmetry_multiplicity
 _atom_site_fract_x
 _atom_site_fract_y
 _atom_site_fract_z
 _atom_site_occupancy
  Zr  Zr0  1  0.669738  0.333873  0.501492  1
  Zr  Zr1  1  0.330262  0.664136  0.501492  1
  Zr  Zr2  1  0.330299  0.664355  0.998361  1
  Zr  Zr3  1  0.669701  0.334055  0.998361  1
  Zr  Zr4  1  0.733514  0.732477  0.239363  1
  Zr  Zr5  1  0.266486  0.998964  0.239363  1
  Zr  Zr6  1  0.000000  0.266806  0.239289  1
  Zr  Zr7  1  0.264085  0.270069  0.760506  1
  Zr  Zr8  1  0.735915  0.005985  0.760506  1
  Zr  Zr9  1  0.000000  0.729622  0.759789  1
  Cu  Cu10  1  0.000000  0.999833  0.998605  1
  Sn  Sn11  1  0.000000  0.385080  0.747021  1
  Bi  Bi12  1  0.384827  0.383945  0.253889  1
  Bi  Bi13  1  0.615173  0.999119  0.253889  1
  Bi  Bi14  1  0.000000  0.613704  0.254013  1
  Bi  Bi15  1  0.616358  0.617277  0.746147  1
  Bi  Bi16  1  0.383642  0.000919  0.746147  1
  Au  Au17  1  0.000000  0.999781  0.501769  1
