# generated using pymatgen
data_Pr3Nd3ScCo17P12
_symmetry_space_group_name_H-M   'P 1'
_cell_length_a   3.78048400
_cell_length_b   10.73605409
_cell_length_c   12.51544810
_cell_angle_alpha   89.98525476
_cell_angle_beta   90.00000000
_cell_angle_gamma   90.00000000
_symmetry_Int_Tables_number   1
_chemical_formula_structural   Pr3Nd3ScCo17P12
_chemical_formula_sum   'Pr3 Nd3 Sc1 Co17 P12'
_cell_volume   507.97049161
_cell_formula_units_Z   1
loop_
 _symmetry_equiv_pos_site_id
 _symmetry_equiv_pos_as_xyz
  1  'x, y, z'
loop_
 _atom_site_type_symbol
 _atom_site_label
 _atom_site_symmetry_multiplicity
 _atom_site_fract_x
 _atom_site_fract_y
 _atom_site_fract_z
 _atom_site_occupancy
  Pr  Pr0  1  0.000000  0.499994  0.527904  1
  Pr  Pr1  1  0.500000  0.999914  0.478897  1
  Pr  Pr2  1  0.500000  0.179678  0.207763  1
  Nd  Nd3  1  0.500000  0.820025  0.207467  1
  Nd  Nd4  1  0.000000  0.682871  0.795312  1
  Nd  Nd5  1  0.000000  0.317142  0.795428  1
  Sc  Sc6  1  0.500000  0.500215  0.149917  1
  Co  Co7  1  0.000000  0.999962  0.839764  1
  Co  Co8  1  0.500000  0.500072  0.705866  1
  Co  Co9  1  0.000000  0.998950  0.293605  1
  Co  Co10  1  0.000000  0.500401  0.984607  1
  Co  Co11  1  0.500000  0.999662  0.010766  1
  Co  Co12  1  0.500000  0.326877  0.990280  1
  Co  Co13  1  0.500000  0.673444  0.990566  1
  Co  Co14  1  0.000000  0.161621  0.000309  1
  Co  Co15  1  0.000000  0.837968  0.000499  1
  Co  Co16  1  0.500000  0.295522  0.434172  1
  Co  Co17  1  0.500000  0.704760  0.433664  1
  Co  Co18  1  0.000000  0.201963  0.571424  1
  Co  Co19  1  0.000000  0.798009  0.571099  1
  Co  Co20  1  0.500000  0.882418  0.709717  1
  Co  Co21  1  0.500000  0.117598  0.709830  1
  Co  Co22  1  0.000000  0.620263  0.297287  1
  Co  Co23  1  0.000000  0.380450  0.298033  1
  P  P24  1  0.500000  0.500162  0.886061  1
  P  P25  1  0.000000  0.999298  0.111894  1
  P  P26  1  0.500000  0.500025  0.353034  1
  P  P27  1  0.000000  0.000021  0.660265  1
  P  P28  1  0.500000  0.303621  0.616640  1
  P  P29  1  0.500000  0.696496  0.616376  1
  P  P30  1  0.000000  0.194370  0.389047  1
  P  P31  1  0.000000  0.805883  0.388016  1
  P  P32  1  0.500000  0.852602  0.890769  1
  P  P33  1  0.500000  0.147252  0.890926  1
  P  P34  1  0.000000  0.661848  0.096884  1
  P  P35  1  0.000000  0.338643  0.095912  1
