# generated using pymatgen
data_Th4Al24RePd8
_symmetry_space_group_name_H-M   'P 1'
_cell_length_a   7.60144010
_cell_length_b   7.61435971
_cell_length_c   13.32636740
_cell_angle_alpha   84.54667484
_cell_angle_beta   100.60939669
_cell_angle_gamma   119.31245454
_symmetry_Int_Tables_number   1
_chemical_formula_structural   Th4Al24RePd8
_chemical_formula_sum   'Th4 Al24 Re1 Pd8'
_cell_volume   661.06409283
_cell_formula_units_Z   1
loop_
 _symmetry_equiv_pos_site_id
 _symmetry_equiv_pos_as_xyz
  1  'x, y, z'
loop_
 _atom_site_type_symbol
 _atom_site_label
 _atom_site_symmetry_multiplicity
 _atom_site_fract_x
 _atom_site_fract_y
 _atom_site_fract_z
 _atom_site_occupancy
  Th  Th0  1  0.437731  0.827239  0.808550  1
  Th  Th1  1  0.562269  0.172761  0.191450  1
  Th  Th2  1  0.765159  0.502306  0.808211  1
  Th  Th3  1  0.234841  0.497694  0.191789  1
  Al  Al4  1  0.478291  0.167291  0.947015  1
  Al  Al5  1  0.521709  0.832709  0.052985  1
  Al  Al6  1  0.021651  0.166476  0.559699  1
  Al  Al7  1  0.978349  0.833524  0.440301  1
  Al  Al8  1  0.353856  0.834856  0.558002  1
  Al  Al9  1  0.646144  0.165144  0.441998  1
  Al  Al10  1  0.622165  0.835572  0.333274  1
  Al  Al11  1  0.377835  0.164428  0.666726  1
  Al  Al12  1  0.054764  0.489249  0.666468  1
  Al  Al13  1  0.945236  0.510751  0.333532  1
  Al  Al14  1  0.734164  0.844338  0.663473  1
  Al  Al15  1  0.265836  0.155662  0.336527  1
  Al  Al16  1  0.149575  0.495940  0.947727  1
  Al  Al17  1  0.850425  0.504060  0.052273  1
  Al  Al18  1  0.818979  0.832508  0.960128  1
  Al  Al19  1  0.181021  0.167492  0.039872  1
  Al  Al20  1  0.311269  0.499128  0.442064  1
  Al  Al21  1  0.688731  0.500872  0.557936  1
  Al  Al22  1  0.102124  0.838539  0.184274  1
  Al  Al23  1  0.897876  0.161461  0.815726  1
  Al  Al24  1  0.301041  0.363027  0.817417  1
  Al  Al25  1  0.698959  0.636973  0.182583  1
  Al  Al26  1  0.100332  0.961072  0.815185  1
  Al  Al27  1  0.899668  0.038928  0.184815  1
  Re  Re28  1  0.500000  0.500000  0.000000  1
  Pd  Pd29  1  0.387448  0.507480  0.637510  1
  Pd  Pd30  1  0.612552  0.492520  0.362490  1
  Pd  Pd31  1  0.171930  0.829192  0.999552  1
  Pd  Pd32  1  0.828070  0.170808  0.000448  1
  Pd  Pd33  1  0.294248  0.832862  0.363444  1
  Pd  Pd34  1  0.705752  0.167138  0.636556  1
  Pd  Pd35  1  0.048055  0.826383  0.636534  1
  Pd  Pd36  1  0.951945  0.173617  0.363466  1
