# generated using pymatgen
data_Sc5P12Ru6Rh13
_symmetry_space_group_name_H-M   'P 1'
_cell_length_a   12.53237083
_cell_length_b   12.54349473
_cell_length_c   3.88046800
_cell_angle_alpha   90.00000000
_cell_angle_beta   90.00000000
_cell_angle_gamma   120.07261944
_symmetry_Int_Tables_number   1
_chemical_formula_structural   Sc5P12Ru6Rh13
_chemical_formula_sum   'Sc5 P12 Ru6 Rh13'
_cell_volume   527.89586649
_cell_formula_units_Z   1
loop_
 _symmetry_equiv_pos_site_id
 _symmetry_equiv_pos_as_xyz
  1  'x, y, z'
loop_
 _atom_site_type_symbol
 _atom_site_label
 _atom_site_symmetry_multiplicity
 _atom_site_fract_x
 _atom_site_fract_y
 _atom_site_fract_z
 _atom_site_occupancy
  Sc  Sc0  1  0.669455  0.331543  0.000000  1
  Sc  Sc1  1  0.333276  0.668170  0.000000  1
  Sc  Sc2  1  0.814449  0.002633  0.500000  1
  Sc  Sc3  1  0.184060  0.186882  0.500000  1
  Sc  Sc4  1  0.999674  0.814397  0.500000  1
  P  P5  1  0.638183  0.999562  0.000000  1
  P  P6  1  0.362253  0.362570  0.000000  1
  P  P7  1  0.000337  0.635830  0.000000  1
  P  P8  1  0.687674  0.517423  0.500000  1
  P  P9  1  0.831936  0.310894  0.500000  1
  P  P10  1  0.316355  0.832840  0.500000  1
  P  P11  1  0.517504  0.690000  0.500000  1
  P  P12  1  0.177977  0.999518  0.000000  1
  P  P13  1  0.821139  0.820188  0.000000  1
  P  P14  1  0.996081  0.176168  0.000000  1
  P  P15  1  0.480261  0.168551  0.500000  1
  P  P16  1  0.165882  0.481436  0.500000  1
  Ru  Ru17  1  0.512372  0.871946  0.500000  1
  Ru  Ru18  1  0.718346  0.717272  0.500000  1
  Ru  Ru19  1  0.000867  0.282077  0.500000  1
  Ru  Ru20  1  0.003877  0.452323  0.000000  1
  Ru  Ru21  1  0.817668  0.193619  0.000000  1
  Ru  Ru22  1  0.279340  0.999124  0.500000  1
  Rh  Rh23  1  0.626063  0.806949  0.000000  1
  Rh  Rh24  1  0.181984  0.372185  0.000000  1
  Rh  Rh25  1  0.373400  0.182166  0.000000  1
  Rh  Rh26  1  0.192651  0.817169  0.000000  1
  Rh  Rh27  1  0.806527  0.622606  0.000000  1
  Rh  Rh28  1  0.870802  0.508404  0.500000  1
  Rh  Rh29  1  0.491897  0.359069  0.500000  1
  Rh  Rh30  1  0.638325  0.132057  0.500000  1
  Rh  Rh31  1  0.131321  0.641451  0.500000  1
  Rh  Rh32  1  0.357780  0.494267  0.500000  1
  Rh  Rh33  1  0.999434  0.998782  0.000000  1
  Rh  Rh34  1  0.454099  0.002459  0.000000  1
  Rh  Rh35  1  0.546751  0.547469  0.000000  1
