# generated using pymatgen
data_Nd4Al51Cr7
_symmetry_space_group_name_H-M   'P 1'
_cell_length_a   10.23899600
_cell_length_b   10.23899631
_cell_length_c   11.50998400
_cell_angle_alpha   90.00000000
_cell_angle_beta   90.00000000
_cell_angle_gamma   119.99999901
_symmetry_Int_Tables_number   1
_chemical_formula_structural   Nd4Al51Cr7
_chemical_formula_sum   'Nd4 Al51 Cr7'
_cell_volume   1045.00920427
_cell_formula_units_Z   1
loop_
 _symmetry_equiv_pos_site_id
 _symmetry_equiv_pos_as_xyz
  1  'x, y, z'
loop_
 _atom_site_type_symbol
 _atom_site_label
 _atom_site_symmetry_multiplicity
 _atom_site_fract_x
 _atom_site_fract_y
 _atom_site_fract_z
 _atom_site_occupancy
  Nd  Nd0  1  0.000000  0.000000  0.150091  1
  Nd  Nd1  1  0.333334  0.666667  0.309614  1
  Nd  Nd2  1  0.333334  0.666667  0.639434  1
  Nd  Nd3  1  0.000000  0.000000  0.820438  1
  Al  Al4  1  0.245072  0.490144  0.075959  1
  Al  Al5  1  0.245071  0.754927  0.075959  1
  Al  Al6  1  0.509856  0.754927  0.075959  1
  Al  Al7  1  0.483628  0.241813  0.126064  1
  Al  Al8  1  0.758187  0.241813  0.126064  1
  Al  Al9  1  0.758187  0.516372  0.126064  1
  Al  Al10  1  0.028943  0.333358  0.229769  1
  Al  Al11  1  0.304415  0.333358  0.229769  1
  Al  Al12  1  0.028944  0.695585  0.229769  1
  Al  Al13  1  0.666641  0.695585  0.229769  1
  Al  Al14  1  0.304415  0.971056  0.229769  1
  Al  Al15  1  0.666641  0.971056  0.229769  1
  Al  Al16  1  0.575114  0.150228  0.333746  1
  Al  Al17  1  0.575114  0.424887  0.333746  1
  Al  Al18  1  0.849772  0.424887  0.333746  1
  Al  Al19  1  0.088272  0.176543  0.383659  1
  Al  Al20  1  0.088271  0.911728  0.383659  1
  Al  Al21  1  0.823457  0.911728  0.383659  1
  Al  Al22  1  0.065280  0.401684  0.480601  1
  Al  Al23  1  0.336403  0.401684  0.480601  1
  Al  Al24  1  0.065280  0.663597  0.480601  1
  Al  Al25  1  0.598317  0.663597  0.480601  1
  Al  Al26  1  0.336403  0.934719  0.480601  1
  Al  Al27  1  0.598316  0.934719  0.480601  1
  Al  Al28  1  0.485465  0.242732  0.557546  1
  Al  Al29  1  0.757267  0.242732  0.557546  1
  Al  Al30  1  0.757268  0.514534  0.557546  1
  Al  Al31  1  0.908363  0.091637  0.584730  1
  Al  Al32  1  0.183276  0.091637  0.584730  1
  Al  Al33  1  0.908363  0.816724  0.584730  1
  Al  Al34  1  0.512676  0.025352  0.685365  1
  Al  Al35  1  0.512677  0.487324  0.685365  1
  Al  Al36  1  0.974647  0.487324  0.685365  1
  Al  Al37  1  0.166654  0.333307  0.729771  1
  Al  Al38  1  0.166654  0.833346  0.729771  1
  Al  Al39  1  0.666693  0.833346  0.729771  1
  Al  Al40  1  0.358697  0.179348  0.774307  1
  Al  Al41  1  0.820653  0.179348  0.774307  1
  Al  Al42  1  0.820653  0.641304  0.774307  1
  Al  Al43  1  0.150030  0.575016  0.874912  1
  Al  Al44  1  0.424985  0.575016  0.874912  1
  Al  Al45  1  0.424984  0.849969  0.874912  1
  Al  Al46  1  0.576105  0.152211  0.902123  1
  Al  Al47  1  0.576106  0.423895  0.902123  1
  Al  Al48  1  0.847788  0.423895  0.902123  1
  Al  Al49  1  0.268054  0.003112  0.979148  1
  Al  Al50  1  0.735057  0.003112  0.979148  1
  Al  Al51  1  0.268054  0.264943  0.979148  1
  Al  Al52  1  0.996889  0.264943  0.979148  1
  Al  Al53  1  0.735057  0.731946  0.979148  1
  Al  Al54  1  0.996888  0.731946  0.979148  1
  Cr  Cr55  1  0.004305  0.502152  0.073270  1
  Cr  Cr56  1  0.497848  0.502152  0.073270  1
  Cr  Cr57  1  0.497848  0.995695  0.073270  1
  Cr  Cr58  1  0.329188  0.164594  0.386117  1
  Cr  Cr59  1  0.835407  0.164594  0.386117  1
  Cr  Cr60  1  0.835406  0.670811  0.386117  1
  Cr  Cr61  1  0.666667  0.333333  0.729822  1
