# generated using pymatgen
data_SrY3(Rh2O7)2
_symmetry_space_group_name_H-M   'P 1'
_cell_length_a   7.27021535
_cell_length_b   7.29514828
_cell_length_c   7.27021500
_cell_angle_alpha   60.11299079
_cell_angle_beta   59.99999706
_cell_angle_gamma   60.11298654
_symmetry_Int_Tables_number   1
_chemical_formula_structural   SrY3(Rh2O7)2
_chemical_formula_sum   'Sr1 Y3 Rh4 O14'
_cell_volume   273.11983218
_cell_formula_units_Z   1
loop_
 _symmetry_equiv_pos_site_id
 _symmetry_equiv_pos_as_xyz
  1  'x, y, z'
loop_
 _atom_site_type_symbol
 _atom_site_label
 _atom_site_symmetry_multiplicity
 _atom_site_fract_x
 _atom_site_fract_y
 _atom_site_fract_z
 _atom_site_occupancy
  Sr  Sr0  1  0.125000  0.625000  0.125000  1
  Y  Y1  1  0.125000  0.125000  0.625000  1
  Y  Y2  1  0.625000  0.125000  0.125000  1
  Y  Y3  1  0.125000  0.125000  0.125000  1
  Rh  Rh4  1  0.625000  0.625000  0.625000  1
  Rh  Rh5  1  0.125000  0.625000  0.625000  1
  Rh  Rh6  1  0.625000  0.625000  0.125000  1
  Rh  Rh7  1  0.625000  0.125000  0.625000  1
  O  O8  1  0.295314  0.717142  0.692230  1
  O  O9  1  0.542131  0.959146  0.956594  1
  O  O10  1  0.692230  0.717142  0.295314  1
  O  O11  1  0.293406  0.290854  0.707869  1
  O  O12  1  0.992728  0.021815  0.992728  1
  O  O13  1  0.295314  0.717142  0.295314  1
  O  O14  1  0.707869  0.290854  0.707869  1
  O  O15  1  0.954686  0.532858  0.954686  1
  O  O16  1  0.557770  0.532858  0.954686  1
  O  O17  1  0.956594  0.959146  0.542131  1
  O  O18  1  0.257272  0.228185  0.257272  1
  O  O19  1  0.542131  0.959146  0.542131  1
  O  O20  1  0.707869  0.290854  0.293406  1
  O  O21  1  0.954686  0.532858  0.557770  1
