# generated using pymatgen
data_Tb5Y3Be3Si12Pd
_symmetry_space_group_name_H-M   'P 1'
_cell_length_a   7.95847905
_cell_length_b   7.95724072
_cell_length_c   8.12630100
_cell_angle_alpha   90.00068089
_cell_angle_beta   90.00044169
_cell_angle_gamma   120.01787729
_symmetry_Int_Tables_number   1
_chemical_formula_structural   Tb5Y3Be3Si12Pd
_chemical_formula_sum   'Tb5 Y3 Be3 Si12 Pd1'
_cell_volume   445.59247347
_cell_formula_units_Z   1
loop_
 _symmetry_equiv_pos_site_id
 _symmetry_equiv_pos_as_xyz
  1  'x, y, z'
loop_
 _atom_site_type_symbol
 _atom_site_label
 _atom_site_symmetry_multiplicity
 _atom_site_fract_x
 _atom_site_fract_y
 _atom_site_fract_z
 _atom_site_occupancy
  Tb  Tb0  1  0.996323  0.498127  0.752151  1
  Tb  Tb1  1  0.501300  0.498688  0.247935  1
  Tb  Tb2  1  0.501832  0.498093  0.752152  1
  Tb  Tb3  1  0.000014  0.000006  0.248983  1
  Tb  Tb4  1  0.999980  0.999995  0.750722  1
  Y  Y5  1  0.501371  0.002675  0.247796  1
  Y  Y6  1  0.501944  0.003893  0.752290  1
  Y  Y7  1  0.997263  0.498594  0.247795  1
  Be  Be8  1  0.333329  0.666701  0.001128  1
  Be  Be9  1  0.666668  0.333200  0.001064  1
  Be  Be10  1  0.666674  0.333205  0.498047  1
  Si  Si11  1  0.172108  0.344260  0.999352  1
  Si  Si12  1  0.826863  0.653681  0.000376  1
  Si  Si13  1  0.655716  0.827903  0.999427  1
  Si  Si14  1  0.828222  0.656406  0.500052  1
  Si  Si15  1  0.346344  0.173116  0.000471  1
  Si  Si16  1  0.166076  0.332159  0.499585  1
  Si  Si17  1  0.172168  0.827874  0.999356  1
  Si  Si18  1  0.343629  0.171768  0.499930  1
  Si  Si19  1  0.826778  0.173153  0.000362  1
  Si  Si20  1  0.667835  0.833926  0.499519  1
  Si  Si21  1  0.828132  0.171808  0.500063  1
  Si  Si22  1  0.166094  0.833919  0.499584  1
  Pd  Pd23  1  0.333335  0.666851  0.501860  1
