# generated using pymatgen
data_NaFeSb12IrRh2
_symmetry_space_group_name_H-M   'P 1'
_cell_length_a   8.08702145
_cell_length_b   8.08584553
_cell_length_c   8.08900044
_cell_angle_alpha   109.37191095
_cell_angle_beta   109.38656792
_cell_angle_gamma   109.40879896
_symmetry_Int_Tables_number   1
_chemical_formula_structural   NaFeSb12IrRh2
_chemical_formula_sum   'Na1 Fe1 Sb12 Ir1 Rh2'
_cell_volume   408.41392396
_cell_formula_units_Z   1
loop_
 _symmetry_equiv_pos_site_id
 _symmetry_equiv_pos_as_xyz
  1  'x, y, z'
loop_
 _atom_site_type_symbol
 _atom_site_label
 _atom_site_symmetry_multiplicity
 _atom_site_fract_x
 _atom_site_fract_y
 _atom_site_fract_z
 _atom_site_occupancy
  Na  Na0  1  0.000000  0.000000  0.000000  1
  Fe  Fe1  1  0.500000  0.500000  0.500000  1
  Sb  Sb2  1  0.657366  0.812664  0.154421  1
  Sb  Sb3  1  0.844764  0.341999  0.187009  1
  Sb  Sb4  1  0.504522  0.834121  0.656587  1
  Sb  Sb5  1  0.834043  0.656242  0.504752  1
  Sb  Sb6  1  0.495478  0.165879  0.343413  1
  Sb  Sb7  1  0.155236  0.658001  0.812991  1
  Sb  Sb8  1  0.812688  0.155681  0.658525  1
  Sb  Sb9  1  0.187312  0.844319  0.341475  1
  Sb  Sb10  1  0.165957  0.343758  0.495248  1
  Sb  Sb11  1  0.656578  0.504596  0.834141  1
  Sb  Sb12  1  0.343422  0.495404  0.165859  1
  Sb  Sb13  1  0.342634  0.187336  0.845579  1
  Ir  Ir14  1  0.000000  0.000000  0.500000  1
  Rh  Rh15  1  0.000000  0.500000  0.000000  1
  Rh  Rh16  1  0.500000  0.000000  0.000000  1
