# generated using pymatgen
data_HoSc3ReB12Ru
_symmetry_space_group_name_H-M   'P 1'
_cell_length_a   3.53867200
_cell_length_b   8.92753588
_cell_length_c   11.27808205
_cell_angle_alpha   90.16340825
_cell_angle_beta   90.00000000
_cell_angle_gamma   90.00000000
_symmetry_Int_Tables_number   1
_chemical_formula_structural   HoSc3ReB12Ru
_chemical_formula_sum   'Ho2 Sc6 Re2 B24 Ru2'
_cell_volume   356.29144776
_cell_formula_units_Z   2
loop_
 _symmetry_equiv_pos_site_id
 _symmetry_equiv_pos_as_xyz
  1  'x, y, z'
loop_
 _atom_site_type_symbol
 _atom_site_label
 _atom_site_symmetry_multiplicity
 _atom_site_fract_x
 _atom_site_fract_y
 _atom_site_fract_z
 _atom_site_occupancy
  Ho  Ho0  1  0.000000  0.319107  0.412898  1
  Ho  Ho1  1  0.000000  0.680893  0.587102  1
  Sc  Sc2  1  0.000000  0.823994  0.083739  1
  Sc  Sc3  1  0.000000  0.176006  0.916261  1
  Sc  Sc4  1  0.000000  0.944097  0.370552  1
  Sc  Sc5  1  0.000000  0.055903  0.629448  1
  Sc  Sc6  1  0.000000  0.443017  0.126969  1
  Sc  Sc7  1  0.000000  0.556983  0.873031  1
  Re  Re8  1  0.000000  0.137427  0.178392  1
  Re  Re9  1  0.000000  0.862573  0.821608  1
  B  B10  1  0.500000  0.554502  0.432497  1
  B  B11  1  0.500000  0.445498  0.567503  1
  B  B12  1  0.500000  0.052486  0.064789  1
  B  B13  1  0.500000  0.947514  0.935211  1
  B  B14  1  0.500000  0.753336  0.418052  1
  B  B15  1  0.500000  0.246664  0.581948  1
  B  B16  1  0.500000  0.252157  0.078065  1
  B  B17  1  0.500000  0.747843  0.921935  1
  B  B18  1  0.500000  0.793572  0.262940  1
  B  B19  1  0.500000  0.206428  0.737060  1
  B  B20  1  0.500000  0.293816  0.234008  1
  B  B21  1  0.500000  0.706184  0.765992  1
  B  B22  1  0.500000  0.629839  0.181519  1
  B  B23  1  0.500000  0.370161  0.818481  1
  B  B24  1  0.500000  0.128133  0.316140  1
  B  B25  1  0.500000  0.871867  0.683860  1
  B  B26  1  0.500000  0.978334  0.211619  1
  B  B27  1  0.500000  0.021666  0.788381  1
  B  B28  1  0.500000  0.481191  0.285173  1
  B  B29  1  0.500000  0.518809  0.714827  1
  B  B30  1  0.500000  0.599589  0.027280  1
  B  B31  1  0.500000  0.400411  0.972720  1
  B  B32  1  0.500000  0.097922  0.473260  1
  B  B33  1  0.500000  0.902078  0.526740  1
  Ru  Ru34  1  0.000000  0.639950  0.317730  1
  Ru  Ru35  1  0.000000  0.360050  0.682270  1
