# generated using pymatgen
data_Ho7Tm5Tc3Ir
_symmetry_space_group_name_H-M   'P 1'
_cell_length_a   6.24885527
_cell_length_b   7.35592374
_cell_length_c   9.02634100
_cell_angle_alpha   90.02734700
_cell_angle_beta   89.92896673
_cell_angle_gamma   89.92948209
_symmetry_Int_Tables_number   1
_chemical_formula_structural   Ho7Tm5Tc3Ir
_chemical_formula_sum   'Ho7 Tm5 Tc3 Ir1'
_cell_volume   414.90503779
_cell_formula_units_Z   1
loop_
 _symmetry_equiv_pos_site_id
 _symmetry_equiv_pos_as_xyz
  1  'x, y, z'
loop_
 _atom_site_type_symbol
 _atom_site_label
 _atom_site_symmetry_multiplicity
 _atom_site_fract_x
 _atom_site_fract_y
 _atom_site_fract_z
 _atom_site_occupancy
  Ho  Ho0  1  0.836533  0.825424  0.562014  1
  Ho  Ho1  1  0.333600  0.676222  0.435744  1
  Ho  Ho2  1  0.162315  0.175730  0.063000  1
  Ho  Ho3  1  0.874598  0.540327  0.249516  1
  Ho  Ho4  1  0.624631  0.038722  0.249710  1
  Ho  Ho5  1  0.129626  0.457973  0.750387  1
  Ho  Ho6  1  0.373169  0.960293  0.750289  1
  Tm  Tm7  1  0.334068  0.676105  0.063514  1
  Tm  Tm8  1  0.162458  0.175782  0.437080  1
  Tm  Tm9  1  0.663545  0.322614  0.561957  1
  Tm  Tm10  1  0.836146  0.825183  0.938273  1
  Tm  Tm11  1  0.663554  0.323077  0.938174  1
  Tc  Tc12  1  0.039778  0.883868  0.249061  1
  Tc  Tc13  1  0.462777  0.386259  0.250185  1
  Tc  Tc14  1  0.959634  0.116711  0.749375  1
  Ir  Ir15  1  0.543570  0.615710  0.751722  1
