# generated using pymatgen
data_TaNbB2PRu5
_symmetry_space_group_name_H-M   'P 1'
_cell_length_a   9.28556989
_cell_length_b   9.28556989
_cell_length_c   2.94239900
_cell_angle_alpha   90.00000000
_cell_angle_beta   90.00000000
_cell_angle_gamma   90.05012842
_symmetry_Int_Tables_number   1
_chemical_formula_structural   TaNbB2PRu5
_chemical_formula_sum   'Ta2 Nb2 B4 P2 Ru10'
_cell_volume   253.69886499
_cell_formula_units_Z   2
loop_
 _symmetry_equiv_pos_site_id
 _symmetry_equiv_pos_as_xyz
  1  'x, y, z'
loop_
 _atom_site_type_symbol
 _atom_site_label
 _atom_site_symmetry_multiplicity
 _atom_site_fract_x
 _atom_site_fract_y
 _atom_site_fract_z
 _atom_site_occupancy
  Ta  Ta0  1  0.323179  0.823179  0.000000  1
  Ta  Ta1  1  0.676821  0.176821  0.000000  1
  Nb  Nb2  1  0.823252  0.676748  0.000000  1
  Nb  Nb3  1  0.176748  0.323252  0.000000  1
  B  B4  1  0.624677  0.875323  0.000000  1
  B  B5  1  0.375323  0.124677  0.000000  1
  B  B6  1  0.124897  0.624897  0.000000  1
  B  B7  1  0.875103  0.375103  0.000000  1
  P  P8  1  0.500000  0.500000  0.000000  1
  P  P9  1  0.000000  0.000000  0.000000  1
  Ru  Ru10  1  0.566572  0.709228  0.500000  1
  Ru  Ru11  1  0.433428  0.290772  0.500000  1
  Ru  Ru12  1  0.067068  0.790867  0.500000  1
  Ru  Ru13  1  0.932932  0.209133  0.500000  1
  Ru  Ru14  1  0.290867  0.567068  0.500000  1
  Ru  Ru15  1  0.709133  0.432932  0.500000  1
  Ru  Ru16  1  0.209228  0.066572  0.500000  1
  Ru  Ru17  1  0.790772  0.933428  0.500000  1
  Ru  Ru18  1  0.500000  0.000000  0.500000  1
  Ru  Ru19  1  0.000000  0.500000  0.500000  1
