# generated using pymatgen
data_DyEr(Tc2P)4
_symmetry_space_group_name_H-M   'P 1'
_cell_length_a   7.40817582
_cell_length_b   7.40817582
_cell_length_c   3.94961400
_cell_angle_alpha   90.00000000
_cell_angle_beta   90.00000000
_cell_angle_gamma   89.90001318
_symmetry_Int_Tables_number   1
_chemical_formula_structural   DyEr(Tc2P)4
_chemical_formula_sum   'Dy1 Er1 Tc8 P4'
_cell_volume   216.75870833
_cell_formula_units_Z   1
loop_
 _symmetry_equiv_pos_site_id
 _symmetry_equiv_pos_as_xyz
  1  'x, y, z'
loop_
 _atom_site_type_symbol
 _atom_site_label
 _atom_site_symmetry_multiplicity
 _atom_site_fract_x
 _atom_site_fract_y
 _atom_site_fract_z
 _atom_site_occupancy
  Dy  Dy0  1  0.500000  0.500000  0.000000  1
  Er  Er1  1  0.000000  0.000000  0.500000  1
  Tc  Tc2  1  0.582928  0.160151  0.500000  1
  Tc  Tc3  1  0.417072  0.839849  0.500000  1
  Tc  Tc4  1  0.082359  0.338931  0.000000  1
  Tc  Tc5  1  0.917641  0.661069  0.000000  1
  Tc  Tc6  1  0.160151  0.582928  0.500000  1
  Tc  Tc7  1  0.839849  0.417072  0.500000  1
  Tc  Tc8  1  0.338931  0.082359  0.000000  1
  Tc  Tc9  1  0.661069  0.917641  0.000000  1
  P  P10  1  0.712316  0.712316  0.500000  1
  P  P11  1  0.287684  0.287684  0.500000  1
  P  P12  1  0.211387  0.788613  0.000000  1
  P  P13  1  0.788613  0.211387  0.000000  1
