# generated using pymatgen
data_Zr10Zn2HgBi5
_symmetry_space_group_name_H-M   'P 1'
_cell_length_a   8.80095600
_cell_length_b   8.82772372
_cell_length_c   5.96417600
_cell_angle_alpha   90.00000000
_cell_angle_beta   90.00000000
_cell_angle_gamma   119.89975258
_symmetry_Int_Tables_number   1
_chemical_formula_structural   Zr10Zn2HgBi5
_chemical_formula_sum   'Zr10 Zn2 Hg1 Bi5'
_cell_volume   401.69598052
_cell_formula_units_Z   1
loop_
 _symmetry_equiv_pos_site_id
 _symmetry_equiv_pos_as_xyz
  1  'x, y, z'
loop_
 _atom_site_type_symbol
 _atom_site_label
 _atom_site_symmetry_multiplicity
 _atom_site_fract_x
 _atom_site_fract_y
 _atom_site_fract_z
 _atom_site_occupancy
  Zr  Zr0  1  0.730092  0.000000  0.250000  1
  Zr  Zr1  1  0.006382  0.738527  0.250000  1
  Zr  Zr2  1  0.267856  0.261473  0.250000  1
  Zr  Zr3  1  0.264013  0.000000  0.750000  1
  Zr  Zr4  1  0.999452  0.264759  0.750000  1
  Zr  Zr5  1  0.734692  0.735241  0.750000  1
  Zr  Zr6  1  0.333186  0.667667  0.497798  1
  Zr  Zr7  1  0.665520  0.332333  0.497798  1
  Zr  Zr8  1  0.665520  0.332333  0.002202  1
  Zr  Zr9  1  0.333186  0.667667  0.002202  1
  Zn  Zn10  1  0.000224  0.000000  0.497416  1
  Zn  Zn11  1  0.000224  0.000000  0.002584  1
  Hg  Hg12  1  0.386190  0.000000  0.250000  1
  Bi  Bi13  1  0.000915  0.384531  0.250000  1
  Bi  Bi14  1  0.616384  0.615469  0.250000  1
  Bi  Bi15  1  0.610381  0.000000  0.750000  1
  Bi  Bi16  1  0.000386  0.614990  0.750000  1
  Bi  Bi17  1  0.385395  0.385010  0.750000  1
