# generated using pymatgen
data_SrAc7(YbSn4)2
_symmetry_space_group_name_H-M   'P 1'
_cell_length_a   8.42952600
_cell_length_b   8.91480115
_cell_length_c   17.00860236
_cell_angle_alpha   90.05924574
_cell_angle_beta   90.00000000
_cell_angle_gamma   90.00000000
_symmetry_Int_Tables_number   1
_chemical_formula_structural   SrAc7(YbSn4)2
_chemical_formula_sum   'Sr2 Ac14 Yb4 Sn16'
_cell_volume   1278.15407983
_cell_formula_units_Z   2
loop_
 _symmetry_equiv_pos_site_id
 _symmetry_equiv_pos_as_xyz
  1  'x, y, z'
loop_
 _atom_site_type_symbol
 _atom_site_label
 _atom_site_symmetry_multiplicity
 _atom_site_fract_x
 _atom_site_fract_y
 _atom_site_fract_z
 _atom_site_occupancy
  Sr  Sr0  1  0.661707  0.172410  0.625040  1
  Sr  Sr1  1  0.161707  0.327590  0.874960  1
  Ac  Ac2  1  0.337596  0.826613  0.124875  1
  Ac  Ac3  1  0.837596  0.673387  0.375125  1
  Ac  Ac4  1  0.336837  0.827373  0.375243  1
  Ac  Ac5  1  0.836837  0.672627  0.124757  1
  Ac  Ac6  1  0.661765  0.174202  0.873648  1
  Ac  Ac7  1  0.161765  0.325798  0.626352  1
  Ac  Ac8  1  0.506767  0.686067  0.596580  1
  Ac  Ac9  1  0.006767  0.813933  0.903420  1
  Ac  Ac10  1  0.492796  0.314030  0.095901  1
  Ac  Ac11  1  0.992796  0.185970  0.404099  1
  Ac  Ac12  1  0.494707  0.315001  0.404446  1
  Ac  Ac13  1  0.994707  0.184999  0.095554  1
  Ac  Ac14  1  0.506794  0.685692  0.903430  1
  Ac  Ac15  1  0.006794  0.814308  0.596570  1
  Yb  Yb16  1  0.829236  0.508849  0.749368  1
  Yb  Yb17  1  0.329236  0.991151  0.750632  1
  Yb  Yb18  1  0.170872  0.488422  0.249211  1
  Yb  Yb19  1  0.670872  0.011578  0.250789  1
  Sn  Sn20  1  0.671736  0.966720  0.462840  1
  Sn  Sn21  1  0.171736  0.533280  0.037160  1
  Sn  Sn22  1  0.324456  0.034486  0.961461  1
  Sn  Sn23  1  0.824456  0.465514  0.538539  1
  Sn  Sn24  1  0.328571  0.035759  0.537922  1
  Sn  Sn25  1  0.828571  0.464241  0.962078  1
  Sn  Sn26  1  0.674541  0.965950  0.036736  1
  Sn  Sn27  1  0.174541  0.534050  0.463264  1
  Sn  Sn28  1  0.464341  0.407215  0.751555  1
  Sn  Sn29  1  0.964341  0.092785  0.748445  1
  Sn  Sn30  1  0.532891  0.592686  0.250608  1
  Sn  Sn31  1  0.032891  0.907314  0.249392  1
  Sn  Sn32  1  0.707553  0.858223  0.750813  1
  Sn  Sn33  1  0.207553  0.641777  0.749187  1
  Sn  Sn34  1  0.296835  0.143517  0.249941  1
  Sn  Sn35  1  0.796835  0.356483  0.250059  1
