# generated using pymatgen
data_La4Pr6IrOs3
_symmetry_space_group_name_H-M   'P 1'
_cell_length_a   9.07265609
_cell_length_b   9.05526440
_cell_length_c   7.44105003
_cell_angle_alpha   84.19193855
_cell_angle_beta   84.15325668
_cell_angle_gamma   43.61458093
_symmetry_Int_Tables_number   1
_chemical_formula_structural   La4Pr6IrOs3
_chemical_formula_sum   'La4 Pr6 Ir1 Os3'
_cell_volume   419.16273923
_cell_formula_units_Z   1
loop_
 _symmetry_equiv_pos_site_id
 _symmetry_equiv_pos_as_xyz
  1  'x, y, z'
loop_
 _atom_site_type_symbol
 _atom_site_label
 _atom_site_symmetry_multiplicity
 _atom_site_fract_x
 _atom_site_fract_y
 _atom_site_fract_z
 _atom_site_occupancy
  La  La0  1  0.018443  0.796955  0.906648  1
  La  La1  1  0.200104  0.986558  0.592402  1
  La  La2  1  0.988089  0.199985  0.092321  1
  La  La3  1  0.803553  0.012292  0.410242  1
  Pr  Pr4  1  0.356922  0.210829  0.818517  1
  Pr  Pr5  1  0.787689  0.643463  0.681246  1
  Pr  Pr6  1  0.641804  0.786241  0.181404  1
  Pr  Pr7  1  0.208272  0.360125  0.320917  1
  Pr  Pr8  1  0.569707  0.432740  0.747125  1
  Pr  Pr9  1  0.431692  0.568375  0.249653  1
  Ir  Ir10  1  0.604500  0.171322  0.078615  1
  Os  Os11  1  0.168741  0.610360  0.579155  1
  Os  Os12  1  0.389531  0.831303  0.922094  1
  Os  Os13  1  0.830952  0.389454  0.419664  1
