# generated using pymatgen
data_TbCeNbB2Ru5
_symmetry_space_group_name_H-M   'P 1'
_cell_length_a   9.71840202
_cell_length_b   9.71840202
_cell_length_c   3.15186800
_cell_angle_alpha   90.00000000
_cell_angle_beta   90.00000000
_cell_angle_gamma   89.99250080
_symmetry_Int_Tables_number   1
_chemical_formula_structural   TbCeNbB2Ru5
_chemical_formula_sum   'Tb2 Ce2 Nb2 B4 Ru10'
_cell_volume   297.68553927
_cell_formula_units_Z   2
loop_
 _symmetry_equiv_pos_site_id
 _symmetry_equiv_pos_as_xyz
  1  'x, y, z'
loop_
 _atom_site_type_symbol
 _atom_site_label
 _atom_site_symmetry_multiplicity
 _atom_site_fract_x
 _atom_site_fract_y
 _atom_site_fract_z
 _atom_site_occupancy
  Tb  Tb0  1  0.824882  0.675118  0.000000  1
  Tb  Tb1  1  0.175118  0.324882  0.000000  1
  Ce  Ce2  1  0.324136  0.824136  0.000000  1
  Ce  Ce3  1  0.675864  0.175864  0.000000  1
  Nb  Nb4  1  0.500000  0.500000  0.000000  1
  Nb  Nb5  1  0.000000  0.000000  0.000000  1
  B  B6  1  0.622711  0.877289  0.000000  1
  B  B7  1  0.377289  0.122711  0.000000  1
  B  B8  1  0.118964  0.618964  0.000000  1
  B  B9  1  0.881036  0.381036  0.000000  1
  Ru  Ru10  1  0.568705  0.719776  0.500000  1
  Ru  Ru11  1  0.431295  0.280224  0.500000  1
  Ru  Ru12  1  0.072651  0.781010  0.500000  1
  Ru  Ru13  1  0.927349  0.218990  0.500000  1
  Ru  Ru14  1  0.281010  0.572651  0.500000  1
  Ru  Ru15  1  0.718990  0.427349  0.500000  1
  Ru  Ru16  1  0.219776  0.068705  0.500000  1
  Ru  Ru17  1  0.780224  0.931295  0.500000  1
  Ru  Ru18  1  0.500000  0.000000  0.500000  1
  Ru  Ru19  1  0.000000  0.500000  0.500000  1
