# generated using pymatgen
data_Pr6Y10CdHg3(IrPt)2
_symmetry_space_group_name_H-M   'P 1'
_cell_length_a   9.82641562
_cell_length_b   9.82641429
_cell_length_c   9.80007900
_cell_angle_alpha   60.08861920
_cell_angle_beta   60.08862367
_cell_angle_gamma   60.27580990
_symmetry_Int_Tables_number   1
_chemical_formula_structural   Pr6Y10CdHg3(IrPt)2
_chemical_formula_sum   'Pr6 Y10 Cd1 Hg3 Ir2 Pt2'
_cell_volume   671.40526442
_cell_formula_units_Z   1
loop_
 _symmetry_equiv_pos_site_id
 _symmetry_equiv_pos_as_xyz
  1  'x, y, z'
loop_
 _atom_site_type_symbol
 _atom_site_label
 _atom_site_symmetry_multiplicity
 _atom_site_fract_x
 _atom_site_fract_y
 _atom_site_fract_z
 _atom_site_occupancy
  Pr  Pr0  1  0.941498  0.560649  0.559035  1
  Pr  Pr1  1  0.559623  0.942181  0.939299  1
  Pr  Pr2  1  0.559623  0.942181  0.558897  1
  Pr  Pr3  1  0.941498  0.560649  0.938819  1
  Pr  Pr4  1  0.558694  0.559511  0.940898  1
  Pr  Pr5  1  0.940882  0.941391  0.558863  1
  Y  Y6  1  0.349957  0.349960  0.346156  1
  Y  Y7  1  0.349957  0.349960  0.953925  1
  Y  Y8  1  0.356675  0.944622  0.349352  1
  Y  Y9  1  0.941779  0.357607  0.350308  1
  Y  Y10  1  0.808115  0.188064  0.188997  1
  Y  Y11  1  0.187230  0.808648  0.815513  1
  Y  Y12  1  0.187230  0.808648  0.188609  1
  Y  Y13  1  0.808115  0.188064  0.814824  1
  Y  Y14  1  0.186984  0.187609  0.812703  1
  Y  Y15  1  0.813567  0.813572  0.186430  1
  Cd  Cd16  1  0.264459  0.578286  0.578628  1
  Hg  Hg17  1  0.582183  0.584042  0.583037  1
  Hg  Hg18  1  0.582183  0.584042  0.250739  1
  Hg  Hg19  1  0.582356  0.251333  0.583156  1
  Ir  Ir20  1  0.140871  0.573627  0.142752  1
  Ir  Ir21  1  0.573770  0.141396  0.142418  1
  Pt  Pt22  1  0.141376  0.141979  0.145127  1
  Pt  Pt23  1  0.141376  0.141979  0.571519  1
