# generated using pymatgen
data_Y2HoPt2Pb3
_symmetry_space_group_name_H-M   'P 1'
_cell_length_a   7.87914496
_cell_length_b   7.90744900
_cell_length_c   3.69629700
_cell_angle_alpha   90.00000000
_cell_angle_beta   90.00000000
_cell_angle_gamma   120.11889028
_symmetry_Int_Tables_number   1
_chemical_formula_structural   Y2HoPt2Pb3
_chemical_formula_sum   'Y2 Ho1 Pt2 Pb3'
_cell_volume   199.20096682
_cell_formula_units_Z   1
loop_
 _symmetry_equiv_pos_site_id
 _symmetry_equiv_pos_as_xyz
  1  'x, y, z'
loop_
 _atom_site_type_symbol
 _atom_site_label
 _atom_site_symmetry_multiplicity
 _atom_site_fract_x
 _atom_site_fract_y
 _atom_site_fract_z
 _atom_site_occupancy
  Y  Y0  1  0.586359  0.999986  0.500000  1
  Y  Y1  1  0.413642  0.413629  0.500000  1
  Ho  Ho2  1  0.000000  0.585045  0.500000  1
  Pt  Pt3  1  0.668903  0.335187  0.000000  1
  Pt  Pt4  1  0.331097  0.666285  0.000000  1
  Pb  Pb5  1  0.242270  0.999634  0.000000  1
  Pb  Pb6  1  0.000000  0.242870  0.000000  1
  Pb  Pb7  1  0.757730  0.757364  0.000000  1
