# generated using pymatgen
data_NaTh3(WN3)4
_symmetry_space_group_name_H-M   'P 1'
_cell_length_a   5.62827459
_cell_length_b   5.68557652
_cell_length_c   7.95160800
_cell_angle_alpha   90.00000000
_cell_angle_beta   90.00000000
_cell_angle_gamma   88.37268547
_symmetry_Int_Tables_number   1
_chemical_formula_structural   NaTh3(WN3)4
_chemical_formula_sum   'Na1 Th3 W4 N12'
_cell_volume   254.34872072
_cell_formula_units_Z   1
loop_
 _symmetry_equiv_pos_site_id
 _symmetry_equiv_pos_as_xyz
  1  'x, y, z'
loop_
 _atom_site_type_symbol
 _atom_site_label
 _atom_site_symmetry_multiplicity
 _atom_site_fract_x
 _atom_site_fract_y
 _atom_site_fract_z
 _atom_site_occupancy
  Na  Na0  1  0.485916  0.510049  0.250000  1
  Th  Th1  1  0.996314  0.023581  0.250000  1
  Th  Th2  1  0.489227  0.442035  0.750000  1
  Th  Th3  1  0.992608  0.959076  0.750000  1
  W  W4  1  0.975396  0.489659  0.008645  1
  W  W5  1  0.484419  0.974849  0.497199  1
  W  W6  1  0.975396  0.489659  0.491355  1
  W  W7  1  0.484419  0.974849  0.002801  1
  N  N8  1  0.443821  0.979062  0.250000  1
  N  N9  1  0.060324  0.504261  0.250000  1
  N  N10  1  0.579549  0.032881  0.750000  1
  N  N11  1  0.926467  0.521081  0.750000  1
  N  N12  1  0.818544  0.821069  0.024357  1
  N  N13  1  0.717044  0.300833  0.469631  1
  N  N14  1  0.214332  0.210721  0.532891  1
  N  N15  1  0.303152  0.716856  0.949577  1
  N  N16  1  0.214332  0.210721  0.967109  1
  N  N17  1  0.303152  0.716856  0.550423  1
  N  N18  1  0.818544  0.821069  0.475643  1
  N  N19  1  0.717044  0.300833  0.030369  1
