# generated using pymatgen
data_Ca2Nd2Os6O19
_symmetry_space_group_name_H-M   'P 1'
_cell_length_a   7.88685445
_cell_length_b   7.91981578
_cell_length_c   7.91981607
_cell_angle_alpha   109.66727066
_cell_angle_beta   109.41546616
_cell_angle_gamma   109.49956587
_symmetry_Int_Tables_number   1
_chemical_formula_structural   Ca2Nd2Os6O19
_chemical_formula_sum   'Ca2 Nd2 Os6 O19'
_cell_volume   380.01724105
_cell_formula_units_Z   1
loop_
 _symmetry_equiv_pos_site_id
 _symmetry_equiv_pos_as_xyz
  1  'x, y, z'
loop_
 _atom_site_type_symbol
 _atom_site_label
 _atom_site_symmetry_multiplicity
 _atom_site_fract_x
 _atom_site_fract_y
 _atom_site_fract_z
 _atom_site_occupancy
  Ca  Ca0  1  0.997908  0.000580  0.292398  1
  Ca  Ca1  1  0.002092  0.294490  0.002672  1
  Nd  Nd2  1  0.700515  0.702760  0.701344  1
  Nd  Nd3  1  0.299485  0.000829  0.002245  1
  Os  Os4  1  0.361416  0.499241  0.863391  1
  Os  Os5  1  0.863974  0.361449  0.499723  1
  Os  Os6  1  0.500000  0.138828  0.638828  1
  Os  Os7  1  0.136026  0.635748  0.497475  1
  Os  Os8  1  0.500000  0.864246  0.364246  1
  Os  Os9  1  0.638584  0.501976  0.137826  1
  O  O10  1  0.323729  0.999622  0.325842  1
  O  O11  1  0.325813  0.324403  0.000933  1
  O  O12  1  0.000000  0.675060  0.675060  1
  O  O13  1  0.674187  0.675120  0.998590  1
  O  O14  1  0.000000  0.324429  0.324429  1
  O  O15  1  0.676271  0.002113  0.675893  1
  O  O16  1  0.000000  0.988619  0.988619  1
  O  O17  1  0.342319  0.281212  0.634273  1
  O  O18  1  0.061240  0.353135  0.719600  1
  O  O19  1  0.707617  0.370019  0.646386  1
  O  O20  1  0.370727  0.650887  0.711826  1
  O  O21  1  0.292383  0.938769  0.662402  1
  O  O22  1  0.629273  0.341097  0.280159  1
  O  O23  1  0.283609  0.631688  0.344628  1
  O  O24  1  0.716391  0.061018  0.348078  1
  O  O25  1  0.938760  0.658358  0.291895  1
  O  O26  1  0.649913  0.711129  0.371131  1
  O  O27  1  0.657681  0.291954  0.938895  1
  O  O28  1  0.350087  0.721219  0.061216  1
