# generated using pymatgen
data_Sr8Fe7RuO24
_symmetry_space_group_name_H-M   'P 1'
_cell_length_a   7.88944601
_cell_length_b   7.88944602
_cell_length_c   7.88944601
_cell_angle_alpha   89.99552632
_cell_angle_beta   89.99552636
_cell_angle_gamma   89.99553352
_symmetry_Int_Tables_number   1
_chemical_formula_structural   Sr8Fe7RuO24
_chemical_formula_sum   'Sr8 Fe7 Ru1 O24'
_cell_volume   491.06561122
_cell_formula_units_Z   1
loop_
 _symmetry_equiv_pos_site_id
 _symmetry_equiv_pos_as_xyz
  1  'x, y, z'
loop_
 _atom_site_type_symbol
 _atom_site_label
 _atom_site_symmetry_multiplicity
 _atom_site_fract_x
 _atom_site_fract_y
 _atom_site_fract_z
 _atom_site_occupancy
  Sr  Sr0  1  0.756511  0.243459  0.756511  1
  Sr  Sr1  1  0.756471  0.243463  0.243463  1
  Sr  Sr2  1  0.756511  0.756511  0.243459  1
  Sr  Sr3  1  0.243463  0.243463  0.756471  1
  Sr  Sr4  1  0.243466  0.243466  0.243466  1
  Sr  Sr5  1  0.243459  0.756511  0.756511  1
  Sr  Sr6  1  0.243463  0.756471  0.243463  1
  Sr  Sr7  1  0.756572  0.756572  0.756572  1
  Fe  Fe8  1  0.499998  0.999967  0.999967  1
  Fe  Fe9  1  0.499987  0.000193  0.499987  1
  Fe  Fe10  1  0.499987  0.499987  0.000193  1
  Fe  Fe11  1  0.999949  0.999949  0.999949  1
  Fe  Fe12  1  0.999967  0.999967  0.499998  1
  Fe  Fe13  1  0.999967  0.499998  0.999967  1
  Fe  Fe14  1  0.000193  0.499987  0.499987  1
  Ru  Ru15  1  0.500084  0.500084  0.500084  1
  O  O16  1  0.750164  0.000006  0.000006  1
  O  O17  1  0.747212  0.000011  0.499957  1
  O  O18  1  0.747212  0.499957  0.000011  1
  O  O19  1  0.741596  0.500002  0.500002  1
  O  O20  1  0.249794  0.999922  0.999922  1
  O  O21  1  0.252746  0.999881  0.500070  1
  O  O22  1  0.252746  0.500070  0.999881  1
  O  O23  1  0.258603  0.500093  0.500093  1
  O  O24  1  0.500070  0.252746  0.999881  1
  O  O25  1  0.500093  0.258603  0.500093  1
  O  O26  1  0.499957  0.747212  0.000011  1
  O  O27  1  0.500002  0.741596  0.500002  1
  O  O28  1  0.999922  0.249794  0.999922  1
  O  O29  1  0.999881  0.252746  0.500070  1
  O  O30  1  0.000006  0.750164  0.000006  1
  O  O31  1  0.000011  0.747212  0.499957  1
  O  O32  1  0.499957  0.000011  0.747212  1
  O  O33  1  0.500070  0.999881  0.252746  1
  O  O34  1  0.500002  0.500002  0.741596  1
  O  O35  1  0.500093  0.500093  0.258603  1
  O  O36  1  0.000006  0.000006  0.750164  1
  O  O37  1  0.999922  0.999922  0.249794  1
  O  O38  1  0.000011  0.499957  0.747212  1
  O  O39  1  0.999881  0.500070  0.252746  1
