# generated using pymatgen
data_MgNb8SnSe16
_symmetry_space_group_name_H-M   'P 1'
_cell_length_a   7.02480200
_cell_length_b   7.02480424
_cell_length_c   14.42913300
_cell_angle_alpha   90.00000000
_cell_angle_beta   90.00000000
_cell_angle_gamma   119.99999886
_symmetry_Int_Tables_number   1
_chemical_formula_structural   MgNb8SnSe16
_chemical_formula_sum   'Mg1 Nb8 Sn1 Se16'
_cell_volume   616.65064116
_cell_formula_units_Z   1
loop_
 _symmetry_equiv_pos_site_id
 _symmetry_equiv_pos_as_xyz
  1  'x, y, z'
loop_
 _atom_site_type_symbol
 _atom_site_label
 _atom_site_symmetry_multiplicity
 _atom_site_fract_x
 _atom_site_fract_y
 _atom_site_fract_z
 _atom_site_occupancy
  Mg  Mg0  1  0.000000  0.000000  0.000000  1
  Nb  Nb1  1  0.000000  0.000000  0.230969  1
  Nb  Nb2  1  0.000000  0.000000  0.769031  1
  Nb  Nb3  1  0.507323  0.014647  0.231701  1
  Nb  Nb4  1  0.985353  0.492677  0.231701  1
  Nb  Nb5  1  0.507323  0.492677  0.231701  1
  Nb  Nb6  1  0.492677  0.985353  0.768299  1
  Nb  Nb7  1  0.014647  0.507323  0.768299  1
  Nb  Nb8  1  0.492677  0.507323  0.768299  1
  Sn  Sn9  1  0.000000  0.000000  0.500000  1
  Se  Se10  1  0.333333  0.666667  0.887631  1
  Se  Se11  1  0.666667  0.333333  0.112369  1
  Se  Se12  1  0.666667  0.333333  0.351291  1
  Se  Se13  1  0.333333  0.666667  0.648709  1
  Se  Se14  1  0.167609  0.832391  0.346226  1
  Se  Se15  1  0.167609  0.335218  0.346226  1
  Se  Se16  1  0.664782  0.832391  0.346226  1
  Se  Se17  1  0.832391  0.167609  0.653774  1
  Se  Se18  1  0.832391  0.664782  0.653774  1
  Se  Se19  1  0.335218  0.167609  0.653774  1
  Se  Se20  1  0.830290  0.169710  0.882675  1
  Se  Se21  1  0.830290  0.660581  0.882675  1
  Se  Se22  1  0.339419  0.169710  0.882675  1
  Se  Se23  1  0.169710  0.830290  0.117325  1
  Se  Se24  1  0.169710  0.339419  0.117325  1
  Se  Se25  1  0.660581  0.830290  0.117325  1
