# generated using pymatgen
data_Er7Sc3(Si3H)2
_symmetry_space_group_name_H-M   'P 1'
_cell_length_a   8.26722200
_cell_length_b   8.26722227
_cell_length_c   5.96954800
_cell_angle_alpha   90.00000000
_cell_angle_beta   90.00000000
_cell_angle_gamma   120.00000694
_symmetry_Int_Tables_number   1
_chemical_formula_structural   Er7Sc3(Si3H)2
_chemical_formula_sum   'Er7 Sc3 Si6 H2'
_cell_volume   353.33874626
_cell_formula_units_Z   1
loop_
 _symmetry_equiv_pos_site_id
 _symmetry_equiv_pos_as_xyz
  1  'x, y, z'
loop_
 _atom_site_type_symbol
 _atom_site_label
 _atom_site_symmetry_multiplicity
 _atom_site_fract_x
 _atom_site_fract_y
 _atom_site_fract_z
 _atom_site_occupancy
  Er  Er0  1  0.666667  0.333333  0.500000  1
  Er  Er1  1  0.747442  0.747819  0.751844  1
  Er  Er2  1  0.252181  0.999623  0.751844  1
  Er  Er3  1  0.000377  0.252558  0.751844  1
  Er  Er4  1  0.252181  0.252558  0.248156  1
  Er  Er5  1  0.747442  0.999623  0.248156  1
  Er  Er6  1  0.000377  0.747819  0.248156  1
  Sc  Sc7  1  0.666667  0.333333  0.000000  1
  Sc  Sc8  1  0.333333  0.666667  0.000000  1
  Sc  Sc9  1  0.333333  0.666667  0.500000  1
  Si  Si10  1  0.390640  0.394601  0.755526  1
  Si  Si11  1  0.605399  0.996039  0.755526  1
  Si  Si12  1  0.003961  0.609360  0.755526  1
  Si  Si13  1  0.605399  0.609360  0.244474  1
  Si  Si14  1  0.390640  0.996039  0.244474  1
  Si  Si15  1  0.003961  0.394601  0.244474  1
  H  H16  1  0.000000  0.000000  0.500000  1
  H  H17  1  0.000000  0.000000  0.000000  1
