# generated using pymatgen
data_Rb2LiAu3I8
_symmetry_space_group_name_H-M   'P 1'
_cell_length_a   7.93717520
_cell_length_b   7.93717512
_cell_length_c   22.34280254
_cell_angle_alpha   79.41770002
_cell_angle_beta   79.41769985
_cell_angle_gamma   56.81093764
_symmetry_Int_Tables_number   1
_chemical_formula_structural   Rb2LiAu3I8
_chemical_formula_sum   'Rb4 Li2 Au6 I16'
_cell_volume   1151.99019385
_cell_formula_units_Z   2
loop_
 _symmetry_equiv_pos_site_id
 _symmetry_equiv_pos_as_xyz
  1  'x, y, z'
loop_
 _atom_site_type_symbol
 _atom_site_label
 _atom_site_symmetry_multiplicity
 _atom_site_fract_x
 _atom_site_fract_y
 _atom_site_fract_z
 _atom_site_occupancy
  Rb  Rb0  1  0.326818  0.267492  0.594958  1
  Rb  Rb1  1  0.267492  0.326818  0.094958  1
  Rb  Rb2  1  0.673182  0.732508  0.405042  1
  Rb  Rb3  1  0.732508  0.673182  0.905042  1
  Li  Li4  1  0.984724  0.015276  0.250000  1
  Li  Li5  1  0.015276  0.984724  0.750000  1
  Au  Au6  1  0.403493  0.409307  0.800926  1
  Au  Au7  1  0.596507  0.590693  0.199074  1
  Au  Au8  1  0.000000  0.000000  0.000000  1
  Au  Au9  1  0.590693  0.596507  0.699074  1
  Au  Au10  1  0.409307  0.403493  0.300926  1
  Au  Au11  1  0.000000  0.000000  0.500000  1
  I  I12  1  0.606665  0.062950  0.251173  1
  I  I13  1  0.155628  0.218678  0.439866  1
  I  I14  1  0.062950  0.606665  0.751173  1
  I  I15  1  0.184482  0.740810  0.351941  1
  I  I16  1  0.781322  0.844372  0.060134  1
  I  I17  1  0.815518  0.259190  0.648059  1
  I  I18  1  0.325841  0.772357  0.563425  1
  I  I19  1  0.218678  0.155628  0.939866  1
  I  I20  1  0.937050  0.393335  0.248827  1
  I  I21  1  0.772357  0.325841  0.063425  1
  I  I22  1  0.844372  0.781322  0.560134  1
  I  I23  1  0.674159  0.227643  0.436575  1
  I  I24  1  0.259190  0.815518  0.148059  1
  I  I25  1  0.227643  0.674159  0.936575  1
  I  I26  1  0.393335  0.937050  0.748827  1
  I  I27  1  0.740810  0.184482  0.851941  1
