# generated using pymatgen
data_Pr19TmSi15Pt
_symmetry_space_group_name_H-M   'P 1'
_cell_length_a   7.91004097
_cell_length_b   7.91151117
_cell_length_c   15.28891098
_cell_angle_alpha   89.98938977
_cell_angle_beta   89.66044022
_cell_angle_gamma   90.01102433
_symmetry_Int_Tables_number   1
_chemical_formula_structural   Pr19TmSi15Pt
_chemical_formula_sum   'Pr19 Tm1 Si15 Pt1'
_cell_volume   956.76898372
_cell_formula_units_Z   1
loop_
 _symmetry_equiv_pos_site_id
 _symmetry_equiv_pos_as_xyz
  1  'x, y, z'
loop_
 _atom_site_type_symbol
 _atom_site_label
 _atom_site_symmetry_multiplicity
 _atom_site_fract_x
 _atom_site_fract_y
 _atom_site_fract_z
 _atom_site_occupancy
  Pr  Pr0  1  0.191016  0.807026  0.249547  1
  Pr  Pr1  1  0.813975  0.186876  0.750275  1
  Pr  Pr2  1  0.693825  0.687529  0.498976  1
  Pr  Pr3  1  0.374034  0.010495  0.447721  1
  Pr  Pr4  1  0.490021  0.873521  0.699881  1
  Pr  Pr5  1  0.509610  0.123923  0.196369  1
  Pr  Pr6  1  0.877211  0.488070  0.300141  1
  Pr  Pr7  1  0.124076  0.510760  0.802259  1
  Pr  Pr8  1  0.626781  0.988143  0.949408  1
  Pr  Pr9  1  0.003831  0.376468  0.551149  1
  Pr  Pr10  1  0.988240  0.625026  0.051918  1
  Pr  Pr11  1  0.134172  0.985776  0.876031  1
  Pr  Pr12  1  0.517403  0.631805  0.125091  1
  Pr  Pr13  1  0.475391  0.366735  0.628972  1
  Pr  Pr14  1  0.628642  0.516946  0.874412  1
  Pr  Pr15  1  0.372215  0.482088  0.372163  1
  Pr  Pr16  1  0.872417  0.020378  0.376258  1
  Pr  Pr17  1  0.981985  0.127167  0.123501  1
  Pr  Pr18  1  0.022001  0.874949  0.624148  1
  Tm  Tm19  1  0.310154  0.309294  0.999412  1
  Si  Si20  1  0.330858  0.691583  0.952519  1
  Si  Si21  1  0.662423  0.303238  0.451927  1
  Si  Si22  1  0.693386  0.332669  0.048031  1
  Si  Si23  1  0.305283  0.668198  0.547767  1
  Si  Si24  1  0.805329  0.832501  0.202646  1
  Si  Si25  1  0.167816  0.197176  0.296728  1
  Si  Si26  1  0.834631  0.803227  0.798759  1
  Si  Si27  1  0.289025  0.927812  0.058167  1
  Si  Si28  1  0.578973  0.787512  0.309654  1
  Si  Si29  1  0.425253  0.211272  0.817893  1
  Si  Si30  1  0.784678  0.579770  0.690616  1
  Si  Si31  1  0.214095  0.419355  0.185793  1
  Si  Si32  1  0.704802  0.074894  0.559075  1
  Si  Si33  1  0.926015  0.290275  0.942479  1
  Si  Si34  1  0.079784  0.714267  0.440805  1
  Pt  Pt35  1  0.190652  0.173275  0.699507  1
