# generated using pymatgen
data_Ca7PaSi2N9
_symmetry_space_group_name_H-M   'P 1'
_cell_length_a   10.16802800
_cell_length_b   6.14876691
_cell_length_c   9.13147436
_cell_angle_alpha   85.95200094
_cell_angle_beta   90.00000000
_cell_angle_gamma   90.00000000
_symmetry_Int_Tables_number   1
_chemical_formula_structural   Ca7PaSi2N9
_chemical_formula_sum   'Ca14 Pa2 Si4 N18'
_cell_volume   569.48312906
_cell_formula_units_Z   2
loop_
 _symmetry_equiv_pos_site_id
 _symmetry_equiv_pos_as_xyz
  1  'x, y, z'
loop_
 _atom_site_type_symbol
 _atom_site_label
 _atom_site_symmetry_multiplicity
 _atom_site_fract_x
 _atom_site_fract_y
 _atom_site_fract_z
 _atom_site_occupancy
  Ca  Ca0  1  0.942224  0.430427  0.165173  1
  Ca  Ca1  1  0.080060  0.254987  0.499173  1
  Ca  Ca2  1  0.250000  0.097280  0.806014  1
  Ca  Ca3  1  0.442224  0.569573  0.834827  1
  Ca  Ca4  1  0.580060  0.745013  0.500827  1
  Ca  Ca5  1  0.574287  0.070610  0.833774  1
  Ca  Ca6  1  0.925713  0.070610  0.833774  1
  Ca  Ca7  1  0.425713  0.929390  0.166226  1
  Ca  Ca8  1  0.419940  0.254987  0.499173  1
  Ca  Ca9  1  0.074287  0.929390  0.166226  1
  Ca  Ca10  1  0.919940  0.745013  0.500827  1
  Ca  Ca11  1  0.057776  0.569573  0.834827  1
  Ca  Ca12  1  0.750000  0.902720  0.193986  1
  Ca  Ca13  1  0.557776  0.430427  0.165173  1
  Pa  Pa14  1  0.750000  0.248479  0.459227  1
  Pa  Pa15  1  0.250000  0.751521  0.540773  1
  Si  Si16  1  0.250000  0.318749  0.062570  1
  Si  Si17  1  0.750000  0.471314  0.728842  1
  Si  Si18  1  0.750000  0.681251  0.937430  1
  Si  Si19  1  0.250000  0.528686  0.271158  1
  N  N20  1  0.397101  0.232507  0.984004  1
  N  N21  1  0.250000  0.238564  0.261156  1
  N  N22  1  0.909180  0.101921  0.336441  1
  N  N23  1  0.609180  0.378201  0.639585  1
  N  N24  1  0.750000  0.562665  0.340816  1
  N  N25  1  0.250000  0.611318  0.080833  1
  N  N26  1  0.890820  0.378201  0.639585  1
  N  N27  1  0.390820  0.621799  0.360415  1
  N  N28  1  0.750000  0.388682  0.919167  1
  N  N29  1  0.090820  0.898079  0.663559  1
  N  N30  1  0.750000  0.761436  0.738844  1
  N  N31  1  0.109180  0.621799  0.360415  1
  N  N32  1  0.602899  0.767493  0.015996  1
  N  N33  1  0.250000  0.437335  0.659184  1
  N  N34  1  0.409180  0.898079  0.663559  1
  N  N35  1  0.590820  0.101921  0.336441  1
  N  N36  1  0.102899  0.232507  0.984004  1
  N  N37  1  0.897101  0.767493  0.015996  1
