# generated using pymatgen
data_DyLuBPt6
_symmetry_space_group_name_H-M   'P 1'
_cell_length_a   5.93948174
_cell_length_b   5.93948117
_cell_length_c   5.93948100
_cell_angle_alpha   59.99999538
_cell_angle_beta   59.99999857
_cell_angle_gamma   60.00000229
_symmetry_Int_Tables_number   1
_chemical_formula_structural   DyLuBPt6
_chemical_formula_sum   'Dy1 Lu1 B1 Pt6'
_cell_volume   148.15985651
_cell_formula_units_Z   1
loop_
 _symmetry_equiv_pos_site_id
 _symmetry_equiv_pos_as_xyz
  1  'x, y, z'
loop_
 _atom_site_type_symbol
 _atom_site_label
 _atom_site_symmetry_multiplicity
 _atom_site_fract_x
 _atom_site_fract_y
 _atom_site_fract_z
 _atom_site_occupancy
  Dy  Dy0  1  0.750000  0.750000  0.750000  1
  Lu  Lu1  1  0.250000  0.250000  0.250000  1
  B  B2  1  0.500000  0.500000  0.500000  1
  Pt  Pt3  1  0.756701  0.243298  0.243298  1
  Pt  Pt4  1  0.243298  0.756701  0.243298  1
  Pt  Pt5  1  0.756701  0.756701  0.243298  1
  Pt  Pt6  1  0.243298  0.243298  0.756701  1
  Pt  Pt7  1  0.756701  0.243298  0.756701  1
  Pt  Pt8  1  0.243298  0.756701  0.756701  1
