# generated using pymatgen
data_Dy4Sc4IrRh3
_symmetry_space_group_name_H-M   'P 1'
_cell_length_a   4.22306900
_cell_length_b   7.17434003
_cell_length_c   8.78039136
_cell_angle_alpha   90.42228688
_cell_angle_beta   90.00000000
_cell_angle_gamma   90.00000000
_symmetry_Int_Tables_number   1
_chemical_formula_structural   Dy4Sc4IrRh3
_chemical_formula_sum   'Dy4 Sc4 Ir1 Rh3'
_cell_volume   266.01872723
_cell_formula_units_Z   1
loop_
 _symmetry_equiv_pos_site_id
 _symmetry_equiv_pos_as_xyz
  1  'x, y, z'
loop_
 _atom_site_type_symbol
 _atom_site_label
 _atom_site_symmetry_multiplicity
 _atom_site_fract_x
 _atom_site_fract_y
 _atom_site_fract_z
 _atom_site_occupancy
  Dy  Dy0  1  0.250000  0.521873  0.176674  1
  Dy  Dy1  1  0.750000  0.483399  0.826256  1
  Dy  Dy2  1  0.250000  0.012535  0.326233  1
  Dy  Dy3  1  0.750000  0.981637  0.673009  1
  Sc  Sc4  1  0.250000  0.141823  0.936625  1
  Sc  Sc5  1  0.750000  0.860250  0.065457  1
  Sc  Sc6  1  0.250000  0.640210  0.564036  1
  Sc  Sc7  1  0.750000  0.358126  0.435170  1
  Ir  Ir8  1  0.750000  0.737595  0.393393  1
  Rh  Rh9  1  0.250000  0.258639  0.604415  1
  Rh  Rh10  1  0.750000  0.242787  0.102525  1
  Rh  Rh11  1  0.250000  0.761129  0.896209  1
