# generated using pymatgen
data_Li14CoSiN8
_symmetry_space_group_name_H-M   'P 1'
_cell_length_a   6.68168800
_cell_length_b   6.68168800
_cell_length_c   4.81891000
_cell_angle_alpha   90.00000000
_cell_angle_beta   90.00000000
_cell_angle_gamma   90.00000000
_symmetry_Int_Tables_number   1
_chemical_formula_structural   Li14CoSiN8
_chemical_formula_sum   'Li14 Co1 Si1 N8'
_cell_volume   215.14001783
_cell_formula_units_Z   1
loop_
 _symmetry_equiv_pos_site_id
 _symmetry_equiv_pos_as_xyz
  1  'x, y, z'
loop_
 _atom_site_type_symbol
 _atom_site_label
 _atom_site_symmetry_multiplicity
 _atom_site_fract_x
 _atom_site_fract_y
 _atom_site_fract_z
 _atom_site_occupancy
  Li  Li0  1  0.500000  0.000000  0.586889  1
  Li  Li1  1  0.234791  0.765209  0.000000  1
  Li  Li2  1  0.000000  0.500000  0.891465  1
  Li  Li3  1  0.765209  0.234791  0.000000  1
  Li  Li4  1  0.257644  0.742356  0.500000  1
  Li  Li5  1  0.000000  0.000000  0.000000  1
  Li  Li6  1  0.500000  0.000000  0.108535  1
  Li  Li7  1  0.742356  0.742356  0.500000  1
  Li  Li8  1  0.257644  0.257644  0.500000  1
  Li  Li9  1  0.234791  0.234791  0.000000  1
  Li  Li10  1  0.765209  0.765209  0.000000  1
  Li  Li11  1  0.742356  0.257644  0.500000  1
  Li  Li12  1  0.000000  0.500000  0.413111  1
  Li  Li13  1  0.500000  0.500000  0.500000  1
  Co  Co14  1  0.500000  0.500000  0.000000  1
  Si  Si15  1  0.000000  0.000000  0.500000  1
  N  N16  1  0.000000  0.224866  0.706373  1
  N  N17  1  0.278499  0.500000  0.209540  1
  N  N18  1  0.500000  0.278499  0.790460  1
  N  N19  1  0.000000  0.775134  0.706373  1
  N  N20  1  0.500000  0.721501  0.790460  1
  N  N21  1  0.775134  0.000000  0.293627  1
  N  N22  1  0.721501  0.500000  0.209540  1
  N  N23  1  0.224866  0.000000  0.293627  1
