# generated using pymatgen
data_GdTaCrB6
_symmetry_space_group_name_H-M   'P 1'
_cell_length_a   3.41783900
_cell_length_b   8.94424500
_cell_length_c   11.31675100
_cell_angle_alpha   90.00000000
_cell_angle_beta   90.00000000
_cell_angle_gamma   90.00000000
_symmetry_Int_Tables_number   1
_chemical_formula_structural   GdTaCrB6
_chemical_formula_sum   'Gd4 Ta4 Cr4 B24'
_cell_volume   345.95295796
_cell_formula_units_Z   4
loop_
 _symmetry_equiv_pos_site_id
 _symmetry_equiv_pos_as_xyz
  1  'x, y, z'
loop_
 _atom_site_type_symbol
 _atom_site_label
 _atom_site_symmetry_multiplicity
 _atom_site_fract_x
 _atom_site_fract_y
 _atom_site_fract_z
 _atom_site_occupancy
  Gd  Gd0  1  0.000000  0.822380  0.085445  1
  Gd  Gd1  1  0.000000  0.177620  0.914555  1
  Gd  Gd2  1  0.000000  0.322380  0.414555  1
  Gd  Gd3  1  0.000000  0.677620  0.585445  1
  Ta  Ta4  1  0.000000  0.444875  0.127520  1
  Ta  Ta5  1  0.000000  0.555125  0.872480  1
  Ta  Ta6  1  0.000000  0.944875  0.372480  1
  Ta  Ta7  1  0.000000  0.055125  0.627520  1
  Cr  Cr8  1  0.000000  0.143954  0.184116  1
  Cr  Cr9  1  0.000000  0.856046  0.815884  1
  Cr  Cr10  1  0.000000  0.643954  0.315884  1
  Cr  Cr11  1  0.000000  0.356046  0.684116  1
  B  B12  1  0.500000  0.055066  0.068147  1
  B  B13  1  0.500000  0.944934  0.931853  1
  B  B14  1  0.500000  0.555066  0.431853  1
  B  B15  1  0.500000  0.444934  0.568147  1
  B  B16  1  0.500000  0.254001  0.082939  1
  B  B17  1  0.500000  0.745999  0.917061  1
  B  B18  1  0.500000  0.754001  0.417061  1
  B  B19  1  0.500000  0.245999  0.582939  1
  B  B20  1  0.500000  0.296569  0.235933  1
  B  B21  1  0.500000  0.703431  0.764067  1
  B  B22  1  0.500000  0.796569  0.264067  1
  B  B23  1  0.500000  0.203431  0.735933  1
  B  B24  1  0.500000  0.129286  0.317563  1
  B  B25  1  0.500000  0.870714  0.682437  1
  B  B26  1  0.500000  0.629286  0.182437  1
  B  B27  1  0.500000  0.370714  0.817563  1
  B  B28  1  0.500000  0.482273  0.286084  1
  B  B29  1  0.500000  0.517727  0.713916  1
  B  B30  1  0.500000  0.982273  0.213916  1
  B  B31  1  0.500000  0.017727  0.786084  1
  B  B32  1  0.500000  0.098546  0.473976  1
  B  B33  1  0.500000  0.901454  0.526024  1
  B  B34  1  0.500000  0.598546  0.026024  1
  B  B35  1  0.500000  0.401454  0.973976  1
