# generated using pymatgen
data_Pr12Ga3PI12
_symmetry_space_group_name_H-M   'P 1'
_cell_length_a   10.99107105
_cell_length_b   10.87808683
_cell_length_c   10.87808601
_cell_angle_alpha   109.25986449
_cell_angle_beta   109.68175633
_cell_angle_gamma   109.68175735
_symmetry_Int_Tables_number   1
_chemical_formula_structural   Pr12Ga3PI12
_chemical_formula_sum   'Pr12 Ga3 P1 I12'
_cell_volume   998.59207246
_cell_formula_units_Z   1
loop_
 _symmetry_equiv_pos_site_id
 _symmetry_equiv_pos_as_xyz
  1  'x, y, z'
loop_
 _atom_site_type_symbol
 _atom_site_label
 _atom_site_symmetry_multiplicity
 _atom_site_fract_x
 _atom_site_fract_y
 _atom_site_fract_z
 _atom_site_occupancy
  Pr  Pr0  1  0.465531  0.487532  0.228712  1
  Pr  Pr1  1  0.750000  0.235589  0.264411  1
  Pr  Pr2  1  0.750000  0.013266  0.486734  1
  Pr  Pr3  1  0.236734  0.473467  0.486734  1
  Pr  Pr4  1  0.263181  0.741180  0.228712  1
  Pr  Pr5  1  0.034469  0.271288  0.012468  1
  Pr  Pr6  1  0.014411  0.028823  0.264411  1
  Pr  Pr7  1  0.477999  0.741180  0.012468  1
  Pr  Pr8  1  0.485589  0.235589  0.471177  1
  Pr  Pr9  1  0.022001  0.487532  0.758820  1
  Pr  Pr10  1  0.263266  0.013266  0.026533  1
  Pr  Pr11  1  0.236819  0.271288  0.758820  1
  Ga  Ga12  1  0.250000  0.249778  0.250222  1
  Ga  Ga13  1  0.500222  0.000445  0.250222  1
  Ga  Ga14  1  0.999778  0.249778  0.499555  1
  P  P15  1  0.250000  0.500000  0.000000  1
  I  I16  1  0.250000  0.757381  0.742619  1
  I  I17  1  0.515836  0.508406  0.759226  1
  I  I18  1  0.984164  0.740774  0.991594  1
  I  I19  1  0.743389  0.250819  0.759226  1
  I  I20  1  0.992619  0.985239  0.742619  1
  I  I21  1  0.250000  0.992063  0.507937  1
  I  I22  1  0.757937  0.515871  0.507937  1
  I  I23  1  0.507430  0.250819  0.991594  1
  I  I24  1  0.756611  0.740774  0.249181  1
  I  I25  1  0.742063  0.992063  0.984129  1
  I  I26  1  0.992570  0.508406  0.249181  1
  I  I27  1  0.507381  0.757381  0.514761  1
