# generated using pymatgen
data_LaPrAl20OsRh3
_symmetry_space_group_name_H-M   'P 1'
_cell_length_a   6.90483535
_cell_length_b   6.89870744
_cell_length_c   9.22840502
_cell_angle_alpha   90.09470021
_cell_angle_beta   90.15275309
_cell_angle_gamma   97.40799269
_symmetry_Int_Tables_number   1
_chemical_formula_structural   LaPrAl20OsRh3
_chemical_formula_sum   'La1 Pr1 Al20 Os1 Rh3'
_cell_volume   435.91828747
_cell_formula_units_Z   1
loop_
 _symmetry_equiv_pos_site_id
 _symmetry_equiv_pos_as_xyz
  1  'x, y, z'
loop_
 _atom_site_type_symbol
 _atom_site_label
 _atom_site_symmetry_multiplicity
 _atom_site_fract_x
 _atom_site_fract_y
 _atom_site_fract_z
 _atom_site_occupancy
  La  La0  1  0.872478  0.124678  0.750318  1
  Pr  Pr1  1  0.128184  0.874475  0.249685  1
  Al  Al2  1  0.620639  0.376860  0.547234  1
  Al  Al3  1  0.379036  0.623378  0.452663  1
  Al  Al4  1  0.378572  0.622022  0.049045  1
  Al  Al5  1  0.621184  0.378254  0.951030  1
  Al  Al6  1  0.222943  0.222438  0.499544  1
  Al  Al7  1  0.777206  0.777474  0.500104  1
  Al  Al8  1  0.775138  0.775248  0.999613  1
  Al  Al9  1  0.224972  0.224572  0.000745  1
  Al  Al10  1  0.841461  0.158804  0.104878  1
  Al  Al11  1  0.158893  0.840961  0.895594  1
  Al  Al12  1  0.158624  0.841920  0.603299  1
  Al  Al13  1  0.841648  0.157726  0.396212  1
  Al  Al14  1  0.856971  0.591968  0.749438  1
  Al  Al15  1  0.142813  0.408626  0.250560  1
  Al  Al16  1  0.407473  0.142496  0.749597  1
  Al  Al17  1  0.591985  0.857738  0.250396  1
  Al  Al18  1  0.225780  0.482555  0.749733  1
  Al  Al19  1  0.774578  0.517678  0.250254  1
  Al  Al20  1  0.516935  0.775852  0.746760  1
  Al  Al21  1  0.482831  0.223790  0.253268  1
  Os  Os22  1  0.500104  0.000232  0.499796  1
  Rh  Rh23  1  0.999764  0.500034  0.499745  1
  Rh  Rh24  1  0.999796  0.500025  0.000200  1
  Rh  Rh25  1  0.499995  0.000198  0.000291  1
