# generated using pymatgen
data_Tb2ThAl7Ni2
_symmetry_space_group_name_H-M   'P 1'
_cell_length_a   5.45776751
_cell_length_b   5.45776603
_cell_length_c   9.25052800
_cell_angle_alpha   72.84260521
_cell_angle_beta   72.84261001
_cell_angle_gamma   60.00000762
_symmetry_Int_Tables_number   1
_chemical_formula_structural   Tb2ThAl7Ni2
_chemical_formula_sum   'Tb2 Th1 Al7 Ni2'
_cell_volume   224.36005685
_cell_formula_units_Z   1
loop_
 _symmetry_equiv_pos_site_id
 _symmetry_equiv_pos_as_xyz
  1  'x, y, z'
loop_
 _atom_site_type_symbol
 _atom_site_label
 _atom_site_symmetry_multiplicity
 _atom_site_fract_x
 _atom_site_fract_y
 _atom_site_fract_z
 _atom_site_occupancy
  Tb  Tb0  1  0.143206  0.143206  0.570383  1
  Tb  Tb1  1  0.856794  0.856794  0.429617  1
  Th  Th2  1  0.000000  0.000000  0.000000  1
  Al  Al3  1  0.071679  0.578896  0.770527  1
  Al  Al4  1  0.578896  0.578896  0.770527  1
  Al  Al5  1  0.578896  0.071679  0.770527  1
  Al  Al6  1  0.928321  0.421104  0.229473  1
  Al  Al7  1  0.421104  0.421104  0.229473  1
  Al  Al8  1  0.421104  0.928321  0.229473  1
  Al  Al9  1  0.500000  0.500000  0.500000  1
  Ni  Ni10  1  0.335610  0.335610  0.993169  1
  Ni  Ni11  1  0.664390  0.664390  0.006831  1
