# generated using pymatgen
data_Cs2Ir(WO4)3
_symmetry_space_group_name_H-M   'P 1'
_cell_length_a   7.41843036
_cell_length_b   7.41805349
_cell_length_c   7.36980880
_cell_angle_alpha   89.99822555
_cell_angle_beta   59.78098808
_cell_angle_gamma   119.99759072
_symmetry_Int_Tables_number   1
_chemical_formula_structural   Cs2Ir(WO4)3
_chemical_formula_sum   'Cs2 Ir1 W3 O12'
_cell_volume   285.82925701
_cell_formula_units_Z   1
loop_
 _symmetry_equiv_pos_site_id
 _symmetry_equiv_pos_as_xyz
  1  'x, y, z'
loop_
 _atom_site_type_symbol
 _atom_site_label
 _atom_site_symmetry_multiplicity
 _atom_site_fract_x
 _atom_site_fract_y
 _atom_site_fract_z
 _atom_site_occupancy
  Cs  Cs0  1  0.255615  0.131720  0.116481  1
  Cs  Cs1  1  0.744385  0.876105  0.883520  1
  Ir  Ir2  1  0.999999  0.503690  0.000003  1
  W  W3  1  0.500092  0.003887  0.500009  1
  W  W4  1  0.499890  0.503772  0.499988  1
  W  W5  1  0.000013  0.503860  0.499993  1
  O  O6  1  0.624305  0.815909  0.433633  1
  O  O7  1  0.876789  0.442123  0.806122  1
  O  O8  1  0.255489  0.820794  0.806116  1
  O  O9  1  0.254192  0.445817  0.433646  1
  O  O10  1  0.255483  0.442122  0.806119  1
  O  O11  1  0.254204  0.815950  0.433659  1
  O  O12  1  0.375698  0.191612  0.566367  1
  O  O13  1  0.123212  0.565332  0.193878  1
  O  O14  1  0.744511  0.186631  0.193889  1
  O  O15  1  0.745794  0.561747  0.566340  1
  O  O16  1  0.744517  0.565303  0.193879  1
  O  O17  1  0.745810  0.191627  0.566357  1
