# generated using pymatgen
data_TbDy3(Fe2Cl)2
_symmetry_space_group_name_H-M   'P 1'
_cell_length_a   3.87929400
_cell_length_b   3.87929523
_cell_length_c   16.04039000
_cell_angle_alpha   90.00000000
_cell_angle_beta   90.00000000
_cell_angle_gamma   120.00000653
_symmetry_Int_Tables_number   1
_chemical_formula_structural   TbDy3(Fe2Cl)2
_chemical_formula_sum   'Tb1 Dy3 Fe4 Cl2'
_cell_volume   209.05042461
_cell_formula_units_Z   1
loop_
 _symmetry_equiv_pos_site_id
 _symmetry_equiv_pos_as_xyz
  1  'x, y, z'
loop_
 _atom_site_type_symbol
 _atom_site_label
 _atom_site_symmetry_multiplicity
 _atom_site_fract_x
 _atom_site_fract_y
 _atom_site_fract_z
 _atom_site_occupancy
  Tb  Tb0  1  0.000000  0.000000  0.885683  1
  Dy  Dy1  1  0.000000  0.000000  0.386958  1
  Dy  Dy2  1  0.000000  0.000000  0.113895  1
  Dy  Dy3  1  0.000000  0.000000  0.612934  1
  Fe  Fe4  1  0.666667  0.333333  0.993190  1
  Fe  Fe5  1  0.333333  0.666667  0.492564  1
  Fe  Fe6  1  0.666667  0.333333  0.507415  1
  Fe  Fe7  1  0.333333  0.666667  0.007673  1
  Cl  Cl8  1  0.666667  0.333333  0.250017  1
  Cl  Cl9  1  0.333333  0.666667  0.749671  1
