# generated using pymatgen
data_NdZrP7Ru12
_symmetry_space_group_name_H-M   'P 1'
_cell_length_a   9.42563300
_cell_length_b   9.42563171
_cell_length_c   3.93379600
_cell_angle_alpha   90.00000000
_cell_angle_beta   90.00000000
_cell_angle_gamma   119.99999400
_symmetry_Int_Tables_number   1
_chemical_formula_structural   NdZrP7Ru12
_chemical_formula_sum   'Nd1 Zr1 P7 Ru12'
_cell_volume   302.66589368
_cell_formula_units_Z   1
loop_
 _symmetry_equiv_pos_site_id
 _symmetry_equiv_pos_as_xyz
  1  'x, y, z'
loop_
 _atom_site_type_symbol
 _atom_site_label
 _atom_site_symmetry_multiplicity
 _atom_site_fract_x
 _atom_site_fract_y
 _atom_site_fract_z
 _atom_site_occupancy
  Nd  Nd0  1  0.333333  0.666667  0.000000  1
  Zr  Zr1  1  0.666667  0.333333  0.500000  1
  P  P2  1  0.603303  0.719131  0.500000  1
  P  P3  1  0.000000  0.000000  0.000000  1
  P  P4  1  0.280869  0.884172  0.500000  1
  P  P5  1  0.115828  0.396697  0.500000  1
  P  P6  1  0.885989  0.571661  0.000000  1
  P  P7  1  0.428339  0.314328  0.000000  1
  P  P8  1  0.685672  0.114011  0.000000  1
  Ru  Ru9  1  0.560401  0.958192  0.500000  1
  Ru  Ru10  1  0.397794  0.439599  0.500000  1
  Ru  Ru11  1  0.914068  0.120878  0.500000  1
  Ru  Ru12  1  0.206810  0.085932  0.500000  1
  Ru  Ru13  1  0.879122  0.793190  0.500000  1
  Ru  Ru14  1  0.727547  0.890866  0.000000  1
  Ru  Ru15  1  0.109134  0.836680  0.000000  1
  Ru  Ru16  1  0.163320  0.272453  0.000000  1
  Ru  Ru17  1  0.426087  0.074311  0.000000  1
  Ru  Ru18  1  0.925689  0.351778  0.000000  1
  Ru  Ru19  1  0.648222  0.573913  0.000000  1
  Ru  Ru20  1  0.041808  0.602206  0.500000  1
