# generated using pymatgen
data_MgNp5Co12(SiB2)2
_symmetry_space_group_name_H-M   'P 1'
_cell_length_a   5.12049600
_cell_length_b   5.12049633
_cell_length_c   13.08149600
_cell_angle_alpha   90.00000000
_cell_angle_beta   90.00000000
_cell_angle_gamma   119.99999785
_symmetry_Int_Tables_number   1
_chemical_formula_structural   MgNp5Co12(SiB2)2
_chemical_formula_sum   'Mg1 Np5 Co12 Si2 B4'
_cell_volume   297.03809057
_cell_formula_units_Z   1
loop_
 _symmetry_equiv_pos_site_id
 _symmetry_equiv_pos_as_xyz
  1  'x, y, z'
loop_
 _atom_site_type_symbol
 _atom_site_label
 _atom_site_symmetry_multiplicity
 _atom_site_fract_x
 _atom_site_fract_y
 _atom_site_fract_z
 _atom_site_occupancy
  Mg  Mg0  1  0.333333  0.666667  0.033949  1
  Np  Np1  1  0.333333  0.666667  0.264974  1
  Np  Np2  1  0.666667  0.333333  0.752395  1
  Np  Np3  1  0.666667  0.333333  0.539181  1
  Np  Np4  1  0.666667  0.333333  0.960907  1
  Np  Np5  1  0.333333  0.666667  0.458113  1
  Co  Co6  1  0.833179  0.666359  0.141197  1
  Co  Co7  1  0.166890  0.833110  0.645718  1
  Co  Co8  1  0.666220  0.833110  0.645718  1
  Co  Co9  1  0.333641  0.166821  0.141197  1
  Co  Co10  1  0.833179  0.166821  0.141197  1
  Co  Co11  1  0.166212  0.332423  0.855939  1
  Co  Co12  1  0.166212  0.833788  0.855939  1
  Co  Co13  1  0.166890  0.333780  0.645718  1
  Co  Co14  1  0.667577  0.833788  0.855939  1
  Co  Co15  1  0.333278  0.166639  0.354793  1
  Co  Co16  1  0.833361  0.666722  0.354793  1
  Co  Co17  1  0.833361  0.166639  0.354793  1
  Si  Si18  1  0.000000  0.000000  0.999542  1
  Si  Si19  1  0.000000  0.000000  0.501120  1
  B  B20  1  0.000000  0.000000  0.246249  1
  B  B21  1  0.000000  0.000000  0.752116  1
  B  B22  1  0.333333  0.666667  0.751489  1
  B  B23  1  0.666667  0.333333  0.247027  1
