# generated using pymatgen
data_Y3TmHfPt3F28
_symmetry_space_group_name_H-M   'P 1'
_cell_length_a   5.57285904
_cell_length_b   8.91754681
_cell_length_c   12.02236599
_cell_angle_alpha   62.45316236
_cell_angle_beta   90.10935639
_cell_angle_gamma   90.09670565
_symmetry_Int_Tables_number   1
_chemical_formula_structural   Y3TmHfPt3F28
_chemical_formula_sum   'Y3 Tm1 Hf1 Pt3 F28'
_cell_volume   529.73218114
_cell_formula_units_Z   1
loop_
 _symmetry_equiv_pos_site_id
 _symmetry_equiv_pos_as_xyz
  1  'x, y, z'
loop_
 _atom_site_type_symbol
 _atom_site_label
 _atom_site_symmetry_multiplicity
 _atom_site_fract_x
 _atom_site_fract_y
 _atom_site_fract_z
 _atom_site_occupancy
  Y  Y0  1  0.740003  0.186898  0.735356  1
  Y  Y1  1  0.761505  0.180809  0.237769  1
  Y  Y2  1  0.240058  0.814079  0.762304  1
  Tm  Tm3  1  0.258723  0.812255  0.268528  1
  Hf  Hf4  1  0.755569  0.725204  0.045378  1
  Pt  Pt5  1  0.240490  0.271959  0.957250  1
  Pt  Pt6  1  0.259700  0.273800  0.456292  1
  Pt  Pt7  1  0.740910  0.726251  0.542853  1
  F  F8  1  0.936404  0.703788  0.415043  1
  F  F9  1  0.064733  0.296885  0.583627  1
  F  F10  1  0.435652  0.295974  0.084773  1
  F  F11  1  0.544270  0.710217  0.916879  1
  F  F12  1  0.472880  0.732222  0.146178  1
  F  F13  1  0.531545  0.275664  0.863857  1
  F  F14  1  0.967207  0.273323  0.364408  1
  F  F15  1  0.033933  0.725377  0.634127  1
  F  F16  1  0.964164  0.750019  0.173719  1
  F  F17  1  0.052991  0.256371  0.823825  1
  F  F18  1  0.450780  0.256894  0.324409  1
  F  F19  1  0.554630  0.742488  0.676033  1
  F  F20  1  0.775517  0.472781  0.141512  1
  F  F21  1  0.223798  0.519778  0.857186  1
  F  F22  1  0.269919  0.522745  0.358851  1
  F  F23  1  0.729207  0.478488  0.641888  1
  F  F24  1  0.941388  0.276455  0.043671  1
  F  F25  1  0.054489  0.722706  0.952203  1
  F  F26  1  0.439801  0.719449  0.457638  1
  F  F27  1  0.558934  0.281477  0.541336  1
  F  F28  1  0.742927  0.974502  0.450571  1
  F  F29  1  0.258817  0.025530  0.548077  1
  F  F30  1  0.244422  0.023513  0.052771  1
  F  F31  1  0.760039  0.976867  0.942557  1
  F  F32  1  0.579125  0.965858  0.234505  1
  F  F33  1  0.413487  0.032462  0.765629  1
  F  F34  1  0.087940  0.025982  0.269871  1
  F  F35  1  0.914042  0.970929  0.729129  1
