# generated using pymatgen
data_Nd3Sm(B4W)4
_symmetry_space_group_name_H-M   'P 1'
_cell_length_a   6.12192002
_cell_length_b   11.84158832
_cell_length_c   3.69285000
_cell_angle_alpha   90.00000000
_cell_angle_beta   90.00000000
_cell_angle_gamma   89.95600901
_symmetry_Int_Tables_number   1
_chemical_formula_structural   Nd3Sm(B4W)4
_chemical_formula_sum   'Nd3 Sm1 B16 W4'
_cell_volume   267.70664392
_cell_formula_units_Z   1
loop_
 _symmetry_equiv_pos_site_id
 _symmetry_equiv_pos_as_xyz
  1  'x, y, z'
loop_
 _atom_site_type_symbol
 _atom_site_label
 _atom_site_symmetry_multiplicity
 _atom_site_fract_x
 _atom_site_fract_y
 _atom_site_fract_z
 _atom_site_occupancy
  Nd  Nd0  1  0.625819  0.349802  0.000000  1
  Nd  Nd1  1  0.374200  0.650463  0.000000  1
  Nd  Nd2  1  0.125768  0.149976  0.000000  1
  Sm  Sm3  1  0.874066  0.850095  0.000000  1
  B  B4  1  0.783062  0.184541  0.500000  1
  B  B5  1  0.215276  0.815179  0.500000  1
  B  B6  1  0.283093  0.315019  0.500000  1
  B  B7  1  0.717124  0.685925  0.500000  1
  B  B8  1  0.863500  0.031363  0.500000  1
  B  B9  1  0.136241  0.967046  0.500000  1
  B  B10  1  0.363079  0.467927  0.500000  1
  B  B11  1  0.637059  0.532720  0.500000  1
  B  B12  1  0.888163  0.454128  0.500000  1
  B  B13  1  0.111448  0.546631  0.500000  1
  B  B14  1  0.388612  0.045605  0.500000  1
  B  B15  1  0.612906  0.953029  0.500000  1
  B  B16  1  0.976354  0.309005  0.500000  1
  B  B17  1  0.022830  0.692140  0.500000  1
  B  B18  1  0.476460  0.190682  0.500000  1
  B  B19  1  0.524688  0.808824  0.500000  1
  W  W20  1  0.629430  0.082969  0.000000  1
  W  W21  1  0.371011  0.916035  0.000000  1
  W  W22  1  0.128963  0.416693  0.000000  1
  W  W23  1  0.870846  0.584204  0.000000  1
