# generated using pymatgen
data_Ho3Pa(CdPd2)2
_symmetry_space_group_name_H-M   'P 1'
_cell_length_a   7.76410582
_cell_length_b   7.76398786
_cell_length_c   3.68114300
_cell_angle_alpha   90.00000000
_cell_angle_beta   90.00000000
_cell_angle_gamma   91.34504931
_symmetry_Int_Tables_number   1
_chemical_formula_structural   Ho3Pa(CdPd2)2
_chemical_formula_sum   'Ho3 Pa1 Cd2 Pd4'
_cell_volume   221.83971633
_cell_formula_units_Z   1
loop_
 _symmetry_equiv_pos_site_id
 _symmetry_equiv_pos_as_xyz
  1  'x, y, z'
loop_
 _atom_site_type_symbol
 _atom_site_label
 _atom_site_symmetry_multiplicity
 _atom_site_fract_x
 _atom_site_fract_y
 _atom_site_fract_z
 _atom_site_occupancy
  Ho  Ho0  1  0.327223  0.827222  0.500000  1
  Ho  Ho1  1  0.171529  0.331312  0.500000  1
  Ho  Ho2  1  0.831311  0.671527  0.500000  1
  Pa  Pa3  1  0.667735  0.167736  0.500000  1
  Cd  Cd4  1  0.005987  0.998327  0.000000  1
  Cd  Cd5  1  0.498326  0.505988  0.000000  1
  Pd  Pd6  1  0.123971  0.623972  0.000000  1
  Pd  Pd7  1  0.861335  0.361333  0.000000  1
  Pd  Pd8  1  0.632930  0.879656  0.000000  1
  Pd  Pd9  1  0.379653  0.132927  0.000000  1
