# generated using pymatgen
data_TbDy5Al16Os6Ru
_symmetry_space_group_name_H-M   'P 1'
_cell_length_a   8.96029055
_cell_length_b   8.95611765
_cell_length_c   8.95611782
_cell_angle_alpha   60.03082559
_cell_angle_beta   59.98459686
_cell_angle_gamma   59.98459501
_symmetry_Int_Tables_number   1
_chemical_formula_structural   TbDy5Al16Os6Ru
_chemical_formula_sum   'Tb1 Dy5 Al16 Os6 Ru1'
_cell_volume   508.21391515
_cell_formula_units_Z   1
loop_
 _symmetry_equiv_pos_site_id
 _symmetry_equiv_pos_as_xyz
  1  'x, y, z'
loop_
 _atom_site_type_symbol
 _atom_site_label
 _atom_site_symmetry_multiplicity
 _atom_site_fract_x
 _atom_site_fract_y
 _atom_site_fract_z
 _atom_site_occupancy
  Tb  Tb0  1  0.288807  0.711193  0.711193  1
  Dy  Dy1  1  0.712421  0.711572  0.287579  1
  Dy  Dy2  1  0.288428  0.711572  0.287579  1
  Dy  Dy3  1  0.712149  0.287851  0.287851  1
  Dy  Dy4  1  0.288428  0.287579  0.711572  1
  Dy  Dy5  1  0.712421  0.287579  0.711572  1
  Al  Al6  1  0.878886  0.878463  0.363765  1
  Al  Al7  1  0.878886  0.363765  0.878463  1
  Al  Al8  1  0.362154  0.879411  0.879411  1
  Al  Al9  1  0.879023  0.879411  0.879411  1
  Al  Al10  1  0.120589  0.120977  0.637846  1
  Al  Al11  1  0.120589  0.637846  0.120977  1
  Al  Al12  1  0.636235  0.121114  0.121114  1
  Al  Al13  1  0.121537  0.121114  0.121114  1
  Al  Al14  1  0.667735  0.668323  0.996207  1
  Al  Al15  1  0.667735  0.996207  0.668323  1
  Al  Al16  1  0.997406  0.667505  0.667505  1
  Al  Al17  1  0.667585  0.667505  0.667505  1
  Al  Al18  1  0.332495  0.332415  0.002594  1
  Al  Al19  1  0.332495  0.002594  0.332415  1
  Al  Al20  1  0.003793  0.332265  0.332265  1
  Al  Al21  1  0.331677  0.332265  0.332265  1
  Os  Os22  1  0.999567  0.000433  0.499920  1
  Os  Os23  1  0.500080  0.000433  0.499920  1
  Os  Os24  1  0.999960  0.500040  0.500040  1
  Os  Os25  1  0.500080  0.499920  0.000433  1
  Os  Os26  1  0.999567  0.499920  0.000433  1
  Os  Os27  1  0.499960  0.000040  0.000040  1
  Ru  Ru28  1  0.999319  0.000681  0.000681  1
