# generated using pymatgen
data_KHf2CuSe5
_symmetry_space_group_name_H-M   'P 1'
_cell_length_a   7.80401324
_cell_length_b   7.80401395
_cell_length_c   16.26304400
_cell_angle_alpha   90.00000000
_cell_angle_beta   90.00000000
_cell_angle_gamma   151.43658126
_symmetry_Int_Tables_number   1
_chemical_formula_structural   KHf2CuSe5
_chemical_formula_sum   'K2 Hf4 Cu2 Se10'
_cell_volume   473.57084309
_cell_formula_units_Z   2
loop_
 _symmetry_equiv_pos_site_id
 _symmetry_equiv_pos_as_xyz
  1  'x, y, z'
loop_
 _atom_site_type_symbol
 _atom_site_label
 _atom_site_symmetry_multiplicity
 _atom_site_fract_x
 _atom_site_fract_y
 _atom_site_fract_z
 _atom_site_occupancy
  K  K0  1  0.037094  0.962906  0.250000  1
  K  K1  1  0.962906  0.037094  0.750000  1
  Hf  Hf2  1  0.211070  0.788930  0.901713  1
  Hf  Hf3  1  0.788930  0.211070  0.401713  1
  Hf  Hf4  1  0.211070  0.788930  0.598287  1
  Hf  Hf5  1  0.788930  0.211070  0.098287  1
  Cu  Cu6  1  0.323237  0.676763  0.250000  1
  Cu  Cu7  1  0.676763  0.323237  0.750000  1
  Se  Se8  1  0.167709  0.832291  0.437960  1
  Se  Se9  1  0.832291  0.167709  0.937960  1
  Se  Se10  1  0.280690  0.719310  0.750000  1
  Se  Se11  1  0.409467  0.590533  0.376033  1
  Se  Se12  1  0.167709  0.832291  0.062040  1
  Se  Se13  1  0.590533  0.409467  0.876033  1
  Se  Se14  1  0.590533  0.409467  0.623967  1
  Se  Se15  1  0.409467  0.590533  0.123967  1
  Se  Se16  1  0.832291  0.167709  0.562040  1
  Se  Se17  1  0.719310  0.280690  0.250000  1
