# generated using pymatgen
data_Rb2Ag(S4O13)2
_symmetry_space_group_name_H-M   'P 1'
_cell_length_a   7.55740700
_cell_length_b   8.77355866
_cell_length_c   9.34307800
_cell_angle_alpha   107.46933315
_cell_angle_beta   88.16157998
_cell_angle_gamma   107.59967545
_symmetry_Int_Tables_number   1
_chemical_formula_structural   Rb2Ag(S4O13)2
_chemical_formula_sum   'Rb2 Ag1 S8 O26'
_cell_volume   562.08925271
_cell_formula_units_Z   1
loop_
 _symmetry_equiv_pos_site_id
 _symmetry_equiv_pos_as_xyz
  1  'x, y, z'
loop_
 _atom_site_type_symbol
 _atom_site_label
 _atom_site_symmetry_multiplicity
 _atom_site_fract_x
 _atom_site_fract_y
 _atom_site_fract_z
 _atom_site_occupancy
  Rb  Rb0  1  0.132319  0.267217  0.883357  1
  Rb  Rb1  1  0.867681  0.732783  0.116643  1
  Ag  Ag2  1  0.500000  0.500000  0.500000  1
  S  S3  1  0.675523  0.360684  0.717509  1
  S  S4  1  0.324477  0.639316  0.282491  1
  S  S5  1  0.877291  0.188825  0.483583  1
  S  S6  1  0.122709  0.811175  0.516417  1
  S  S7  1  0.382021  0.142278  0.220666  1
  S  S8  1  0.617979  0.857722  0.779334  1
  S  S9  1  0.790593  0.222528  0.193316  1
  S  S10  1  0.209407  0.777472  0.806684  1
  O  O11  1  0.698962  0.183013  0.577509  1
  O  O12  1  0.301038  0.816987  0.422491  1
  O  O13  1  0.719257  0.488678  0.637062  1
  O  O14  1  0.280743  0.511322  0.362938  1
  O  O15  1  0.814969  0.399925  0.835228  1
  O  O16  1  0.185031  0.600075  0.164772  1
  O  O17  1  0.847389  0.299232  0.375979  1
  O  O18  1  0.152611  0.700768  0.624021  1
  O  O19  1  0.042564  0.292996  0.575239  1
  O  O20  1  0.957436  0.707004  0.424761  1
  O  O21  1  0.483111  0.297547  0.743903  1
  O  O22  1  0.516889  0.702453  0.256097  1
  O  O23  1  0.855348  0.020755  0.393367  1
  O  O24  1  0.144652  0.979245  0.606633  1
  O  O25  1  0.412058  0.230352  0.384030  1
  O  O26  1  0.587942  0.769648  0.615970  1
  O  O27  1  0.595202  0.089261  0.181825  1
  O  O28  1  0.404798  0.910739  0.818175  1
  O  O29  1  0.781584  0.367047  0.157575  1
  O  O30  1  0.218416  0.632953  0.842425  1
  O  O31  1  0.915723  0.132047  0.124605  1
  O  O32  1  0.084277  0.867953  0.875395  1
  O  O33  1  0.377577  0.242581  0.125359  1
  O  O34  1  0.622423  0.757419  0.874641  1
  O  O35  1  0.257187  0.974822  0.186755  1
  O  O36  1  0.742813  0.025178  0.813245  1
