# generated using pymatgen
data_SrDy(NbS2)6
_symmetry_space_group_name_H-M   'P 1'
_cell_length_a   5.81029200
_cell_length_b   5.81029122
_cell_length_c   14.43353900
_cell_angle_alpha   90.00000000
_cell_angle_beta   90.00000000
_cell_angle_gamma   120.00001581
_symmetry_Int_Tables_number   1
_chemical_formula_structural   SrDy(NbS2)6
_chemical_formula_sum   'Sr1 Dy1 Nb6 S12'
_cell_volume   421.98717466
_cell_formula_units_Z   1
loop_
 _symmetry_equiv_pos_site_id
 _symmetry_equiv_pos_as_xyz
  1  'x, y, z'
loop_
 _atom_site_type_symbol
 _atom_site_label
 _atom_site_symmetry_multiplicity
 _atom_site_fract_x
 _atom_site_fract_y
 _atom_site_fract_z
 _atom_site_occupancy
  Sr  Sr0  1  0.000000  0.000000  0.500000  1
  Dy  Dy1  1  0.000000  0.000000  0.000000  1
  Nb  Nb2  1  0.333333  0.666667  0.240098  1
  Nb  Nb3  1  0.666667  0.333333  0.759902  1
  Nb  Nb4  1  0.666667  0.333333  0.240098  1
  Nb  Nb5  1  0.333333  0.666667  0.759902  1
  Nb  Nb6  1  0.000000  0.000000  0.240588  1
  Nb  Nb7  1  0.000000  0.000000  0.759412  1
  S  S8  1  0.336593  0.000000  0.130664  1
  S  S9  1  0.000000  0.336593  0.130664  1
  S  S10  1  0.663407  0.663407  0.130664  1
  S  S11  1  0.338224  0.338224  0.650837  1
  S  S12  1  0.661776  0.661776  0.349163  1
  S  S13  1  0.661776  0.000000  0.650837  1
  S  S14  1  0.000000  0.661776  0.650837  1
  S  S15  1  0.000000  0.663407  0.869336  1
  S  S16  1  0.336593  0.336593  0.869336  1
  S  S17  1  0.000000  0.338224  0.349163  1
  S  S18  1  0.338224  0.000000  0.349163  1
  S  S19  1  0.663407  0.000000  0.869336  1
