# generated using pymatgen
data_U3Pa3As8
_symmetry_space_group_name_H-M   'P 1'
_cell_length_a   7.41351550
_cell_length_b   7.41351490
_cell_length_c   7.41246514
_cell_angle_alpha   109.75595247
_cell_angle_beta   109.16329522
_cell_angle_gamma   109.50069335
_symmetry_Int_Tables_number   1
_chemical_formula_structural   U3Pa3As8
_chemical_formula_sum   'U3 Pa3 As8'
_cell_volume   313.57881418
_cell_formula_units_Z   1
loop_
 _symmetry_equiv_pos_site_id
 _symmetry_equiv_pos_as_xyz
  1  'x, y, z'
loop_
 _atom_site_type_symbol
 _atom_site_label
 _atom_site_symmetry_multiplicity
 _atom_site_fract_x
 _atom_site_fract_y
 _atom_site_fract_z
 _atom_site_occupancy
  U  U0  1  0.749743  0.874547  0.125085  1
  U  U1  1  0.249462  0.624657  0.374915  1
  U  U2  1  0.625077  0.375077  0.250000  1
  Pa  Pa3  1  0.874913  0.124913  0.750000  1
  Pa  Pa4  1  0.375287  0.250415  0.624794  1
  Pa  Pa5  1  0.125621  0.750492  0.875206  1
  As  As6  1  0.657900  0.658258  0.658244  1
  As  As7  1  0.500251  0.999940  0.341528  1
  As  As8  1  0.999887  0.341900  0.500146  1
  As  As9  1  0.341753  0.499741  0.999854  1
  As  As10  1  0.999984  0.841430  0.499735  1
  As  As11  1  0.841696  0.500250  0.000265  1
  As  As12  1  0.158412  0.158723  0.158472  1
  As  As13  1  0.500014  0.999656  0.841756  1
