# generated using pymatgen
data_Np4Zn3GaIr4
_symmetry_space_group_name_H-M   'P 1'
_cell_length_a   4.21374300
_cell_length_b   6.59338351
_cell_length_c   8.07691042
_cell_angle_alpha   89.37101895
_cell_angle_beta   90.00000000
_cell_angle_gamma   90.00000000
_symmetry_Int_Tables_number   1
_chemical_formula_structural   Np4Zn3GaIr4
_chemical_formula_sum   'Np4 Zn3 Ga1 Ir4'
_cell_volume   224.38585616
_cell_formula_units_Z   1
loop_
 _symmetry_equiv_pos_site_id
 _symmetry_equiv_pos_as_xyz
  1  'x, y, z'
loop_
 _atom_site_type_symbol
 _atom_site_label
 _atom_site_symmetry_multiplicity
 _atom_site_fract_x
 _atom_site_fract_y
 _atom_site_fract_z
 _atom_site_occupancy
  Np  Np0  1  0.250000  0.971226  0.304906  1
  Np  Np1  1  0.250000  0.472056  0.196600  1
  Np  Np2  1  0.750000  0.030073  0.694738  1
  Np  Np3  1  0.750000  0.529730  0.803173  1
  Zn  Zn4  1  0.250000  0.350136  0.566634  1
  Zn  Zn5  1  0.250000  0.846057  0.933372  1
  Zn  Zn6  1  0.750000  0.649262  0.434867  1
  Ga  Ga7  1  0.750000  0.147790  0.064100  1
  Ir  Ir8  1  0.250000  0.254350  0.894478  1
  Ir  Ir9  1  0.250000  0.754373  0.614250  1
  Ir  Ir10  1  0.750000  0.742568  0.115266  1
  Ir  Ir11  1  0.750000  0.252378  0.377619  1
