# generated using pymatgen
data_PrNdSiPt8
_symmetry_space_group_name_H-M   'P 1'
_cell_length_a   4.31961900
_cell_length_b   9.26368834
_cell_length_c   9.26361501
_cell_angle_alpha   145.84262660
_cell_angle_beta   90.00000000
_cell_angle_gamma   90.00000000
_symmetry_Int_Tables_number   1
_chemical_formula_structural   PrNdSiPt8
_chemical_formula_sum   'Pr1 Nd1 Si1 Pt8'
_cell_volume   208.13005763
_cell_formula_units_Z   1
loop_
 _symmetry_equiv_pos_site_id
 _symmetry_equiv_pos_as_xyz
  1  'x, y, z'
loop_
 _atom_site_type_symbol
 _atom_site_label
 _atom_site_symmetry_multiplicity
 _atom_site_fract_x
 _atom_site_fract_y
 _atom_site_fract_z
 _atom_site_occupancy
  Pr  Pr0  1  0.500000  0.616670  0.372252  1
  Nd  Nd1  1  0.500000  0.372217  0.616806  1
  Si  Si2  1  0.000000  0.224729  0.224823  1
  Pt  Pt3  1  0.000000  0.885480  0.108409  1
  Pt  Pt4  1  0.500000  0.789452  0.193046  1
  Pt  Pt5  1  0.000000  0.988238  0.489441  1
  Pt  Pt6  1  0.000000  0.641967  0.642256  1
  Pt  Pt7  1  0.500000  0.193281  0.789283  1
  Pt  Pt8  1  0.000000  0.108392  0.885459  1
  Pt  Pt9  1  0.000000  0.489340  0.987895  1
  Pt  Pt10  1  0.500000  0.003815  0.003912  1
