# generated using pymatgen
data_Ac3Pr(B8Ru7)2
_symmetry_space_group_name_H-M   'P 1'
_cell_length_a   6.51621814
_cell_length_b   6.51005114
_cell_length_c   10.19380800
_cell_angle_alpha   90.00000000
_cell_angle_beta   90.00000000
_cell_angle_gamma   89.97600188
_symmetry_Int_Tables_number   1
_chemical_formula_structural   Ac3Pr(B8Ru7)2
_chemical_formula_sum   'Ac3 Pr1 B16 Ru14'
_cell_volume   432.43060812
_cell_formula_units_Z   1
loop_
 _symmetry_equiv_pos_site_id
 _symmetry_equiv_pos_as_xyz
  1  'x, y, z'
loop_
 _atom_site_type_symbol
 _atom_site_label
 _atom_site_symmetry_multiplicity
 _atom_site_fract_x
 _atom_site_fract_y
 _atom_site_fract_z
 _atom_site_occupancy
  Ac  Ac0  1  0.732052  0.884794  0.000000  1
  Ac  Ac1  1  0.118979  0.734283  0.500000  1
  Ac  Ac2  1  0.880943  0.264687  0.500000  1
  Pr  Pr3  1  0.262580  0.126962  0.000000  1
  B  B4  1  0.500151  0.000039  0.590014  1
  B  B5  1  0.500151  0.000039  0.409986  1
  B  B6  1  0.897512  0.277447  0.170471  1
  B  B7  1  0.104035  0.721991  0.829856  1
  B  B8  1  0.499800  0.500108  0.340682  1
  B  B9  1  0.499963  0.499307  0.841540  1
  B  B10  1  0.279380  0.102944  0.672513  1
  B  B11  1  0.104035  0.721991  0.170144  1
  B  B12  1  0.279380  0.102944  0.327487  1
  B  B13  1  0.897512  0.277447  0.829529  1
  B  B14  1  0.499800  0.500108  0.659318  1
  B  B15  1  0.499963  0.499307  0.158460  1
  B  B16  1  0.000150  0.499441  0.910876  1
  B  B17  1  0.721421  0.896351  0.672240  1
  B  B18  1  0.721421  0.896351  0.327760  1
  B  B19  1  0.000150  0.499441  0.089124  1
  Ru  Ru20  1  0.205978  0.398566  0.753887  1
  Ru  Ru21  1  0.398909  0.285207  0.500000  1
  Ru  Ru22  1  0.400091  0.795371  0.250754  1
  Ru  Ru23  1  0.205978  0.398566  0.246113  1
  Ru  Ru24  1  0.600513  0.714880  0.500000  1
  Ru  Ru25  1  0.598829  0.204754  0.749443  1
  Ru  Ru26  1  0.284766  0.600200  0.000000  1
  Ru  Ru27  1  0.714654  0.398843  0.000000  1
  Ru  Ru28  1  0.794941  0.599071  0.247655  1
  Ru  Ru29  1  0.794941  0.599071  0.752345  1
  Ru  Ru30  1  0.400091  0.795371  0.749246  1
  Ru  Ru31  1  0.001050  0.999681  0.248777  1
  Ru  Ru32  1  0.598829  0.204754  0.250557  1
  Ru  Ru33  1  0.001050  0.999681  0.751223  1
