# generated using pymatgen
data_AcEu2(AsPd)4
_symmetry_space_group_name_H-M   'P 1'
_cell_length_a   4.24303500
_cell_length_b   4.42129200
_cell_length_c   12.91528000
_cell_angle_alpha   90.00000000
_cell_angle_beta   90.00000000
_cell_angle_gamma   90.00000000
_symmetry_Int_Tables_number   1
_chemical_formula_structural   AcEu2(AsPd)4
_chemical_formula_sum   'Ac1 Eu2 As4 Pd4'
_cell_volume   242.28673561
_cell_formula_units_Z   1
loop_
 _symmetry_equiv_pos_site_id
 _symmetry_equiv_pos_as_xyz
  1  'x, y, z'
loop_
 _atom_site_type_symbol
 _atom_site_label
 _atom_site_symmetry_multiplicity
 _atom_site_fract_x
 _atom_site_fract_y
 _atom_site_fract_z
 _atom_site_occupancy
  Ac  Ac0  1  0.500000  0.500000  0.299348  1
  Eu  Eu1  1  0.500000  0.500000  0.701262  1
  Eu  Eu2  1  0.500000  0.000000  0.996379  1
  As  As3  1  0.000000  0.000000  0.387859  1
  As  As4  1  0.000000  0.500000  0.097426  1
  As  As5  1  0.000000  0.000000  0.618072  1
  As  As6  1  0.000000  0.500000  0.895248  1
  Pd  Pd7  1  0.000000  0.000000  0.811465  1
  Pd  Pd8  1  0.000000  0.000000  0.188225  1
  Pd  Pd9  1  0.500000  0.000000  0.502435  1
  Pd  Pd10  1  0.000000  0.500000  0.502282  1
