# generated using pymatgen
data_Zr6Al17Pd7
_symmetry_space_group_name_H-M   'P 1'
_cell_length_a   8.86946867
_cell_length_b   8.86935211
_cell_length_c   8.86971644
_cell_angle_alpha   119.99781455
_cell_angle_beta   119.99800187
_cell_angle_gamma   90.00377678
_symmetry_Int_Tables_number   1
_chemical_formula_structural   Zr6Al17Pd7
_chemical_formula_sum   'Zr6 Al17 Pd7'
_cell_volume   493.39800183
_cell_formula_units_Z   1
loop_
 _symmetry_equiv_pos_site_id
 _symmetry_equiv_pos_as_xyz
  1  'x, y, z'
loop_
 _atom_site_type_symbol
 _atom_site_label
 _atom_site_symmetry_multiplicity
 _atom_site_fract_x
 _atom_site_fract_y
 _atom_site_fract_z
 _atom_site_occupancy
  Zr  Zr0  1  0.789491  0.289379  0.078601  1
  Zr  Zr1  1  0.210760  0.289389  0.499890  1
  Zr  Zr2  1  0.210231  0.710234  0.499980  1
  Zr  Zr3  1  0.210767  0.710879  0.921403  1
  Zr  Zr4  1  0.789481  0.710882  0.500106  1
  Zr  Zr5  1  0.788758  0.288758  0.500031  1
  Al  Al6  1  0.377637  0.121968  0.744245  1
  Al  Al7  1  0.377734  0.633382  0.255751  1
  Al  Al8  1  0.999326  0.499349  0.500009  1
  Al  Al9  1  0.163206  0.337086  0.173936  1
  Al  Al10  1  0.163115  0.989245  0.826037  1
  Al  Al11  1  0.162581  0.337160  0.825374  1
  Al  Al12  1  0.511800  0.337246  0.174659  1
  Al  Al13  1  0.837012  0.662670  0.825594  1
  Al  Al14  1  0.837091  0.011411  0.174412  1
  Al  Al15  1  0.837116  0.663110  0.174070  1
  Al  Al16  1  0.489038  0.663031  0.825924  1
  Al  Al17  1  0.377851  0.122406  0.255518  1
  Al  Al18  1  0.866900  0.122315  0.744471  1
  Al  Al19  1  0.622349  0.877775  0.255518  1
  Al  Al20  1  0.622265  0.366842  0.744485  1
  Al  Al21  1  0.621890  0.877591  0.744194  1
  Al  Al22  1  0.133387  0.877680  0.255788  1
  Pd  Pd23  1  0.000144  0.999959  0.500024  1
  Pd  Pd24  1  0.499938  0.999958  0.999816  1
  Pd  Pd25  1  0.499935  0.499933  0.999996  1
  Pd  Pd26  1  0.499933  0.500117  0.499979  1
  Pd  Pd27  1  0.000139  0.500122  0.000185  1
  Pd  Pd28  1  0.999975  0.999977  0.000003  1
  Pd  Pd29  1  0.500144  0.000143  0.500000  1
