# generated using pymatgen
data_YSc4Si7Pt9
_symmetry_space_group_name_H-M   'P 1'
_cell_length_a   10.05122100
_cell_length_b   10.05122099
_cell_length_c   3.94991600
_cell_angle_alpha   90.00000000
_cell_angle_beta   90.00000000
_cell_angle_gamma   119.99999675
_symmetry_Int_Tables_number   1
_chemical_formula_structural   YSc4Si7Pt9
_chemical_formula_sum   'Y1 Sc4 Si7 Pt9'
_cell_volume   345.58600715
_cell_formula_units_Z   1
loop_
 _symmetry_equiv_pos_site_id
 _symmetry_equiv_pos_as_xyz
  1  'x, y, z'
loop_
 _atom_site_type_symbol
 _atom_site_label
 _atom_site_symmetry_multiplicity
 _atom_site_fract_x
 _atom_site_fract_y
 _atom_site_fract_z
 _atom_site_occupancy
  Y  Y0  1  0.333333  0.666667  0.500000  1
  Sc  Sc1  1  0.000000  0.000000  0.000000  1
  Sc  Sc2  1  0.895552  0.458301  0.500000  1
  Sc  Sc3  1  0.562749  0.104448  0.500000  1
  Sc  Sc4  1  0.541699  0.437251  0.500000  1
  Si  Si5  1  0.239892  0.189649  0.500000  1
  Si  Si6  1  0.810351  0.050244  0.500000  1
  Si  Si7  1  0.949756  0.760108  0.500000  1
  Si  Si8  1  0.557132  0.647830  0.000000  1
  Si  Si9  1  0.352170  0.909301  0.000000  1
  Si  Si10  1  0.090699  0.442868  0.000000  1
  Si  Si11  1  0.666667  0.333333  0.000000  1
  Pt  Pt12  1  0.217215  0.936170  0.500000  1
  Pt  Pt13  1  0.063830  0.281046  0.500000  1
  Pt  Pt14  1  0.718954  0.782785  0.500000  1
  Pt  Pt15  1  0.315132  0.413723  0.000000  1
  Pt  Pt16  1  0.586277  0.901409  0.000000  1
  Pt  Pt17  1  0.098591  0.684868  0.000000  1
  Pt  Pt18  1  0.382761  0.171735  0.000000  1
  Pt  Pt19  1  0.828265  0.211025  0.000000  1
  Pt  Pt20  1  0.788975  0.617239  0.000000  1
