# generated using pymatgen
data_Nd8Fe(Si4Au)3
_symmetry_space_group_name_H-M   'P 1'
_cell_length_a   8.26186500
_cell_length_b   8.26186960
_cell_length_c   8.60088600
_cell_angle_alpha   90.00009829
_cell_angle_beta   89.99979660
_cell_angle_gamma   119.99999251
_symmetry_Int_Tables_number   1
_chemical_formula_structural   Nd8Fe(Si4Au)3
_chemical_formula_sum   'Nd8 Fe1 Si12 Au3'
_cell_volume   508.42896761
_cell_formula_units_Z   1
loop_
 _symmetry_equiv_pos_site_id
 _symmetry_equiv_pos_as_xyz
  1  'x, y, z'
loop_
 _atom_site_type_symbol
 _atom_site_label
 _atom_site_symmetry_multiplicity
 _atom_site_fract_x
 _atom_site_fract_y
 _atom_site_fract_z
 _atom_site_occupancy
  Nd  Nd0  1  0.999992  0.000000  0.750821  1
  Nd  Nd1  1  0.000001  0.000000  0.249162  1
  Nd  Nd2  1  0.495476  0.504524  0.757631  1
  Nd  Nd3  1  0.495476  0.990951  0.757630  1
  Nd  Nd4  1  0.009050  0.504524  0.757631  1
  Nd  Nd5  1  0.496675  0.503325  0.242347  1
  Nd  Nd6  1  0.006651  0.503325  0.242347  1
  Nd  Nd7  1  0.496675  0.993349  0.242347  1
  Fe  Fe8  1  0.333331  0.666669  0.001075  1
  Si  Si9  1  0.839213  0.160787  0.999403  1
  Si  Si10  1  0.839212  0.678425  0.999403  1
  Si  Si11  1  0.321575  0.160788  0.999403  1
  Si  Si12  1  0.836419  0.163581  0.500528  1
  Si  Si13  1  0.836419  0.672836  0.500528  1
  Si  Si14  1  0.327164  0.163581  0.500528  1
  Si  Si15  1  0.163097  0.836904  0.499510  1
  Si  Si16  1  0.673809  0.836904  0.499509  1
  Si  Si17  1  0.163097  0.326191  0.499509  1
  Si  Si18  1  0.174319  0.825681  0.000900  1
  Si  Si19  1  0.651358  0.825679  0.000899  1
  Si  Si20  1  0.174321  0.348642  0.000900  1
  Au  Au21  1  0.666668  0.333333  0.997992  1
  Au  Au22  1  0.666668  0.333333  0.501874  1
  Au  Au23  1  0.333334  0.666666  0.498122  1
