# generated using pymatgen
data_NaInGa2Se5
_symmetry_space_group_name_H-M   'P 1'
_cell_length_a   9.98562942
_cell_length_b   10.05997145
_cell_length_c   10.00235006
_cell_angle_alpha   91.23882600
_cell_angle_beta   90.85589578
_cell_angle_gamma   91.09125793
_symmetry_Int_Tables_number   1
_chemical_formula_structural   NaInGa2Se5
_chemical_formula_sum   'Na4 In4 Ga8 Se20'
_cell_volume   1004.25207024
_cell_formula_units_Z   4
loop_
 _symmetry_equiv_pos_site_id
 _symmetry_equiv_pos_as_xyz
  1  'x, y, z'
loop_
 _atom_site_type_symbol
 _atom_site_label
 _atom_site_symmetry_multiplicity
 _atom_site_fract_x
 _atom_site_fract_y
 _atom_site_fract_z
 _atom_site_occupancy
  Na  Na0  1  0.256114  0.001258  0.741516  1
  Na  Na1  1  0.739568  0.256879  0.999824  1
  Na  Na2  1  0.000627  0.743690  0.257091  1
  Na  Na3  1  0.498745  0.499011  0.498119  1
  In  In4  1  0.844588  0.880970  0.572465  1
  In  In5  1  0.571531  0.845825  0.880483  1
  In  In6  1  0.876976  0.573727  0.844065  1
  In  In7  1  0.160647  0.423897  0.125679  1
  Ga  Ga8  1  0.122903  0.159274  0.427335  1
  Ga  Ga9  1  0.428622  0.120031  0.165461  1
  Ga  Ga10  1  0.743601  0.163302  0.344100  1
  Ga  Ga11  1  0.345776  0.745853  0.166534  1
  Ga  Ga12  1  0.165744  0.345495  0.740706  1
  Ga  Ga13  1  0.257132  0.652681  0.831337  1
  Ga  Ga14  1  0.833989  0.255092  0.652568  1
  Ga  Ga15  1  0.654542  0.833139  0.254866  1
  Se  Se16  1  0.184353  0.811533  0.999001  1
  Se  Se17  1  0.816405  0.997720  0.183715  1
  Se  Se18  1  0.181798  0.165542  0.183141  1
  Se  Se19  1  0.834632  0.835580  0.834362  1
  Se  Se20  1  0.998847  0.187321  0.815994  1
  Se  Se21  1  0.912796  0.497298  0.089349  1
  Se  Se22  1  0.088863  0.928720  0.492027  1
  Se  Se23  1  0.489171  0.088177  0.930937  1
  Se  Se24  1  0.744775  0.687822  0.420173  1
  Se  Se25  1  0.420953  0.747565  0.685258  1
  Se  Se26  1  0.685943  0.419880  0.740690  1
  Se  Se27  1  0.256394  0.583870  0.316094  1
  Se  Se28  1  0.303798  0.252252  0.568981  1
  Se  Se29  1  0.571832  0.302156  0.253655  1
  Se  Se30  1  0.674064  0.079669  0.567311  1
  Se  Se31  1  0.566908  0.674835  0.078579  1
  Se  Se32  1  0.078625  0.566845  0.674170  1
  Se  Se33  1  0.324623  0.431397  0.917758  1
  Se  Se34  1  0.930054  0.312520  0.429432  1
  Se  Se35  1  0.434059  0.929173  0.317225  1
