# generated using pymatgen
data_Er8Si12IrPt2Rh
_symmetry_space_group_name_H-M   'P 1'
_cell_length_a   8.14426800
_cell_length_b   8.14426801
_cell_length_c   7.85127500
_cell_angle_alpha   90.00000000
_cell_angle_beta   90.00000000
_cell_angle_gamma   119.99999994
_symmetry_Int_Tables_number   1
_chemical_formula_structural   Er8Si12IrPt2Rh
_chemical_formula_sum   'Er8 Si12 Ir1 Pt2 Rh1'
_cell_volume   450.99833108
_cell_formula_units_Z   1
loop_
 _symmetry_equiv_pos_site_id
 _symmetry_equiv_pos_as_xyz
  1  'x, y, z'
loop_
 _atom_site_type_symbol
 _atom_site_label
 _atom_site_symmetry_multiplicity
 _atom_site_fract_x
 _atom_site_fract_y
 _atom_site_fract_z
 _atom_site_occupancy
  Er  Er0  1  0.000000  0.000000  0.250307  1
  Er  Er1  1  0.000000  0.000000  0.749559  1
  Er  Er2  1  0.490130  0.509870  0.249952  1
  Er  Er3  1  0.490130  0.980260  0.249952  1
  Er  Er4  1  0.019740  0.509870  0.249952  1
  Er  Er5  1  0.507385  0.492615  0.750016  1
  Er  Er6  1  0.985229  0.492615  0.750016  1
  Er  Er7  1  0.507385  0.014771  0.750016  1
  Si  Si8  1  0.835984  0.164016  0.499941  1
  Si  Si9  1  0.835984  0.671970  0.499941  1
  Si  Si10  1  0.328030  0.164016  0.499941  1
  Si  Si11  1  0.835835  0.164165  0.999943  1
  Si  Si12  1  0.835835  0.671671  0.999943  1
  Si  Si13  1  0.328329  0.164165  0.999943  1
  Si  Si14  1  0.167320  0.832680  0.000749  1
  Si  Si15  1  0.665361  0.832680  0.000749  1
  Si  Si16  1  0.167320  0.334639  0.000749  1
  Si  Si17  1  0.167775  0.832225  0.498707  1
  Si  Si18  1  0.664450  0.832225  0.498707  1
  Si  Si19  1  0.167775  0.335550  0.498707  1
  Ir  Ir20  1  0.333333  0.666667  0.963866  1
  Pt  Pt21  1  0.666667  0.333333  0.473786  1
  Pt  Pt22  1  0.666667  0.333333  0.025905  1
  Rh  Rh23  1  0.333333  0.666667  0.538649  1
