# generated using pymatgen
data_SrTmGe4N7
_symmetry_space_group_name_H-M   'P 1'
_cell_length_a   6.28033600
_cell_length_b   6.28033505
_cell_length_c   10.27747000
_cell_angle_alpha   90.00000000
_cell_angle_beta   90.00000000
_cell_angle_gamma   119.99999447
_symmetry_Int_Tables_number   1
_chemical_formula_structural   SrTmGe4N7
_chemical_formula_sum   'Sr2 Tm2 Ge8 N14'
_cell_volume   351.06098449
_cell_formula_units_Z   2
loop_
 _symmetry_equiv_pos_site_id
 _symmetry_equiv_pos_as_xyz
  1  'x, y, z'
loop_
 _atom_site_type_symbol
 _atom_site_label
 _atom_site_symmetry_multiplicity
 _atom_site_fract_x
 _atom_site_fract_y
 _atom_site_fract_z
 _atom_site_occupancy
  Sr  Sr0  1  0.666667  0.333333  0.583201  1
  Sr  Sr1  1  0.333333  0.666667  0.083201  1
  Tm  Tm2  1  0.666667  0.333333  0.950737  1
  Tm  Tm3  1  0.333333  0.666667  0.450737  1
  Ge  Ge4  1  0.173662  0.347322  0.760514  1
  Ge  Ge5  1  0.826338  0.173662  0.260514  1
  Ge  Ge6  1  0.347322  0.173662  0.260514  1
  Ge  Ge7  1  0.652678  0.826338  0.760514  1
  Ge  Ge8  1  0.173662  0.826338  0.760514  1
  Ge  Ge9  1  0.826338  0.652678  0.260514  1
  Ge  Ge10  1  0.000000  0.000000  0.025409  1
  Ge  Ge11  1  0.000000  0.000000  0.525409  1
  N  N12  1  0.000000  0.000000  0.833136  1
  N  N13  1  0.000000  0.000000  0.333136  1
  N  N14  1  0.839912  0.679825  0.081425  1
  N  N15  1  0.160088  0.839912  0.581425  1
  N  N16  1  0.679825  0.839912  0.581425  1
  N  N17  1  0.320175  0.160088  0.081425  1
  N  N18  1  0.839912  0.160088  0.081425  1
  N  N19  1  0.160088  0.320175  0.581425  1
  N  N20  1  0.495863  0.504137  0.818174  1
  N  N21  1  0.991727  0.495863  0.318174  1
  N  N22  1  0.504137  0.008273  0.318174  1
  N  N23  1  0.495863  0.991727  0.818174  1
  N  N24  1  0.504137  0.495863  0.318174  1
  N  N25  1  0.008273  0.504137  0.818174  1
