# generated using pymatgen
data_ErPaF7
_symmetry_space_group_name_H-M   'P 1'
_cell_length_a   5.96430100
_cell_length_b   6.29005151
_cell_length_c   8.56169183
_cell_angle_alpha   103.63878000
_cell_angle_beta   90.00000000
_cell_angle_gamma   90.00000000
_symmetry_Int_Tables_number   1
_chemical_formula_structural   ErPaF7
_chemical_formula_sum   'Er2 Pa2 F14'
_cell_volume   312.14110802
_cell_formula_units_Z   2
loop_
 _symmetry_equiv_pos_site_id
 _symmetry_equiv_pos_as_xyz
  1  'x, y, z'
loop_
 _atom_site_type_symbol
 _atom_site_label
 _atom_site_symmetry_multiplicity
 _atom_site_fract_x
 _atom_site_fract_y
 _atom_site_fract_z
 _atom_site_occupancy
  Er  Er0  1  0.700070  0.647202  0.681586  1
  Er  Er1  1  0.200070  0.352798  0.318414  1
  Pa  Pa2  1  0.705734  0.815640  0.227109  1
  Pa  Pa3  1  0.205734  0.184360  0.772891  1
  F  F4  1  0.925025  0.489029  0.487483  1
  F  F5  1  0.425025  0.510971  0.512517  1
  F  F6  1  0.436247  0.904950  0.759037  1
  F  F7  1  0.936247  0.095050  0.240963  1
  F  F8  1  0.945228  0.925639  0.753136  1
  F  F9  1  0.445228  0.074361  0.246864  1
  F  F10  1  0.971610  0.461273  0.788401  1
  F  F11  1  0.471610  0.538727  0.211599  1
  F  F12  1  0.692075  0.759120  0.964767  1
  F  F13  1  0.192075  0.240880  0.035233  1
  F  F14  1  0.688509  0.863302  0.489494  1
  F  F15  1  0.188509  0.136698  0.510506  1
  F  F16  1  0.511864  0.389210  0.778261  1
  F  F17  1  0.011864  0.610790  0.221739  1
