# generated using pymatgen
data_Dy11Y3Er2(InRh)4
_symmetry_space_group_name_H-M   'P 1'
_cell_length_a   9.66662970
_cell_length_b   9.66106504
_cell_length_c   9.66979228
_cell_angle_alpha   59.97079639
_cell_angle_beta   59.96357381
_cell_angle_gamma   60.07765253
_symmetry_Int_Tables_number   1
_chemical_formula_structural   Dy11Y3Er2(InRh)4
_chemical_formula_sum   'Dy11 Y3 Er2 In4 Rh4'
_cell_volume   638.61720249
_cell_formula_units_Z   1
loop_
 _symmetry_equiv_pos_site_id
 _symmetry_equiv_pos_as_xyz
  1  'x, y, z'
loop_
 _atom_site_type_symbol
 _atom_site_label
 _atom_site_symmetry_multiplicity
 _atom_site_fract_x
 _atom_site_fract_y
 _atom_site_fract_z
 _atom_site_occupancy
  Dy  Dy0  1  0.061584  0.438790  0.062156  1
  Dy  Dy1  1  0.649876  0.049502  0.650280  1
  Dy  Dy2  1  0.189696  0.810244  0.811406  1
  Dy  Dy3  1  0.060871  0.061257  0.438762  1
  Dy  Dy4  1  0.811195  0.189399  0.188628  1
  Dy  Dy5  1  0.811758  0.810452  0.189033  1
  Dy  Dy6  1  0.649907  0.650024  0.049284  1
  Dy  Dy7  1  0.650127  0.650007  0.650712  1
  Dy  Dy8  1  0.061695  0.438952  0.437282  1
  Dy  Dy9  1  0.049613  0.649813  0.650138  1
  Dy  Dy10  1  0.810972  0.189639  0.810807  1
  Y  Y11  1  0.189246  0.189390  0.810813  1
  Y  Y12  1  0.437843  0.061893  0.062153  1
  Y  Y13  1  0.437958  0.062056  0.437860  1
  Er  Er14  1  0.437965  0.439533  0.061329  1
  Er  Er15  1  0.189585  0.810339  0.188886  1
  In  In16  1  0.416980  0.748310  0.417274  1
  In  In17  1  0.416830  0.417097  0.749438  1
  In  In18  1  0.749083  0.416967  0.416960  1
  In  In19  1  0.416796  0.417163  0.416573  1
  Rh  Rh20  1  0.855068  0.429048  0.857918  1
  Rh  Rh21  1  0.858629  0.857643  0.426854  1
  Rh  Rh22  1  0.428463  0.854771  0.858575  1
  Rh  Rh23  1  0.858256  0.857708  0.856880  1
