# generated using pymatgen
data_Ta8Ga6B2MoW
_symmetry_space_group_name_H-M   'P 1'
_cell_length_a   7.75663900
_cell_length_b   7.75663888
_cell_length_c   5.29680900
_cell_angle_alpha   90.00000000
_cell_angle_beta   90.00000000
_cell_angle_gamma   120.00000476
_symmetry_Int_Tables_number   1
_chemical_formula_structural   Ta8Ga6B2MoW
_chemical_formula_sum   'Ta8 Ga6 B2 Mo1 W1'
_cell_volume   275.98919278
_cell_formula_units_Z   1
loop_
 _symmetry_equiv_pos_site_id
 _symmetry_equiv_pos_as_xyz
  1  'x, y, z'
loop_
 _atom_site_type_symbol
 _atom_site_label
 _atom_site_symmetry_multiplicity
 _atom_site_fract_x
 _atom_site_fract_y
 _atom_site_fract_z
 _atom_site_occupancy
  Ta  Ta0  1  0.242494  0.999519  0.254375  1
  Ta  Ta1  1  0.757025  0.999519  0.745625  1
  Ta  Ta2  1  0.000481  0.242975  0.254375  1
  Ta  Ta3  1  0.000481  0.757506  0.745625  1
  Ta  Ta4  1  0.757025  0.757506  0.254375  1
  Ta  Ta5  1  0.242494  0.242975  0.745625  1
  Ta  Ta6  1  0.666667  0.333333  0.500000  1
  Ta  Ta7  1  0.333333  0.666667  0.500000  1
  Ga  Ga8  1  0.597397  0.000485  0.241426  1
  Ga  Ga9  1  0.403088  0.000485  0.758574  1
  Ga  Ga10  1  0.999515  0.596912  0.241426  1
  Ga  Ga11  1  0.999515  0.402603  0.758574  1
  Ga  Ga12  1  0.403088  0.402603  0.241426  1
  Ga  Ga13  1  0.597397  0.596912  0.758574  1
  B  B14  1  0.000000  0.000000  0.000000  1
  B  B15  1  0.000000  0.000000  0.500000  1
  Mo  Mo16  1  0.666667  0.333333  0.000000  1
  W  W17  1  0.333333  0.666667  0.000000  1
