# generated using pymatgen
data_CoSbOsO6
_symmetry_space_group_name_H-M   'P 1'
_cell_length_a   4.64948500
_cell_length_b   4.64948500
_cell_length_c   9.43720300
_cell_angle_alpha   90.00000000
_cell_angle_beta   90.00000000
_cell_angle_gamma   90.00000000
_symmetry_Int_Tables_number   1
_chemical_formula_structural   CoSbOsO6
_chemical_formula_sum   'Co2 Sb2 Os2 O12'
_cell_volume   204.01072489
_cell_formula_units_Z   2
loop_
 _symmetry_equiv_pos_site_id
 _symmetry_equiv_pos_as_xyz
  1  'x, y, z'
loop_
 _atom_site_type_symbol
 _atom_site_label
 _atom_site_symmetry_multiplicity
 _atom_site_fract_x
 _atom_site_fract_y
 _atom_site_fract_z
 _atom_site_occupancy
  Co  Co0  1  0.000000  0.000000  0.996146  1
  Co  Co1  1  0.499999  0.499999  0.503854  1
  Sb  Sb2  1  0.499999  0.499999  0.166266  1
  Sb  Sb3  1  0.000000  0.000000  0.333735  1
  Os  Os4  1  0.499999  0.499999  0.831901  1
  Os  Os5  1  0.000000  0.000000  0.668099  1
  O  O6  1  0.808402  0.191598  0.506783  1
  O  O7  1  0.691597  0.691597  0.993217  1
  O  O8  1  0.308403  0.308403  0.993217  1
  O  O9  1  0.191598  0.808402  0.506783  1
  O  O10  1  0.792815  0.207185  0.823197  1
  O  O11  1  0.207185  0.792815  0.823197  1
  O  O12  1  0.292816  0.292816  0.676804  1
  O  O13  1  0.707184  0.707184  0.676804  1
  O  O14  1  0.195006  0.804994  0.169471  1
  O  O15  1  0.804994  0.195006  0.169471  1
  O  O16  1  0.695005  0.695005  0.330529  1
  O  O17  1  0.304995  0.304995  0.330529  1
