# generated using pymatgen
data_Nd3Sn3Pd2Ru
_symmetry_space_group_name_H-M   'P 1'
_cell_length_a   7.66136800
_cell_length_b   7.66136823
_cell_length_c   4.10935900
_cell_angle_alpha   90.00000000
_cell_angle_beta   90.00000000
_cell_angle_gamma   120.00000766
_symmetry_Int_Tables_number   1
_chemical_formula_structural   Nd3Sn3Pd2Ru
_chemical_formula_sum   'Nd3 Sn3 Pd2 Ru1'
_cell_volume   208.88985161
_cell_formula_units_Z   1
loop_
 _symmetry_equiv_pos_site_id
 _symmetry_equiv_pos_as_xyz
  1  'x, y, z'
loop_
 _atom_site_type_symbol
 _atom_site_label
 _atom_site_symmetry_multiplicity
 _atom_site_fract_x
 _atom_site_fract_y
 _atom_site_fract_z
 _atom_site_occupancy
  Nd  Nd0  1  0.000000  0.592718  0.000000  1
  Nd  Nd1  1  0.407282  0.407282  0.000000  1
  Nd  Nd2  1  0.592718  0.000000  0.000000  1
  Sn  Sn3  1  0.750646  0.750646  0.500000  1
  Sn  Sn4  1  0.000000  0.249354  0.500000  1
  Sn  Sn5  1  0.249354  0.000000  0.500000  1
  Pd  Pd6  1  0.666667  0.333333  0.500000  1
  Pd  Pd7  1  0.333333  0.666667  0.500000  1
  Ru  Ru8  1  0.000000  0.000000  0.000000  1
