# generated using pymatgen
data_Ho4Si4IrOsRu2
_symmetry_space_group_name_H-M   'P 1'
_cell_length_a   4.32830100
_cell_length_b   6.94822736
_cell_length_c   7.14222786
_cell_angle_alpha   89.98459272
_cell_angle_beta   90.00000000
_cell_angle_gamma   90.00000000
_symmetry_Int_Tables_number   1
_chemical_formula_structural   Ho4Si4IrOsRu2
_chemical_formula_sum   'Ho4 Si4 Ir1 Os1 Ru2'
_cell_volume   214.79549164
_cell_formula_units_Z   1
loop_
 _symmetry_equiv_pos_site_id
 _symmetry_equiv_pos_as_xyz
  1  'x, y, z'
loop_
 _atom_site_type_symbol
 _atom_site_label
 _atom_site_symmetry_multiplicity
 _atom_site_fract_x
 _atom_site_fract_y
 _atom_site_fract_z
 _atom_site_occupancy
  Ho  Ho0  1  0.750000  0.512899  0.815953  1
  Ho  Ho1  1  0.250000  0.983418  0.312530  1
  Ho  Ho2  1  0.750000  0.013570  0.684676  1
  Ho  Ho3  1  0.250000  0.489015  0.186196  1
  Si  Si4  1  0.250000  0.802666  0.888779  1
  Si  Si5  1  0.250000  0.303236  0.605181  1
  Si  Si6  1  0.750000  0.197244  0.111809  1
  Si  Si7  1  0.750000  0.696314  0.395620  1
  Ir  Ir8  1  0.250000  0.154787  0.931940  1
  Os  Os9  1  0.250000  0.654135  0.568722  1
  Ru  Ru10  1  0.750000  0.847565  0.065149  1
  Ru  Ru11  1  0.750000  0.345152  0.433445  1
