# generated using pymatgen
data_Rb12Na8Ti3NbP12
_symmetry_space_group_name_H-M   'P 1'
_cell_length_a   10.57018874
_cell_length_b   10.57018764
_cell_length_c   15.48552647
_cell_angle_alpha   90.01606899
_cell_angle_beta   90.01607009
_cell_angle_gamma   142.52720523
_symmetry_Int_Tables_number   1
_chemical_formula_structural   Rb12Na8Ti3NbP12
_chemical_formula_sum   'Rb12 Na8 Ti3 Nb1 P12'
_cell_volume   1052.61487542
_cell_formula_units_Z   1
loop_
 _symmetry_equiv_pos_site_id
 _symmetry_equiv_pos_as_xyz
  1  'x, y, z'
loop_
 _atom_site_type_symbol
 _atom_site_label
 _atom_site_symmetry_multiplicity
 _atom_site_fract_x
 _atom_site_fract_y
 _atom_site_fract_z
 _atom_site_occupancy
  Rb  Rb0  1  0.943515  0.607367  0.823961  1
  Rb  Rb1  1  0.557298  0.893398  0.324672  1
  Rb  Rb2  1  0.392633  0.056485  0.176039  1
  Rb  Rb3  1  0.058409  0.392986  0.175149  1
  Rb  Rb4  1  0.893520  0.557316  0.325194  1
  Rb  Rb5  1  0.442684  0.106480  0.674806  1
  Rb  Rb6  1  0.607014  0.941591  0.824851  1
  Rb  Rb7  1  0.273338  0.273396  0.316475  1
  Rb  Rb8  1  0.773746  0.775352  0.184707  1
  Rb  Rb9  1  0.224648  0.226254  0.815293  1
  Rb  Rb10  1  0.726604  0.726662  0.683525  1
  Rb  Rb11  1  0.106602  0.442702  0.675328  1
  Na  Na12  1  0.920171  0.079829  0.000000  1
  Na  Na13  1  0.579395  0.420605  0.500000  1
  Na  Na14  1  0.079170  0.920830  0.000000  1
  Na  Na15  1  0.420564  0.579436  0.500000  1
  Na  Na16  1  0.756027  0.243973  0.000000  1
  Na  Na17  1  0.745121  0.254879  0.500000  1
  Na  Na18  1  0.245925  0.754075  0.000000  1
  Na  Na19  1  0.254983  0.745017  0.500000  1
  Ti  Ti20  1  0.915792  0.084208  0.500000  1
  Ti  Ti21  1  0.415554  0.584446  0.000000  1
  Ti  Ti22  1  0.084100  0.915900  0.500000  1
  Nb  Nb23  1  0.582674  0.417326  0.000000  1
  P  P24  1  0.859159  0.553679  0.092765  1
  P  P25  1  0.446321  0.140841  0.907235  1
  P  P26  1  0.641521  0.947156  0.592024  1
  P  P27  1  0.947126  0.641536  0.592109  1
  P  P28  1  0.139269  0.446209  0.906949  1
  P  P29  1  0.553791  0.860731  0.093051  1
  P  P30  1  0.358464  0.052874  0.407891  1
  P  P31  1  0.189549  0.189405  0.582133  1
  P  P32  1  0.694804  0.692928  0.915699  1
  P  P33  1  0.307072  0.305196  0.084301  1
  P  P34  1  0.052844  0.358479  0.407976  1
  P  P35  1  0.810595  0.810451  0.417867  1
