# generated using pymatgen
data_Li3Co6Si2Ge
_symmetry_space_group_name_H-M   'P 1'
_cell_length_a   3.90331000
_cell_length_b   5.49100600
_cell_length_c   11.71004000
_cell_angle_alpha   90.00154882
_cell_angle_beta   90.00049418
_cell_angle_gamma   89.99985356
_symmetry_Int_Tables_number   1
_chemical_formula_structural   Li3Co6Si2Ge
_chemical_formula_sum   'Li6 Co12 Si4 Ge2'
_cell_volume   250.98244223
_cell_formula_units_Z   2
loop_
 _symmetry_equiv_pos_site_id
 _symmetry_equiv_pos_as_xyz
  1  'x, y, z'
loop_
 _atom_site_type_symbol
 _atom_site_label
 _atom_site_symmetry_multiplicity
 _atom_site_fract_x
 _atom_site_fract_y
 _atom_site_fract_z
 _atom_site_occupancy
  Li  Li0  1  0.000011  0.499837  0.999939  1
  Li  Li1  1  0.499927  0.999729  0.166801  1
  Li  Li2  1  0.999932  0.500224  0.335440  1
  Li  Li3  1  0.500003  0.999978  0.502028  1
  Li  Li4  1  0.000057  0.499937  0.664602  1
  Li  Li5  1  0.500066  0.000257  0.831201  1
  Co  Co6  1  0.500007  0.253785  0.996528  1
  Co  Co7  1  0.500008  0.746196  0.996539  1
  Co  Co8  1  0.999919  0.246168  0.170159  1
  Co  Co9  1  0.999919  0.753801  0.170196  1
  Co  Co10  1  0.499924  0.246569  0.337260  1
  Co  Co11  1  0.499924  0.753436  0.337253  1
  Co  Co12  1  0.000000  0.249633  0.500881  1
  Co  Co13  1  0.000000  0.750384  0.500867  1
  Co  Co14  1  0.500071  0.250353  0.665759  1
  Co  Co15  1  0.500071  0.749662  0.665738  1
  Co  Co16  1  0.000086  0.253465  0.829425  1
  Co  Co17  1  0.000084  0.746532  0.829384  1
  Si  Si18  1  0.999962  0.999931  0.336006  1
  Si  Si19  1  0.500000  0.500024  0.500880  1
  Si  Si20  1  0.000029  0.000006  0.665776  1
  Si  Si21  1  0.500051  0.499936  0.830637  1
  Ge  Ge22  1  0.000006  0.000093  0.998633  1
  Ge  Ge23  1  0.499948  0.500071  0.168069  1
