# generated using pymatgen
data_Yb2PrPa5(InPt2)4
_symmetry_space_group_name_H-M   'P 1'
_cell_length_a   7.86525354
_cell_length_b   7.86525427
_cell_length_c   7.34301900
_cell_angle_alpha   90.00000000
_cell_angle_beta   90.00000000
_cell_angle_gamma   92.19005522
_symmetry_Int_Tables_number   1
_chemical_formula_structural   Yb2PrPa5(InPt2)4
_chemical_formula_sum   'Yb2 Pr1 Pa5 In4 Pt8'
_cell_volume   453.92364521
_cell_formula_units_Z   1
loop_
 _symmetry_equiv_pos_site_id
 _symmetry_equiv_pos_as_xyz
  1  'x, y, z'
loop_
 _atom_site_type_symbol
 _atom_site_label
 _atom_site_symmetry_multiplicity
 _atom_site_fract_x
 _atom_site_fract_y
 _atom_site_fract_z
 _atom_site_occupancy
  Yb  Yb0  1  0.836083  0.163917  0.000000  1
  Yb  Yb1  1  0.160625  0.839375  0.000000  1
  Pr  Pr2  1  0.179048  0.820952  0.500000  1
  Pa  Pa3  1  0.680627  0.675799  0.000000  1
  Pa  Pa4  1  0.338020  0.337894  0.500000  1
  Pa  Pa5  1  0.825870  0.174130  0.500000  1
  Pa  Pa6  1  0.662106  0.661980  0.500000  1
  Pa  Pa7  1  0.324201  0.319373  0.000000  1
  In  In8  1  0.499682  0.999208  0.756724  1
  In  In9  1  0.499682  0.999208  0.243276  1
  In  In10  1  0.000792  0.500318  0.756724  1
  In  In11  1  0.000792  0.500318  0.243276  1
  Pt  Pt12  1  0.855141  0.871560  0.734785  1
  Pt  Pt13  1  0.128440  0.144859  0.734785  1
  Pt  Pt14  1  0.632634  0.367366  0.754791  1
  Pt  Pt15  1  0.632634  0.367366  0.245209  1
  Pt  Pt16  1  0.380022  0.619978  0.225913  1
  Pt  Pt17  1  0.128440  0.144859  0.265215  1
  Pt  Pt18  1  0.855141  0.871560  0.265215  1
  Pt  Pt19  1  0.380022  0.619978  0.774087  1
