# generated using pymatgen
data_K2AsH3
_symmetry_space_group_name_H-M   'P 1'
_cell_length_a   5.54410349
_cell_length_b   5.86137044
_cell_length_c   10.07034636
_cell_angle_alpha   70.82658803
_cell_angle_beta   56.64722781
_cell_angle_gamma   119.87241094
_symmetry_Int_Tables_number   1
_chemical_formula_structural   K2AsH3
_chemical_formula_sum   'K2 As1 H3'
_cell_volume   131.68105280
_cell_formula_units_Z   1
loop_
 _symmetry_equiv_pos_site_id
 _symmetry_equiv_pos_as_xyz
  1  'x, y, z'
loop_
 _atom_site_type_symbol
 _atom_site_label
 _atom_site_symmetry_multiplicity
 _atom_site_fract_x
 _atom_site_fract_y
 _atom_site_fract_z
 _atom_site_occupancy
  K  K0  1  0.139625  0.450175  0.862965  1
  K  K1  1  0.635908  0.440655  0.360347  1
  As  As2  1  0.903376  0.448429  0.610097  1
  H  H3  1  0.307657  0.076766  0.801688  1
  H  H4  1  0.195053  0.139350  0.258663  1
  H  H5  1  0.251322  0.304348  0.179547  1
