# generated using pymatgen
data_Th3AlAu5
_symmetry_space_group_name_H-M   'P 1'
_cell_length_a   7.85648510
_cell_length_b   7.61105741
_cell_length_c   4.00893900
_cell_angle_alpha   90.00000000
_cell_angle_beta   90.00000000
_cell_angle_gamma   118.97190581
_symmetry_Int_Tables_number   1
_chemical_formula_structural   Th3AlAu5
_chemical_formula_sum   'Th3 Al1 Au5'
_cell_volume   209.72005742
_cell_formula_units_Z   1
loop_
 _symmetry_equiv_pos_site_id
 _symmetry_equiv_pos_as_xyz
  1  'x, y, z'
loop_
 _atom_site_type_symbol
 _atom_site_label
 _atom_site_symmetry_multiplicity
 _atom_site_fract_x
 _atom_site_fract_y
 _atom_site_fract_z
 _atom_site_occupancy
  Th  Th0  1  0.416485  0.399879  0.500000  1
  Th  Th1  1  0.583515  0.983394  0.500000  1
  Th  Th2  1  0.000000  0.619518  0.500000  1
  Al  Al3  1  0.000000  0.251179  0.000000  1
  Au  Au4  1  0.691377  0.329480  0.000000  1
  Au  Au5  1  0.308623  0.638103  0.000000  1
  Au  Au6  1  0.000000  0.034884  0.500000  1
  Au  Au7  1  0.725376  0.734469  0.000000  1
  Au  Au8  1  0.274624  0.009093  0.000000  1
