# generated using pymatgen
data_La6PdRhBr6
_symmetry_space_group_name_H-M   'P 1'
_cell_length_a   10.65053576
_cell_length_b   10.65053519
_cell_length_c   10.54923500
_cell_angle_alpha   109.45173945
_cell_angle_beta   109.45173836
_cell_angle_gamma   109.89572219
_symmetry_Int_Tables_number   1
_chemical_formula_structural   La6PdRhBr6
_chemical_formula_sum   'La12 Pd2 Rh2 Br12'
_cell_volume   916.75166902
_cell_formula_units_Z   2
loop_
 _symmetry_equiv_pos_site_id
 _symmetry_equiv_pos_as_xyz
  1  'x, y, z'
loop_
 _atom_site_type_symbol
 _atom_site_label
 _atom_site_symmetry_multiplicity
 _atom_site_fract_x
 _atom_site_fract_y
 _atom_site_fract_z
 _atom_site_occupancy
  La  La0  1  0.473077  0.490025  0.234054  1
  La  La1  1  0.755971  0.239023  0.265946  1
  La  La2  1  0.756310  0.017065  0.490188  1
  La  La3  1  0.233878  0.473123  0.490188  1
  La  La4  1  0.260977  0.744029  0.234054  1
  La  La5  1  0.026877  0.266122  0.009812  1
  La  La6  1  0.009975  0.026923  0.265946  1
  La  La7  1  0.482935  0.743690  0.009812  1
  La  La8  1  0.487520  0.237520  0.475039  1
  La  La9  1  0.013929  0.486071  0.750000  1
  La  La10  1  0.262480  0.012480  0.024961  1
  La  La11  1  0.236071  0.263929  0.750000  1
  Pd  Pd12  1  0.249608  0.250392  0.250000  1
  Pd  Pd13  1  0.500392  0.999608  0.250000  1
  Rh  Rh14  1  0.000259  0.250259  0.500519  1
  Rh  Rh15  1  0.249741  0.499741  0.999481  1
  Br  Br16  1  0.250275  0.758217  0.742958  1
  Br  Br17  1  0.515257  0.507317  0.757042  1
  Br  Br18  1  0.986800  0.743740  0.993602  1
  Br  Br19  1  0.741783  0.249725  0.757042  1
  Br  Br20  1  0.992683  0.984743  0.742958  1
  Br  Br21  1  0.250139  0.993196  0.506398  1
  Br  Br22  1  0.756260  0.513200  0.506398  1
  Br  Br23  1  0.506804  0.249861  0.993602  1
  Br  Br24  1  0.757392  0.742608  0.250000  1
  Br  Br25  1  0.743234  0.993234  0.986470  1
  Br  Br26  1  0.992608  0.507392  0.250000  1
  Br  Br27  1  0.506766  0.756766  0.513530  1
