# generated using pymatgen
data_YbDyTm2(B6Os)2
_symmetry_space_group_name_H-M   'P 1'
_cell_length_a   3.62610400
_cell_length_b   9.11155149
_cell_length_c   11.50246202
_cell_angle_alpha   89.85600836
_cell_angle_beta   90.00000000
_cell_angle_gamma   90.00000000
_symmetry_Int_Tables_number   1
_chemical_formula_structural   YbDyTm2(B6Os)2
_chemical_formula_sum   'Yb2 Dy2 Tm4 B24 Os4'
_cell_volume   380.03362658
_cell_formula_units_Z   2
loop_
 _symmetry_equiv_pos_site_id
 _symmetry_equiv_pos_as_xyz
  1  'x, y, z'
loop_
 _atom_site_type_symbol
 _atom_site_label
 _atom_site_symmetry_multiplicity
 _atom_site_fract_x
 _atom_site_fract_y
 _atom_site_fract_z
 _atom_site_occupancy
  Yb  Yb0  1  0.000000  0.324234  0.414517  1
  Yb  Yb1  1  0.000000  0.675766  0.585483  1
  Dy  Dy2  1  0.000000  0.821673  0.086410  1
  Dy  Dy3  1  0.000000  0.178327  0.913590  1
  Tm  Tm4  1  0.000000  0.942220  0.370592  1
  Tm  Tm5  1  0.000000  0.057780  0.629409  1
  Tm  Tm6  1  0.000000  0.443001  0.129965  1
  Tm  Tm7  1  0.000000  0.556999  0.870034  1
  B  B8  1  0.500000  0.553900  0.432469  1
  B  B9  1  0.500000  0.446100  0.567531  1
  B  B10  1  0.500000  0.053757  0.066990  1
  B  B11  1  0.500000  0.946243  0.933010  1
  B  B12  1  0.500000  0.748630  0.418012  1
  B  B13  1  0.500000  0.251370  0.581988  1
  B  B14  1  0.500000  0.249066  0.081447  1
  B  B15  1  0.500000  0.750934  0.918553  1
  B  B16  1  0.500000  0.791437  0.264965  1
  B  B17  1  0.500000  0.208563  0.735035  1
  B  B18  1  0.500000  0.290720  0.234349  1
  B  B19  1  0.500000  0.709279  0.765651  1
  B  B20  1  0.500000  0.630813  0.185081  1
  B  B21  1  0.500000  0.369187  0.814919  1
  B  B22  1  0.500000  0.130507  0.314275  1
  B  B23  1  0.500000  0.869493  0.685725  1
  B  B24  1  0.500000  0.982813  0.212190  1
  B  B25  1  0.500000  0.017187  0.787810  1
  B  B26  1  0.500000  0.483176  0.287755  1
  B  B27  1  0.500000  0.516824  0.712245  1
  B  B28  1  0.500000  0.602174  0.028129  1
  B  B29  1  0.500000  0.397826  0.971871  1
  B  B30  1  0.500000  0.098956  0.472666  1
  B  B31  1  0.500000  0.901044  0.527334  1
  Os  Os32  1  0.000000  0.639900  0.318976  1
  Os  Os33  1  0.000000  0.360100  0.681024  1
  Os  Os34  1  0.000000  0.137308  0.178611  1
  Os  Os35  1  0.000000  0.862692  0.821389  1
