# generated using pymatgen
data_Ca6V3Si2Ni4AsO24
_symmetry_space_group_name_H-M   'P 1'
_cell_length_a   10.76188419
_cell_length_b   10.75808502
_cell_length_c   10.76103300
_cell_angle_alpha   109.54216750
_cell_angle_beta   109.41188966
_cell_angle_gamma   109.43792166
_symmetry_Int_Tables_number   1
_chemical_formula_structural   Ca6V3Si2Ni4AsO24
_chemical_formula_sum   'Ca12 V6 Si4 Ni8 As2 O48'
_cell_volume   959.33667896
_cell_formula_units_Z   2
loop_
 _symmetry_equiv_pos_site_id
 _symmetry_equiv_pos_as_xyz
  1  'x, y, z'
loop_
 _atom_site_type_symbol
 _atom_site_label
 _atom_site_symmetry_multiplicity
 _atom_site_fract_x
 _atom_site_fract_y
 _atom_site_fract_z
 _atom_site_occupancy
  Ca  Ca0  1  0.271266  0.392295  0.141558  1
  Ca  Ca1  1  0.743650  0.115403  0.365549  1
  Ca  Ca2  1  0.382061  0.131369  0.250161  1
  Ca  Ca3  1  0.125290  0.374944  0.750706  1
  Ca  Ca4  1  0.248359  0.868097  0.618674  1
  Ca  Ca5  1  0.124555  0.251193  0.373399  1
  Ca  Ca6  1  0.620291  0.253881  0.882688  1
  Ca  Ca7  1  0.749070  0.630252  0.880340  1
  Ca  Ca8  1  0.863736  0.738313  0.610125  1
  Ca  Ca9  1  0.865770  0.627355  0.252890  1
  Ca  Ca10  1  0.618830  0.865874  0.737436  1
  Ca  Ca11  1  0.385556  0.751108  0.134504  1
  V  V12  1  0.749763  0.374587  0.625647  1
  V  V13  1  0.126474  0.876179  0.250603  1
  V  V14  1  0.248382  0.124404  0.874101  1
  V  V15  1  0.374509  0.624109  0.750465  1
  V  V16  1  0.374794  0.250359  0.624388  1
  V  V17  1  0.874759  0.125066  0.750814  1
  Si  Si18  1  0.626020  0.374216  0.249779  1
  Si  Si19  1  0.749894  0.875166  0.123866  1
  Si  Si20  1  0.248176  0.623723  0.374771  1
  Si  Si21  1  0.626972  0.752215  0.377099  1
  Ni  Ni22  1  0.508158  0.003435  0.007389  1
  Ni  Ni23  1  0.511839  0.510543  0.016883  1
  Ni  Ni24  1  0.995506  0.499197  0.490469  1
  Ni  Ni25  1  0.986444  0.993105  0.487612  1
  Ni  Ni26  1  0.498388  0.504669  0.489559  1
  Ni  Ni27  1  0.007710  0.504138  0.010424  1
  Ni  Ni28  1  0.498721  0.987331  0.496514  1
  Ni  Ni29  1  0.993466  0.997383  0.001006  1
  As  As30  1  0.126054  0.750386  0.875708  1
  As  As31  1  0.874621  0.249715  0.123490  1
  O  O32  1  0.594444  0.894610  0.385326  1
  O  O33  1  0.381271  0.586746  0.897851  1
  O  O34  1  0.294078  0.309921  0.911338  1
  O  O35  1  0.492562  0.610733  0.202275  1
  O  O36  1  0.307811  0.897308  0.017347  1
  O  O37  1  0.121790  0.018976  0.208218  1
  O  O38  1  0.382231  0.293615  0.483426  1
  O  O39  1  0.897884  0.381828  0.588375  1
  O  O40  1  0.189482  0.206494  0.586963  1
  O  O41  1  0.490578  0.380197  0.289922  1
  O  O42  1  0.892221  0.011161  0.298748  1
  O  O43  1  0.607257  0.907911  0.115977  1
  O  O44  1  0.911765  0.121206  0.603404  1
  O  O45  1  0.289587  0.489306  0.382744  1
  O  O46  1  0.591912  0.198149  0.208948  1
  O  O47  1  0.210050  0.591918  0.200214  1
  O  O48  1  0.017068  0.309885  0.898881  1
  O  O49  1  0.910040  0.289480  0.305162  1
  O  O50  1  0.015664  0.209091  0.116967  1
  O  O51  1  0.801856  0.791907  0.410611  1
  O  O52  1  0.188699  0.482574  0.603408  1
  O  O53  1  0.601728  0.189112  0.486577  1
  O  O54  1  0.203308  0.116593  0.014443  1
  O  O55  1  0.121534  0.603637  0.911561  1
  O  O56  1  0.411004  0.102097  0.618167  1
  O  O57  1  0.618256  0.407459  0.107469  1
  O  O58  1  0.710920  0.699995  0.090743  1
  O  O59  1  0.515118  0.398565  0.809614  1
  O  O60  1  0.692786  0.103618  0.981112  1
  O  O61  1  0.881397  0.983106  0.792935  1
  O  O62  1  0.620110  0.711543  0.511822  1
  O  O63  1  0.106186  0.617271  0.408330  1
  O  O64  1  0.878874  0.395923  0.087705  1
  O  O65  1  0.790424  0.880963  0.988126  1
  O  O66  1  0.389568  0.799655  0.510991  1
  O  O67  1  0.690961  0.089626  0.709060  1
  O  O68  1  0.801051  0.509443  0.391879  1
  O  O69  1  0.983162  0.789282  0.879809  1
  O  O70  1  0.090333  0.709166  0.693165  1
  O  O71  1  0.984734  0.691949  0.102229  1
  O  O72  1  0.795267  0.412452  0.811570  1
  O  O73  1  0.411400  0.808938  0.794355  1
  O  O74  1  0.705040  0.515109  0.618964  1
  O  O75  1  0.090283  0.884218  0.398993  1
  O  O76  1  0.395216  0.084976  0.879210  1
  O  O77  1  0.100183  0.985220  0.689342  1
  O  O78  1  0.513415  0.614686  0.704317  1
  O  O79  1  0.310409  0.912371  0.292791  1
