# generated using pymatgen
data_Ce2HgRuPt
_symmetry_space_group_name_H-M   'P 1'
_cell_length_a   7.79101100
_cell_length_b   7.69473800
_cell_length_c   3.71327400
_cell_angle_alpha   90.00000000
_cell_angle_beta   90.00000000
_cell_angle_gamma   90.00000000
_symmetry_Int_Tables_number   1
_chemical_formula_structural   Ce2HgRuPt
_chemical_formula_sum   'Ce4 Hg2 Ru2 Pt2'
_cell_volume   222.60999057
_cell_formula_units_Z   2
loop_
 _symmetry_equiv_pos_site_id
 _symmetry_equiv_pos_as_xyz
  1  'x, y, z'
loop_
 _atom_site_type_symbol
 _atom_site_label
 _atom_site_symmetry_multiplicity
 _atom_site_fract_x
 _atom_site_fract_y
 _atom_site_fract_z
 _atom_site_occupancy
  Ce  Ce0  1  0.317926  0.184366  0.499999  1
  Ce  Ce1  1  0.817926  0.315635  0.499999  1
  Ce  Ce2  1  0.168039  0.656236  0.499999  1
  Ce  Ce3  1  0.668038  0.843764  0.499999  1
  Hg  Hg4  1  0.999590  0.996392  0.000000  1
  Hg  Hg5  1  0.499590  0.503608  0.000000  1
  Ru  Ru6  1  0.648073  0.139809  0.000000  1
  Ru  Ru7  1  0.148072  0.360191  0.000000  1
  Pt  Pt8  1  0.866374  0.621985  0.000000  1
  Pt  Pt9  1  0.366374  0.878016  0.000000  1
