# generated using pymatgen
data_TmSc4Ta3Ru8
_symmetry_space_group_name_H-M   'P 1'
_cell_length_a   6.39920100
_cell_length_b   4.53874500
_cell_length_c   9.10813000
_cell_angle_alpha   90.00000000
_cell_angle_beta   89.99987079
_cell_angle_gamma   90.00000000
_symmetry_Int_Tables_number   1
_chemical_formula_structural   TmSc4Ta3Ru8
_chemical_formula_sum   'Tm1 Sc4 Ta3 Ru8'
_cell_volume   264.53963854
_cell_formula_units_Z   1
loop_
 _symmetry_equiv_pos_site_id
 _symmetry_equiv_pos_as_xyz
  1  'x, y, z'
loop_
 _atom_site_type_symbol
 _atom_site_label
 _atom_site_symmetry_multiplicity
 _atom_site_fract_x
 _atom_site_fract_y
 _atom_site_fract_z
 _atom_site_occupancy
  Tm  Tm0  1  0.250041  0.250000  0.125004  1
  Sc  Sc1  1  0.750039  0.250000  0.124995  1
  Sc  Sc2  1  0.250044  0.750000  0.376562  1
  Sc  Sc3  1  0.749942  0.250000  0.625007  1
  Sc  Sc4  1  0.249957  0.750000  0.873468  1
  Ta  Ta5  1  0.750039  0.750000  0.374411  1
  Ta  Ta6  1  0.249969  0.250000  0.625026  1
  Ta  Ta7  1  0.749961  0.750000  0.875595  1
  Ru  Ru8  1  0.512902  0.750000  0.124931  1
  Ru  Ru9  1  0.987143  0.750000  0.124923  1
  Ru  Ru10  1  0.505790  0.250000  0.384241  1
  Ru  Ru11  1  0.994263  0.250000  0.384253  1
  Ru  Ru12  1  0.000746  0.750000  0.625042  1
  Ru  Ru13  1  0.499212  0.750000  0.625054  1
  Ru  Ru14  1  0.994125  0.250000  0.865741  1
  Ru  Ru15  1  0.505827  0.250000  0.865744  1
