# generated using pymatgen
data_Li2TbDySi3
_symmetry_space_group_name_H-M   'P 1'
_cell_length_a   9.29613960
_cell_length_b   9.29613947
_cell_length_c   6.70499000
_cell_angle_alpha   90.00000000
_cell_angle_beta   90.00000000
_cell_angle_gamma   153.55209438
_symmetry_Int_Tables_number   1
_chemical_formula_structural   Li2TbDySi3
_chemical_formula_sum   'Li4 Tb2 Dy2 Si6'
_cell_volume   258.07025605
_cell_formula_units_Z   2
loop_
 _symmetry_equiv_pos_site_id
 _symmetry_equiv_pos_as_xyz
  1  'x, y, z'
loop_
 _atom_site_type_symbol
 _atom_site_label
 _atom_site_symmetry_multiplicity
 _atom_site_fract_x
 _atom_site_fract_y
 _atom_site_fract_z
 _atom_site_occupancy
  Li  Li0  1  0.190188  0.809812  0.059744  1
  Li  Li1  1  0.190188  0.809812  0.440256  1
  Li  Li2  1  0.809812  0.190188  0.940256  1
  Li  Li3  1  0.809812  0.190188  0.559744  1
  Tb  Tb4  1  0.552826  0.447174  0.250000  1
  Tb  Tb5  1  0.447174  0.552826  0.750000  1
  Dy  Dy6  1  0.344939  0.655061  0.250000  1
  Dy  Dy7  1  0.655061  0.344939  0.750000  1
  Si  Si8  1  0.720938  0.279062  0.250000  1
  Si  Si9  1  0.279062  0.720938  0.750000  1
  Si  Si10  1  0.059231  0.940769  0.927013  1
  Si  Si11  1  0.940769  0.059231  0.072987  1
  Si  Si12  1  0.940769  0.059231  0.427013  1
  Si  Si13  1  0.059231  0.940769  0.572987  1
