# generated using pymatgen
data_HoNp3Ga12Ni
_symmetry_space_group_name_H-M   'P 1'
_cell_length_a   7.48271637
_cell_length_b   7.42027417
_cell_length_c   7.42027473
_cell_angle_alpha   109.30011952
_cell_angle_beta   109.64177333
_cell_angle_gamma   109.64177665
_symmetry_Int_Tables_number   1
_chemical_formula_structural   HoNp3Ga12Ni
_chemical_formula_sum   'Ho1 Np3 Ga12 Ni1'
_cell_volume   316.48921564
_cell_formula_units_Z   1
loop_
 _symmetry_equiv_pos_site_id
 _symmetry_equiv_pos_as_xyz
  1  'x, y, z'
loop_
 _atom_site_type_symbol
 _atom_site_label
 _atom_site_symmetry_multiplicity
 _atom_site_fract_x
 _atom_site_fract_y
 _atom_site_fract_z
 _atom_site_occupancy
  Ho  Ho0  1  0.500000  0.000000  0.000000  1
  Np  Np1  1  0.000000  0.000000  0.500000  1
  Np  Np2  1  0.000000  0.500000  0.000000  1
  Np  Np3  1  0.500000  0.500000  0.500000  1
  Ga  Ga4  1  0.749951  0.249951  0.499901  1
  Ga  Ga5  1  0.749951  0.499901  0.249951  1
  Ga  Ga6  1  0.500000  0.249951  0.750049  1
  Ga  Ga7  1  0.250049  0.500099  0.750049  1
  Ga  Ga8  1  0.250049  0.750049  0.500099  1
  Ga  Ga9  1  0.500000  0.750049  0.249951  1
  Ga  Ga10  1  0.713724  0.713247  0.000000  1
  Ga  Ga11  1  0.286276  0.000000  0.286753  1
  Ga  Ga12  1  0.000476  0.286753  0.286753  1
  Ga  Ga13  1  0.286276  0.286753  0.000000  1
  Ga  Ga14  1  0.713724  0.000000  0.713247  1
  Ga  Ga15  1  0.999524  0.713247  0.713247  1
  Ni  Ni16  1  0.000000  0.000000  0.000000  1
