# generated using pymatgen
data_Ti2Al4GaCu
_symmetry_space_group_name_H-M   'P 1'
_cell_length_a   3.93635700
_cell_length_b   3.96658100
_cell_length_c   7.74919600
_cell_angle_alpha   90.00000000
_cell_angle_beta   90.00000000
_cell_angle_gamma   90.00000000
_symmetry_Int_Tables_number   1
_chemical_formula_structural   Ti2Al4GaCu
_chemical_formula_sum   'Ti2 Al4 Ga1 Cu1'
_cell_volume   120.99500780
_cell_formula_units_Z   1
loop_
 _symmetry_equiv_pos_site_id
 _symmetry_equiv_pos_as_xyz
  1  'x, y, z'
loop_
 _atom_site_type_symbol
 _atom_site_label
 _atom_site_symmetry_multiplicity
 _atom_site_fract_x
 _atom_site_fract_y
 _atom_site_fract_z
 _atom_site_occupancy
  Ti  Ti0  1  0.500000  0.500000  0.000130  1
  Ti  Ti1  1  0.500000  0.500000  0.497683  1
  Al  Al2  1  0.000000  0.500000  0.738557  1
  Al  Al3  1  0.500000  0.000000  0.262117  1
  Al  Al4  1  0.500000  0.000000  0.736190  1
  Al  Al5  1  0.000000  0.000000  0.998109  1
  Ga  Ga6  1  0.000000  0.500000  0.261570  1
  Cu  Cu7  1  0.000000  0.000000  0.505643  1
