# generated using pymatgen
data_Th2Ti3Si4
_symmetry_space_group_name_H-M   'P 1'
_cell_length_a   7.18586600
_cell_length_b   7.18586600
_cell_length_c   13.27949000
_cell_angle_alpha   90.00000000
_cell_angle_beta   90.00000000
_cell_angle_gamma   90.00000000
_symmetry_Int_Tables_number   1
_chemical_formula_structural   Th2Ti3Si4
_chemical_formula_sum   'Th8 Ti12 Si16'
_cell_volume   685.70864516
_cell_formula_units_Z   4
loop_
 _symmetry_equiv_pos_site_id
 _symmetry_equiv_pos_as_xyz
  1  'x, y, z'
loop_
 _atom_site_type_symbol
 _atom_site_label
 _atom_site_symmetry_multiplicity
 _atom_site_fract_x
 _atom_site_fract_y
 _atom_site_fract_z
 _atom_site_occupancy
  Th  Th0  1  0.337536  0.003279  0.468317  1
  Th  Th1  1  0.496721  0.837536  0.718317  1
  Th  Th2  1  0.503279  0.162464  0.218317  1
  Th  Th3  1  0.837536  0.496721  0.281683  1
  Th  Th4  1  0.162464  0.503279  0.781683  1
  Th  Th5  1  0.662464  0.996721  0.968317  1
  Th  Th6  1  0.003279  0.337536  0.531683  1
  Th  Th7  1  0.996721  0.662464  0.031683  1
  Ti  Ti8  1  0.327622  0.327622  0.000000  1
  Ti  Ti9  1  0.172378  0.827622  0.250000  1
  Ti  Ti10  1  0.827622  0.172378  0.750000  1
  Ti  Ti11  1  0.672378  0.672378  0.500000  1
  Ti  Ti12  1  0.159241  0.007085  0.875762  1
  Ti  Ti13  1  0.492915  0.659241  0.125762  1
  Ti  Ti14  1  0.507085  0.340759  0.625762  1
  Ti  Ti15  1  0.659241  0.492915  0.874238  1
  Ti  Ti16  1  0.340759  0.507085  0.374238  1
  Ti  Ti17  1  0.840759  0.992915  0.375762  1
  Ti  Ti18  1  0.007085  0.159241  0.124238  1
  Ti  Ti19  1  0.992915  0.840759  0.624238  1
  Si  Si20  1  0.196955  0.124053  0.687074  1
  Si  Si21  1  0.375947  0.696955  0.937074  1
  Si  Si22  1  0.624053  0.303045  0.437074  1
  Si  Si23  1  0.696955  0.375947  0.062926  1
  Si  Si24  1  0.303045  0.624053  0.562926  1
  Si  Si25  1  0.803045  0.875947  0.187074  1
  Si  Si26  1  0.124053  0.196955  0.312926  1
  Si  Si27  1  0.875947  0.803045  0.812926  1
  Si  Si28  1  0.286980  0.958506  0.065303  1
  Si  Si29  1  0.541494  0.786980  0.315303  1
  Si  Si30  1  0.458506  0.213020  0.815303  1
  Si  Si31  1  0.786980  0.541494  0.684697  1
  Si  Si32  1  0.213020  0.458506  0.184697  1
  Si  Si33  1  0.713020  0.041494  0.565303  1
  Si  Si34  1  0.958506  0.286980  0.934697  1
  Si  Si35  1  0.041494  0.713020  0.434697  1
