# generated using pymatgen
data_Yb3Hg2PdPt2Pb
_symmetry_space_group_name_H-M   'P 1'
_cell_length_a   7.78247613
_cell_length_b   7.75840268
_cell_length_c   3.86790500
_cell_angle_alpha   90.00000000
_cell_angle_beta   90.00000000
_cell_angle_gamma   119.89771862
_symmetry_Int_Tables_number   1
_chemical_formula_structural   Yb3Hg2PdPt2Pb
_chemical_formula_sum   'Yb3 Hg2 Pd1 Pt2 Pb1'
_cell_volume   202.46186391
_cell_formula_units_Z   1
loop_
 _symmetry_equiv_pos_site_id
 _symmetry_equiv_pos_as_xyz
  1  'x, y, z'
loop_
 _atom_site_type_symbol
 _atom_site_label
 _atom_site_symmetry_multiplicity
 _atom_site_fract_x
 _atom_site_fract_y
 _atom_site_fract_z
 _atom_site_occupancy
  Yb  Yb0  1  0.411618  0.402046  0.500000  1
  Yb  Yb1  1  0.588382  0.990430  0.500000  1
  Yb  Yb2  1  0.000000  0.610816  0.500000  1
  Hg  Hg3  1  0.731282  0.731362  0.000000  1
  Hg  Hg4  1  0.268718  0.000078  0.000000  1
  Pd  Pd5  1  0.000000  0.008232  0.500000  1
  Pt  Pt6  1  0.673174  0.332244  0.000000  1
  Pt  Pt7  1  0.326826  0.659071  0.000000  1
  Pb  Pb8  1  0.000000  0.265722  0.000000  1
