# generated using pymatgen
data_YbCe(ThPt2)2
_symmetry_space_group_name_H-M   'P 1'
_cell_length_a   4.54399900
_cell_length_b   5.75473136
_cell_length_c   7.21863200
_cell_angle_alpha   88.41300327
_cell_angle_beta   90.00000000
_cell_angle_gamma   90.00000000
_symmetry_Int_Tables_number   1
_chemical_formula_structural   YbCe(ThPt2)2
_chemical_formula_sum   'Yb1 Ce1 Th2 Pt4'
_cell_volume   188.69116627
_cell_formula_units_Z   1
loop_
 _symmetry_equiv_pos_site_id
 _symmetry_equiv_pos_as_xyz
  1  'x, y, z'
loop_
 _atom_site_type_symbol
 _atom_site_label
 _atom_site_symmetry_multiplicity
 _atom_site_fract_x
 _atom_site_fract_y
 _atom_site_fract_z
 _atom_site_occupancy
  Yb  Yb0  1  0.250000  0.354530  0.682430  1
  Ce  Ce1  1  0.750000  0.640654  0.320677  1
  Th  Th2  1  0.250000  0.146528  0.182621  1
  Th  Th3  1  0.750000  0.855265  0.813597  1
  Pt  Pt4  1  0.750000  0.156996  0.451803  1
  Pt  Pt5  1  0.250000  0.842439  0.544119  1
  Pt  Pt6  1  0.250000  0.668984  0.046819  1
  Pt  Pt7  1  0.750000  0.334605  0.957934  1
