# generated using pymatgen
data_Ce3ErTc7Ru
_symmetry_space_group_name_H-M   'P 1'
_cell_length_a   5.23910300
_cell_length_b   5.23910300
_cell_length_c   9.36244900
_cell_angle_alpha   90.00000000
_cell_angle_beta   90.00000000
_cell_angle_gamma   120.00000633
_symmetry_Int_Tables_number   1
_chemical_formula_structural   Ce3ErTc7Ru
_chemical_formula_sum   'Ce3 Er1 Tc7 Ru1'
_cell_volume   222.55325074
_cell_formula_units_Z   1
loop_
 _symmetry_equiv_pos_site_id
 _symmetry_equiv_pos_as_xyz
  1  'x, y, z'
loop_
 _atom_site_type_symbol
 _atom_site_label
 _atom_site_symmetry_multiplicity
 _atom_site_fract_x
 _atom_site_fract_y
 _atom_site_fract_z
 _atom_site_occupancy
  Ce  Ce0  1  0.333333  0.666667  0.441048  1
  Ce  Ce1  1  0.666667  0.333333  0.560419  1
  Ce  Ce2  1  0.666667  0.333333  0.932572  1
  Er  Er3  1  0.333333  0.666667  0.067363  1
  Tc  Tc4  1  0.000000  0.000000  0.001045  1
  Tc  Tc5  1  0.829725  0.170275  0.247608  1
  Tc  Tc6  1  0.829725  0.659452  0.247608  1
  Tc  Tc7  1  0.340548  0.170275  0.247608  1
  Tc  Tc8  1  0.170023  0.829977  0.751999  1
  Tc  Tc9  1  0.170023  0.340045  0.751999  1
  Tc  Tc10  1  0.659955  0.829977  0.751999  1
  Ru  Ru11  1  0.000000  0.000000  0.498732  1
