# generated using pymatgen
data_MgAl3Ir4
_symmetry_space_group_name_H-M   'P 1'
_cell_length_a   4.28800463
_cell_length_b   4.29422855
_cell_length_c   7.43047841
_cell_angle_alpha   89.92272394
_cell_angle_beta   73.21464565
_cell_angle_gamma   60.06339817
_symmetry_Int_Tables_number   1
_chemical_formula_structural   MgAl3Ir4
_chemical_formula_sum   'Mg1 Al3 Ir4'
_cell_volume   111.82220427
_cell_formula_units_Z   1
loop_
 _symmetry_equiv_pos_site_id
 _symmetry_equiv_pos_as_xyz
  1  'x, y, z'
loop_
 _atom_site_type_symbol
 _atom_site_label
 _atom_site_symmetry_multiplicity
 _atom_site_fract_x
 _atom_site_fract_y
 _atom_site_fract_z
 _atom_site_occupancy
  Mg  Mg0  1  0.762830  0.542411  0.495968  1
  Al  Al1  1  0.259041  0.795690  0.251041  1
  Al  Al2  1  0.762262  0.045499  0.995964  1
  Al  Al3  1  0.266052  0.292152  0.740939  1
  Ir  Ir4  1  0.017267  0.417425  0.113557  1
  Ir  Ir5  1  0.507417  0.672609  0.878437  1
  Ir  Ir6  1  0.007354  0.921014  0.629041  1
  Ir  Ir7  1  0.517969  0.165556  0.362912  1
