# generated using pymatgen
data_Hf3Zr3Mn2(Si3Ru2)2
_symmetry_space_group_name_H-M   'P 1'
_cell_length_a   7.62935161
_cell_length_b   7.62679996
_cell_length_c   7.62935159
_cell_angle_alpha   128.09667451
_cell_angle_beta   123.34964573
_cell_angle_gamma   80.41060586
_symmetry_Int_Tables_number   1
_chemical_formula_structural   Hf3Zr3Mn2(Si3Ru2)2
_chemical_formula_sum   'Hf3 Zr3 Mn2 Si6 Ru4'
_cell_volume   281.59462399
_cell_formula_units_Z   1
loop_
 _symmetry_equiv_pos_site_id
 _symmetry_equiv_pos_as_xyz
  1  'x, y, z'
loop_
 _atom_site_type_symbol
 _atom_site_label
 _atom_site_symmetry_multiplicity
 _atom_site_fract_x
 _atom_site_fract_y
 _atom_site_fract_z
 _atom_site_occupancy
  Hf  Hf0  1  0.252587  0.837622  0.085037  1
  Hf  Hf1  1  0.051574  0.253606  0.702032  1
  Hf  Hf2  1  0.948329  0.651355  0.203025  1
  Zr  Zr3  1  0.462931  0.681021  0.718090  1
  Zr  Zr4  1  0.536929  0.255165  0.218235  1
  Zr  Zr5  1  0.746891  0.831244  0.584352  1
  Mn  Mn6  1  0.496092  0.500358  0.996327  1
  Mn  Mn7  1  0.004032  0.500358  0.504267  1
  Si  Si8  1  0.265832  0.270092  0.504260  1
  Si  Si9  1  0.734748  0.243019  0.008273  1
  Si  Si10  1  0.327998  0.586231  0.245184  1
  Si  Si11  1  0.670157  0.917178  0.256771  1
  Si  Si12  1  0.160407  0.917178  0.747021  1
  Si  Si13  1  0.841046  0.586231  0.758234  1
  Ru  Ru14  1  0.102484  0.255376  0.111495  1
  Ru  Ru15  1  0.898752  0.009094  0.153766  1
  Ru  Ru16  1  0.355328  0.009094  0.610343  1
  Ru  Ru17  1  0.643883  0.255376  0.652894  1
