# generated using pymatgen
data_CeEr3(Si4Tc3)2
_symmetry_space_group_name_H-M   'P 1'
_cell_length_a   6.76160015
_cell_length_b   6.81666148
_cell_length_c   6.77077946
_cell_angle_alpha   69.73755394
_cell_angle_beta   90.00957196
_cell_angle_gamma   88.62419803
_symmetry_Int_Tables_number   1
_chemical_formula_structural   CeEr3(Si4Tc3)2
_chemical_formula_sum   'Ce1 Er3 Si8 Tc6'
_cell_volume   292.66682944
_cell_formula_units_Z   1
loop_
 _symmetry_equiv_pos_site_id
 _symmetry_equiv_pos_as_xyz
  1  'x, y, z'
loop_
 _atom_site_type_symbol
 _atom_site_label
 _atom_site_symmetry_multiplicity
 _atom_site_fract_x
 _atom_site_fract_y
 _atom_site_fract_z
 _atom_site_occupancy
  Ce  Ce0  1  0.664135  0.448034  0.188110  1
  Er  Er1  1  0.167434  0.059160  0.807356  1
  Er  Er2  1  0.333104  0.554419  0.810409  1
  Er  Er3  1  0.832203  0.938256  0.191173  1
  Si  Si4  1  0.450752  0.129264  0.095057  1
  Si  Si5  1  0.944658  0.379004  0.892962  1
  Si  Si6  1  0.548176  0.880775  0.897142  1
  Si  Si7  1  0.065049  0.614696  0.110274  1
  Si  Si8  1  0.859270  0.127390  0.508022  1
  Si  Si9  1  0.350307  0.371331  0.478151  1
  Si  Si10  1  0.139366  0.865517  0.495556  1
  Si  Si11  1  0.644332  0.632874  0.523043  1
  Tc  Tc12  1  0.501163  0.001210  0.498236  1
  Tc  Tc13  1  0.001195  0.502882  0.500728  1
  Tc  Tc14  1  0.144052  0.225946  0.236845  1
  Tc  Tc15  1  0.651180  0.250006  0.753662  1
  Tc  Tc16  1  0.853042  0.763442  0.769116  1
  Tc  Tc17  1  0.350584  0.755795  0.244156  1
