# generated using pymatgen
data_Ba4Li5Cd29
_symmetry_space_group_name_H-M   'P 1'
_cell_length_a   7.69489283
_cell_length_b   7.69489226
_cell_length_c   16.06592543
_cell_angle_alpha   82.38508763
_cell_angle_beta   82.38507891
_cell_angle_gamma   83.50629302
_symmetry_Int_Tables_number   1
_chemical_formula_structural   Ba4Li5Cd29
_chemical_formula_sum   'Ba4 Li5 Cd29'
_cell_volume   930.15167032
_cell_formula_units_Z   1
loop_
 _symmetry_equiv_pos_site_id
 _symmetry_equiv_pos_as_xyz
  1  'x, y, z'
loop_
 _atom_site_type_symbol
 _atom_site_label
 _atom_site_symmetry_multiplicity
 _atom_site_fract_x
 _atom_site_fract_y
 _atom_site_fract_z
 _atom_site_occupancy
  Ba  Ba0  1  0.656391  0.656391  0.329373  1
  Ba  Ba1  1  0.653552  0.653552  0.828631  1
  Ba  Ba2  1  0.343609  0.343609  0.170627  1
  Ba  Ba3  1  0.346448  0.346448  0.671369  1
  Li  Li4  1  0.000000  0.000000  0.750000  1
  Li  Li5  1  0.001432  0.499884  0.998062  1
  Li  Li6  1  0.998568  0.500116  0.501938  1
  Li  Li7  1  0.500116  0.998568  0.501938  1
  Li  Li8  1  0.499884  0.001432  0.998062  1
  Cd  Cd9  1  0.292516  0.708201  0.999004  1
  Cd  Cd10  1  0.291799  0.707484  0.500996  1
  Cd  Cd11  1  0.703392  0.000580  0.142503  1
  Cd  Cd12  1  0.708097  0.999612  0.647352  1
  Cd  Cd13  1  0.999420  0.296608  0.357497  1
  Cd  Cd14  1  0.000388  0.291903  0.852648  1
  Cd  Cd15  1  0.296608  0.999420  0.357497  1
  Cd  Cd16  1  0.291903  0.000388  0.852648  1
  Cd  Cd17  1  0.000580  0.703392  0.142503  1
  Cd  Cd18  1  0.999612  0.708097  0.647352  1
  Cd  Cd19  1  0.707484  0.291799  0.500996  1
  Cd  Cd20  1  0.708201  0.292516  0.999004  1
  Cd  Cd21  1  0.342412  0.342412  0.430404  1
  Cd  Cd22  1  0.344078  0.344078  0.924685  1
  Cd  Cd23  1  0.351677  0.847387  0.171095  1
  Cd  Cd24  1  0.342518  0.856365  0.672750  1
  Cd  Cd25  1  0.847387  0.351677  0.171095  1
  Cd  Cd26  1  0.856365  0.342518  0.672750  1
  Cd  Cd27  1  0.657588  0.657588  0.069596  1
  Cd  Cd28  1  0.655922  0.655922  0.575315  1
  Cd  Cd29  1  0.648323  0.152613  0.328905  1
  Cd  Cd30  1  0.657482  0.143635  0.827250  1
  Cd  Cd31  1  0.152613  0.648323  0.328905  1
  Cd  Cd32  1  0.143635  0.657482  0.827250  1
  Cd  Cd33  1  0.896837  0.896837  0.450089  1
  Cd  Cd34  1  0.899572  0.899572  0.944088  1
  Cd  Cd35  1  0.103163  0.103163  0.049911  1
  Cd  Cd36  1  0.100428  0.100428  0.555912  1
  Cd  Cd37  1  0.000000  0.000000  0.250000  1
