# generated using pymatgen
data_Sm4DyPb3Cl
_symmetry_space_group_name_H-M   'P 1'
_cell_length_a   9.38454800
_cell_length_b   9.38454666
_cell_length_c   6.73423300
_cell_angle_alpha   90.00000000
_cell_angle_beta   90.00000000
_cell_angle_gamma   119.99999768
_symmetry_Int_Tables_number   1
_chemical_formula_structural   Sm4DyPb3Cl
_chemical_formula_sum   'Sm8 Dy2 Pb6 Cl2'
_cell_volume   513.62415334
_cell_formula_units_Z   2
loop_
 _symmetry_equiv_pos_site_id
 _symmetry_equiv_pos_as_xyz
  1  'x, y, z'
loop_
 _atom_site_type_symbol
 _atom_site_label
 _atom_site_symmetry_multiplicity
 _atom_site_fract_x
 _atom_site_fract_y
 _atom_site_fract_z
 _atom_site_occupancy
  Sm  Sm0  1  0.666667  0.333333  0.500000  1
  Sm  Sm1  1  0.333333  0.666667  0.500000  1
  Sm  Sm2  1  0.259608  0.000000  0.249587  1
  Sm  Sm3  1  0.740392  0.000000  0.750413  1
  Sm  Sm4  1  0.000000  0.259608  0.249587  1
  Sm  Sm5  1  0.000000  0.740392  0.750413  1
  Sm  Sm6  1  0.740392  0.740392  0.249587  1
  Sm  Sm7  1  0.259608  0.259608  0.750413  1
  Dy  Dy8  1  0.333333  0.666667  0.000000  1
  Dy  Dy9  1  0.666667  0.333333  0.000000  1
  Pb  Pb10  1  0.610263  0.000000  0.248964  1
  Pb  Pb11  1  0.389737  0.000000  0.751036  1
  Pb  Pb12  1  0.000000  0.610263  0.248964  1
  Pb  Pb13  1  0.000000  0.389737  0.751036  1
  Pb  Pb14  1  0.389737  0.389737  0.248964  1
  Pb  Pb15  1  0.610263  0.610263  0.751036  1
  Cl  Cl16  1  0.000000  0.000000  0.000000  1
  Cl  Cl17  1  0.000000  0.000000  0.500000  1
