# generated using pymatgen
data_AgS2NO10
_symmetry_space_group_name_H-M   'P 1'
_cell_length_a   4.87414912
_cell_length_b   5.94208608
_cell_length_c   8.10567009
_cell_angle_alpha   104.72015039
_cell_angle_beta   103.25134299
_cell_angle_gamma   88.36697975
_symmetry_Int_Tables_number   1
_chemical_formula_structural   AgS2NO10
_chemical_formula_sum   'Ag1 S2 N1 O10'
_cell_volume   220.90017310
_cell_formula_units_Z   1
loop_
 _symmetry_equiv_pos_site_id
 _symmetry_equiv_pos_as_xyz
  1  'x, y, z'
loop_
 _atom_site_type_symbol
 _atom_site_label
 _atom_site_symmetry_multiplicity
 _atom_site_fract_x
 _atom_site_fract_y
 _atom_site_fract_z
 _atom_site_occupancy
  Ag  Ag0  1  0.000000  0.000000  0.000000  1
  S  S1  1  0.388280  0.090211  0.770807  1
  S  S2  1  0.611720  0.909789  0.229193  1
  N  N3  1  0.500000  0.500000  0.500000  1
  O  O4  1  0.713375  0.518003  0.596791  1
  O  O5  1  0.286625  0.481997  0.403209  1
  O  O6  1  0.295502  0.191631  0.943754  1
  O  O7  1  0.704498  0.808369  0.056246  1
  O  O8  1  0.709930  0.130392  0.819260  1
  O  O9  1  0.290070  0.869608  0.180740  1
  O  O10  1  0.304333  0.844388  0.706710  1
  O  O11  1  0.695667  0.155612  0.293290  1
  O  O12  1  0.288541  0.232537  0.648262  1
  O  O13  1  0.711459  0.767463  0.351738  1
