# generated using pymatgen
data_Y3Ho5(CoB14)2
_symmetry_space_group_name_H-M   'P 1'
_cell_length_a   7.21984520
_cell_length_b   7.21944520
_cell_length_c   7.50467400
_cell_angle_alpha   90.00000000
_cell_angle_beta   90.00000000
_cell_angle_gamma   89.87645087
_symmetry_Int_Tables_number   1
_chemical_formula_structural   Y3Ho5(CoB14)2
_chemical_formula_sum   'Y3 Ho5 Co2 B28'
_cell_volume   391.16729017
_cell_formula_units_Z   1
loop_
 _symmetry_equiv_pos_site_id
 _symmetry_equiv_pos_as_xyz
  1  'x, y, z'
loop_
 _atom_site_type_symbol
 _atom_site_label
 _atom_site_symmetry_multiplicity
 _atom_site_fract_x
 _atom_site_fract_y
 _atom_site_fract_z
 _atom_site_occupancy
  Y  Y0  1  0.806816  0.670261  0.000000  1
  Y  Y1  1  0.830069  0.693350  0.500000  1
  Y  Y2  1  0.169920  0.306666  0.500000  1
  Ho  Ho3  1  0.193256  0.329720  0.000000  1
  Ho  Ho4  1  0.669833  0.192742  0.000000  1
  Ho  Ho5  1  0.329994  0.807123  0.000000  1
  Ho  Ho6  1  0.692821  0.169676  0.500000  1
  Ho  Ho7  1  0.307262  0.830402  0.500000  1
  Co  Co8  1  0.000361  0.000615  0.000000  1
  Co  Co9  1  0.499827  0.499909  0.500000  1
  B  B10  1  0.174412  0.038501  0.230523  1
  B  B11  1  0.961125  0.174295  0.230300  1
  B  B12  1  0.039327  0.826071  0.230563  1
  B  B13  1  0.673985  0.460676  0.268997  1
  B  B14  1  0.325642  0.538907  0.268765  1
  B  B15  1  0.825858  0.961935  0.230744  1
  B  B16  1  0.538056  0.674114  0.268966  1
  B  B17  1  0.461587  0.325556  0.268789  1
  B  B18  1  0.825858  0.961935  0.769256  1
  B  B19  1  0.039327  0.826071  0.769437  1
  B  B20  1  0.961125  0.174295  0.769700  1
  B  B21  1  0.325642  0.538907  0.731235  1
  B  B22  1  0.673985  0.460676  0.731003  1
  B  B23  1  0.174412  0.038501  0.769477  1
  B  B24  1  0.461587  0.325556  0.731211  1
  B  B25  1  0.538056  0.674114  0.731034  1
  B  B26  1  0.088306  0.588224  0.249021  1
  B  B27  1  0.411837  0.088110  0.249549  1
  B  B28  1  0.588189  0.911840  0.249788  1
  B  B29  1  0.911801  0.411659  0.249243  1
  B  B30  1  0.911801  0.411659  0.750757  1
  B  B31  1  0.588189  0.911840  0.750212  1
  B  B32  1  0.411837  0.088110  0.750451  1
  B  B33  1  0.088306  0.588224  0.750979  1
  B  B34  1  0.000140  0.000167  0.388096  1
  B  B35  1  0.499654  0.499715  0.111724  1
  B  B36  1  0.000140  0.000167  0.611904  1
  B  B37  1  0.499654  0.499715  0.888276  1
