# generated using pymatgen
data_Lu10Pb6Se
_symmetry_space_group_name_H-M   'P 1'
_cell_length_a   8.96198700
_cell_length_b   8.96198813
_cell_length_c   6.52635100
_cell_angle_alpha   90.00000000
_cell_angle_beta   90.00000000
_cell_angle_gamma   119.99999215
_symmetry_Int_Tables_number   1
_chemical_formula_structural   Lu10Pb6Se
_chemical_formula_sum   'Lu10 Pb6 Se1'
_cell_volume   453.95182576
_cell_formula_units_Z   1
loop_
 _symmetry_equiv_pos_site_id
 _symmetry_equiv_pos_as_xyz
  1  'x, y, z'
loop_
 _atom_site_type_symbol
 _atom_site_label
 _atom_site_symmetry_multiplicity
 _atom_site_fract_x
 _atom_site_fract_y
 _atom_site_fract_z
 _atom_site_occupancy
  Lu  Lu0  1  0.666667  0.333333  0.500000  1
  Lu  Lu1  1  0.333333  0.666667  0.500000  1
  Lu  Lu2  1  0.333333  0.666667  0.000000  1
  Lu  Lu3  1  0.666667  0.333333  0.000000  1
  Lu  Lu4  1  0.753040  0.753040  0.238539  1
  Lu  Lu5  1  0.246960  0.000000  0.238539  1
  Lu  Lu6  1  0.000000  0.246960  0.238539  1
  Lu  Lu7  1  0.246960  0.246960  0.761461  1
  Lu  Lu8  1  0.753040  0.000000  0.761461  1
  Lu  Lu9  1  0.000000  0.753040  0.761461  1
  Pb  Pb10  1  0.393646  0.393646  0.248481  1
  Pb  Pb11  1  0.606354  0.000000  0.248481  1
  Pb  Pb12  1  0.000000  0.606354  0.248481  1
  Pb  Pb13  1  0.606354  0.606354  0.751519  1
  Pb  Pb14  1  0.393646  0.000000  0.751519  1
  Pb  Pb15  1  0.000000  0.393646  0.751519  1
  Se  Se16  1  0.000000  0.000000  0.500000  1
