# generated using pymatgen
data_Y6LuCd(Co3Sn11)2
_symmetry_space_group_name_H-M   'P 1'
_cell_length_a   9.68166106
_cell_length_b   9.68123126
_cell_length_c   10.02251808
_cell_angle_alpha   89.99999751
_cell_angle_beta   89.98771120
_cell_angle_gamma   119.99852876
_symmetry_Int_Tables_number   1
_chemical_formula_structural   Y6LuCd(Co3Sn11)2
_chemical_formula_sum   'Y6 Lu1 Cd1 Co6 Sn22'
_cell_volume   813.56896629
_cell_formula_units_Z   1
loop_
 _symmetry_equiv_pos_site_id
 _symmetry_equiv_pos_as_xyz
  1  'x, y, z'
loop_
 _atom_site_type_symbol
 _atom_site_label
 _atom_site_symmetry_multiplicity
 _atom_site_fract_x
 _atom_site_fract_y
 _atom_site_fract_z
 _atom_site_occupancy
  Y  Y0  1  0.000187  0.000093  0.000216  1
  Y  Y1  1  0.478263  0.956299  0.306284  1
  Y  Y2  1  0.478263  0.521964  0.306284  1
  Y  Y3  1  0.956133  0.478066  0.693172  1
  Y  Y4  1  0.521997  0.043844  0.693588  1
  Y  Y5  1  0.521997  0.478152  0.693588  1
  Lu  Lu6  1  0.041208  0.520604  0.305774  1
  Cd  Cd7  1  0.000042  0.000021  0.499940  1
  Co  Co8  1  0.167830  0.832249  0.803756  1
  Co  Co9  1  0.664195  0.832097  0.803913  1
  Co  Co10  1  0.167830  0.335581  0.803756  1
  Co  Co11  1  0.833287  0.169780  0.196778  1
  Co  Co12  1  0.335388  0.167694  0.196392  1
  Co  Co13  1  0.833287  0.663508  0.196778  1
  Sn  Sn14  1  0.116066  0.882322  0.271226  1
  Sn  Sn15  1  0.767965  0.883982  0.271026  1
  Sn  Sn16  1  0.116066  0.233744  0.271226  1
  Sn  Sn17  1  0.883906  0.116205  0.729210  1
  Sn  Sn18  1  0.232332  0.116166  0.729062  1
  Sn  Sn19  1  0.883906  0.767701  0.729210  1
  Sn  Sn20  1  0.346109  0.999933  0.000101  1
  Sn  Sn21  1  0.653931  0.653599  0.000097  1
  Sn  Sn22  1  0.000205  0.346626  0.000309  1
  Sn  Sn23  1  0.346109  0.346176  0.000101  1
  Sn  Sn24  1  0.000205  0.653579  0.000309  1
  Sn  Sn25  1  0.653931  0.000333  0.000097  1
  Sn  Sn26  1  0.784340  0.565004  0.451494  1
  Sn  Sn27  1  0.784340  0.219337  0.451494  1
  Sn  Sn28  1  0.434983  0.217492  0.452164  1
  Sn  Sn29  1  0.216600  0.435153  0.546535  1
  Sn  Sn30  1  0.216600  0.781446  0.546535  1
  Sn  Sn31  1  0.565148  0.782574  0.547663  1
  Sn  Sn32  1  0.667315  0.333657  0.181844  1
  Sn  Sn33  1  0.333265  0.666633  0.818146  1
  Sn  Sn34  1  0.666721  0.333360  0.883231  1
  Sn  Sn35  1  0.330051  0.665026  0.118700  1
