# generated using pymatgen
data_Ba7Eu(USe6)2
_symmetry_space_group_name_H-M   'P 1'
_cell_length_a   9.05589084
_cell_length_b   9.05589000
_cell_length_c   9.05589101
_cell_angle_alpha   90.47848455
_cell_angle_beta   90.47848213
_cell_angle_gamma   90.47849056
_symmetry_Int_Tables_number   1
_chemical_formula_structural   Ba7Eu(USe6)2
_chemical_formula_sum   'Ba7 Eu1 U2 Se12'
_cell_volume   742.58780917
_cell_formula_units_Z   1
loop_
 _symmetry_equiv_pos_site_id
 _symmetry_equiv_pos_as_xyz
  1  'x, y, z'
loop_
 _atom_site_type_symbol
 _atom_site_label
 _atom_site_symmetry_multiplicity
 _atom_site_fract_x
 _atom_site_fract_y
 _atom_site_fract_z
 _atom_site_occupancy
  Ba  Ba0  1  0.875956  0.624044  0.250000  1
  Ba  Ba1  1  0.250000  0.875956  0.624044  1
  Ba  Ba2  1  0.624044  0.250000  0.875956  1
  Ba  Ba3  1  0.750000  0.124807  0.375193  1
  Ba  Ba4  1  0.375193  0.750000  0.124807  1
  Ba  Ba5  1  0.124807  0.375193  0.750000  1
  Ba  Ba6  1  0.750000  0.750000  0.750000  1
  Eu  Eu7  1  0.250000  0.250000  0.250000  1
  U  U8  1  0.497529  0.497529  0.497529  1
  U  U9  1  0.002471  0.002471  0.002471  1
  Se  Se10  1  0.199425  0.550723  0.414528  1
  Se  Se11  1  0.414528  0.199425  0.550723  1
  Se  Se12  1  0.550723  0.414528  0.199425  1
  Se  Se13  1  0.923106  0.061111  0.703034  1
  Se  Se14  1  0.703034  0.923106  0.061111  1
  Se  Se15  1  0.061111  0.703034  0.923106  1
  Se  Se16  1  0.796966  0.438889  0.576894  1
  Se  Se17  1  0.576894  0.796966  0.438889  1
  Se  Se18  1  0.438889  0.576894  0.796966  1
  Se  Se19  1  0.085472  0.949277  0.300575  1
  Se  Se20  1  0.300575  0.085472  0.949277  1
  Se  Se21  1  0.949277  0.300575  0.085472  1
