# generated using pymatgen
data_Eu5HRh2Pb
_symmetry_space_group_name_H-M   'P 1'
_cell_length_a   9.15823623
_cell_length_b   9.15823671
_cell_length_c   9.15823526
_cell_angle_alpha   127.91112384
_cell_angle_beta   127.91111547
_cell_angle_gamma   76.76905331
_symmetry_Int_Tables_number   1
_chemical_formula_structural   Eu5HRh2Pb
_chemical_formula_sum   'Eu10 H2 Rh4 Pb2'
_cell_volume   464.29980880
_cell_formula_units_Z   2
loop_
 _symmetry_equiv_pos_site_id
 _symmetry_equiv_pos_as_xyz
  1  'x, y, z'
loop_
 _atom_site_type_symbol
 _atom_site_label
 _atom_site_symmetry_multiplicity
 _atom_site_fract_x
 _atom_site_fract_y
 _atom_site_fract_z
 _atom_site_occupancy
  Eu  Eu0  1  0.500000  0.500000  0.000000  1
  Eu  Eu1  1  0.000000  0.000000  0.000000  1
  Eu  Eu2  1  0.522254  0.022254  0.816680  1
  Eu  Eu3  1  0.205574  0.705574  0.183320  1
  Eu  Eu4  1  0.022254  0.205574  0.500000  1
  Eu  Eu5  1  0.705574  0.522254  0.500000  1
  Eu  Eu6  1  0.477746  0.977746  0.183320  1
  Eu  Eu7  1  0.794426  0.294426  0.816680  1
  Eu  Eu8  1  0.977746  0.794426  0.500000  1
  Eu  Eu9  1  0.294426  0.477746  0.500000  1
  H  H10  1  0.250000  0.750000  0.500000  1
  H  H11  1  0.750000  0.250000  0.500000  1
  Rh  Rh12  1  0.868641  0.368641  0.237282  1
  Rh  Rh13  1  0.131359  0.631359  0.762718  1
  Rh  Rh14  1  0.368641  0.131359  0.500000  1
  Rh  Rh15  1  0.631359  0.868641  0.500000  1
  Pb  Pb16  1  0.250000  0.250000  0.000000  1
  Pb  Pb17  1  0.750000  0.750000  0.000000  1
