# generated using pymatgen
data_Re3Tc2IrRh2
_symmetry_space_group_name_H-M   'P 1'
_cell_length_a   5.51303500
_cell_length_b   5.54111177
_cell_length_c   4.38856700
_cell_angle_alpha   90.00000000
_cell_angle_beta   90.00000000
_cell_angle_gamma   119.83253230
_symmetry_Int_Tables_number   1
_chemical_formula_structural   Re3Tc2IrRh2
_chemical_formula_sum   'Re3 Tc2 Ir1 Rh2'
_cell_volume   116.29778214
_cell_formula_units_Z   1
loop_
 _symmetry_equiv_pos_site_id
 _symmetry_equiv_pos_as_xyz
  1  'x, y, z'
loop_
 _atom_site_type_symbol
 _atom_site_label
 _atom_site_symmetry_multiplicity
 _atom_site_fract_x
 _atom_site_fract_y
 _atom_site_fract_z
 _atom_site_occupancy
  Re  Re0  1  0.838570  0.677139  0.750000  1
  Re  Re1  1  0.326271  0.163072  0.750000  1
  Re  Re2  1  0.836801  0.163072  0.750000  1
  Tc  Tc3  1  0.672956  0.835666  0.250000  1
  Tc  Tc4  1  0.162711  0.835666  0.250000  1
  Ir  Ir5  1  0.165512  0.331024  0.250000  1
  Rh  Rh6  1  0.332189  0.664381  0.750000  1
  Rh  Rh7  1  0.664990  0.329980  0.250000  1
