# generated using pymatgen
data_Ti2Nb8Ga5SiB2
_symmetry_space_group_name_H-M   'P 1'
_cell_length_a   7.79403006
_cell_length_b   7.77788520
_cell_length_c   5.30675523
_cell_angle_alpha   90.03343762
_cell_angle_beta   89.98331816
_cell_angle_gamma   119.93150420
_symmetry_Int_Tables_number   1
_chemical_formula_structural   Ti2Nb8Ga5SiB2
_chemical_formula_sum   'Ti2 Nb8 Ga5 Si1 B2'
_cell_volume   278.79344557
_cell_formula_units_Z   1
loop_
 _symmetry_equiv_pos_site_id
 _symmetry_equiv_pos_as_xyz
  1  'x, y, z'
loop_
 _atom_site_type_symbol
 _atom_site_label
 _atom_site_symmetry_multiplicity
 _atom_site_fract_x
 _atom_site_fract_y
 _atom_site_fract_z
 _atom_site_occupancy
  Ti  Ti0  1  0.670941  0.334242  0.500234  1
  Ti  Ti1  1  0.329059  0.663302  0.500234  1
  Nb  Nb2  1  0.329333  0.663282  0.998702  1
  Nb  Nb3  1  0.670667  0.333947  0.998702  1
  Nb  Nb4  1  0.758109  0.757369  0.248240  1
  Nb  Nb5  1  0.241891  0.999259  0.248240  1
  Nb  Nb6  1  0.000000  0.244346  0.250041  1
  Nb  Nb7  1  0.238396  0.243928  0.751572  1
  Nb  Nb8  1  0.761604  0.005531  0.751572  1
  Nb  Nb9  1  0.000000  0.754485  0.750886  1
  Ga  Ga10  1  0.402604  0.400482  0.254944  1
  Ga  Ga11  1  0.597396  0.997877  0.254944  1
  Ga  Ga12  1  0.000000  0.599630  0.255903  1
  Ga  Ga13  1  0.599508  0.600277  0.744906  1
  Ga  Ga14  1  0.400492  0.000768  0.744906  1
  Si  Si15  1  0.000000  0.403687  0.745783  1
  B  B16  1  0.000000  0.998839  0.499323  1
  B  B17  1  0.000000  0.998750  0.000868  1
