# generated using pymatgen
data_LiTaNb2(CoP)4
_symmetry_space_group_name_H-M   'P 1'
_cell_length_a   3.57719600
_cell_length_b   6.10574320
_cell_length_c   6.92833017
_cell_angle_alpha   90.32398957
_cell_angle_beta   90.00000000
_cell_angle_gamma   90.00000000
_symmetry_Int_Tables_number   1
_chemical_formula_structural   LiTaNb2(CoP)4
_chemical_formula_sum   'Li1 Ta1 Nb2 Co4 P4'
_cell_volume   151.32228943
_cell_formula_units_Z   1
loop_
 _symmetry_equiv_pos_site_id
 _symmetry_equiv_pos_as_xyz
  1  'x, y, z'
loop_
 _atom_site_type_symbol
 _atom_site_label
 _atom_site_symmetry_multiplicity
 _atom_site_fract_x
 _atom_site_fract_y
 _atom_site_fract_z
 _atom_site_occupancy
  Li  Li0  1  0.250000  0.024617  0.822525  1
  Ta  Ta1  1  0.250000  0.522209  0.676286  1
  Nb  Nb2  1  0.750000  0.975198  0.175721  1
  Nb  Nb3  1  0.750000  0.471472  0.323507  1
  Co  Co4  1  0.250000  0.144003  0.444045  1
  Co  Co5  1  0.250000  0.636624  0.057901  1
  Co  Co6  1  0.750000  0.855150  0.566218  1
  Co  Co7  1  0.750000  0.364388  0.935309  1
  P  P8  1  0.250000  0.776278  0.379148  1
  P  P9  1  0.250000  0.268796  0.111052  1
  P  P10  1  0.750000  0.219976  0.629535  1
  P  P11  1  0.750000  0.741291  0.878755  1
