# generated using pymatgen
data_Ho10Er2InCo4Os
_symmetry_space_group_name_H-M   'P 1'
_cell_length_a   8.23264188
_cell_length_b   8.23002552
_cell_length_c   8.23002657
_cell_angle_alpha   111.41826643
_cell_angle_beta   110.64025757
_cell_angle_gamma   106.38709961
_symmetry_Int_Tables_number   1
_chemical_formula_structural   Ho10Er2InCo4Os
_chemical_formula_sum   'Ho10 Er2 In1 Co4 Os1'
_cell_volume   428.37935071
_cell_formula_units_Z   1
loop_
 _symmetry_equiv_pos_site_id
 _symmetry_equiv_pos_as_xyz
  1  'x, y, z'
loop_
 _atom_site_type_symbol
 _atom_site_label
 _atom_site_symmetry_multiplicity
 _atom_site_fract_x
 _atom_site_fract_y
 _atom_site_fract_z
 _atom_site_occupancy
  Ho  Ho0  1  0.181683  0.279195  0.461173  1
  Ho  Ho1  1  0.818317  0.720805  0.538827  1
  Ho  Ho2  1  0.181683  0.720509  0.902487  1
  Ho  Ho3  1  0.818317  0.279491  0.097513  1
  Ho  Ho4  1  0.314217  0.618559  0.303792  1
  Ho  Ho5  1  0.685783  0.381441  0.696208  1
  Ho  Ho6  1  0.314217  0.010425  0.695658  1
  Ho  Ho7  1  0.685783  0.989575  0.304342  1
  Ho  Ho8  1  0.416355  0.221023  0.195332  1
  Ho  Ho9  1  0.583645  0.778977  0.804668  1
  Er  Er10  1  0.025520  0.221015  0.804506  1
  Er  Er11  1  0.974480  0.778985  0.195494  1
  In  In12  1  0.500000  0.500000  0.000000  1
  Co  Co13  1  0.111313  0.611557  0.499756  1
  Co  Co14  1  0.888687  0.388443  0.500244  1
  Co  Co15  1  0.376821  0.999864  0.376957  1
  Co  Co16  1  0.623179  0.000136  0.623043  1
  Os  Os17  1  0.000000  0.000000  0.000000  1
