# generated using pymatgen
data_Rb4Zr6IrI18
_symmetry_space_group_name_H-M   'P 1'
_cell_length_a   11.53614580
_cell_length_b   11.76273899
_cell_length_c   11.88632608
_cell_angle_alpha   118.52809746
_cell_angle_beta   100.16249486
_cell_angle_gamma   103.92888510
_symmetry_Int_Tables_number   1
_chemical_formula_structural   Rb4Zr6IrI18
_chemical_formula_sum   'Rb4 Zr6 Ir1 I18'
_cell_volume   1292.62755727
_cell_formula_units_Z   1
loop_
 _symmetry_equiv_pos_site_id
 _symmetry_equiv_pos_as_xyz
  1  'x, y, z'
loop_
 _atom_site_type_symbol
 _atom_site_label
 _atom_site_symmetry_multiplicity
 _atom_site_fract_x
 _atom_site_fract_y
 _atom_site_fract_z
 _atom_site_occupancy
  Rb  Rb0  1  0.652183  0.538246  0.226839  1
  Rb  Rb1  1  0.347817  0.461754  0.773161  1
  Rb  Rb2  1  0.686901  0.225511  0.565134  1
  Rb  Rb3  1  0.313099  0.774489  0.434866  1
  Zr  Zr4  1  0.149375  0.055382  0.227632  1
  Zr  Zr5  1  0.850625  0.944618  0.772368  1
  Zr  Zr6  1  0.862524  0.124847  0.131207  1
  Zr  Zr7  1  0.137476  0.875153  0.868793  1
  Zr  Zr8  1  0.145034  0.236780  0.045369  1
  Zr  Zr9  1  0.854966  0.763220  0.954631  1
  Ir  Ir10  1  0.000000  0.000000  0.000000  1
  I  I11  1  0.007403  0.404675  0.194235  1
  I  I12  1  0.992597  0.595325  0.805765  1
  I  I13  1  0.327288  0.330614  0.309088  1
  I  I14  1  0.672712  0.669386  0.690912  1
  I  I15  1  0.316532  0.514989  0.098498  1
  I  I16  1  0.683468  0.485011  0.901502  1
  I  I17  1  0.003562  0.797878  0.206367  1
  I  I18  1  0.996438  0.202122  0.793633  1
  I  I19  1  0.704922  0.268932  0.281452  1
  I  I20  1  0.295078  0.731068  0.718548  1
  I  I21  1  0.315088  0.126361  0.904267  1
  I  I22  1  0.684912  0.873639  0.095733  1
  I  I23  1  0.014673  0.202104  0.402868  1
  I  I24  1  0.985327  0.797896  0.597132  1
  I  I25  1  0.319060  0.924217  0.109088  1
  I  I26  1  0.680940  0.075783  0.890912  1
  I  I27  1  0.328239  0.119730  0.494687  1
  I  I28  1  0.671761  0.880270  0.505313  1
