# generated using pymatgen
data_Ba3NdTm3O9
_symmetry_space_group_name_H-M   'P 1'
_cell_length_a   9.21132281
_cell_length_b   9.21132313
_cell_length_c   9.21132279
_cell_angle_alpha   38.99626262
_cell_angle_beta   38.99626615
_cell_angle_gamma   38.99626714
_symmetry_Int_Tables_number   1
_chemical_formula_structural   Ba3NdTm3O9
_chemical_formula_sum   'Ba3 Nd1 Tm3 O9'
_cell_volume   278.32282518
_cell_formula_units_Z   1
loop_
 _symmetry_equiv_pos_site_id
 _symmetry_equiv_pos_as_xyz
  1  'x, y, z'
loop_
 _atom_site_type_symbol
 _atom_site_label
 _atom_site_symmetry_multiplicity
 _atom_site_fract_x
 _atom_site_fract_y
 _atom_site_fract_z
 _atom_site_occupancy
  Ba  Ba0  1  0.000927  0.000927  0.000927  1
  Ba  Ba1  1  0.833406  0.833406  0.833406  1
  Ba  Ba2  1  0.403259  0.403259  0.403259  1
  Nd  Nd3  1  0.573888  0.573888  0.573888  1
  Tm  Tm4  1  0.136098  0.136098  0.136098  1
  Tm  Tm5  1  0.261269  0.261269  0.261269  1
  Tm  Tm6  1  0.701211  0.701211  0.701211  1
  O  O7  1  0.520460  0.440525  0.973689  1
  O  O8  1  0.440525  0.973689  0.520460  1
  O  O9  1  0.973689  0.520460  0.440525  1
  O  O10  1  0.429348  0.265321  0.897812  1
  O  O11  1  0.265321  0.897812  0.429348  1
  O  O12  1  0.897812  0.429348  0.265321  1
  O  O13  1  0.975259  0.414638  0.863389  1
  O  O14  1  0.863389  0.975259  0.414638  1
  O  O15  1  0.414638  0.863389  0.975259  1
