# generated using pymatgen
data_KIrRh3O8
_symmetry_space_group_name_H-M   'P 1'
_cell_length_a   3.16533128
_cell_length_b   7.28940156
_cell_length_c   7.34721303
_cell_angle_alpha   87.59591780
_cell_angle_beta   77.56039207
_cell_angle_gamma   77.46013677
_symmetry_Int_Tables_number   1
_chemical_formula_structural   KIrRh3O8
_chemical_formula_sum   'K1 Ir1 Rh3 O8'
_cell_volume   161.59401743
_cell_formula_units_Z   1
loop_
 _symmetry_equiv_pos_site_id
 _symmetry_equiv_pos_as_xyz
  1  'x, y, z'
loop_
 _atom_site_type_symbol
 _atom_site_label
 _atom_site_symmetry_multiplicity
 _atom_site_fract_x
 _atom_site_fract_y
 _atom_site_fract_z
 _atom_site_occupancy
  K  K0  1  0.503600  0.994882  0.997917  1
  Ir  Ir1  1  0.648589  0.186652  0.516170  1
  Rh  Rh2  1  0.833698  0.515981  0.816622  1
  Rh  Rh3  1  0.168017  0.481664  0.182302  1
  Rh  Rh4  1  0.353264  0.811901  0.481570  1
  O  O5  1  0.456353  0.381037  0.706258  1
  O  O6  1  0.546322  0.616599  0.290756  1
  O  O7  1  0.834185  0.710684  0.620946  1
  O  O8  1  0.158266  0.295056  0.388413  1
  O  O9  1  0.200368  0.647858  0.951405  1
  O  O10  1  0.801371  0.348027  0.049232  1
  O  O11  1  0.846411  0.953641  0.353537  1
  O  O12  1  0.149555  0.056019  0.644871  1
