# generated using pymatgen
data_PuHgF7
_symmetry_space_group_name_H-M   'P 1'
_cell_length_a   10.92697200
_cell_length_b   7.52195647
_cell_length_c   8.38401080
_cell_angle_alpha   78.48062011
_cell_angle_beta   90.00000000
_cell_angle_gamma   90.00000000
_symmetry_Int_Tables_number   1
_chemical_formula_structural   PuHgF7
_chemical_formula_sum   'Pu4 Hg4 F28'
_cell_volume   675.21995586
_cell_formula_units_Z   4
loop_
 _symmetry_equiv_pos_site_id
 _symmetry_equiv_pos_as_xyz
  1  'x, y, z'
loop_
 _atom_site_type_symbol
 _atom_site_label
 _atom_site_symmetry_multiplicity
 _atom_site_fract_x
 _atom_site_fract_y
 _atom_site_fract_z
 _atom_site_occupancy
  Pu  Pu0  1  0.562261  0.195142  0.200201  1
  Pu  Pu1  1  0.062261  0.804858  0.299799  1
  Pu  Pu2  1  0.437739  0.804858  0.799799  1
  Pu  Pu3  1  0.937739  0.195142  0.700201  1
  Hg  Hg4  1  0.247053  0.281615  0.906153  1
  Hg  Hg5  1  0.747053  0.718385  0.593847  1
  Hg  Hg6  1  0.752947  0.718385  0.093847  1
  Hg  Hg7  1  0.252947  0.281615  0.406153  1
  F  F8  1  0.708804  0.371725  0.146491  1
  F  F9  1  0.208804  0.628275  0.353509  1
  F  F10  1  0.291196  0.628275  0.853509  1
  F  F11  1  0.791196  0.371725  0.646491  1
  F  F12  1  0.644726  0.066948  0.408474  1
  F  F13  1  0.144726  0.933052  0.091526  1
  F  F14  1  0.355274  0.933052  0.591526  1
  F  F15  1  0.855274  0.066948  0.908474  1
  F  F16  1  0.474932  0.317433  0.987022  1
  F  F17  1  0.974932  0.682567  0.512978  1
  F  F18  1  0.525068  0.682567  0.012978  1
  F  F19  1  0.025068  0.317433  0.487022  1
  F  F20  1  0.411726  0.034858  0.257314  1
  F  F21  1  0.911726  0.965142  0.242686  1
  F  F22  1  0.588274  0.965142  0.742686  1
  F  F23  1  0.088274  0.034858  0.757314  1
  F  F24  1  0.640853  0.000124  0.082358  1
  F  F25  1  0.140853  0.999876  0.417642  1
  F  F26  1  0.359147  0.999876  0.917642  1
  F  F27  1  0.859147  0.000124  0.582358  1
  F  F28  1  0.467036  0.369419  0.327656  1
  F  F29  1  0.967036  0.630581  0.172344  1
  F  F30  1  0.532964  0.630581  0.672344  1
  F  F31  1  0.032964  0.369419  0.827656  1
  F  F32  1  0.205109  0.314495  0.149646  1
  F  F33  1  0.705109  0.685505  0.350354  1
  F  F34  1  0.794891  0.685505  0.850354  1
  F  F35  1  0.294891  0.314495  0.649646  1
