# generated using pymatgen
data_Eu4MgRu
_symmetry_space_group_name_H-M   'P 1'
_cell_length_a   10.30887693
_cell_length_b   10.30887673
_cell_length_c   10.30887600
_cell_angle_alpha   59.99999594
_cell_angle_beta   59.99999657
_cell_angle_gamma   59.99999338
_symmetry_Int_Tables_number   1
_chemical_formula_structural   Eu4MgRu
_chemical_formula_sum   'Eu16 Mg4 Ru4'
_cell_volume   774.67398782
_cell_formula_units_Z   4
loop_
 _symmetry_equiv_pos_site_id
 _symmetry_equiv_pos_as_xyz
  1  'x, y, z'
loop_
 _atom_site_type_symbol
 _atom_site_label
 _atom_site_symmetry_multiplicity
 _atom_site_fract_x
 _atom_site_fract_y
 _atom_site_fract_z
 _atom_site_occupancy
  Eu  Eu0  1  0.799573  0.200427  0.200427  1
  Eu  Eu1  1  0.200427  0.200427  0.799573  1
  Eu  Eu2  1  0.799573  0.799573  0.200427  1
  Eu  Eu3  1  0.200427  0.799573  0.799573  1
  Eu  Eu4  1  0.591591  0.591591  0.225228  1
  Eu  Eu5  1  0.437976  0.062024  0.062024  1
  Eu  Eu6  1  0.062024  0.437976  0.062024  1
  Eu  Eu7  1  0.437976  0.062024  0.437976  1
  Eu  Eu8  1  0.225228  0.591591  0.591591  1
  Eu  Eu9  1  0.062024  0.437976  0.437976  1
  Eu  Eu10  1  0.591591  0.225228  0.591591  1
  Eu  Eu11  1  0.591591  0.591591  0.591591  1
  Eu  Eu12  1  0.200427  0.799573  0.200427  1
  Eu  Eu13  1  0.799573  0.200427  0.799573  1
  Eu  Eu14  1  0.062024  0.062024  0.437976  1
  Eu  Eu15  1  0.437976  0.437976  0.062024  1
  Mg  Mg16  1  0.827137  0.827137  0.827137  1
  Mg  Mg17  1  0.518589  0.827137  0.827137  1
  Mg  Mg18  1  0.827137  0.518589  0.827137  1
  Mg  Mg19  1  0.827137  0.827137  0.518589  1
  Ru  Ru20  1  0.845889  0.384704  0.384704  1
  Ru  Ru21  1  0.384704  0.384704  0.384704  1
  Ru  Ru22  1  0.384704  0.845889  0.384704  1
  Ru  Ru23  1  0.384704  0.384704  0.845889  1
