# generated using pymatgen
data_Tb4Nd4Sc12Si15Au
_symmetry_space_group_name_H-M   'P 1'
_cell_length_a   7.19882040
_cell_length_b   7.44436269
_cell_length_c   14.18210261
_cell_angle_alpha   89.97070904
_cell_angle_beta   89.75590593
_cell_angle_gamma   90.26010882
_symmetry_Int_Tables_number   1
_chemical_formula_structural   Tb4Nd4Sc12Si15Au
_chemical_formula_sum   'Tb4 Nd4 Sc12 Si15 Au1'
_cell_volume   760.01297709
_cell_formula_units_Z   1
loop_
 _symmetry_equiv_pos_site_id
 _symmetry_equiv_pos_as_xyz
  1  'x, y, z'
loop_
 _atom_site_type_symbol
 _atom_site_label
 _atom_site_symmetry_multiplicity
 _atom_site_fract_x
 _atom_site_fract_y
 _atom_site_fract_z
 _atom_site_occupancy
  Tb  Tb0  1  0.512078  0.324433  0.098455  1
  Tb  Tb1  1  0.010488  0.174911  0.398505  1
  Tb  Tb2  1  0.510512  0.324617  0.400415  1
  Tb  Tb3  1  0.490956  0.675878  0.599011  1
  Nd  Nd4  1  0.011952  0.173291  0.098307  1
  Nd  Nd5  1  0.987441  0.827999  0.903526  1
  Nd  Nd6  1  0.487809  0.673592  0.904497  1
  Nd  Nd7  1  0.988379  0.830268  0.596170  1
  Sc  Sc8  1  0.162659  0.499537  0.750537  1
  Sc  Sc9  1  0.837479  0.498996  0.251160  1
  Sc  Sc10  1  0.338634  0.999234  0.249736  1
  Sc  Sc11  1  0.664068  0.998896  0.750753  1
  Sc  Sc12  1  0.339183  0.176808  0.625191  1
  Sc  Sc13  1  0.666478  0.823191  0.373747  1
  Sc  Sc14  1  0.169561  0.671946  0.373536  1
  Sc  Sc15  1  0.670422  0.824316  0.126142  1
  Sc  Sc16  1  0.827216  0.325835  0.623899  1
  Sc  Sc17  1  0.329722  0.175689  0.875581  1
  Sc  Sc18  1  0.829275  0.323588  0.875716  1
  Sc  Sc19  1  0.170029  0.675080  0.125689  1
  Si  Si20  1  0.036495  0.125733  0.750113  1
  Si  Si21  1  0.966072  0.879221  0.250959  1
  Si  Si22  1  0.466584  0.617053  0.248887  1
  Si  Si23  1  0.536192  0.380948  0.751163  1
  Si  Si24  1  0.287944  0.879373  0.749242  1
  Si  Si25  1  0.710248  0.125227  0.250511  1
  Si  Si26  1  0.215873  0.374624  0.249526  1
  Si  Si27  1  0.786430  0.621449  0.750634  1
  Si  Si28  1  0.835474  0.534797  0.457829  1
  Si  Si29  1  0.343322  0.963446  0.459446  1
  Si  Si30  1  0.843931  0.535414  0.040239  1
  Si  Si31  1  0.652743  0.037718  0.536655  1
  Si  Si32  1  0.151842  0.462594  0.961878  1
  Si  Si33  1  0.652224  0.039716  0.962229  1
  Si  Si34  1  0.347982  0.965491  0.040655  1
  Au  Au35  1  0.162303  0.459093  0.539459  1
