# generated using pymatgen
data_Sm4Ga20Ni2Pt9
_symmetry_space_group_name_H-M   'P 1'
_cell_length_a   4.19160123
_cell_length_b   11.13654389
_cell_length_c   13.56506700
_cell_angle_alpha   81.00042342
_cell_angle_beta   81.11222017
_cell_angle_gamma   79.15274944
_symmetry_Int_Tables_number   1
_chemical_formula_structural   Sm4Ga20Ni2Pt9
_chemical_formula_sum   'Sm4 Ga20 Ni2 Pt9'
_cell_volume   609.12046970
_cell_formula_units_Z   1
loop_
 _symmetry_equiv_pos_site_id
 _symmetry_equiv_pos_as_xyz
  1  'x, y, z'
loop_
 _atom_site_type_symbol
 _atom_site_label
 _atom_site_symmetry_multiplicity
 _atom_site_fract_x
 _atom_site_fract_y
 _atom_site_fract_z
 _atom_site_occupancy
  Sm  Sm0  1  0.122395  0.092466  0.662745  1
  Sm  Sm1  1  0.877703  0.906262  0.338331  1
  Sm  Sm2  1  0.775866  0.631022  0.817245  1
  Sm  Sm3  1  0.223528  0.369386  0.183559  1
  Ga  Ga4  1  0.007698  0.072596  0.912009  1
  Ga  Ga5  1  0.993475  0.923626  0.089423  1
  Ga  Ga6  1  0.063326  0.663847  0.209503  1
  Ga  Ga7  1  0.935376  0.331867  0.797380  1
  Ga  Ga8  1  0.104712  0.344268  0.446304  1
  Ga  Ga9  1  0.897832  0.664870  0.539468  1
  Ga  Ga10  1  0.202126  0.601888  0.993858  1
  Ga  Ga11  1  0.797140  0.397703  0.008018  1
  Ga  Ga12  1  0.257815  0.783222  0.701151  1
  Ga  Ga13  1  0.743813  0.214902  0.297470  1
  Ga  Ga14  1  0.300975  0.901125  0.496923  1
  Ga  Ga15  1  0.696876  0.103186  0.503063  1
  Ga  Ga16  1  0.390729  0.526257  0.692286  1
  Ga  Ga17  1  0.606030  0.477053  0.310887  1
  Ga  Ga18  1  0.396991  0.205122  0.000894  1
  Ga  Ga19  1  0.603166  0.792947  0.000723  1
  Ga  Ga20  1  0.542826  0.291651  0.622698  1
  Ga  Ga21  1  0.458555  0.704305  0.378586  1
  Ga  Ga22  1  0.633751  0.938427  0.794071  1
  Ga  Ga23  1  0.366649  0.060149  0.206553  1
  Ni  Ni24  1  0.501077  0.505069  0.492778  1
  Ni  Ni25  1  0.024575  0.566705  0.384145  1
  Pt  Pt26  1  0.975310  0.434623  0.614758  1
  Pt  Pt27  1  0.135961  0.837093  0.890983  1
  Pt  Pt28  1  0.865036  0.160462  0.109467  1
  Pt  Pt29  1  0.240435  0.128050  0.391081  1
  Pt  Pt30  1  0.758982  0.873232  0.608804  1
  Pt  Pt31  1  0.345421  0.418361  0.890798  1
  Pt  Pt32  1  0.653858  0.580550  0.111733  1
  Pt  Pt33  1  0.504188  0.173831  0.817794  1
  Pt  Pt34  1  0.495805  0.823875  0.184514  1
