# generated using pymatgen
data_Ti4GaSi3Mo4
_symmetry_space_group_name_H-M   'P 1'
_cell_length_a   3.35541400
_cell_length_b   6.79106407
_cell_length_c   8.17115417
_cell_angle_alpha   90.44910522
_cell_angle_beta   90.00000000
_cell_angle_gamma   90.00000000
_symmetry_Int_Tables_number   1
_chemical_formula_structural   Ti4GaSi3Mo4
_chemical_formula_sum   'Ti4 Ga1 Si3 Mo4'
_cell_volume   186.18899304
_cell_formula_units_Z   1
loop_
 _symmetry_equiv_pos_site_id
 _symmetry_equiv_pos_as_xyz
  1  'x, y, z'
loop_
 _atom_site_type_symbol
 _atom_site_label
 _atom_site_symmetry_multiplicity
 _atom_site_fract_x
 _atom_site_fract_y
 _atom_site_fract_z
 _atom_site_occupancy
  Ti  Ti0  1  0.250000  0.049654  0.329043  1
  Ti  Ti1  1  0.750000  0.943345  0.667791  1
  Ti  Ti2  1  0.250000  0.546939  0.168251  1
  Ti  Ti3  1  0.750000  0.453466  0.840627  1
  Ga  Ga4  1  0.250000  0.245988  0.639020  1
  Si  Si5  1  0.750000  0.754628  0.360540  1
  Si  Si6  1  0.250000  0.748454  0.860930  1
  Si  Si7  1  0.750000  0.250722  0.138647  1
  Mo  Mo8  1  0.750000  0.372544  0.428003  1
  Mo  Mo9  1  0.250000  0.636802  0.562941  1
  Mo  Mo10  1  0.750000  0.864537  0.065743  1
  Mo  Mo11  1  0.250000  0.132921  0.938464  1
