# generated using pymatgen
data_Gd4Tc2B16MoW
_symmetry_space_group_name_H-M   'P 1'
_cell_length_a   6.02807119
_cell_length_b   11.65641150
_cell_length_c   3.63663500
_cell_angle_alpha   90.00000000
_cell_angle_beta   90.00000000
_cell_angle_gamma   89.94103957
_symmetry_Int_Tables_number   1
_chemical_formula_structural   Gd4Tc2B16MoW
_chemical_formula_sum   'Gd4 Tc2 B16 Mo1 W1'
_cell_volume   255.53048971
_cell_formula_units_Z   1
loop_
 _symmetry_equiv_pos_site_id
 _symmetry_equiv_pos_as_xyz
  1  'x, y, z'
loop_
 _atom_site_type_symbol
 _atom_site_label
 _atom_site_symmetry_multiplicity
 _atom_site_fract_x
 _atom_site_fract_y
 _atom_site_fract_z
 _atom_site_occupancy
  Gd  Gd0  1  0.626736  0.347893  0.000000  1
  Gd  Gd1  1  0.372980  0.652042  0.000000  1
  Gd  Gd2  1  0.127007  0.148298  0.000000  1
  Gd  Gd3  1  0.873073  0.851805  0.000000  1
  Tc  Tc4  1  0.633078  0.085405  0.000000  1
  Tc  Tc5  1  0.367146  0.914360  0.000000  1
  B  B6  1  0.783733  0.183536  0.500000  1
  B  B7  1  0.216286  0.816525  0.500000  1
  B  B8  1  0.287693  0.313370  0.500000  1
  B  B9  1  0.711820  0.687004  0.500000  1
  B  B10  1  0.862316  0.031100  0.500000  1
  B  B11  1  0.137689  0.968851  0.500000  1
  B  B12  1  0.365841  0.467360  0.500000  1
  B  B13  1  0.633772  0.532390  0.500000  1
  B  B14  1  0.886080  0.452771  0.500000  1
  B  B15  1  0.114366  0.546974  0.500000  1
  B  B16  1  0.387786  0.046519  0.500000  1
  B  B17  1  0.612186  0.953408  0.500000  1
  B  B18  1  0.975979  0.306229  0.500000  1
  B  B19  1  0.024628  0.693864  0.500000  1
  B  B20  1  0.477264  0.190308  0.500000  1
  B  B21  1  0.522561  0.809724  0.500000  1
  Mo  Mo22  1  0.129284  0.415297  0.000000  1
  W  W23  1  0.870695  0.584966  0.000000  1
