# generated using pymatgen
data_Dy3HoCd3Co2
_symmetry_space_group_name_H-M   'P 1'
_cell_length_a   3.69811900
_cell_length_b   7.36523359
_cell_length_c   7.95034892
_cell_angle_alpha   71.06988061
_cell_angle_beta   90.00000000
_cell_angle_gamma   90.00000000
_symmetry_Int_Tables_number   1
_chemical_formula_structural   Dy3HoCd3Co2
_chemical_formula_sum   'Dy3 Ho1 Cd3 Co2'
_cell_volume   204.83571691
_cell_formula_units_Z   1
loop_
 _symmetry_equiv_pos_site_id
 _symmetry_equiv_pos_as_xyz
  1  'x, y, z'
loop_
 _atom_site_type_symbol
 _atom_site_label
 _atom_site_symmetry_multiplicity
 _atom_site_fract_x
 _atom_site_fract_y
 _atom_site_fract_z
 _atom_site_occupancy
  Dy  Dy0  1  0.500000  0.095623  0.775630  1
  Dy  Dy1  1  0.500000  0.397748  0.311756  1
  Dy  Dy2  1  0.500000  0.602545  0.688044  1
  Ho  Ho3  1  0.500000  0.903941  0.224821  1
  Cd  Cd4  1  0.000000  0.706055  0.002364  1
  Cd  Cd5  1  0.000000  0.293970  0.998063  1
  Cd  Cd6  1  0.000000  0.999878  0.499568  1
  Co  Co7  1  0.000000  0.648971  0.396511  1
  Co  Co8  1  0.000000  0.351270  0.603243  1
