# generated using pymatgen
data_Np2Al16OsPt8
_symmetry_space_group_name_H-M   'P 1'
_cell_length_a   11.18626671
_cell_length_b   11.18626689
_cell_length_c   11.18640800
_cell_angle_alpha   158.38571628
_cell_angle_beta   116.65921390
_cell_angle_gamma   67.76631757
_symmetry_Int_Tables_number   1
_chemical_formula_structural   Np2Al16OsPt8
_chemical_formula_sum   'Np2 Al16 Os1 Pt8'
_cell_volume   457.60098705
_cell_formula_units_Z   1
loop_
 _symmetry_equiv_pos_site_id
 _symmetry_equiv_pos_as_xyz
  1  'x, y, z'
loop_
 _atom_site_type_symbol
 _atom_site_label
 _atom_site_symmetry_multiplicity
 _atom_site_fract_x
 _atom_site_fract_y
 _atom_site_fract_z
 _atom_site_occupancy
  Np  Np0  1  0.230200  0.229868  0.000491  1
  Np  Np1  1  0.770622  0.770289  0.000491  1
  Al  Al2  1  0.275805  0.391606  0.884506  1
  Al  Al3  1  0.089330  0.924241  0.165006  1
  Al  Al4  1  0.506461  0.200608  0.305649  1
  Al  Al5  1  0.240766  0.075676  0.165006  1
  Al  Al6  1  0.908627  0.416265  0.492457  1
  Al  Al7  1  0.725692  0.601085  0.124318  1
  Al  Al8  1  0.900523  0.208673  0.692082  1
  Al  Al9  1  0.483411  0.791559  0.692082  1
  Al  Al10  1  0.389424  0.999968  0.389392  1
  Al  Al11  1  0.626509  0.000115  0.626624  1
  Al  Al12  1  0.492901  0.608701  0.884506  1
  Al  Al13  1  0.105041  0.799187  0.305649  1
  Al  Al14  1  0.904799  0.084787  0.820101  1
  Al  Al15  1  0.735316  0.915303  0.820101  1
  Al  Al16  1  0.523232  0.398626  0.124318  1
  Al  Al17  1  0.076192  0.583831  0.492457  1
  Os  Os18  1  0.775905  0.500049  0.275954  1
  Pt  Pt19  1  0.025359  0.343409  0.681664  1
  Pt  Pt20  1  0.629206  0.125219  0.503794  1
  Pt  Pt21  1  0.256953  0.500061  0.757013  1
  Pt  Pt22  1  0.378576  0.874589  0.503794  1
  Pt  Pt23  1  0.983455  0.999955  0.983410  1
  Pt  Pt24  1  0.648917  0.335209  0.313733  1
  Pt  Pt25  1  0.338256  0.656305  0.681664  1
  Pt  Pt26  1  0.978524  0.664817  0.313733  1
