# generated using pymatgen
data_LaPr2Cu4(As2O)2
_symmetry_space_group_name_H-M   'P 1'
_cell_length_a   4.11252920
_cell_length_b   4.11252675
_cell_length_c   14.29576191
_cell_angle_alpha   98.38367908
_cell_angle_beta   98.38363156
_cell_angle_gamma   89.90092997
_symmetry_Int_Tables_number   1
_chemical_formula_structural   LaPr2Cu4(As2O)2
_chemical_formula_sum   'La1 Pr2 Cu4 As4 O2'
_cell_volume   236.59570112
_cell_formula_units_Z   1
loop_
 _symmetry_equiv_pos_site_id
 _symmetry_equiv_pos_as_xyz
  1  'x, y, z'
loop_
 _atom_site_type_symbol
 _atom_site_label
 _atom_site_symmetry_multiplicity
 _atom_site_fract_x
 _atom_site_fract_y
 _atom_site_fract_z
 _atom_site_occupancy
  La  La0  1  0.292785  0.292785  0.584200  1
  Pr  Pr1  1  0.000636  0.000636  0.000922  1
  Pr  Pr2  1  0.704617  0.704617  0.412511  1
  Cu  Cu3  1  0.595017  0.101049  0.194810  1
  Cu  Cu4  1  0.101049  0.595016  0.194809  1
  Cu  Cu5  1  0.899682  0.406947  0.806849  1
  Cu  Cu6  1  0.406946  0.899681  0.806848  1
  As  As7  1  0.548937  0.548937  0.092108  1
  As  As8  1  0.143407  0.143407  0.290121  1
  As  As9  1  0.857603  0.857603  0.711499  1
  As  As10  1  0.451705  0.451705  0.908600  1
  O  O11  1  0.748762  0.248860  0.498362  1
  O  O12  1  0.248859  0.748762  0.498362  1
