# generated using pymatgen
data_Dy8Er2Rh5Au
_symmetry_space_group_name_H-M   'P 1'
_cell_length_a   11.01234582
_cell_length_b   10.96218400
_cell_length_c   6.31927800
_cell_angle_alpha   90.00000000
_cell_angle_beta   89.85385649
_cell_angle_gamma   90.00000000
_symmetry_Int_Tables_number   1
_chemical_formula_structural   Dy8Er2Rh5Au
_chemical_formula_sum   'Dy16 Er4 Rh10 Au2'
_cell_volume   762.85672173
_cell_formula_units_Z   2
loop_
 _symmetry_equiv_pos_site_id
 _symmetry_equiv_pos_as_xyz
  1  'x, y, z'
loop_
 _atom_site_type_symbol
 _atom_site_label
 _atom_site_symmetry_multiplicity
 _atom_site_fract_x
 _atom_site_fract_y
 _atom_site_fract_z
 _atom_site_occupancy
  Dy  Dy0  1  0.291050  0.088812  0.372671  1
  Dy  Dy1  1  0.291050  0.911188  0.872671  1
  Dy  Dy2  1  0.700257  0.091546  0.866272  1
  Dy  Dy3  1  0.700257  0.908454  0.366272  1
  Dy  Dy4  1  0.579831  0.788632  0.877117  1
  Dy  Dy5  1  0.579831  0.211368  0.377117  1
  Dy  Dy6  1  0.408430  0.789560  0.377482  1
  Dy  Dy7  1  0.408430  0.210440  0.877482  1
  Dy  Dy8  1  0.210694  0.410836  0.620923  1
  Dy  Dy9  1  0.210694  0.589164  0.120923  1
  Dy  Dy10  1  0.788758  0.417863  0.123044  1
  Dy  Dy11  1  0.788758  0.582137  0.623044  1
  Dy  Dy12  1  0.916306  0.706503  0.137633  1
  Dy  Dy13  1  0.916306  0.293497  0.637633  1
  Dy  Dy14  1  0.095175  0.704607  0.623942  1
  Dy  Dy15  1  0.095175  0.295393  0.123942  1
  Er  Er16  1  0.008640  0.998320  0.499853  1
  Er  Er17  1  0.008640  0.001680  0.999853  1
  Er  Er18  1  0.499643  0.498811  0.000686  1
  Er  Er19  1  0.499643  0.501189  0.500686  1
  Rh  Rh20  1  0.153554  0.153408  0.750436  1
  Rh  Rh21  1  0.153554  0.846592  0.250436  1
  Rh  Rh22  1  0.655017  0.346470  0.748455  1
  Rh  Rh23  1  0.655017  0.653530  0.248455  1
  Rh  Rh24  1  0.347567  0.346475  0.251443  1
  Rh  Rh25  1  0.347567  0.653525  0.751443  1
  Rh  Rh26  1  0.499636  0.999790  0.121744  1
  Rh  Rh27  1  0.499636  0.000210  0.621744  1
  Rh  Rh28  1  0.999810  0.500895  0.878401  1
  Rh  Rh29  1  0.999810  0.499105  0.378401  1
  Au  Au30  1  0.845632  0.154185  0.249899  1
  Au  Au31  1  0.845632  0.845815  0.749899  1
