# generated using pymatgen
data_LaTb4(Pr5Ir4)3
_symmetry_space_group_name_H-M   'P 1'
_cell_length_a   11.25948987
_cell_length_b   11.26524804
_cell_length_c   6.58801578
_cell_angle_alpha   89.99898309
_cell_angle_beta   89.89425306
_cell_angle_gamma   89.91582909
_symmetry_Int_Tables_number   1
_chemical_formula_structural   LaTb4(Pr5Ir4)3
_chemical_formula_sum   'La1 Tb4 Pr15 Ir12'
_cell_volume   835.62783036
_cell_formula_units_Z   1
loop_
 _symmetry_equiv_pos_site_id
 _symmetry_equiv_pos_as_xyz
  1  'x, y, z'
loop_
 _atom_site_type_symbol
 _atom_site_label
 _atom_site_symmetry_multiplicity
 _atom_site_fract_x
 _atom_site_fract_y
 _atom_site_fract_z
 _atom_site_occupancy
  La  La0  1  0.289573  0.088710  0.385132  1
  Tb  Tb1  1  0.999139  0.999401  0.500032  1
  Tb  Tb2  1  0.999951  0.000244  0.999481  1
  Tb  Tb3  1  0.500022  0.500000  0.000460  1
  Tb  Tb4  1  0.500390  0.499859  0.500224  1
  Pr  Pr5  1  0.289452  0.910810  0.883168  1
  Pr  Pr6  1  0.710224  0.088292  0.883385  1
  Pr  Pr7  1  0.710419  0.911644  0.383126  1
  Pr  Pr8  1  0.588112  0.789733  0.883141  1
  Pr  Pr9  1  0.589606  0.210983  0.382969  1
  Pr  Pr10  1  0.411859  0.788380  0.382558  1
  Pr  Pr11  1  0.412371  0.211024  0.883498  1
  Pr  Pr12  1  0.210528  0.412232  0.617357  1
  Pr  Pr13  1  0.210572  0.588242  0.116985  1
  Pr  Pr14  1  0.789368  0.411919  0.116517  1
  Pr  Pr15  1  0.789426  0.588254  0.616748  1
  Pr  Pr16  1  0.911676  0.710608  0.117073  1
  Pr  Pr17  1  0.911452  0.289361  0.616130  1
  Pr  Pr18  1  0.088294  0.710605  0.616975  1
  Pr  Pr19  1  0.088020  0.289757  0.115645  1
  Ir  Ir20  1  0.851494  0.148429  0.249624  1
  Ir  Ir21  1  0.851273  0.851639  0.750533  1
  Ir  Ir22  1  0.149556  0.147906  0.748047  1
  Ir  Ir23  1  0.148186  0.851273  0.249669  1
  Ir  Ir24  1  0.648698  0.351782  0.750073  1
  Ir  Ir25  1  0.648283  0.648696  0.249622  1
  Ir  Ir26  1  0.351516  0.351522  0.250664  1
  Ir  Ir27  1  0.351720  0.648365  0.750210  1
  Ir  Ir28  1  0.498950  0.000439  0.119846  1
  Ir  Ir29  1  0.499909  0.999886  0.617517  1
  Ir  Ir30  1  0.000095  0.499795  0.881897  1
  Ir  Ir31  1  0.999864  0.500207  0.381696  1
