# generated using pymatgen
data_YTm3Co7Si12Ni13
_symmetry_space_group_name_H-M   'P 1'
_cell_length_a   3.70870900
_cell_length_b   18.37453738
_cell_length_c   6.78292193
_cell_angle_alpha   90.10107109
_cell_angle_beta   90.00000000
_cell_angle_gamma   90.00000000
_symmetry_Int_Tables_number   1
_chemical_formula_structural   YTm3Co7Si12Ni13
_chemical_formula_sum   'Y1 Tm3 Co7 Si12 Ni13'
_cell_volume   462.22700423
_cell_formula_units_Z   1
loop_
 _symmetry_equiv_pos_site_id
 _symmetry_equiv_pos_as_xyz
  1  'x, y, z'
loop_
 _atom_site_type_symbol
 _atom_site_label
 _atom_site_symmetry_multiplicity
 _atom_site_fract_x
 _atom_site_fract_y
 _atom_site_fract_z
 _atom_site_occupancy
  Y  Y0  1  0.750000  0.642425  0.123859  1
  Tm  Tm1  1  0.250000  0.356711  0.882221  1
  Tm  Tm2  1  0.250000  0.857054  0.618863  1
  Tm  Tm3  1  0.750000  0.142456  0.376282  1
  Co  Co4  1  0.750000  0.799587  0.317014  1
  Co  Co5  1  0.750000  0.299251  0.183989  1
  Co  Co6  1  0.750000  0.995675  0.630026  1
  Co  Co7  1  0.750000  0.494954  0.868124  1
  Co  Co8  1  0.750000  0.508668  0.383101  1
  Co  Co9  1  0.750000  0.009081  0.118676  1
  Co  Co10  1  0.750000  0.795678  0.936275  1
  Si  Si11  1  0.750000  0.740382  0.625010  1
  Si  Si12  1  0.250000  0.263285  0.371392  1
  Si  Si13  1  0.250000  0.764439  0.126165  1
  Si  Si14  1  0.750000  0.238825  0.879668  1
  Si  Si15  1  0.750000  0.924902  0.353107  1
  Si  Si16  1  0.250000  0.074945  0.650845  1
  Si  Si17  1  0.250000  0.574644  0.846404  1
  Si  Si18  1  0.750000  0.425275  0.146106  1
  Si  Si19  1  0.750000  0.916304  0.902579  1
  Si  Si20  1  0.250000  0.081263  0.092142  1
  Si  Si21  1  0.250000  0.581366  0.411724  1
  Si  Si22  1  0.750000  0.415340  0.595568  1
  Ni  Ni23  1  0.250000  0.200737  0.681120  1
  Ni  Ni24  1  0.250000  0.702153  0.817266  1
  Ni  Ni25  1  0.250000  0.005611  0.370909  1
  Ni  Ni26  1  0.250000  0.505797  0.128501  1
  Ni  Ni27  1  0.250000  0.485856  0.622589  1
  Ni  Ni28  1  0.250000  0.987457  0.876816  1
  Ni  Ni29  1  0.250000  0.204546  0.066534  1
  Ni  Ni30  1  0.250000  0.705606  0.433974  1
  Ni  Ni31  1  0.750000  0.293372  0.568371  1
  Ni  Ni32  1  0.750000  0.615084  0.638934  1
  Ni  Ni33  1  0.250000  0.388488  0.354857  1
  Ni  Ni34  1  0.250000  0.888667  0.139615  1
  Ni  Ni35  1  0.750000  0.114113  0.861370  1
