# generated using pymatgen
data_CsGa11O17
_symmetry_space_group_name_H-M   'P 1'
_cell_length_a   12.57986554
_cell_length_b   12.57986583
_cell_length_c   12.57986539
_cell_angle_alpha   27.21906433
_cell_angle_beta   27.21906129
_cell_angle_gamma   27.21905926
_symmetry_Int_Tables_number   1
_chemical_formula_structural   CsGa11O17
_chemical_formula_sum   'Cs1 Ga11 O17'
_cell_volume   367.47116838
_cell_formula_units_Z   1
loop_
 _symmetry_equiv_pos_site_id
 _symmetry_equiv_pos_as_xyz
  1  'x, y, z'
loop_
 _atom_site_type_symbol
 _atom_site_label
 _atom_site_symmetry_multiplicity
 _atom_site_fract_x
 _atom_site_fract_y
 _atom_site_fract_z
 _atom_site_occupancy
  Cs  Cs0  1  0.169019  0.169019  0.169019  1
  Ga  Ga1  1  0.900935  0.408472  0.900935  1
  Ga  Ga2  1  0.000352  0.000352  0.000352  1
  Ga  Ga3  1  0.900935  0.900935  0.408472  1
  Ga  Ga4  1  0.408472  0.900935  0.900935  1
  Ga  Ga5  1  0.550252  0.550252  0.550252  1
  Ga  Ga6  1  0.650487  0.650487  0.650487  1
  Ga  Ga7  1  0.449880  0.449880  0.449880  1
  Ga  Ga8  1  0.349463  0.349463  0.349463  1
  Ga  Ga9  1  0.595723  0.097461  0.097461  1
  Ga  Ga10  1  0.097461  0.097461  0.595723  1
  Ga  Ga11  1  0.097461  0.595723  0.097461  1
  O  O12  1  0.703614  0.703614  0.703614  1
  O  O13  1  0.906889  0.906889  0.906889  1
  O  O14  1  0.717562  0.190441  0.190441  1
  O  O15  1  0.810014  0.281605  0.810014  1
  O  O16  1  0.909147  0.401634  0.401634  1
  O  O17  1  0.599095  0.090848  0.599095  1
  O  O18  1  0.401634  0.401634  0.909147  1
  O  O19  1  0.810014  0.810014  0.281605  1
  O  O20  1  0.190441  0.190441  0.717562  1
  O  O21  1  0.500138  0.500138  0.500138  1
  O  O22  1  0.599095  0.599095  0.090848  1
  O  O23  1  0.090848  0.599095  0.599095  1
  O  O24  1  0.401634  0.909147  0.401634  1
  O  O25  1  0.190441  0.717562  0.190441  1
  O  O26  1  0.281605  0.810014  0.810014  1
  O  O27  1  0.296301  0.296301  0.296301  1
  O  O28  1  0.091768  0.091768  0.091768  1
