# generated using pymatgen
data_Tm2Th(CoSn)3
_symmetry_space_group_name_H-M   'P 1'
_cell_length_a   7.41175500
_cell_length_b   7.21734632
_cell_length_c   3.90258100
_cell_angle_alpha   90.00000000
_cell_angle_beta   90.00000000
_cell_angle_gamma   120.89512384
_symmetry_Int_Tables_number   1
_chemical_formula_structural   Tm2Th(CoSn)3
_chemical_formula_sum   'Tm2 Th1 Co3 Sn3'
_cell_volume   179.14008843
_cell_formula_units_Z   1
loop_
 _symmetry_equiv_pos_site_id
 _symmetry_equiv_pos_as_xyz
  1  'x, y, z'
loop_
 _atom_site_type_symbol
 _atom_site_label
 _atom_site_symmetry_multiplicity
 _atom_site_fract_x
 _atom_site_fract_y
 _atom_site_fract_z
 _atom_site_occupancy
  Tm  Tm0  1  0.998127  0.592757  0.500000  1
  Tm  Tm1  1  0.405369  0.407243  0.500000  1
  Th  Th2  1  0.582725  0.000000  0.500000  1
  Co  Co3  1  0.353026  0.686732  0.000000  1
  Co  Co4  1  0.995015  0.000000  0.500000  1
  Co  Co5  1  0.666295  0.313268  0.000000  1
  Sn  Sn6  1  0.744999  0.732432  0.000000  1
  Sn  Sn7  1  0.012567  0.267568  0.000000  1
  Sn  Sn8  1  0.241877  0.000000  0.000000  1
