# generated using pymatgen
data_Er17Lu3Pb16
_symmetry_space_group_name_H-M   'P 1'
_cell_length_a   8.13569245
_cell_length_b   8.20583845
_cell_length_c   15.51477800
_cell_angle_alpha   90.00000000
_cell_angle_beta   90.00000000
_cell_angle_gamma   89.96206341
_symmetry_Int_Tables_number   1
_chemical_formula_structural   Er17Lu3Pb16
_chemical_formula_sum   'Er17 Lu3 Pb16'
_cell_volume   1035.76911211
_cell_formula_units_Z   1
loop_
 _symmetry_equiv_pos_site_id
 _symmetry_equiv_pos_as_xyz
  1  'x, y, z'
loop_
 _atom_site_type_symbol
 _atom_site_label
 _atom_site_symmetry_multiplicity
 _atom_site_fract_x
 _atom_site_fract_y
 _atom_site_fract_z
 _atom_site_occupancy
  Er  Er0  1  0.377653  0.840426  0.879381  1
  Er  Er1  1  0.877605  0.659580  0.620571  1
  Er  Er2  1  0.622617  0.159755  0.379498  1
  Er  Er3  1  0.122201  0.340515  0.120513  1
  Er  Er4  1  0.622617  0.159755  0.120502  1
  Er  Er5  1  0.122201  0.340515  0.379487  1
  Er  Er6  1  0.377653  0.840426  0.620619  1
  Er  Er7  1  0.877605  0.659580  0.879429  1
  Er  Er8  1  0.534971  0.323135  0.900012  1
  Er  Er9  1  0.034995  0.176860  0.600016  1
  Er  Er10  1  0.465111  0.676740  0.400047  1
  Er  Er11  1  0.964921  0.823048  0.099929  1
  Er  Er12  1  0.465111  0.676740  0.099953  1
  Er  Er13  1  0.964921  0.823048  0.400071  1
  Er  Er14  1  0.534971  0.323135  0.599988  1
  Er  Er15  1  0.034995  0.176860  0.899984  1
  Er  Er16  1  0.291499  0.003850  0.250000  1
  Lu  Lu17  1  0.208677  0.503864  0.750000  1
  Lu  Lu18  1  0.708648  0.996028  0.750000  1
  Lu  Lu19  1  0.791295  0.496028  0.250000  1
  Pb  Pb20  1  0.280688  0.032327  0.042365  1
  Pb  Pb21  1  0.780741  0.467660  0.457411  1
  Pb  Pb22  1  0.719225  0.967739  0.542635  1
  Pb  Pb23  1  0.219315  0.532311  0.957364  1
  Pb  Pb24  1  0.719225  0.967739  0.957365  1
  Pb  Pb25  1  0.219315  0.532311  0.542636  1
  Pb  Pb26  1  0.280688  0.032327  0.457635  1
  Pb  Pb27  1  0.780741  0.467660  0.042589  1
  Pb  Pb28  1  0.571527  0.627018  0.750000  1
  Pb  Pb29  1  0.071536  0.872916  0.750000  1
  Pb  Pb30  1  0.428591  0.373297  0.250000  1
  Pb  Pb31  1  0.927949  0.127287  0.250000  1
  Pb  Pb32  1  0.346898  0.153279  0.750000  1
  Pb  Pb33  1  0.846884  0.346896  0.750000  1
  Pb  Pb34  1  0.653304  0.846824  0.250000  1
  Pb  Pb35  1  0.153106  0.652520  0.250000  1
