# generated using pymatgen
data_K2Cr(Si2O5)2
_symmetry_space_group_name_H-M   'P 1'
_cell_length_a   7.22421776
_cell_length_b   8.25896408
_cell_length_c   10.23088483
_cell_angle_alpha   104.00130041
_cell_angle_beta   102.84100423
_cell_angle_gamma   112.64606827
_symmetry_Int_Tables_number   1
_chemical_formula_structural   K2Cr(Si2O5)2
_chemical_formula_sum   'K4 Cr2 Si8 O20'
_cell_volume   511.59269417
_cell_formula_units_Z   2
loop_
 _symmetry_equiv_pos_site_id
 _symmetry_equiv_pos_as_xyz
  1  'x, y, z'
loop_
 _atom_site_type_symbol
 _atom_site_label
 _atom_site_symmetry_multiplicity
 _atom_site_fract_x
 _atom_site_fract_y
 _atom_site_fract_z
 _atom_site_occupancy
  K  K0  1  0.670416  0.797014  0.991344  1
  K  K1  1  0.727401  0.247134  0.414700  1
  K  K2  1  0.272599  0.752866  0.585300  1
  K  K3  1  0.329584  0.202986  0.008656  1
  Cr  Cr4  1  0.757233  0.721108  0.580387  1
  Cr  Cr5  1  0.242767  0.278892  0.419613  1
  Si  Si6  1  0.056574  0.686686  0.857363  1
  Si  Si7  1  0.943426  0.313314  0.142637  1
  Si  Si8  1  0.220071  0.900962  0.197121  1
  Si  Si9  1  0.779929  0.099038  0.802879  1
  Si  Si10  1  0.409103  0.638068  0.263848  1
  Si  Si11  1  0.181310  0.377897  0.742794  1
  Si  Si12  1  0.818690  0.622103  0.257206  1
  Si  Si13  1  0.590897  0.361932  0.736152  1
  O  O14  1  0.991751  0.783821  0.217060  1
  O  O15  1  0.008249  0.216179  0.782940  1
  O  O16  1  0.823182  0.535364  0.853641  1
  O  O17  1  0.176818  0.464636  0.146359  1
  O  O18  1  0.586972  0.622793  0.188601  1
  O  O19  1  0.413028  0.377207  0.811399  1
  O  O20  1  0.213915  0.584994  0.842782  1
  O  O21  1  0.786085  0.415006  0.157218  1
  O  O22  1  0.879909  0.650350  0.423355  1
  O  O23  1  0.120091  0.349650  0.576645  1
  O  O24  1  0.463373  0.626430  0.420436  1
  O  O25  1  0.536627  0.373570  0.579564  1
  O  O26  1  0.034161  0.782494  0.740922  1
  O  O27  1  0.965839  0.217506  0.259078  1
  O  O28  1  0.824651  0.153664  0.977745  1
  O  O29  1  0.175349  0.846336  0.022255  1
  O  O30  1  0.601258  0.164568  0.735472  1
  O  O31  1  0.398742  0.835432  0.264528  1
  O  O32  1  0.317050  0.124405  0.266987  1
  O  O33  1  0.682950  0.875595  0.733013  1
