# generated using pymatgen
data_Tb3DyTh(FeB3)2
_symmetry_space_group_name_H-M   'P 1'
_cell_length_a   5.43922174
_cell_length_b   5.43922092
_cell_length_c   8.17517438
_cell_angle_alpha   70.56926453
_cell_angle_beta   70.56926904
_cell_angle_gamma   59.99998423
_symmetry_Int_Tables_number   1
_chemical_formula_structural   Tb3DyTh(FeB3)2
_chemical_formula_sum   'Tb3 Dy1 Th1 Fe2 B6'
_cell_volume   193.38993480
_cell_formula_units_Z   1
loop_
 _symmetry_equiv_pos_site_id
 _symmetry_equiv_pos_as_xyz
  1  'x, y, z'
loop_
 _atom_site_type_symbol
 _atom_site_label
 _atom_site_symmetry_multiplicity
 _atom_site_fract_x
 _atom_site_fract_y
 _atom_site_fract_z
 _atom_site_occupancy
  Tb  Tb0  1  0.251876  0.251876  0.244372  1
  Tb  Tb1  1  0.748128  0.748128  0.755615  1
  Tb  Tb2  1  0.415234  0.415234  0.754298  1
  Dy  Dy3  1  0.584442  0.584442  0.246674  1
  Th  Th4  1  0.999901  0.999901  0.000297  1
  Fe  Fe5  1  0.112830  0.112830  0.661510  1
  Fe  Fe6  1  0.887214  0.887214  0.338357  1
  B  B7  1  0.167505  0.832674  0.499813  1
  B  B8  1  0.832674  0.500008  0.499813  1
  B  B9  1  0.500008  0.167505  0.499813  1
  B  B10  1  0.167505  0.500008  0.499813  1
  B  B11  1  0.500008  0.832674  0.499813  1
  B  B12  1  0.832674  0.167505  0.499813  1
