# generated using pymatgen
data_Nd3ZnPdPt3O14
_symmetry_space_group_name_H-M   'P 1'
_cell_length_a   7.44002915
_cell_length_b   7.26212536
_cell_length_c   7.44002900
_cell_angle_alpha   59.18626239
_cell_angle_beta   59.99999621
_cell_angle_gamma   59.18625839
_symmetry_Int_Tables_number   1
_chemical_formula_structural   Nd3ZnPdPt3O14
_chemical_formula_sum   'Nd3 Zn1 Pd1 Pt3 O14'
_cell_volume   280.70189794
_cell_formula_units_Z   1
loop_
 _symmetry_equiv_pos_site_id
 _symmetry_equiv_pos_as_xyz
  1  'x, y, z'
loop_
 _atom_site_type_symbol
 _atom_site_label
 _atom_site_symmetry_multiplicity
 _atom_site_fract_x
 _atom_site_fract_y
 _atom_site_fract_z
 _atom_site_occupancy
  Nd  Nd0  1  0.625000  0.625000  0.125000  1
  Nd  Nd1  1  0.125000  0.625000  0.625000  1
  Nd  Nd2  1  0.625000  0.625000  0.625000  1
  Zn  Zn3  1  0.625000  0.125000  0.625000  1
  Pd  Pd4  1  0.125000  0.625000  0.125000  1
  Pt  Pt5  1  0.125000  0.125000  0.625000  1
  Pt  Pt6  1  0.625000  0.125000  0.125000  1
  Pt  Pt7  1  0.125000  0.125000  0.125000  1
  O  O8  1  0.513119  0.460642  0.513119  1
  O  O9  1  0.736881  0.789358  0.736881  1
  O  O10  1  0.453719  0.047777  0.453719  1
  O  O11  1  0.214088  0.784278  0.214088  1
  O  O12  1  0.462455  0.465722  0.035912  1
  O  O13  1  0.035912  0.465722  0.462455  1
  O  O14  1  0.453719  0.047777  0.044786  1
  O  O15  1  0.044786  0.047777  0.453719  1
  O  O16  1  0.035912  0.465722  0.035912  1
  O  O17  1  0.796281  0.202223  0.205214  1
  O  O18  1  0.214088  0.784278  0.787545  1
  O  O19  1  0.796281  0.202223  0.796281  1
  O  O20  1  0.205214  0.202223  0.796281  1
  O  O21  1  0.787545  0.784278  0.214088  1
