# generated using pymatgen
data_Tb6Er6TcRu3
_symmetry_space_group_name_H-M   'P 1'
_cell_length_a   6.27971246
_cell_length_b   7.32476696
_cell_length_c   9.15568514
_cell_angle_alpha   90.05607235
_cell_angle_beta   90.29415157
_cell_angle_gamma   90.01696078
_symmetry_Int_Tables_number   1
_chemical_formula_structural   Tb6Er6TcRu3
_chemical_formula_sum   'Tb6 Er6 Tc1 Ru3'
_cell_volume   421.13221863
_cell_formula_units_Z   1
loop_
 _symmetry_equiv_pos_site_id
 _symmetry_equiv_pos_as_xyz
  1  'x, y, z'
loop_
 _atom_site_type_symbol
 _atom_site_label
 _atom_site_symmetry_multiplicity
 _atom_site_fract_x
 _atom_site_fract_y
 _atom_site_fract_z
 _atom_site_occupancy
  Tb  Tb0  1  0.333369  0.677171  0.064781  1
  Tb  Tb1  1  0.166941  0.177177  0.435351  1
  Tb  Tb2  1  0.867869  0.539701  0.250225  1
  Tb  Tb3  1  0.627875  0.041532  0.249669  1
  Tb  Tb4  1  0.132586  0.457870  0.749779  1
  Tb  Tb5  1  0.368217  0.958242  0.750114  1
  Er  Er6  1  0.667182  0.323681  0.564906  1
  Er  Er7  1  0.835353  0.824587  0.936675  1
  Er  Er8  1  0.667521  0.323148  0.934545  1
  Er  Er9  1  0.835389  0.824036  0.563932  1
  Er  Er10  1  0.334674  0.675817  0.435984  1
  Er  Er11  1  0.166026  0.176304  0.063573  1
  Tc  Tc12  1  0.038431  0.886205  0.250597  1
  Ru  Ru13  1  0.459463  0.385498  0.249676  1
  Ru  Ru14  1  0.955990  0.115197  0.752842  1
  Ru  Ru15  1  0.543113  0.613832  0.747353  1
