# generated using pymatgen
data_Sr2CrFe5(PO4)6
_symmetry_space_group_name_H-M   'P 1'
_cell_length_a   6.62825702
_cell_length_b   9.22705623
_cell_length_c   9.21984665
_cell_angle_alpha   94.70049416
_cell_angle_beta   111.00410874
_cell_angle_gamma   111.11573102
_symmetry_Int_Tables_number   1
_chemical_formula_structural   Sr2CrFe5(PO4)6
_chemical_formula_sum   'Sr2 Cr1 Fe5 P6 O24'
_cell_volume   476.42424785
_cell_formula_units_Z   1
loop_
 _symmetry_equiv_pos_site_id
 _symmetry_equiv_pos_as_xyz
  1  'x, y, z'
loop_
 _atom_site_type_symbol
 _atom_site_label
 _atom_site_symmetry_multiplicity
 _atom_site_fract_x
 _atom_site_fract_y
 _atom_site_fract_z
 _atom_site_occupancy
  Sr  Sr0  1  0.399937  0.750362  0.249632  1
  Sr  Sr1  1  0.600064  0.249639  0.750369  1
  Cr  Cr2  1  0.000000  0.000000  0.000000  1
  Fe  Fe3  1  0.500547  0.382447  0.118181  1
  Fe  Fe4  1  0.000000  0.118113  0.382454  1
  Fe  Fe5  1  0.000000  0.500001  0.500001  1
  Fe  Fe6  1  0.000000  0.881885  0.617545  1
  Fe  Fe7  1  0.499451  0.617552  0.881817  1
  P  P8  1  0.000389  0.323718  0.175749  1
  P  P9  1  0.904926  0.751390  0.248618  1
  P  P10  1  0.499070  0.175743  0.323752  1
  P  P11  1  0.500928  0.824256  0.676246  1
  P  P12  1  0.095075  0.248611  0.751383  1
  P  P13  1  0.999611  0.676280  0.824250  1
  O  O14  1  0.778005  0.346338  0.073251  1
  O  O15  1  0.644242  0.634554  0.133461  1
  O  O16  1  0.341941  0.140214  0.137920  1
  O  O17  1  0.936080  0.137883  0.140192  1
  O  O18  1  0.222772  0.427076  0.153362  1
  O  O19  1  0.040057  0.844982  0.155032  1
  O  O20  1  0.042255  0.659173  0.340868  1
  O  O21  1  0.641567  0.073246  0.346315  1
  O  O22  1  0.658014  0.361771  0.360980  1
  O  O23  1  0.064702  0.360966  0.361776  1
  O  O24  1  0.876152  0.866529  0.365411  1
  O  O25  1  0.357684  0.153325  0.427128  1
  O  O26  1  0.642316  0.846676  0.572872  1
  O  O27  1  0.123848  0.133471  0.634589  1
  O  O28  1  0.935299  0.639035  0.638225  1
  O  O29  1  0.341987  0.638230  0.639021  1
  O  O30  1  0.358433  0.926754  0.653685  1
  O  O31  1  0.957746  0.340828  0.659133  1
  O  O32  1  0.959944  0.155019  0.844969  1
  O  O33  1  0.777228  0.572924  0.846639  1
  O  O34  1  0.063920  0.862118  0.859809  1
  O  O35  1  0.658059  0.859787  0.862081  1
  O  O36  1  0.355758  0.365446  0.866539  1
  O  O37  1  0.221995  0.653662  0.926749  1
