# generated using pymatgen
data_Nd4Zn4Ir2PtRh
_symmetry_space_group_name_H-M   'P 1'
_cell_length_a   4.04692600
_cell_length_b   7.34647256
_cell_length_c   16.65970132
_cell_angle_alpha   90.20236711
_cell_angle_beta   90.00000000
_cell_angle_gamma   90.00000000
_symmetry_Int_Tables_number   1
_chemical_formula_structural   Nd4Zn4Ir2PtRh
_chemical_formula_sum   'Nd8 Zn8 Ir4 Pt2 Rh2'
_cell_volume   495.30033980
_cell_formula_units_Z   2
loop_
 _symmetry_equiv_pos_site_id
 _symmetry_equiv_pos_as_xyz
  1  'x, y, z'
loop_
 _atom_site_type_symbol
 _atom_site_label
 _atom_site_symmetry_multiplicity
 _atom_site_fract_x
 _atom_site_fract_y
 _atom_site_fract_z
 _atom_site_occupancy
  Nd  Nd0  1  0.250000  0.169156  0.938219  1
  Nd  Nd1  1  0.250000  0.669839  0.560661  1
  Nd  Nd2  1  0.750000  0.335168  0.436952  1
  Nd  Nd3  1  0.750000  0.953321  0.285712  1
  Nd  Nd4  1  0.750000  0.832530  0.057706  1
  Nd  Nd5  1  0.750000  0.445997  0.216218  1
  Nd  Nd6  1  0.250000  0.045342  0.718221  1
  Nd  Nd7  1  0.250000  0.548697  0.784627  1
  Zn  Zn8  1  0.750000  0.997962  0.560707  1
  Zn  Zn9  1  0.250000  0.621315  0.350517  1
  Zn  Zn10  1  0.750000  0.379452  0.653238  1
  Zn  Zn11  1  0.250000  0.495871  0.059615  1
  Zn  Zn12  1  0.750000  0.501402  0.938968  1
  Zn  Zn13  1  0.250000  0.996553  0.437977  1
  Zn  Zn14  1  0.250000  0.127480  0.151141  1
  Zn  Zn15  1  0.750000  0.876662  0.849171  1
  Ir  Ir16  1  0.750000  0.757655  0.434906  1
  Ir  Ir17  1  0.250000  0.247018  0.313759  1
  Ir  Ir18  1  0.750000  0.254129  0.813535  1
  Ir  Ir19  1  0.750000  0.753596  0.686629  1
  Pt  Pt20  1  0.250000  0.243738  0.565089  1
  Pt  Pt21  1  0.250000  0.745971  0.185670  1
  Rh  Rh22  1  0.750000  0.255907  0.064829  1
  Rh  Rh23  1  0.250000  0.745234  0.935933  1
