# generated using pymatgen
data_Rb2CeHg2Se5
_symmetry_space_group_name_H-M   'P 1'
_cell_length_a   10.41817934
_cell_length_b   4.37756800
_cell_length_c   15.15139626
_cell_angle_alpha   90.00000000
_cell_angle_beta   103.95561524
_cell_angle_gamma   90.00000000
_symmetry_Int_Tables_number   1
_chemical_formula_structural   Rb2CeHg2Se5
_chemical_formula_sum   'Rb4 Ce2 Hg4 Se10'
_cell_volume   670.60262395
_cell_formula_units_Z   2
loop_
 _symmetry_equiv_pos_site_id
 _symmetry_equiv_pos_as_xyz
  1  'x, y, z'
loop_
 _atom_site_type_symbol
 _atom_site_label
 _atom_site_symmetry_multiplicity
 _atom_site_fract_x
 _atom_site_fract_y
 _atom_site_fract_z
 _atom_site_occupancy
  Rb  Rb0  1  0.286297  0.313529  0.054724  1
  Rb  Rb1  1  0.213703  0.313529  0.445276  1
  Rb  Rb2  1  0.786296  0.686472  0.554724  1
  Rb  Rb3  1  0.713704  0.686472  0.945276  1
  Ce  Ce4  1  0.750000  0.203754  0.250000  1
  Ce  Ce5  1  0.250000  0.796245  0.750000  1
  Hg  Hg6  1  0.031763  0.629179  0.200018  1
  Hg  Hg7  1  0.468237  0.629179  0.299982  1
  Hg  Hg8  1  0.531763  0.370820  0.700018  1
  Hg  Hg9  1  0.968236  0.370820  0.799982  1
  Se  Se10  1  0.896833  0.182865  0.110372  1
  Se  Se11  1  0.594794  0.701075  0.150885  1
  Se  Se12  1  0.250000  0.927867  0.250000  1
  Se  Se13  1  0.905207  0.701075  0.349115  1
  Se  Se14  1  0.603168  0.182865  0.389628  1
  Se  Se15  1  0.396833  0.817136  0.610372  1
  Se  Se16  1  0.094794  0.298927  0.650885  1
  Se  Se17  1  0.750000  0.072134  0.750000  1
  Se  Se18  1  0.405206  0.298927  0.849115  1
  Se  Se19  1  0.103168  0.817136  0.889628  1
