# generated using pymatgen
data_TmCd(NiPt)2
_symmetry_space_group_name_H-M   'P 1'
_cell_length_a   5.01680289
_cell_length_b   5.14834029
_cell_length_c   5.14834013
_cell_angle_alpha   63.22913099
_cell_angle_beta   60.84164254
_cell_angle_gamma   60.84163664
_symmetry_Int_Tables_number   1
_chemical_formula_structural   TmCd(NiPt)2
_chemical_formula_sum   'Tm1 Cd1 Ni2 Pt2'
_cell_volume   97.36926295
_cell_formula_units_Z   1
loop_
 _symmetry_equiv_pos_site_id
 _symmetry_equiv_pos_as_xyz
  1  'x, y, z'
loop_
 _atom_site_type_symbol
 _atom_site_label
 _atom_site_symmetry_multiplicity
 _atom_site_fract_x
 _atom_site_fract_y
 _atom_site_fract_z
 _atom_site_occupancy
  Tm  Tm0  1  0.247483  0.252517  0.252517  1
  Cd  Cd1  1  0.007298  0.992702  0.992702  1
  Ni  Ni2  1  0.122872  0.627227  0.627227  1
  Ni  Ni3  1  0.622674  0.627227  0.627227  1
  Pt  Pt4  1  0.624837  0.626049  0.124279  1
  Pt  Pt5  1  0.624837  0.124279  0.626049  1
