# generated using pymatgen
data_ErLuHf3Si4
_symmetry_space_group_name_H-M   'P 1'
_cell_length_a   7.23990400
_cell_length_b   7.23990400
_cell_length_c   13.27937300
_cell_angle_alpha   90.00000000
_cell_angle_beta   90.00000000
_cell_angle_gamma   90.00000000
_symmetry_Int_Tables_number   1
_chemical_formula_structural   ErLuHf3Si4
_chemical_formula_sum   'Er4 Lu4 Hf12 Si16'
_cell_volume   696.05440290
_cell_formula_units_Z   4
loop_
 _symmetry_equiv_pos_site_id
 _symmetry_equiv_pos_as_xyz
  1  'x, y, z'
loop_
 _atom_site_type_symbol
 _atom_site_label
 _atom_site_symmetry_multiplicity
 _atom_site_fract_x
 _atom_site_fract_y
 _atom_site_fract_z
 _atom_site_occupancy
  Er  Er0  1  0.494984  0.153782  0.534533  1
  Er  Er1  1  0.505016  0.846218  0.034533  1
  Er  Er2  1  0.653782  0.005016  0.284533  1
  Er  Er3  1  0.346218  0.994984  0.784533  1
  Lu  Lu4  1  0.847189  0.504209  0.965314  1
  Lu  Lu5  1  0.152811  0.495791  0.465314  1
  Lu  Lu6  1  0.004209  0.652811  0.715314  1
  Lu  Lu7  1  0.995791  0.347189  0.215314  1
  Hf  Hf8  1  0.676534  0.324258  0.750047  1
  Hf  Hf9  1  0.323466  0.675742  0.250047  1
  Hf  Hf10  1  0.824258  0.823466  0.500047  1
  Hf  Hf11  1  0.175742  0.176534  0.000047  1
  Hf  Hf12  1  0.496940  0.353543  0.125426  1
  Hf  Hf13  1  0.503060  0.646457  0.625426  1
  Hf  Hf14  1  0.853543  0.003060  0.875426  1
  Hf  Hf15  1  0.146457  0.996940  0.375426  1
  Hf  Hf16  1  0.646688  0.502883  0.374531  1
  Hf  Hf17  1  0.353312  0.497117  0.874531  1
  Hf  Hf18  1  0.002883  0.853312  0.124531  1
  Hf  Hf19  1  0.997117  0.146688  0.624531  1
  Si  Si20  1  0.796201  0.143131  0.068439  1
  Si  Si21  1  0.203799  0.856869  0.568439  1
  Si  Si22  1  0.643131  0.703799  0.818439  1
  Si  Si23  1  0.356869  0.296201  0.318439  1
  Si  Si24  1  0.858536  0.204913  0.431709  1
  Si  Si25  1  0.141464  0.795087  0.931709  1
  Si  Si26  1  0.704913  0.641464  0.181709  1
  Si  Si27  1  0.295087  0.358536  0.681709  1
  Si  Si28  1  0.550476  0.204659  0.935939  1
  Si  Si29  1  0.449524  0.795341  0.435939  1
  Si  Si30  1  0.704659  0.949524  0.685939  1
  Si  Si31  1  0.295341  0.050476  0.185939  1
  Si  Si32  1  0.796777  0.450482  0.564062  1
  Si  Si33  1  0.203223  0.549518  0.064062  1
  Si  Si34  1  0.950482  0.703223  0.314062  1
  Si  Si35  1  0.049518  0.296777  0.814062  1
