# generated using pymatgen
data_Ta2Be2AsRu5
_symmetry_space_group_name_H-M   'P 1'
_cell_length_a   9.36799300
_cell_length_b   9.36799300
_cell_length_c   3.04995100
_cell_angle_alpha   90.00000000
_cell_angle_beta   90.00000000
_cell_angle_gamma   90.00000000
_symmetry_Int_Tables_number   1
_chemical_formula_structural   Ta2Be2AsRu5
_chemical_formula_sum   'Ta4 Be4 As2 Ru10'
_cell_volume   267.66154298
_cell_formula_units_Z   2
loop_
 _symmetry_equiv_pos_site_id
 _symmetry_equiv_pos_as_xyz
  1  'x, y, z'
loop_
 _atom_site_type_symbol
 _atom_site_label
 _atom_site_symmetry_multiplicity
 _atom_site_fract_x
 _atom_site_fract_y
 _atom_site_fract_z
 _atom_site_occupancy
  Ta  Ta0  1  0.828539  0.671461  0.000000  1
  Ta  Ta1  1  0.171461  0.328539  0.000000  1
  Ta  Ta2  1  0.328539  0.828539  0.000000  1
  Ta  Ta3  1  0.671461  0.171461  0.000000  1
  Be  Be4  1  0.624439  0.875561  0.000000  1
  Be  Be5  1  0.375561  0.124439  0.000000  1
  Be  Be6  1  0.124439  0.624439  0.000000  1
  Be  Be7  1  0.875561  0.375561  0.000000  1
  As  As8  1  0.500000  0.500000  0.000000  1
  As  As9  1  0.000000  0.000000  0.000000  1
  Ru  Ru10  1  0.568313  0.705289  0.500000  1
  Ru  Ru11  1  0.431687  0.294711  0.500000  1
  Ru  Ru12  1  0.068313  0.794711  0.500000  1
  Ru  Ru13  1  0.931687  0.205289  0.500000  1
  Ru  Ru14  1  0.294711  0.568313  0.500000  1
  Ru  Ru15  1  0.705289  0.431687  0.500000  1
  Ru  Ru16  1  0.205289  0.068313  0.500000  1
  Ru  Ru17  1  0.794711  0.931687  0.500000  1
  Ru  Ru18  1  0.500000  0.000000  0.500000  1
  Ru  Ru19  1  0.000000  0.500000  0.500000  1
