# generated using pymatgen
data_Zr2MnInNi8
_symmetry_space_group_name_H-M   'P 1'
_cell_length_a   4.83991651
_cell_length_b   4.83991575
_cell_length_c   8.41309604
_cell_angle_alpha   106.71685262
_cell_angle_beta   73.28315115
_cell_angle_gamma   119.99999877
_symmetry_Int_Tables_number   1
_chemical_formula_structural   Zr2MnInNi8
_chemical_formula_sum   'Zr2 Mn1 In1 Ni8'
_cell_volume   160.98288550
_cell_formula_units_Z   1
loop_
 _symmetry_equiv_pos_site_id
 _symmetry_equiv_pos_as_xyz
  1  'x, y, z'
loop_
 _atom_site_type_symbol
 _atom_site_label
 _atom_site_symmetry_multiplicity
 _atom_site_fract_x
 _atom_site_fract_y
 _atom_site_fract_z
 _atom_site_occupancy
  Zr  Zr0  1  0.996366  0.003634  0.010901  1
  Zr  Zr1  1  0.502752  0.497248  0.491742  1
  Mn  Mn2  1  0.873563  0.126437  0.379311  1
  In  In3  1  0.375674  0.624326  0.872978  1
  Ni  Ni4  1  0.435722  0.564278  0.191746  1
  Ni  Ni5  1  0.938021  0.061979  0.682716  1
  Ni  Ni6  1  0.435722  0.063190  0.191746  1
  Ni  Ni7  1  0.938021  0.558758  0.682716  1
  Ni  Ni8  1  0.188217  0.811783  0.435346  1
  Ni  Ni9  1  0.687888  0.312112  0.936338  1
  Ni  Ni10  1  0.936810  0.564278  0.191746  1
  Ni  Ni11  1  0.441242  0.061979  0.682716  1
