# generated using pymatgen
data_Lu4Cd2Cu3Ni
_symmetry_space_group_name_H-M   'P 1'
_cell_length_a   7.37027214
_cell_length_b   7.37027206
_cell_length_c   3.61559500
_cell_angle_alpha   90.00000000
_cell_angle_beta   90.00000000
_cell_angle_gamma   90.75675215
_symmetry_Int_Tables_number   1
_chemical_formula_structural   Lu4Cd2Cu3Ni
_chemical_formula_sum   'Lu4 Cd2 Cu3 Ni1'
_cell_volume   196.38528284
_cell_formula_units_Z   1
loop_
 _symmetry_equiv_pos_site_id
 _symmetry_equiv_pos_as_xyz
  1  'x, y, z'
loop_
 _atom_site_type_symbol
 _atom_site_label
 _atom_site_symmetry_multiplicity
 _atom_site_fract_x
 _atom_site_fract_y
 _atom_site_fract_z
 _atom_site_occupancy
  Lu  Lu0  1  0.670815  0.170815  0.500000  1
  Lu  Lu1  1  0.317385  0.817385  0.500000  1
  Lu  Lu2  1  0.176125  0.339881  0.500000  1
  Lu  Lu3  1  0.839881  0.676125  0.500000  1
  Cd  Cd4  1  0.000586  0.003127  0.000000  1
  Cd  Cd5  1  0.503127  0.500586  0.000000  1
  Cu  Cu6  1  0.878869  0.378869  0.000000  1
  Cu  Cu7  1  0.617586  0.876524  0.000000  1
  Cu  Cu8  1  0.376524  0.117586  0.000000  1
  Ni  Ni9  1  0.119100  0.619100  0.000000  1
