# generated using pymatgen
data_Th5ScH8Br15
_symmetry_space_group_name_H-M   'P 1'
_cell_length_a   9.78595165
_cell_length_b   9.78594538
_cell_length_c   9.78601600
_cell_angle_alpha   109.09134139
_cell_angle_beta   109.09111183
_cell_angle_gamma   110.23364789
_symmetry_Int_Tables_number   1
_chemical_formula_structural   Th5ScH8Br15
_chemical_formula_sum   'Th5 Sc1 H8 Br15'
_cell_volume   721.32919094
_cell_formula_units_Z   1
loop_
 _symmetry_equiv_pos_site_id
 _symmetry_equiv_pos_as_xyz
  1  'x, y, z'
loop_
 _atom_site_type_symbol
 _atom_site_label
 _atom_site_symmetry_multiplicity
 _atom_site_fract_x
 _atom_site_fract_y
 _atom_site_fract_z
 _atom_site_occupancy
  Th  Th0  1  0.750885  0.750887  0.999987  1
  Th  Th1  1  0.244303  0.004572  0.239731  1
  Th  Th2  1  0.004575  0.244310  0.239731  1
  Th  Th3  1  0.764841  0.004574  0.760275  1
  Th  Th4  1  0.004566  0.764836  0.760263  1
  Sc  Sc5  1  0.221002  0.220996  0.000014  1
  H  H6  1  0.179184  0.003646  0.999999  1
  H  H7  1  0.818986  0.998302  0.000000  1
  H  H8  1  0.003654  0.179188  0.000006  1
  H  H9  1  0.998297  0.818984  0.999992  1
  H  H10  1  0.998297  0.998301  0.179311  1
  H  H11  1  0.179186  0.179185  0.175536  1
  H  H12  1  0.003657  0.003653  0.824472  1
  H  H13  1  0.818985  0.818985  0.820684  1
  Br  Br14  1  0.742994  0.257943  0.000003  1
  Br  Br15  1  0.492937  0.492938  0.000000  1
  Br  Br16  1  0.257937  0.742992  0.999994  1
  Br  Br17  1  0.741171  0.000252  0.259079  1
  Br  Br18  1  0.000252  0.741170  0.259079  1
  Br  Br19  1  0.504462  0.262556  0.241924  1
  Br  Br20  1  0.262552  0.504462  0.241912  1
  Br  Br21  1  0.742995  0.742996  0.485057  1
  Br  Br22  1  0.499949  0.999951  0.499999  1
  Br  Br23  1  0.999951  0.499952  0.500000  1
  Br  Br24  1  0.257941  0.257941  0.514944  1
  Br  Br25  1  0.262555  0.020640  0.758096  1
  Br  Br26  1  0.020636  0.262541  0.758090  1
  Br  Br27  1  0.741170  0.482086  0.740916  1
  Br  Br28  1  0.482086  0.741167  0.740916  1
