# generated using pymatgen
data_Nd2B10Rh
_symmetry_space_group_name_H-M   'P 1'
_cell_length_a   4.21114700
_cell_length_b   5.74619500
_cell_length_c   11.43749400
_cell_angle_alpha   90.00000000
_cell_angle_beta   90.00000000
_cell_angle_gamma   90.00000000
_symmetry_Int_Tables_number   1
_chemical_formula_structural   Nd2B10Rh
_chemical_formula_sum   'Nd4 B20 Rh2'
_cell_volume   276.76530143
_cell_formula_units_Z   2
loop_
 _symmetry_equiv_pos_site_id
 _symmetry_equiv_pos_as_xyz
  1  'x, y, z'
loop_
 _atom_site_type_symbol
 _atom_site_label
 _atom_site_symmetry_multiplicity
 _atom_site_fract_x
 _atom_site_fract_y
 _atom_site_fract_z
 _atom_site_occupancy
  Nd  Nd0  1  0.500000  0.296955  0.864883  1
  Nd  Nd1  1  0.500000  0.703045  0.135117  1
  Nd  Nd2  1  0.500000  0.796955  0.635117  1
  Nd  Nd3  1  0.500000  0.203045  0.364883  1
  B  B4  1  0.000000  0.118888  0.542939  1
  B  B5  1  0.000000  0.881112  0.457061  1
  B  B6  1  0.000000  0.618888  0.957061  1
  B  B7  1  0.000000  0.381112  0.042939  1
  B  B8  1  0.000000  0.138017  0.697255  1
  B  B9  1  0.000000  0.861983  0.302745  1
  B  B10  1  0.300305  0.218524  0.118523  1
  B  B11  1  0.300305  0.781476  0.881477  1
  B  B12  1  0.699695  0.718524  0.381477  1
  B  B13  1  0.699695  0.281476  0.618523  1
  B  B14  1  0.699695  0.781476  0.881477  1
  B  B15  1  0.699695  0.218524  0.118523  1
  B  B16  1  0.300305  0.281476  0.618523  1
  B  B17  1  0.300305  0.718524  0.381477  1
  B  B18  1  0.000000  0.056085  0.192756  1
  B  B19  1  0.000000  0.943915  0.807244  1
  B  B20  1  0.000000  0.556085  0.307244  1
  B  B21  1  0.000000  0.443915  0.692756  1
  B  B22  1  0.000000  0.361983  0.197255  1
  B  B23  1  0.000000  0.638017  0.802745  1
  Rh  Rh24  1  0.000000  0.500000  0.500000  1
  Rh  Rh25  1  0.000000  0.000000  0.000000  1
