# generated using pymatgen
data_Pa2Ta(Ni10B3)2
_symmetry_space_group_name_H-M   'P 1'
_cell_length_a   7.60253437
_cell_length_b   7.60253383
_cell_length_c   7.60253400
_cell_angle_alpha   59.99999928
_cell_angle_beta   60.00000159
_cell_angle_gamma   60.00000377
_symmetry_Int_Tables_number   1
_chemical_formula_structural   Pa2Ta(Ni10B3)2
_chemical_formula_sum   'Pa2 Ta1 Ni20 B6'
_cell_volume   310.71351359
_cell_formula_units_Z   1
loop_
 _symmetry_equiv_pos_site_id
 _symmetry_equiv_pos_as_xyz
  1  'x, y, z'
loop_
 _atom_site_type_symbol
 _atom_site_label
 _atom_site_symmetry_multiplicity
 _atom_site_fract_x
 _atom_site_fract_y
 _atom_site_fract_z
 _atom_site_occupancy
  Pa  Pa0  1  0.750000  0.750000  0.750000  1
  Pa  Pa1  1  0.250000  0.250000  0.250000  1
  Ta  Ta2  1  0.000000  0.000000  0.000000  1
  Ni  Ni3  1  0.613391  0.613391  0.159826  1
  Ni  Ni4  1  0.613391  0.159826  0.613391  1
  Ni  Ni5  1  0.159826  0.613391  0.613391  1
  Ni  Ni6  1  0.613391  0.613391  0.613391  1
  Ni  Ni7  1  0.386609  0.386609  0.840174  1
  Ni  Ni8  1  0.386609  0.840174  0.386609  1
  Ni  Ni9  1  0.840174  0.386609  0.386609  1
  Ni  Ni10  1  0.386609  0.386609  0.386609  1
  Ni  Ni11  1  0.000000  0.000000  0.342585  1
  Ni  Ni12  1  0.657415  0.000000  0.342585  1
  Ni  Ni13  1  0.000000  0.657415  0.342585  1
  Ni  Ni14  1  0.657415  0.342585  0.000000  1
  Ni  Ni15  1  0.000000  0.342585  0.000000  1
  Ni  Ni16  1  0.000000  0.342585  0.657415  1
  Ni  Ni17  1  0.342585  0.657415  0.000000  1
  Ni  Ni18  1  0.342585  0.000000  0.657415  1
  Ni  Ni19  1  0.342585  0.000000  0.000000  1
  Ni  Ni20  1  0.000000  0.000000  0.657415  1
  Ni  Ni21  1  0.000000  0.657415  0.000000  1
  Ni  Ni22  1  0.657415  0.000000  0.000000  1
  B  B23  1  0.735352  0.735352  0.264648  1
  B  B24  1  0.264648  0.735352  0.264648  1
  B  B25  1  0.735352  0.264648  0.264648  1
  B  B26  1  0.264648  0.264648  0.735352  1
  B  B27  1  0.735352  0.264648  0.735352  1
  B  B28  1  0.264648  0.735352  0.735352  1
