# generated using pymatgen
data_Er20Bi8Os3Rh
_symmetry_space_group_name_H-M   'P 1'
_cell_length_a   7.91295607
_cell_length_b   8.98867600
_cell_length_c   12.38153909
_cell_angle_alpha   90.00000000
_cell_angle_beta   89.86962030
_cell_angle_gamma   90.00000000
_symmetry_Int_Tables_number   1
_chemical_formula_structural   Er20Bi8Os3Rh
_chemical_formula_sum   'Er20 Bi8 Os3 Rh1'
_cell_volume   880.65943030
_cell_formula_units_Z   1
loop_
 _symmetry_equiv_pos_site_id
 _symmetry_equiv_pos_as_xyz
  1  'x, y, z'
loop_
 _atom_site_type_symbol
 _atom_site_label
 _atom_site_symmetry_multiplicity
 _atom_site_fract_x
 _atom_site_fract_y
 _atom_site_fract_z
 _atom_site_occupancy
  Er  Er0  1  0.659762  0.750000  0.706089  1
  Er  Er1  1  0.338255  0.250000  0.290611  1
  Er  Er2  1  0.162889  0.250000  0.791487  1
  Er  Er3  1  0.835299  0.750000  0.211496  1
  Er  Er4  1  0.123928  0.750000  0.808852  1
  Er  Er5  1  0.875721  0.250000  0.191609  1
  Er  Er6  1  0.621771  0.250000  0.692446  1
  Er  Er7  1  0.376412  0.750000  0.307301  1
  Er  Er8  1  0.556371  0.750000  0.997194  1
  Er  Er9  1  0.444242  0.250000  0.002416  1
  Er  Er10  1  0.060249  0.250000  0.503966  1
  Er  Er11  1  0.942541  0.750000  0.496899  1
  Er  Er12  1  0.825998  0.451920  0.934024  1
  Er  Er13  1  0.173611  0.539899  0.065463  1
  Er  Er14  1  0.327253  0.543846  0.564057  1
  Er  Er15  1  0.173611  0.960101  0.065463  1
  Er  Er16  1  0.672837  0.457006  0.435873  1
  Er  Er17  1  0.825998  0.048080  0.934024  1
  Er  Er18  1  0.672837  0.042994  0.435873  1
  Er  Er19  1  0.327253  0.956154  0.564057  1
  Bi  Bi20  1  0.933276  0.007865  0.672946  1
  Bi  Bi21  1  0.066671  0.992213  0.327863  1
  Bi  Bi22  1  0.433238  0.990635  0.828064  1
  Bi  Bi23  1  0.066671  0.507787  0.327863  1
  Bi  Bi24  1  0.567064  0.008093  0.171591  1
  Bi  Bi25  1  0.933276  0.492135  0.672946  1
  Bi  Bi26  1  0.567064  0.491907  0.171591  1
  Bi  Bi27  1  0.433238  0.509365  0.828064  1
  Os  Os28  1  0.076530  0.250000  0.010693  1
  Os  Os29  1  0.423559  0.250000  0.509778  1
  Os  Os30  1  0.576887  0.750000  0.487954  1
  Rh  Rh31  1  0.925688  0.750000  0.991447  1
