# generated using pymatgen
data_Nd2OsO5
_symmetry_space_group_name_H-M   'P 1'
_cell_length_a   6.96042505
_cell_length_b   6.96042557
_cell_length_c   6.96042641
_cell_angle_alpha   100.48343235
_cell_angle_beta   100.48343078
_cell_angle_gamma   129.50144106
_symmetry_Int_Tables_number   1
_chemical_formula_structural   Nd2OsO5
_chemical_formula_sum   'Nd4 Os2 O10'
_cell_volume   235.33908560
_cell_formula_units_Z   2
loop_
 _symmetry_equiv_pos_site_id
 _symmetry_equiv_pos_as_xyz
  1  'x, y, z'
loop_
 _atom_site_type_symbol
 _atom_site_label
 _atom_site_symmetry_multiplicity
 _atom_site_fract_x
 _atom_site_fract_y
 _atom_site_fract_z
 _atom_site_occupancy
  Nd  Nd0  1  0.819549  0.396242  0.215792  1
  Nd  Nd1  1  0.396242  0.180451  0.576694  1
  Nd  Nd2  1  0.603758  0.819549  0.423306  1
  Nd  Nd3  1  0.180451  0.603758  0.784208  1
  Os  Os4  1  0.184932  0.184932  0.000000  1
  Os  Os5  1  0.815068  0.815068  0.000000  1
  O  O6  1  0.355149  0.069002  0.906005  1
  O  O7  1  0.069002  0.162997  0.713853  1
  O  O8  1  0.449143  0.355149  0.286147  1
  O  O9  1  0.162997  0.449143  0.093995  1
  O  O10  1  0.644851  0.930998  0.093995  1
  O  O11  1  0.930998  0.837003  0.286147  1
  O  O12  1  0.250000  0.750000  0.500000  1
  O  O13  1  0.750000  0.250000  0.500000  1
  O  O14  1  0.837003  0.550857  0.906005  1
  O  O15  1  0.550857  0.644851  0.713853  1
