# generated using pymatgen
data_Ho3Sn3RuRhAu
_symmetry_space_group_name_H-M   'P 1'
_cell_length_a   7.76724400
_cell_length_b   7.76724396
_cell_length_c   3.72985700
_cell_angle_alpha   90.00000000
_cell_angle_beta   90.00000000
_cell_angle_gamma   120.00000130
_symmetry_Int_Tables_number   1
_chemical_formula_structural   Ho3Sn3RuRhAu
_chemical_formula_sum   'Ho3 Sn3 Ru1 Rh1 Au1'
_cell_volume   194.87525748
_cell_formula_units_Z   1
loop_
 _symmetry_equiv_pos_site_id
 _symmetry_equiv_pos_as_xyz
  1  'x, y, z'
loop_
 _atom_site_type_symbol
 _atom_site_label
 _atom_site_symmetry_multiplicity
 _atom_site_fract_x
 _atom_site_fract_y
 _atom_site_fract_z
 _atom_site_occupancy
  Ho  Ho0  1  0.017151  0.408499  0.000000  1
  Ho  Ho1  1  0.591501  0.608652  0.000000  1
  Ho  Ho2  1  0.391348  0.982849  0.000000  1
  Sn  Sn3  1  0.259626  0.262340  0.500000  1
  Sn  Sn4  1  0.002714  0.740374  0.500000  1
  Sn  Sn5  1  0.737660  0.997286  0.500000  1
  Ru  Ru6  1  0.000000  0.000000  0.000000  1
  Rh  Rh7  1  0.333333  0.666667  0.500000  1
  Au  Au8  1  0.666667  0.333333  0.500000  1
