# generated using pymatgen
data_K4Si2Se7
_symmetry_space_group_name_H-M   'P 1'
_cell_length_a   8.11932792
_cell_length_b   8.11932831
_cell_length_c   17.13509827
_cell_angle_alpha   76.59026183
_cell_angle_beta   76.59025968
_cell_angle_gamma   51.25242445
_symmetry_Int_Tables_number   1
_chemical_formula_structural   K4Si2Se7
_chemical_formula_sum   'K8 Si4 Se14'
_cell_volume   851.35021184
_cell_formula_units_Z   2
loop_
 _symmetry_equiv_pos_site_id
 _symmetry_equiv_pos_as_xyz
  1  'x, y, z'
loop_
 _atom_site_type_symbol
 _atom_site_label
 _atom_site_symmetry_multiplicity
 _atom_site_fract_x
 _atom_site_fract_y
 _atom_site_fract_z
 _atom_site_occupancy
  K  K0  1  0.011500  0.478761  0.152063  1
  K  K1  1  0.678749  0.156845  0.942697  1
  K  K2  1  0.843155  0.321251  0.557303  1
  K  K3  1  0.156845  0.678749  0.442697  1
  K  K4  1  0.521239  0.988500  0.347937  1
  K  K5  1  0.321251  0.843155  0.057303  1
  K  K6  1  0.478761  0.011500  0.652063  1
  K  K7  1  0.988500  0.521239  0.847937  1
  Si  Si8  1  0.222776  0.698401  0.654721  1
  Si  Si9  1  0.698401  0.222776  0.154721  1
  Si  Si10  1  0.301599  0.777224  0.845279  1
  Si  Si11  1  0.777224  0.301599  0.345279  1
  Se  Se12  1  0.180433  0.652085  0.954787  1
  Se  Se13  1  0.400334  0.971686  0.859544  1
  Se  Se14  1  0.971686  0.400334  0.359544  1
  Se  Se15  1  0.028314  0.599666  0.640456  1
  Se  Se16  1  0.347915  0.819567  0.545213  1
  Se  Se17  1  0.819567  0.347915  0.045213  1
  Se  Se18  1  0.479857  0.380541  0.725770  1
  Se  Se19  1  0.053229  0.946771  0.750000  1
  Se  Se20  1  0.652085  0.180433  0.454787  1
  Se  Se21  1  0.946771  0.053229  0.250000  1
  Se  Se22  1  0.380541  0.479857  0.225770  1
  Se  Se23  1  0.619459  0.520143  0.774230  1
  Se  Se24  1  0.520143  0.619459  0.274230  1
  Se  Se25  1  0.599666  0.028314  0.140456  1
