# generated using pymatgen
data_Nd12Ga3GeI12
_symmetry_space_group_name_H-M   'P 1'
_cell_length_a   10.88995813
_cell_length_b   10.87951139
_cell_length_c   10.87951063
_cell_angle_alpha   109.45175835
_cell_angle_beta   109.49067445
_cell_angle_gamma   109.49067579
_symmetry_Int_Tables_number   1
_chemical_formula_structural   Nd12Ga3GeI12
_chemical_formula_sum   'Nd12 Ga3 Ge1 I12'
_cell_volume   992.01616076
_cell_formula_units_Z   1
loop_
 _symmetry_equiv_pos_site_id
 _symmetry_equiv_pos_as_xyz
  1  'x, y, z'
loop_
 _atom_site_type_symbol
 _atom_site_label
 _atom_site_symmetry_multiplicity
 _atom_site_fract_x
 _atom_site_fract_y
 _atom_site_fract_z
 _atom_site_occupancy
  Nd  Nd0  1  0.470243  0.485076  0.234750  1
  Nd  Nd1  1  0.750000  0.235591  0.264409  1
  Nd  Nd2  1  0.750000  0.014363  0.485637  1
  Nd  Nd3  1  0.235637  0.471274  0.485637  1
  Nd  Nd4  1  0.264507  0.749674  0.234750  1
  Nd  Nd5  1  0.029757  0.265250  0.014924  1
  Nd  Nd6  1  0.014409  0.028818  0.264409  1
  Nd  Nd7  1  0.485168  0.749674  0.014924  1
  Nd  Nd8  1  0.485591  0.235591  0.471182  1
  Nd  Nd9  1  0.014832  0.485076  0.750326  1
  Nd  Nd10  1  0.264363  0.014363  0.028726  1
  Nd  Nd11  1  0.235493  0.265250  0.750326  1
  Ga  Ga12  1  0.250000  0.250235  0.249765  1
  Ga  Ga13  1  0.499765  0.999530  0.249765  1
  Ga  Ga14  1  0.000235  0.250235  0.500470  1
  Ge  Ge15  1  0.250000  0.500000  0.000000  1
  I  I16  1  0.250000  0.756771  0.743229  1
  I  I17  1  0.513924  0.507080  0.757390  1
  I  I18  1  0.986076  0.742610  0.992920  1
  I  I19  1  0.743466  0.250310  0.757390  1
  I  I20  1  0.993229  0.986458  0.743229  1
  I  I21  1  0.250000  0.992895  0.507105  1
  I  I22  1  0.757105  0.514210  0.507105  1
  I  I23  1  0.506844  0.250310  0.992920  1
  I  I24  1  0.756534  0.742610  0.249690  1
  I  I25  1  0.742895  0.992895  0.985790  1
  I  I26  1  0.993156  0.507080  0.249690  1
  I  I27  1  0.506771  0.756771  0.513542  1
