# generated using pymatgen
data_RbAlCoF6
_symmetry_space_group_name_H-M   'P 1'
_cell_length_a   7.13743100
_cell_length_b   7.19298300
_cell_length_c   10.16300800
_cell_angle_alpha   90.00000000
_cell_angle_beta   90.00000000
_cell_angle_gamma   90.00000000
_symmetry_Int_Tables_number   1
_chemical_formula_structural   RbAlCoF6
_chemical_formula_sum   'Rb4 Al4 Co4 F24'
_cell_volume   521.76293462
_cell_formula_units_Z   4
loop_
 _symmetry_equiv_pos_site_id
 _symmetry_equiv_pos_as_xyz
  1  'x, y, z'
loop_
 _atom_site_type_symbol
 _atom_site_label
 _atom_site_symmetry_multiplicity
 _atom_site_fract_x
 _atom_site_fract_y
 _atom_site_fract_z
 _atom_site_occupancy
  Rb  Rb0  1  0.250000  0.513742  0.124637  1
  Rb  Rb1  1  0.750000  0.486258  0.875363  1
  Rb  Rb2  1  0.750000  0.986258  0.624637  1
  Rb  Rb3  1  0.250000  0.013742  0.375363  1
  Al  Al4  1  0.000000  0.500000  0.500000  1
  Al  Al5  1  0.000000  0.000000  0.000000  1
  Al  Al6  1  0.500000  0.500000  0.500000  1
  Al  Al7  1  0.500000  0.000000  0.000000  1
  Co  Co8  1  0.250000  0.722444  0.761690  1
  Co  Co9  1  0.750000  0.277556  0.238310  1
  Co  Co10  1  0.750000  0.777556  0.261690  1
  Co  Co11  1  0.250000  0.222444  0.738310  1
  F  F12  1  0.051108  0.792674  0.903709  1
  F  F13  1  0.948892  0.207326  0.096291  1
  F  F14  1  0.948892  0.707326  0.403709  1
  F  F15  1  0.551108  0.207326  0.096291  1
  F  F16  1  0.051108  0.292674  0.596291  1
  F  F17  1  0.448892  0.792674  0.903709  1
  F  F18  1  0.448892  0.292674  0.596291  1
  F  F19  1  0.551108  0.707326  0.403709  1
  F  F20  1  0.250000  0.035268  0.039346  1
  F  F21  1  0.750000  0.964732  0.960654  1
  F  F22  1  0.750000  0.464732  0.539346  1
  F  F23  1  0.250000  0.535268  0.460654  1
  F  F24  1  0.479935  0.644098  0.645893  1
  F  F25  1  0.520065  0.355902  0.354107  1
  F  F26  1  0.520065  0.855902  0.145893  1
  F  F27  1  0.979935  0.355902  0.354107  1
  F  F28  1  0.479935  0.144098  0.854107  1
  F  F29  1  0.020065  0.644098  0.645893  1
  F  F30  1  0.020065  0.144098  0.854107  1
  F  F31  1  0.979935  0.855902  0.145893  1
  F  F32  1  0.250000  0.964590  0.661643  1
  F  F33  1  0.750000  0.035410  0.338357  1
  F  F34  1  0.750000  0.535410  0.161643  1
  F  F35  1  0.250000  0.464590  0.838357  1
