# generated using pymatgen
data_ErSc4Si7Pt9
_symmetry_space_group_name_H-M   'P 1'
_cell_length_a   10.04354600
_cell_length_b   10.04354602
_cell_length_c   3.94147600
_cell_angle_alpha   90.00000000
_cell_angle_beta   90.00000000
_cell_angle_gamma   119.99999994
_symmetry_Int_Tables_number   1
_chemical_formula_structural   ErSc4Si7Pt9
_chemical_formula_sum   'Er1 Sc4 Si7 Pt9'
_cell_volume   344.32112224
_cell_formula_units_Z   1
loop_
 _symmetry_equiv_pos_site_id
 _symmetry_equiv_pos_as_xyz
  1  'x, y, z'
loop_
 _atom_site_type_symbol
 _atom_site_label
 _atom_site_symmetry_multiplicity
 _atom_site_fract_x
 _atom_site_fract_y
 _atom_site_fract_z
 _atom_site_occupancy
  Er  Er0  1  0.333333  0.666667  0.500000  1
  Sc  Sc1  1  0.000000  0.000000  0.000000  1
  Sc  Sc2  1  0.895665  0.458455  0.500000  1
  Sc  Sc3  1  0.562790  0.104335  0.500000  1
  Sc  Sc4  1  0.541545  0.437210  0.500000  1
  Si  Si5  1  0.239927  0.189591  0.500000  1
  Si  Si6  1  0.810409  0.050337  0.500000  1
  Si  Si7  1  0.949663  0.760073  0.500000  1
  Si  Si8  1  0.556437  0.647721  0.000000  1
  Si  Si9  1  0.352279  0.908715  0.000000  1
  Si  Si10  1  0.091285  0.443563  0.000000  1
  Si  Si11  1  0.666667  0.333333  0.000000  1
  Pt  Pt12  1  0.217126  0.936114  0.500000  1
  Pt  Pt13  1  0.063886  0.281013  0.500000  1
  Pt  Pt14  1  0.718987  0.782874  0.500000  1
  Pt  Pt15  1  0.315141  0.414771  0.000000  1
  Pt  Pt16  1  0.585229  0.900371  0.000000  1
  Pt  Pt17  1  0.099629  0.684859  0.000000  1
  Pt  Pt18  1  0.382787  0.171665  0.000000  1
  Pt  Pt19  1  0.828335  0.211123  0.000000  1
  Pt  Pt20  1  0.788877  0.617213  0.000000  1
