# generated using pymatgen
data_Er12Th4Mg4Fe3Os
_symmetry_space_group_name_H-M   'P 1'
_cell_length_a   9.64042224
_cell_length_b   9.57286349
_cell_length_c   9.57286300
_cell_angle_alpha   60.00000514
_cell_angle_beta   60.23155382
_cell_angle_gamma   60.23155159
_symmetry_Int_Tables_number   1
_chemical_formula_structural   Er12Th4Mg4Fe3Os
_chemical_formula_sum   'Er12 Th4 Mg4 Fe3 Os1'
_cell_volume   626.86777662
_cell_formula_units_Z   1
loop_
 _symmetry_equiv_pos_site_id
 _symmetry_equiv_pos_as_xyz
  1  'x, y, z'
loop_
 _atom_site_type_symbol
 _atom_site_label
 _atom_site_symmetry_multiplicity
 _atom_site_fract_x
 _atom_site_fract_y
 _atom_site_fract_z
 _atom_site_occupancy
  Er  Er0  1  0.069792  0.435488  0.435488  1
  Er  Er1  1  0.437129  0.064214  0.064214  1
  Er  Er2  1  0.437129  0.064214  0.434444  1
  Er  Er3  1  0.069792  0.435488  0.059233  1
  Er  Er4  1  0.437129  0.434444  0.064214  1
  Er  Er5  1  0.069792  0.059233  0.435488  1
  Er  Er6  1  0.184203  0.815033  0.815033  1
  Er  Er7  1  0.814543  0.187358  0.187358  1
  Er  Er8  1  0.814543  0.187358  0.810740  1
  Er  Er9  1  0.184203  0.815033  0.185733  1
  Er  Er10  1  0.814543  0.810740  0.187358  1
  Er  Er11  1  0.184203  0.185733  0.815033  1
  Th  Th12  1  0.585963  0.598980  0.598980  1
  Th  Th13  1  0.585963  0.598980  0.216079  1
  Th  Th14  1  0.585963  0.216079  0.598980  1
  Th  Th15  1  0.220576  0.593141  0.593141  1
  Mg  Mg16  1  0.829887  0.829238  0.829238  1
  Mg  Mg17  1  0.829887  0.829238  0.511638  1
  Mg  Mg18  1  0.829887  0.511638  0.829238  1
  Mg  Mg19  1  0.507727  0.830758  0.830758  1
  Fe  Fe20  1  0.393852  0.394356  0.394356  1
  Fe  Fe21  1  0.393852  0.394356  0.817436  1
  Fe  Fe22  1  0.393852  0.817436  0.394356  1
  Os  Os23  1  0.825592  0.391469  0.391469  1
