# generated using pymatgen
data_Np2Fe14Si3
_symmetry_space_group_name_H-M   'P 1'
_cell_length_a   8.21688100
_cell_length_b   8.21688152
_cell_length_c   8.32535500
_cell_angle_alpha   90.00000000
_cell_angle_beta   90.00000000
_cell_angle_gamma   120.00000192
_symmetry_Int_Tables_number   1
_chemical_formula_structural   Np2Fe14Si3
_chemical_formula_sum   'Np4 Fe28 Si6'
_cell_volume   486.79645501
_cell_formula_units_Z   2
loop_
 _symmetry_equiv_pos_site_id
 _symmetry_equiv_pos_as_xyz
  1  'x, y, z'
loop_
 _atom_site_type_symbol
 _atom_site_label
 _atom_site_symmetry_multiplicity
 _atom_site_fract_x
 _atom_site_fract_y
 _atom_site_fract_z
 _atom_site_occupancy
  Np  Np0  1  0.000000  0.000000  0.250000  1
  Np  Np1  1  0.000000  0.000000  0.750000  1
  Np  Np2  1  0.333333  0.666667  0.750000  1
  Np  Np3  1  0.666667  0.333333  0.250000  1
  Fe  Fe4  1  0.333333  0.666667  0.392237  1
  Fe  Fe5  1  0.666667  0.333333  0.607763  1
  Fe  Fe6  1  0.666667  0.333333  0.892237  1
  Fe  Fe7  1  0.333333  0.666667  0.107763  1
  Fe  Fe8  1  0.328808  0.354774  0.250000  1
  Fe  Fe9  1  0.645226  0.974034  0.250000  1
  Fe  Fe10  1  0.025966  0.671192  0.250000  1
  Fe  Fe11  1  0.645226  0.671192  0.250000  1
  Fe  Fe12  1  0.025966  0.354774  0.250000  1
  Fe  Fe13  1  0.328808  0.974034  0.250000  1
  Fe  Fe14  1  0.671192  0.645226  0.750000  1
  Fe  Fe15  1  0.354774  0.025966  0.750000  1
  Fe  Fe16  1  0.974034  0.328808  0.750000  1
  Fe  Fe17  1  0.354774  0.328808  0.750000  1
  Fe  Fe18  1  0.974034  0.645226  0.750000  1
  Fe  Fe19  1  0.671192  0.025966  0.750000  1
  Fe  Fe20  1  0.166655  0.833345  0.516017  1
  Fe  Fe21  1  0.166655  0.333309  0.516017  1
  Fe  Fe22  1  0.666691  0.833345  0.516017  1
  Fe  Fe23  1  0.833345  0.166655  0.483983  1
  Fe  Fe24  1  0.833345  0.666691  0.483983  1
  Fe  Fe25  1  0.333309  0.166655  0.483983  1
  Fe  Fe26  1  0.833345  0.166655  0.016017  1
  Fe  Fe27  1  0.833345  0.666691  0.016017  1
  Fe  Fe28  1  0.333309  0.166655  0.016017  1
  Fe  Fe29  1  0.166655  0.833345  0.983983  1
  Fe  Fe30  1  0.166655  0.333309  0.983983  1
  Fe  Fe31  1  0.666691  0.833345  0.983983  1
  Si  Si32  1  0.500000  0.500000  0.500000  1
  Si  Si33  1  0.500000  0.000000  0.500000  1
  Si  Si34  1  0.000000  0.500000  0.500000  1
  Si  Si35  1  0.500000  0.500000  0.000000  1
  Si  Si36  1  0.500000  0.000000  0.000000  1
  Si  Si37  1  0.000000  0.500000  0.000000  1
