# generated using pymatgen
data_Er5SnBi2Se
_symmetry_space_group_name_H-M   'P 1'
_cell_length_a   9.13066847
_cell_length_b   9.13066746
_cell_length_c   6.64448900
_cell_angle_alpha   90.00000000
_cell_angle_beta   90.00000000
_cell_angle_gamma   120.17351145
_symmetry_Int_Tables_number   1
_chemical_formula_structural   Er5SnBi2Se
_chemical_formula_sum   'Er10 Sn2 Bi4 Se2'
_cell_volume   478.88951913
_cell_formula_units_Z   2
loop_
 _symmetry_equiv_pos_site_id
 _symmetry_equiv_pos_as_xyz
  1  'x, y, z'
loop_
 _atom_site_type_symbol
 _atom_site_label
 _atom_site_symmetry_multiplicity
 _atom_site_fract_x
 _atom_site_fract_y
 _atom_site_fract_z
 _atom_site_occupancy
  Er  Er0  1  0.667879  0.330678  0.004174  1
  Er  Er1  1  0.330678  0.667879  0.004174  1
  Er  Er2  1  0.330678  0.667879  0.495826  1
  Er  Er3  1  0.667879  0.330678  0.495826  1
  Er  Er4  1  0.746642  0.746642  0.750000  1
  Er  Er5  1  0.254365  0.000312  0.750000  1
  Er  Er6  1  0.000312  0.254365  0.750000  1
  Er  Er7  1  0.251345  0.251345  0.250000  1
  Er  Er8  1  0.746853  0.005459  0.250000  1
  Er  Er9  1  0.005459  0.746853  0.250000  1
  Sn  Sn10  1  0.395615  0.000594  0.250000  1
  Sn  Sn11  1  0.000594  0.395615  0.250000  1
  Bi  Bi12  1  0.395489  0.395489  0.750000  1
  Bi  Bi13  1  0.603714  0.999336  0.750000  1
  Bi  Bi14  1  0.999336  0.603714  0.750000  1
  Bi  Bi15  1  0.605820  0.605820  0.250000  1
  Se  Se16  1  0.998672  0.998672  0.999427  1
  Se  Se17  1  0.998672  0.998672  0.500573  1
