# generated using pymatgen
data_Tb5Gd11(Tl3Co)2
_symmetry_space_group_name_H-M   'P 1'
_cell_length_a   10.36431100
_cell_length_b   10.36353893
_cell_length_c   7.10532700
_cell_angle_alpha   90.00525216
_cell_angle_beta   89.99970701
_cell_angle_gamma   120.00479783
_symmetry_Int_Tables_number   1
_chemical_formula_structural   Tb5Gd11(Tl3Co)2
_chemical_formula_sum   'Tb5 Gd11 Tl6 Co2'
_cell_volume   660.90984352
_cell_formula_units_Z   1
loop_
 _symmetry_equiv_pos_site_id
 _symmetry_equiv_pos_as_xyz
  1  'x, y, z'
loop_
 _atom_site_type_symbol
 _atom_site_label
 _atom_site_symmetry_multiplicity
 _atom_site_fract_x
 _atom_site_fract_y
 _atom_site_fract_z
 _atom_site_occupancy
  Tb  Tb0  1  0.537658  0.075688  0.512926  1
  Tb  Tb1  1  0.924916  0.462529  0.513595  1
  Tb  Tb2  1  0.537958  0.462470  0.513011  1
  Tb  Tb3  1  0.462040  0.924591  0.014061  1
  Tb  Tb4  1  0.075086  0.537185  0.013027  1
  Gd  Gd5  1  0.461590  0.537351  0.012839  1
  Gd  Gd6  1  0.177523  0.355030  0.716489  1
  Gd  Gd7  1  0.644552  0.822489  0.716946  1
  Gd  Gd8  1  0.177861  0.822281  0.716878  1
  Gd  Gd9  1  0.822868  0.644847  0.216128  1
  Gd  Gd10  1  0.355420  0.177737  0.216170  1
  Gd  Gd11  1  0.822548  0.177740  0.216529  1
  Gd  Gd12  1  0.666782  0.332989  0.904354  1
  Gd  Gd13  1  0.332546  0.665996  0.404885  1
  Gd  Gd14  1  0.000316  0.999766  0.499697  1
  Gd  Gd15  1  0.000912  0.999870  0.999527  1
  Tl  Tl16  1  0.835803  0.672103  0.763510  1
  Tl  Tl17  1  0.327591  0.164317  0.762967  1
  Tl  Tl18  1  0.836808  0.164354  0.762716  1
  Tl  Tl19  1  0.163525  0.327384  0.265211  1
  Tl  Tl20  1  0.672553  0.836520  0.263861  1
  Tl  Tl21  1  0.164395  0.836405  0.263098  1
  Co  Co22  1  0.666659  0.333977  0.287723  1
  Co  Co23  1  0.332089  0.666380  0.788053  1
