# generated using pymatgen
data_Ho12Ni5Bi
_symmetry_space_group_name_H-M   'P 1'
_cell_length_a   8.31882825
_cell_length_b   8.32229066
_cell_length_c   8.31882926
_cell_angle_alpha   111.68209927
_cell_angle_beta   109.37614873
_cell_angle_gamma   107.36735634
_symmetry_Int_Tables_number   1
_chemical_formula_structural   Ho12Ni5Bi
_chemical_formula_sum   'Ho12 Ni5 Bi1'
_cell_volume   442.81058105
_cell_formula_units_Z   1
loop_
 _symmetry_equiv_pos_site_id
 _symmetry_equiv_pos_as_xyz
  1  'x, y, z'
loop_
 _atom_site_type_symbol
 _atom_site_label
 _atom_site_symmetry_multiplicity
 _atom_site_fract_x
 _atom_site_fract_y
 _atom_site_fract_z
 _atom_site_occupancy
  Ho  Ho0  1  0.821240  0.705051  0.526704  1
  Ho  Ho1  1  0.178760  0.294949  0.473296  1
  Ho  Ho2  1  0.178348  0.705051  0.883811  1
  Ho  Ho3  1  0.821652  0.294949  0.116189  1
  Ho  Ho4  1  0.679565  0.370812  0.691248  1
  Ho  Ho5  1  0.320435  0.629188  0.308752  1
  Ho  Ho6  1  0.679130  0.987482  0.308353  1
  Ho  Ho7  1  0.320870  0.012518  0.691647  1
  Ho  Ho8  1  0.601297  0.793777  0.807771  1
  Ho  Ho9  1  0.398703  0.206223  0.192229  1
  Ho  Ho10  1  0.986007  0.793777  0.192480  1
  Ho  Ho11  1  0.013993  0.206223  0.807520  1
  Ni  Ni12  1  0.632948  0.000000  0.632948  1
  Ni  Ni13  1  0.367052  0.000000  0.367052  1
  Ni  Ni14  1  0.124117  0.624608  0.500491  1
  Ni  Ni15  1  0.875883  0.375392  0.499509  1
  Ni  Ni16  1  0.000000  0.000000  0.000000  1
  Bi  Bi17  1  0.500000  0.500000  0.000000  1
