# generated using pymatgen
data_NaLaPr5RhBr12
_symmetry_space_group_name_H-M   'P 1'
_cell_length_a   9.77809302
_cell_length_b   9.59484993
_cell_length_c   9.62028883
_cell_angle_alpha   106.80684433
_cell_angle_beta   107.29270661
_cell_angle_gamma   107.49843132
_symmetry_Int_Tables_number   1
_chemical_formula_structural   NaLaPr5RhBr12
_chemical_formula_sum   'Na1 La1 Pr5 Rh1 Br12'
_cell_volume   747.52124829
_cell_formula_units_Z   1
loop_
 _symmetry_equiv_pos_site_id
 _symmetry_equiv_pos_as_xyz
  1  'x, y, z'
loop_
 _atom_site_type_symbol
 _atom_site_label
 _atom_site_symmetry_multiplicity
 _atom_site_fract_x
 _atom_site_fract_y
 _atom_site_fract_z
 _atom_site_occupancy
  Na  Na0  1  0.500316  0.499742  0.500732  1
  La  La1  1  0.111608  0.318329  0.028744  1
  Pr  Pr2  1  0.329033  0.031538  0.117552  1
  Pr  Pr3  1  0.028730  0.111088  0.315201  1
  Pr  Pr4  1  0.970873  0.887438  0.683892  1
  Pr  Pr5  1  0.671164  0.969254  0.882311  1
  Pr  Pr6  1  0.888856  0.685064  0.971166  1
  Rh  Rh7  1  0.001251  0.003769  0.999925  1
  Br  Br8  1  0.213976  0.684197  0.072397  1
  Br  Br9  1  0.454004  0.371180  0.158388  1
  Br  Br10  1  0.686048  0.071874  0.215789  1
  Br  Br11  1  0.928220  0.781954  0.315538  1
  Br  Br12  1  0.159992  0.455197  0.373924  1
  Br  Br13  1  0.366916  0.154422  0.452271  1
  Br  Br14  1  0.632657  0.844153  0.547164  1
  Br  Br15  1  0.840747  0.544273  0.630249  1
  Br  Br16  1  0.070437  0.214353  0.680043  1
  Br  Br17  1  0.313498  0.926735  0.783788  1
  Br  Br18  1  0.549216  0.628984  0.843672  1
  Br  Br19  1  0.782461  0.316459  0.927260  1
