# generated using pymatgen
data_Ce3Dy3(SiPt5)2
_symmetry_space_group_name_H-M   'P 1'
_cell_length_a   8.29663315
_cell_length_b   8.28336882
_cell_length_c   8.28336787
_cell_angle_alpha   127.63725100
_cell_angle_beta   126.20175515
_cell_angle_gamma   78.35114709
_symmetry_Int_Tables_number   1
_chemical_formula_structural   Ce3Dy3(SiPt5)2
_chemical_formula_sum   'Ce3 Dy3 Si2 Pt10'
_cell_volume   352.36225183
_cell_formula_units_Z   1
loop_
 _symmetry_equiv_pos_site_id
 _symmetry_equiv_pos_as_xyz
  1  'x, y, z'
loop_
 _atom_site_type_symbol
 _atom_site_label
 _atom_site_symmetry_multiplicity
 _atom_site_fract_x
 _atom_site_fract_y
 _atom_site_fract_z
 _atom_site_occupancy
  Ce  Ce0  1  0.382059  0.748819  0.633240  1
  Ce  Ce1  1  0.228241  0.950866  0.277375  1
  Ce  Ce2  1  0.772382  0.050899  0.721483  1
  Dy  Dy3  1  0.826103  0.548723  0.277380  1
  Dy  Dy4  1  0.613465  0.251515  0.361950  1
  Dy  Dy5  1  0.170192  0.449145  0.721047  1
  Si  Si6  1  0.218740  0.250689  0.968051  1
  Si  Si7  1  0.782706  0.749240  0.033466  1
  Pt  Pt8  1  0.169998  0.899040  0.857292  1
  Pt  Pt9  1  0.831693  0.098436  0.141298  1
  Pt  Pt10  1  0.456917  0.187957  0.856737  1
  Pt  Pt11  1  0.544659  0.400617  0.733768  1
  Pt  Pt12  1  0.831693  0.690394  0.733256  1
  Pt  Pt13  1  0.456917  0.600180  0.268960  1
  Pt  Pt14  1  0.544659  0.810891  0.144043  1
  Pt  Pt15  1  0.169998  0.312706  0.270959  1
  Pt  Pt16  1  0.999788  0.000816  0.500722  1
  Pt  Pt17  1  0.999788  0.499066  0.998972  1
