# generated using pymatgen
data_BaLa7(Si3Au)4
_symmetry_space_group_name_H-M   'P 1'
_cell_length_a   8.49101600
_cell_length_b   8.49101580
_cell_length_c   8.85988500
_cell_angle_alpha   90.00000000
_cell_angle_beta   90.00000000
_cell_angle_gamma   119.95807470
_symmetry_Int_Tables_number   1
_chemical_formula_structural   BaLa7(Si3Au)4
_chemical_formula_sum   'Ba1 La7 Si12 Au4'
_cell_volume   553.42827635
_cell_formula_units_Z   1
loop_
 _symmetry_equiv_pos_site_id
 _symmetry_equiv_pos_as_xyz
  1  'x, y, z'
loop_
 _atom_site_type_symbol
 _atom_site_label
 _atom_site_symmetry_multiplicity
 _atom_site_fract_x
 _atom_site_fract_y
 _atom_site_fract_z
 _atom_site_occupancy
  Ba  Ba0  1  0.499809  0.500241  0.750000  1
  La  La1  1  0.500077  0.499857  0.250000  1
  La  La2  1  0.000085  0.500142  0.750000  1
  La  La3  1  0.999762  0.499857  0.250000  1
  La  La4  1  0.499849  0.999880  0.750000  1
  La  La5  1  0.500116  0.000251  0.250000  1
  La  La6  1  0.999999  0.999991  0.750000  1
  La  La7  1  0.000135  0.999972  0.250000  1
  Si  Si8  1  0.836885  0.163117  0.999309  1
  Si  Si9  1  0.163156  0.836846  0.999869  1
  Si  Si10  1  0.325422  0.160684  0.004363  1
  Si  Si11  1  0.163156  0.836846  0.500131  1
  Si  Si12  1  0.674636  0.839314  0.004968  1
  Si  Si13  1  0.836885  0.163117  0.500691  1
  Si  Si14  1  0.839317  0.674579  0.004371  1
  Si  Si15  1  0.674636  0.839314  0.495032  1
  Si  Si16  1  0.160689  0.325367  0.004960  1
  Si  Si17  1  0.325422  0.160684  0.495637  1
  Si  Si18  1  0.160689  0.325367  0.495040  1
  Si  Si19  1  0.839317  0.674579  0.495629  1
  Au  Au20  1  0.667936  0.332041  0.006871  1
  Au  Au21  1  0.332043  0.667955  0.007675  1
  Au  Au22  1  0.332043  0.667955  0.492325  1
  Au  Au23  1  0.667936  0.332041  0.493129  1
