# generated using pymatgen
data_Lu7Th(CdNi)2
_symmetry_space_group_name_H-M   'P 1'
_cell_length_a   9.37048342
_cell_length_b   9.37048330
_cell_length_c   9.38592400
_cell_angle_alpha   59.94546908
_cell_angle_beta   59.94546953
_cell_angle_gamma   60.20626428
_symmetry_Int_Tables_number   1
_chemical_formula_structural   Lu7Th(CdNi)2
_chemical_formula_sum   'Lu14 Th2 Cd4 Ni4'
_cell_volume   583.17496864
_cell_formula_units_Z   2
loop_
 _symmetry_equiv_pos_site_id
 _symmetry_equiv_pos_as_xyz
  1  'x, y, z'
loop_
 _atom_site_type_symbol
 _atom_site_label
 _atom_site_symmetry_multiplicity
 _atom_site_fract_x
 _atom_site_fract_y
 _atom_site_fract_z
 _atom_site_occupancy
  Lu  Lu0  1  0.187767  0.187767  0.812233  1
  Lu  Lu1  1  0.601154  0.196728  0.601060  1
  Lu  Lu2  1  0.196728  0.601154  0.601060  1
  Lu  Lu3  1  0.063270  0.439418  0.435843  1
  Lu  Lu4  1  0.439418  0.063270  0.061471  1
  Lu  Lu5  1  0.439418  0.063270  0.435843  1
  Lu  Lu6  1  0.063270  0.439418  0.061471  1
  Lu  Lu7  1  0.435430  0.435430  0.064570  1
  Lu  Lu8  1  0.062123  0.062123  0.437877  1
  Lu  Lu9  1  0.184779  0.815926  0.815992  1
  Lu  Lu10  1  0.815926  0.184779  0.183302  1
  Lu  Lu11  1  0.815926  0.184779  0.815992  1
  Lu  Lu12  1  0.184779  0.815926  0.183302  1
  Lu  Lu13  1  0.814176  0.814176  0.185824  1
  Th  Th14  1  0.594722  0.594722  0.602978  1
  Th  Th15  1  0.594722  0.594722  0.207577  1
  Cd  Cd16  1  0.834465  0.834465  0.829702  1
  Cd  Cd17  1  0.834465  0.834465  0.501369  1
  Cd  Cd18  1  0.836400  0.501109  0.831245  1
  Cd  Cd19  1  0.501109  0.836400  0.831245  1
  Ni  Ni20  1  0.391296  0.391296  0.394640  1
  Ni  Ni21  1  0.391296  0.391296  0.822769  1
  Ni  Ni22  1  0.394094  0.823272  0.391318  1
  Ni  Ni23  1  0.823272  0.394094  0.391318  1
