# generated using pymatgen
data_Ho4Ga18Co2OsPd3
_symmetry_space_group_name_H-M   'P 1'
_cell_length_a   7.54284140
_cell_length_b   7.54284082
_cell_length_c   9.48721300
_cell_angle_alpha   90.02213359
_cell_angle_beta   90.02213274
_cell_angle_gamma   119.83489747
_symmetry_Int_Tables_number   1
_chemical_formula_structural   Ho4Ga18Co2OsPd3
_chemical_formula_sum   'Ho4 Ga18 Co2 Os1 Pd3'
_cell_volume   468.22996062
_cell_formula_units_Z   1
loop_
 _symmetry_equiv_pos_site_id
 _symmetry_equiv_pos_as_xyz
  1  'x, y, z'
loop_
 _atom_site_type_symbol
 _atom_site_label
 _atom_site_symmetry_multiplicity
 _atom_site_fract_x
 _atom_site_fract_y
 _atom_site_fract_z
 _atom_site_occupancy
  Ho  Ho0  1  0.986345  0.666026  0.248506  1
  Ho  Ho1  1  0.992007  0.317710  0.751004  1
  Ho  Ho2  1  0.682290  0.007993  0.248996  1
  Ho  Ho3  1  0.333974  0.013655  0.751494  1
  Ga  Ga4  1  0.136645  0.134570  0.250073  1
  Ga  Ga5  1  0.865430  0.863355  0.749927  1
  Ga  Ga6  1  0.011518  0.347061  0.076580  1
  Ga  Ga7  1  0.012906  0.661749  0.921740  1
  Ga  Ga8  1  0.017501  0.665723  0.580559  1
  Ga  Ga9  1  0.334277  0.982499  0.419441  1
  Ga  Ga10  1  0.015322  0.347466  0.421400  1
  Ga  Ga11  1  0.652534  0.984678  0.578600  1
  Ga  Ga12  1  0.652939  0.988482  0.923420  1
  Ga  Ga13  1  0.338251  0.987094  0.078260  1
  Ga  Ga14  1  0.334858  0.345302  0.569250  1
  Ga  Ga15  1  0.654698  0.665143  0.430750  1
  Ga  Ga16  1  0.657228  0.663318  0.063480  1
  Ga  Ga17  1  0.336683  0.342772  0.936520  1
  Ga  Ga18  1  0.336977  0.568723  0.248585  1
  Ga  Ga19  1  0.665587  0.462041  0.752609  1
  Ga  Ga20  1  0.537959  0.334413  0.247391  1
  Ga  Ga21  1  0.431277  0.663023  0.751415  1
  Co  Co22  1  0.330378  0.669622  0.000000  1
  Co  Co23  1  0.331954  0.668046  0.500000  1
  Os  Os24  1  0.674048  0.325952  0.000000  1
  Pd  Pd25  1  0.673166  0.326834  0.500000  1
  Pd  Pd26  1  0.000483  0.999517  0.000000  1
  Pd  Pd27  1  0.002765  0.997235  0.500000  1
