# generated using pymatgen
data_Tb4CoRe4Ru3
_symmetry_space_group_name_H-M   'P 1'
_cell_length_a   5.40217368
_cell_length_b   5.20736789
_cell_length_c   9.08428500
_cell_angle_alpha   90.00000000
_cell_angle_beta   90.00000000
_cell_angle_gamma   121.41468344
_symmetry_Int_Tables_number   1
_chemical_formula_structural   Tb4CoRe4Ru3
_chemical_formula_sum   'Tb4 Co1 Re4 Ru3'
_cell_volume   218.09161569
_cell_formula_units_Z   1
loop_
 _symmetry_equiv_pos_site_id
 _symmetry_equiv_pos_as_xyz
  1  'x, y, z'
loop_
 _atom_site_type_symbol
 _atom_site_label
 _atom_site_symmetry_multiplicity
 _atom_site_fract_x
 _atom_site_fract_y
 _atom_site_fract_z
 _atom_site_occupancy
  Tb  Tb0  1  0.334494  0.669136  0.440255  1
  Tb  Tb1  1  0.670958  0.342165  0.567359  1
  Tb  Tb2  1  0.670958  0.342165  0.932641  1
  Tb  Tb3  1  0.334494  0.669136  0.059745  1
  Co  Co4  1  0.163922  0.813584  0.750000  1
  Re  Re5  1  0.832713  0.168817  0.250000  1
  Re  Re6  1  0.831016  0.660418  0.250000  1
  Re  Re7  1  0.339976  0.172473  0.250000  1
  Re  Re8  1  0.160122  0.317206  0.750000  1
  Ru  Ru9  1  0.011101  0.017870  0.507138  1
  Ru  Ru10  1  0.011101  0.017870  0.992862  1
  Ru  Ru11  1  0.639147  0.809158  0.750000  1
