# generated using pymatgen
data_LaCeP7Ru12
_symmetry_space_group_name_H-M   'P 1'
_cell_length_a   9.49714700
_cell_length_b   9.49714576
_cell_length_c   3.97022200
_cell_angle_alpha   90.00000000
_cell_angle_beta   90.00000000
_cell_angle_gamma   119.99999990
_symmetry_Int_Tables_number   1
_chemical_formula_structural   LaCeP7Ru12
_chemical_formula_sum   'La1 Ce1 P7 Ru12'
_cell_volume   310.12136541
_cell_formula_units_Z   1
loop_
 _symmetry_equiv_pos_site_id
 _symmetry_equiv_pos_as_xyz
  1  'x, y, z'
loop_
 _atom_site_type_symbol
 _atom_site_label
 _atom_site_symmetry_multiplicity
 _atom_site_fract_x
 _atom_site_fract_y
 _atom_site_fract_z
 _atom_site_occupancy
  La  La0  1  0.333333  0.666667  0.000000  1
  Ce  Ce1  1  0.666667  0.333333  0.500000  1
  P  P2  1  0.606913  0.718163  0.500000  1
  P  P3  1  0.000000  0.000000  0.000000  1
  P  P4  1  0.281837  0.888750  0.500000  1
  P  P5  1  0.111250  0.393087  0.500000  1
  P  P6  1  0.891067  0.575264  0.000000  1
  P  P7  1  0.424736  0.315802  0.000000  1
  P  P8  1  0.684198  0.108933  0.000000  1
  Ru  Ru9  1  0.560542  0.955837  0.500000  1
  Ru  Ru10  1  0.395295  0.439458  0.500000  1
  Ru  Ru11  1  0.913993  0.119428  0.500000  1
  Ru  Ru12  1  0.205435  0.086007  0.500000  1
  Ru  Ru13  1  0.880572  0.794565  0.500000  1
  Ru  Ru14  1  0.729516  0.891978  0.000000  1
  Ru  Ru15  1  0.108022  0.837537  0.000000  1
  Ru  Ru16  1  0.162463  0.270484  0.000000  1
  Ru  Ru17  1  0.422358  0.070348  0.000000  1
  Ru  Ru18  1  0.929652  0.352012  0.000000  1
  Ru  Ru19  1  0.647988  0.577642  0.000000  1
  Ru  Ru20  1  0.044163  0.604705  0.500000  1
