# generated using pymatgen
data_Pr2ErPaPt4
_symmetry_space_group_name_H-M   'P 1'
_cell_length_a   4.59280900
_cell_length_b   5.67979817
_cell_length_c   7.20822565
_cell_angle_alpha   88.90740717
_cell_angle_beta   90.00000000
_cell_angle_gamma   90.00000000
_symmetry_Int_Tables_number   1
_chemical_formula_structural   Pr2ErPaPt4
_chemical_formula_sum   'Pr2 Er1 Pa1 Pt4'
_cell_volume   188.00123128
_cell_formula_units_Z   1
loop_
 _symmetry_equiv_pos_site_id
 _symmetry_equiv_pos_as_xyz
  1  'x, y, z'
loop_
 _atom_site_type_symbol
 _atom_site_label
 _atom_site_symmetry_multiplicity
 _atom_site_fract_x
 _atom_site_fract_y
 _atom_site_fract_z
 _atom_site_occupancy
  Pr  Pr0  1  0.750000  0.355052  0.817269  1
  Pr  Pr1  1  0.250000  0.859499  0.682593  1
  Er  Er2  1  0.750000  0.145007  0.318156  1
  Pa  Pa3  1  0.250000  0.643922  0.184382  1
  Pt  Pt4  1  0.250000  0.159263  0.068734  1
  Pt  Pt5  1  0.750000  0.831787  0.981164  1
  Pt  Pt6  1  0.750000  0.656469  0.429596  1
  Pt  Pt7  1  0.250000  0.349002  0.518107  1
