# generated using pymatgen
data_La8Yb11HoSn16
_symmetry_space_group_name_H-M   'P 1'
_cell_length_a   7.95914232
_cell_length_b   8.50808765
_cell_length_c   16.02901700
_cell_angle_alpha   90.08039377
_cell_angle_beta   90.06626440
_cell_angle_gamma   89.89496013
_symmetry_Int_Tables_number   1
_chemical_formula_structural   La8Yb11HoSn16
_chemical_formula_sum   'La8 Yb11 Ho1 Sn16'
_cell_volume   1085.43461902
_cell_formula_units_Z   1
loop_
 _symmetry_equiv_pos_site_id
 _symmetry_equiv_pos_as_xyz
  1  'x, y, z'
loop_
 _atom_site_type_symbol
 _atom_site_label
 _atom_site_symmetry_multiplicity
 _atom_site_fract_x
 _atom_site_fract_y
 _atom_site_fract_z
 _atom_site_occupancy
  La  La0  1  0.493190  0.318249  0.904165  1
  La  La1  1  0.993066  0.184088  0.595287  1
  La  La2  1  0.506831  0.684284  0.403790  1
  La  La3  1  0.006368  0.815349  0.096130  1
  La  La4  1  0.507726  0.683874  0.096571  1
  La  La5  1  0.006916  0.815516  0.404267  1
  La  La6  1  0.492694  0.316838  0.595978  1
  La  La7  1  0.992620  0.184771  0.906021  1
  Yb  Yb8  1  0.828565  0.671084  0.623746  1
  Yb  Yb9  1  0.670674  0.170857  0.376204  1
  Yb  Yb10  1  0.170242  0.329364  0.123041  1
  Yb  Yb11  1  0.671346  0.169911  0.122856  1
  Yb  Yb12  1  0.170768  0.329533  0.376305  1
  Yb  Yb13  1  0.329389  0.830340  0.623738  1
  Yb  Yb14  1  0.828739  0.671079  0.877612  1
  Yb  Yb15  1  0.156643  0.503912  0.749252  1
  Yb  Yb16  1  0.660431  0.996946  0.748908  1
  Yb  Yb17  1  0.842697  0.493286  0.250256  1
  Yb  Yb18  1  0.343020  0.005435  0.249583  1
  Ho  Ho19  1  0.331143  0.826887  0.875439  1
  Sn  Sn20  1  0.328832  0.034380  0.036795  1
  Sn  Sn21  1  0.831277  0.463823  0.461053  1
  Sn  Sn22  1  0.667768  0.964500  0.539231  1
  Sn  Sn23  1  0.171697  0.539151  0.959878  1
  Sn  Sn24  1  0.662680  0.963235  0.958539  1
  Sn  Sn25  1  0.167775  0.536820  0.539545  1
  Sn  Sn26  1  0.332286  0.036621  0.460755  1
  Sn  Sn27  1  0.831654  0.463505  0.039237  1
  Sn  Sn28  1  0.527953  0.609302  0.750799  1
  Sn  Sn29  1  0.033060  0.890409  0.753882  1
  Sn  Sn30  1  0.470559  0.393184  0.249227  1
  Sn  Sn31  1  0.970393  0.105456  0.249857  1
  Sn  Sn32  1  0.285125  0.137425  0.752215  1
  Sn  Sn33  1  0.784145  0.361629  0.750655  1
  Sn  Sn34  1  0.716427  0.859567  0.249771  1
  Sn  Sn35  1  0.215300  0.639395  0.249411  1
