# generated using pymatgen
data_Tb2Y2Cu2PdPt
_symmetry_space_group_name_H-M   'P 1'
_cell_length_a   4.50552900
_cell_length_b   5.53555942
_cell_length_c   7.14235524
_cell_angle_alpha   89.84135523
_cell_angle_beta   90.00000000
_cell_angle_gamma   90.00000000
_symmetry_Int_Tables_number   1
_chemical_formula_structural   Tb2Y2Cu2PdPt
_chemical_formula_sum   'Tb2 Y2 Cu2 Pd1 Pt1'
_cell_volume   178.13411011
_cell_formula_units_Z   1
loop_
 _symmetry_equiv_pos_site_id
 _symmetry_equiv_pos_as_xyz
  1  'x, y, z'
loop_
 _atom_site_type_symbol
 _atom_site_label
 _atom_site_symmetry_multiplicity
 _atom_site_fract_x
 _atom_site_fract_y
 _atom_site_fract_z
 _atom_site_occupancy
  Tb  Tb0  1  0.500000  0.392725  0.312273  1
  Tb  Tb1  1  0.500000  0.607443  0.820651  1
  Y  Y2  1  0.000000  0.114672  0.685964  1
  Y  Y3  1  0.000000  0.884923  0.181634  1
  Cu  Cu4  1  0.500000  0.889642  0.464898  1
  Cu  Cu5  1  0.500000  0.107698  0.962492  1
  Pd  Pd6  1  0.000000  0.616579  0.536350  1
  Pt  Pt7  1  0.000000  0.386318  0.035738  1
