# generated using pymatgen
data_Er(BeB14)2
_symmetry_space_group_name_H-M   'P 1'
_cell_length_a   7.16840252
_cell_length_b   7.16840130
_cell_length_c   5.73084251
_cell_angle_alpha   66.56934771
_cell_angle_beta   66.56935707
_cell_angle_gamma   91.87247659
_symmetry_Int_Tables_number   1
_chemical_formula_structural   Er(BeB14)2
_chemical_formula_sum   'Er1 Be2 B28'
_cell_volume   241.47163558
_cell_formula_units_Z   1
loop_
 _symmetry_equiv_pos_site_id
 _symmetry_equiv_pos_as_xyz
  1  'x, y, z'
loop_
 _atom_site_type_symbol
 _atom_site_label
 _atom_site_symmetry_multiplicity
 _atom_site_fract_x
 _atom_site_fract_y
 _atom_site_fract_z
 _atom_site_occupancy
  Er  Er0  1  0.884877  0.884877  0.364224  1
  Be  Be1  1  0.493238  0.493238  0.517245  1
  Be  Be2  1  0.239378  0.239378  0.321193  1
  B  B3  1  0.418382  0.732465  0.181348  1
  B  B4  1  0.579987  0.256905  0.834387  1
  B  B5  1  0.256905  0.579987  0.834387  1
  B  B6  1  0.732465  0.418382  0.181348  1
  B  B7  1  0.693954  0.859754  0.979736  1
  B  B8  1  0.302726  0.130786  0.038284  1
  B  B9  1  0.130786  0.302726  0.038284  1
  B  B10  1  0.859754  0.693954  0.979736  1
  B  B11  1  0.529829  0.869885  0.307189  1
  B  B12  1  0.467541  0.120422  0.216417  1
  B  B13  1  0.120422  0.467541  0.216417  1
  B  B14  1  0.869885  0.529829  0.307189  1
  B  B15  1  0.462160  0.119031  0.714166  1
  B  B16  1  0.530861  0.866774  0.803362  1
  B  B17  1  0.866774  0.530861  0.803362  1
  B  B18  1  0.119031  0.462160  0.714166  1
  B  B19  1  0.721040  0.099276  0.005544  1
  B  B20  1  0.275174  0.890776  0.334068  1
  B  B21  1  0.890776  0.275174  0.334068  1
  B  B22  1  0.099276  0.721040  0.005544  1
  B  B23  1  0.275074  0.891748  0.012830  1
  B  B24  1  0.719051  0.096812  0.688086  1
  B  B25  1  0.096812  0.719051  0.688086  1
  B  B26  1  0.891748  0.275074  0.012830  1
  B  B27  1  0.283672  0.466280  0.385391  1
  B  B28  1  0.701488  0.520652  0.647860  1
  B  B29  1  0.520652  0.701488  0.647860  1
  B  B30  1  0.466280  0.283672  0.385391  1
