# generated using pymatgen
data_Sm8AlPd5Pt19
_symmetry_space_group_name_H-M   'P 1'
_cell_length_a   8.44064800
_cell_length_b   8.45089000
_cell_length_c   8.46508300
_cell_angle_alpha   90.00000000
_cell_angle_beta   90.00000000
_cell_angle_gamma   90.00000000
_symmetry_Int_Tables_number   1
_chemical_formula_structural   Sm8AlPd5Pt19
_chemical_formula_sum   'Sm8 Al1 Pd5 Pt19'
_cell_volume   603.82273200
_cell_formula_units_Z   1
loop_
 _symmetry_equiv_pos_site_id
 _symmetry_equiv_pos_as_xyz
  1  'x, y, z'
loop_
 _atom_site_type_symbol
 _atom_site_label
 _atom_site_symmetry_multiplicity
 _atom_site_fract_x
 _atom_site_fract_y
 _atom_site_fract_z
 _atom_site_occupancy
  Sm  Sm0  1  0.250725  0.250873  0.251009  1
  Sm  Sm1  1  0.748521  0.748401  0.748273  1
  Sm  Sm2  1  0.749275  0.749127  0.251009  1
  Sm  Sm3  1  0.748521  0.251599  0.748273  1
  Sm  Sm4  1  0.251479  0.251599  0.748273  1
  Sm  Sm5  1  0.250725  0.749127  0.251009  1
  Sm  Sm6  1  0.251479  0.748401  0.748273  1
  Sm  Sm7  1  0.749275  0.250873  0.251009  1
  Al  Al8  1  0.000000  0.000000  0.005497  1
  Pd  Pd9  1  0.500000  0.254617  0.499750  1
  Pd  Pd10  1  0.500000  0.745383  0.499750  1
  Pd  Pd11  1  0.500000  0.500000  0.255018  1
  Pd  Pd12  1  0.500000  0.500000  0.745099  1
  Pd  Pd13  1  0.000000  0.000000  0.707398  1
  Pt  Pt14  1  0.262843  0.500000  0.999968  1
  Pt  Pt15  1  0.737157  0.500000  0.999968  1
  Pt  Pt16  1  0.000000  0.262053  0.500185  1
  Pt  Pt17  1  0.500000  0.262686  0.999927  1
  Pt  Pt18  1  0.000000  0.737947  0.500185  1
  Pt  Pt19  1  0.500000  0.737314  0.999927  1
  Pt  Pt20  1  0.500000  0.000000  0.262099  1
  Pt  Pt21  1  0.262716  0.000000  0.500188  1
  Pt  Pt22  1  0.500000  0.000000  0.736114  1
  Pt  Pt23  1  0.737284  0.000000  0.500188  1
  Pt  Pt24  1  0.000000  0.500000  0.261452  1
  Pt  Pt25  1  0.000000  0.500000  0.736751  1
  Pt  Pt26  1  0.253860  0.500000  0.499645  1
  Pt  Pt27  1  0.746140  0.500000  0.499645  1
  Pt  Pt28  1  0.295312  0.000000  0.998695  1
  Pt  Pt29  1  0.704688  0.000000  0.998695  1
  Pt  Pt30  1  0.000000  0.294485  0.998681  1
  Pt  Pt31  1  0.000000  0.705515  0.998681  1
  Pt  Pt32  1  0.000000  0.000000  0.299364  1
