# generated using pymatgen
data_Cs4Pm4Te7S
_symmetry_space_group_name_H-M   'P 1'
_cell_length_a   9.57643258
_cell_length_b   9.05974454
_cell_length_c   8.04127737
_cell_angle_alpha   89.97935952
_cell_angle_beta   106.00897815
_cell_angle_gamma   81.68174118
_symmetry_Int_Tables_number   1
_chemical_formula_structural   Cs4Pm4Te7S
_chemical_formula_sum   'Cs4 Pm4 Te7 S1'
_cell_volume   662.95547098
_cell_formula_units_Z   1
loop_
 _symmetry_equiv_pos_site_id
 _symmetry_equiv_pos_as_xyz
  1  'x, y, z'
loop_
 _atom_site_type_symbol
 _atom_site_label
 _atom_site_symmetry_multiplicity
 _atom_site_fract_x
 _atom_site_fract_y
 _atom_site_fract_z
 _atom_site_occupancy
  Cs  Cs0  1  0.990618  0.716095  0.006616  1
  Cs  Cs1  1  0.027186  0.213910  0.509396  1
  Cs  Cs2  1  0.994102  0.721058  0.490907  1
  Cs  Cs3  1  0.018694  0.223036  0.994628  1
  Pm  Pm4  1  0.492158  0.638062  0.256682  1
  Pm  Pm5  1  0.492167  0.142974  0.233752  1
  Pm  Pm6  1  0.487847  0.896608  0.750110  1
  Pm  Pm7  1  0.500412  0.369104  0.755224  1
  Te  Te8  1  0.691722  0.366438  0.149801  1
  Te  Te9  1  0.286816  0.925420  0.347309  1
  Te  Te10  1  0.698007  0.093021  0.636521  1
  Te  Te11  1  0.315703  0.655322  0.857719  1
  Te  Te12  1  0.673283  0.862164  0.141472  1
  Te  Te13  1  0.291068  0.417849  0.354605  1
  Te  Te14  1  0.687219  0.600703  0.647097  1
  S  S15  1  0.352996  0.158230  0.868157  1
