# generated using pymatgen
data_Sr6ZrCo4O15
_symmetry_space_group_name_H-M   'P 1'
_cell_length_a   6.97759539
_cell_length_b   6.97759471
_cell_length_c   6.97759468
_cell_angle_alpha   87.70893361
_cell_angle_beta   87.70893367
_cell_angle_gamma   87.70892863
_symmetry_Int_Tables_number   1
_chemical_formula_structural   Sr6ZrCo4O15
_chemical_formula_sum   'Sr6 Zr1 Co4 O15'
_cell_volume   338.92341710
_cell_formula_units_Z   1
loop_
 _symmetry_equiv_pos_site_id
 _symmetry_equiv_pos_as_xyz
  1  'x, y, z'
loop_
 _atom_site_type_symbol
 _atom_site_label
 _atom_site_symmetry_multiplicity
 _atom_site_fract_x
 _atom_site_fract_y
 _atom_site_fract_z
 _atom_site_occupancy
  Sr  Sr0  1  0.500000  0.862164  0.137836  1
  Sr  Sr1  1  0.137836  0.500000  0.862164  1
  Sr  Sr2  1  0.862164  0.137836  0.500000  1
  Sr  Sr3  1  0.000000  0.673117  0.326883  1
  Sr  Sr4  1  0.326883  0.000000  0.673117  1
  Sr  Sr5  1  0.673117  0.326883  0.000000  1
  Zr  Zr6  1  0.500000  0.500000  0.500000  1
  Co  Co7  1  0.711836  0.711836  0.711836  1
  Co  Co8  1  0.288164  0.288164  0.288164  1
  Co  Co9  1  0.902649  0.902649  0.902649  1
  Co  Co10  1  0.097351  0.097351  0.097351  1
  O  O11  1  0.365067  0.549540  0.233897  1
  O  O12  1  0.233897  0.365067  0.549540  1
  O  O13  1  0.549540  0.233897  0.365067  1
  O  O14  1  0.634933  0.766103  0.450460  1
  O  O15  1  0.450460  0.634933  0.766103  1
  O  O16  1  0.766103  0.450460  0.634933  1
  O  O17  1  0.198569  0.026566  0.338651  1
  O  O18  1  0.338651  0.198569  0.026566  1
  O  O19  1  0.026566  0.338651  0.198569  1
  O  O20  1  0.801431  0.661349  0.973434  1
  O  O21  1  0.973434  0.801431  0.661349  1
  O  O22  1  0.150106  0.849894  0.000000  1
  O  O23  1  0.849894  0.000000  0.150106  1
  O  O24  1  0.000000  0.150106  0.849894  1
  O  O25  1  0.661349  0.973434  0.801431  1
