# generated using pymatgen
data_HoPa3(SiPt)4
_symmetry_space_group_name_H-M   'P 1'
_cell_length_a   4.29436900
_cell_length_b   7.19437330
_cell_length_c   7.42062446
_cell_angle_alpha   89.73623503
_cell_angle_beta   90.00000000
_cell_angle_gamma   90.00000000
_symmetry_Int_Tables_number   1
_chemical_formula_structural   HoPa3(SiPt)4
_chemical_formula_sum   'Ho1 Pa3 Si4 Pt4'
_cell_volume   229.25994247
_cell_formula_units_Z   1
loop_
 _symmetry_equiv_pos_site_id
 _symmetry_equiv_pos_as_xyz
  1  'x, y, z'
loop_
 _atom_site_type_symbol
 _atom_site_label
 _atom_site_symmetry_multiplicity
 _atom_site_fract_x
 _atom_site_fract_y
 _atom_site_fract_z
 _atom_site_occupancy
  Ho  Ho0  1  0.750000  0.004424  0.207965  1
  Pa  Pa1  1  0.250000  0.492487  0.703742  1
  Pa  Pa2  1  0.250000  0.996696  0.792598  1
  Pa  Pa3  1  0.750000  0.504426  0.293706  1
  Si  Si4  1  0.250000  0.788052  0.410543  1
  Si  Si5  1  0.250000  0.299672  0.093384  1
  Si  Si6  1  0.750000  0.200199  0.586370  1
  Si  Si7  1  0.750000  0.692309  0.911052  1
  Pt  Pt8  1  0.250000  0.202557  0.419413  1
  Pt  Pt9  1  0.250000  0.723908  0.078143  1
  Pt  Pt10  1  0.750000  0.798707  0.586623  1
  Pt  Pt11  1  0.750000  0.296565  0.916462  1
