# generated using pymatgen
data_Tb3DyTc4F28
_symmetry_space_group_name_H-M   'P 1'
_cell_length_a   5.61992208
_cell_length_b   8.94936400
_cell_length_c   12.07268461
_cell_angle_alpha   62.45458443
_cell_angle_beta   90.00601230
_cell_angle_gamma   89.99444945
_symmetry_Int_Tables_number   1
_chemical_formula_structural   Tb3DyTc4F28
_chemical_formula_sum   'Tb3 Dy1 Tc4 F28'
_cell_volume   538.36381497
_cell_formula_units_Z   1
loop_
 _symmetry_equiv_pos_site_id
 _symmetry_equiv_pos_as_xyz
  1  'x, y, z'
loop_
 _atom_site_type_symbol
 _atom_site_label
 _atom_site_symmetry_multiplicity
 _atom_site_fract_x
 _atom_site_fract_y
 _atom_site_fract_z
 _atom_site_occupancy
  Tb  Tb0  1  0.740866  0.187028  0.734939  1
  Tb  Tb1  1  0.758930  0.186628  0.234959  1
  Tb  Tb2  1  0.240796  0.812839  0.764992  1
  Dy  Dy3  1  0.259219  0.812943  0.264994  1
  Tc  Tc4  1  0.757772  0.726981  0.043844  1
  Tc  Tc5  1  0.242794  0.272782  0.956929  1
  Tc  Tc6  1  0.257409  0.273682  0.456432  1
  Tc  Tc7  1  0.742475  0.726828  0.542789  1
  F  F8  1  0.948817  0.706505  0.419676  1
  F  F9  1  0.052054  0.293688  0.579980  1
  F  F10  1  0.448040  0.293501  0.080257  1
  F  F11  1  0.551700  0.706685  0.920607  1
  F  F12  1  0.479492  0.730411  0.141150  1
  F  F13  1  0.522004  0.269998  0.860154  1
  F  F14  1  0.978534  0.269984  0.359722  1
  F  F15  1  0.021066  0.729821  0.639925  1
  F  F16  1  0.959276  0.746344  0.170693  1
  F  F17  1  0.043006  0.253851  0.829556  1
  F  F18  1  0.457486  0.254515  0.329253  1
  F  F19  1  0.541951  0.745738  0.670001  1
  F  F20  1  0.771258  0.480402  0.141289  1
  F  F21  1  0.229104  0.519429  0.859213  1
  F  F22  1  0.270537  0.520411  0.358718  1
  F  F23  1  0.728640  0.480335  0.640627  1
  F  F24  1  0.952447  0.279610  0.046475  1
  F  F25  1  0.047213  0.720140  0.953749  1
  F  F26  1  0.452385  0.720400  0.452670  1
  F  F27  1  0.547645  0.280222  0.546136  1
  F  F28  1  0.742448  0.972559  0.446916  1
  F  F29  1  0.257644  0.027974  0.552691  1
  F  F30  1  0.242741  0.027090  0.053274  1
  F  F31  1  0.757828  0.972605  0.947390  1
  F  F32  1  0.579283  0.971093  0.231844  1
  F  F33  1  0.418058  0.028786  0.768455  1
  F  F34  1  0.081173  0.027107  0.268259  1
  F  F35  1  0.917911  0.971086  0.731443  1
