# generated using pymatgen
data_Y12TcIr2Os
_symmetry_space_group_name_H-M   'P 1'
_cell_length_a   6.40171803
_cell_length_b   7.40288185
_cell_length_c   9.16003900
_cell_angle_alpha   90.00000000
_cell_angle_beta   90.00000000
_cell_angle_gamma   90.05305060
_symmetry_Int_Tables_number   1
_chemical_formula_structural   Y12TcIr2Os
_chemical_formula_sum   'Y12 Tc1 Ir2 Os1'
_cell_volume   434.10470819
_cell_formula_units_Z   1
loop_
 _symmetry_equiv_pos_site_id
 _symmetry_equiv_pos_as_xyz
  1  'x, y, z'
loop_
 _atom_site_type_symbol
 _atom_site_label
 _atom_site_symmetry_multiplicity
 _atom_site_fract_x
 _atom_site_fract_y
 _atom_site_fract_z
 _atom_site_occupancy
  Y  Y0  1  0.329780  0.674470  0.064921  1
  Y  Y1  1  0.170675  0.175550  0.434498  1
  Y  Y2  1  0.668382  0.324589  0.561786  1
  Y  Y3  1  0.833263  0.825554  0.937857  1
  Y  Y4  1  0.668382  0.324589  0.938214  1
  Y  Y5  1  0.833263  0.825554  0.562143  1
  Y  Y6  1  0.329780  0.674470  0.435079  1
  Y  Y7  1  0.170675  0.175550  0.065502  1
  Y  Y8  1  0.869018  0.539525  0.250000  1
  Y  Y9  1  0.628504  0.039624  0.250000  1
  Y  Y10  1  0.130340  0.460404  0.750000  1
  Y  Y11  1  0.369878  0.960146  0.750000  1
  Tc  Tc12  1  0.035440  0.883950  0.250000  1
  Ir  Ir13  1  0.958296  0.117354  0.750000  1
  Ir  Ir14  1  0.541215  0.615707  0.750000  1
  Os  Os15  1  0.463107  0.382965  0.250000  1
