# generated using pymatgen
data_Ho8CoNiB28
_symmetry_space_group_name_H-M   'P 1'
_cell_length_a   7.20243700
_cell_length_b   7.20243700
_cell_length_c   7.47386000
_cell_angle_alpha   90.00000000
_cell_angle_beta   90.00000000
_cell_angle_gamma   90.00000000
_symmetry_Int_Tables_number   1
_chemical_formula_structural   Ho8CoNiB28
_chemical_formula_sum   'Ho8 Co1 Ni1 B28'
_cell_volume   387.70722546
_cell_formula_units_Z   1
loop_
 _symmetry_equiv_pos_site_id
 _symmetry_equiv_pos_as_xyz
  1  'x, y, z'
loop_
 _atom_site_type_symbol
 _atom_site_label
 _atom_site_symmetry_multiplicity
 _atom_site_fract_x
 _atom_site_fract_y
 _atom_site_fract_z
 _atom_site_occupancy
  Ho  Ho0  1  0.669720  0.193634  0.000000  1
  Ho  Ho1  1  0.193634  0.330279  0.000000  1
  Ho  Ho2  1  0.806365  0.669720  0.000000  1
  Ho  Ho3  1  0.330279  0.806365  0.000000  1
  Ho  Ho4  1  0.693484  0.168129  0.500001  1
  Ho  Ho5  1  0.168129  0.306517  0.500001  1
  Ho  Ho6  1  0.831870  0.693484  0.500001  1
  Ho  Ho7  1  0.306517  0.831870  0.500001  1
  Co  Co8  1  0.000000  0.000000  0.000000  1
  Ni  Ni9  1  0.500000  0.500000  0.500001  1
  B  B10  1  0.500000  0.500000  0.111301  1
  B  B11  1  0.174111  0.038922  0.230733  1
  B  B12  1  0.961079  0.174111  0.230733  1
  B  B13  1  0.038922  0.825890  0.230733  1
  B  B14  1  0.825890  0.961079  0.230733  1
  B  B15  1  0.411304  0.088733  0.250569  1
  B  B16  1  0.911268  0.411304  0.250569  1
  B  B17  1  0.088733  0.588695  0.250569  1
  B  B18  1  0.588695  0.911268  0.250569  1
  B  B19  1  0.460682  0.325048  0.267471  1
  B  B20  1  0.674952  0.460682  0.267471  1
  B  B21  1  0.325048  0.539318  0.267471  1
  B  B22  1  0.539318  0.674952  0.267471  1
  B  B23  1  0.000000  0.000000  0.388217  1
  B  B24  1  0.000000  0.000000  0.611783  1
  B  B25  1  0.460682  0.325048  0.732528  1
  B  B26  1  0.674952  0.460682  0.732528  1
  B  B27  1  0.325048  0.539318  0.732528  1
  B  B28  1  0.539318  0.674952  0.732528  1
  B  B29  1  0.411304  0.088733  0.749431  1
  B  B30  1  0.911268  0.411304  0.749431  1
  B  B31  1  0.088733  0.588695  0.749431  1
  B  B32  1  0.588695  0.911268  0.749431  1
  B  B33  1  0.174111  0.038922  0.769267  1
  B  B34  1  0.961079  0.174111  0.769267  1
  B  B35  1  0.038922  0.825890  0.769267  1
  B  B36  1  0.825890  0.961079  0.769267  1
  B  B37  1  0.500000  0.500000  0.888699  1
