# generated using pymatgen
data_CaPrPaRh3
_symmetry_space_group_name_H-M   'P 1'
_cell_length_a   5.37744489
_cell_length_b   5.37744540
_cell_length_c   5.37744497
_cell_angle_alpha   67.32042848
_cell_angle_beta   67.32043024
_cell_angle_gamma   67.32043678
_symmetry_Int_Tables_number   1
_chemical_formula_structural   CaPrPaRh3
_chemical_formula_sum   'Ca1 Pr1 Pa1 Rh3'
_cell_volume   127.15210695
_cell_formula_units_Z   1
loop_
 _symmetry_equiv_pos_site_id
 _symmetry_equiv_pos_as_xyz
  1  'x, y, z'
loop_
 _atom_site_type_symbol
 _atom_site_label
 _atom_site_symmetry_multiplicity
 _atom_site_fract_x
 _atom_site_fract_y
 _atom_site_fract_z
 _atom_site_occupancy
  Ca  Ca0  1  0.630347  0.630347  0.630347  1
  Pr  Pr1  1  0.380667  0.380667  0.380667  1
  Pa  Pa2  1  0.996127  0.996127  0.996127  1
  Rh  Rh3  1  0.998575  0.998575  0.495708  1
  Rh  Rh4  1  0.495708  0.998575  0.998575  1
  Rh  Rh5  1  0.998575  0.495708  0.998575  1
