# generated using pymatgen
data_Dy8TmLu(SiSb)4
_symmetry_space_group_name_H-M   'P 1'
_cell_length_a   8.50866074
_cell_length_b   8.50866141
_cell_length_c   7.84130604
_cell_angle_alpha   90.00553002
_cell_angle_beta   90.00553183
_cell_angle_gamma   125.34883349
_symmetry_Int_Tables_number   1
_chemical_formula_structural   Dy8TmLu(SiSb)4
_chemical_formula_sum   'Dy8 Tm1 Lu1 Si4 Sb4'
_cell_volume   463.03296071
_cell_formula_units_Z   1
loop_
 _symmetry_equiv_pos_site_id
 _symmetry_equiv_pos_as_xyz
  1  'x, y, z'
loop_
 _atom_site_type_symbol
 _atom_site_label
 _atom_site_symmetry_multiplicity
 _atom_site_fract_x
 _atom_site_fract_y
 _atom_site_fract_z
 _atom_site_occupancy
  Dy  Dy0  1  0.040729  0.292948  0.334141  1
  Dy  Dy1  1  0.959271  0.707052  0.665859  1
  Dy  Dy2  1  0.459543  0.207359  0.833904  1
  Dy  Dy3  1  0.792641  0.540457  0.166096  1
  Dy  Dy4  1  0.540457  0.792641  0.166096  1
  Dy  Dy5  1  0.207359  0.459543  0.833904  1
  Dy  Dy6  1  0.707052  0.959271  0.665859  1
  Dy  Dy7  1  0.292948  0.040729  0.334141  1
  Tm  Tm8  1  0.000000  0.000000  0.000000  1
  Lu  Lu9  1  0.500000  0.500000  0.500000  1
  Si  Si10  1  0.367924  0.367924  0.131646  1
  Si  Si11  1  0.632076  0.632076  0.868354  1
  Si  Si12  1  0.132458  0.132458  0.631190  1
  Si  Si13  1  0.867542  0.867542  0.368810  1
  Sb  Sb14  1  0.794640  0.205360  0.000000  1
  Sb  Sb15  1  0.205360  0.794640  0.000000  1
  Sb  Sb16  1  0.705011  0.294989  0.500000  1
  Sb  Sb17  1  0.294989  0.705011  0.500000  1
