# generated using pymatgen
data_Y12Tc3Se
_symmetry_space_group_name_H-M   'P 1'
_cell_length_a   6.37061819
_cell_length_b   7.50182500
_cell_length_c   9.22083900
_cell_angle_alpha   90.00000000
_cell_angle_beta   90.00000000
_cell_angle_gamma   90.22747230
_symmetry_Int_Tables_number   1
_chemical_formula_structural   Y12Tc3Se
_chemical_formula_sum   'Y12 Tc3 Se1'
_cell_volume   440.67206700
_cell_formula_units_Z   1
loop_
 _symmetry_equiv_pos_site_id
 _symmetry_equiv_pos_as_xyz
  1  'x, y, z'
loop_
 _atom_site_type_symbol
 _atom_site_label
 _atom_site_symmetry_multiplicity
 _atom_site_fract_x
 _atom_site_fract_y
 _atom_site_fract_z
 _atom_site_occupancy
  Y  Y0  1  0.629988  0.051603  0.250000  1
  Y  Y1  1  0.365481  0.958942  0.750000  1
  Y  Y2  1  0.120712  0.464728  0.750000  1
  Y  Y3  1  0.863935  0.523777  0.250000  1
  Y  Y4  1  0.160288  0.191214  0.059272  1
  Y  Y5  1  0.829325  0.822273  0.930578  1
  Y  Y6  1  0.666264  0.321362  0.934668  1
  Y  Y7  1  0.829325  0.822273  0.569422  1
  Y  Y8  1  0.349965  0.665842  0.057646  1
  Y  Y9  1  0.160288  0.191214  0.440728  1
  Y  Y10  1  0.349965  0.665842  0.442354  1
  Y  Y11  1  0.666264  0.321362  0.565332  1
  Tc  Tc12  1  0.447428  0.382665  0.250000  1
  Tc  Tc13  1  0.534405  0.619363  0.750000  1
  Tc  Tc14  1  0.964931  0.117218  0.750000  1
  Se  Se15  1  0.061433  0.880320  0.250000  1
