# generated using pymatgen
data_Rb(SiPd)4
_symmetry_space_group_name_H-M   'P 1'
_cell_length_a   6.46848466
_cell_length_b   6.46848446
_cell_length_c   6.46848543
_cell_angle_alpha   97.28323483
_cell_angle_beta   97.28324438
_cell_angle_gamma   138.28388992
_symmetry_Int_Tables_number   1
_chemical_formula_structural   Rb(SiPd)4
_chemical_formula_sum   'Rb1 Si4 Pd4'
_cell_volume   168.29839987
_cell_formula_units_Z   1
loop_
 _symmetry_equiv_pos_site_id
 _symmetry_equiv_pos_as_xyz
  1  'x, y, z'
loop_
 _atom_site_type_symbol
 _atom_site_label
 _atom_site_symmetry_multiplicity
 _atom_site_fract_x
 _atom_site_fract_y
 _atom_site_fract_z
 _atom_site_occupancy
  Rb  Rb0  1  0.343125  0.343125  0.000000  1
  Si  Si1  1  0.387977  0.889912  0.277345  1
  Si  Si2  1  0.612567  0.110632  0.722655  1
  Si  Si3  1  0.110632  0.387977  0.498065  1
  Si  Si4  1  0.889912  0.612567  0.501935  1
  Pd  Pd5  1  0.172906  0.679998  0.852512  1
  Pd  Pd6  1  0.827486  0.320394  0.147488  1
  Pd  Pd7  1  0.320394  0.172906  0.492908  1
  Pd  Pd8  1  0.679998  0.827486  0.507092  1
