# generated using pymatgen
data_YbDy4(In2Pt)2
_symmetry_space_group_name_H-M   'P 1'
_cell_length_a   3.61655700
_cell_length_b   8.20648700
_cell_length_c   18.41010200
_cell_angle_alpha   90.00000000
_cell_angle_beta   90.00000000
_cell_angle_gamma   90.00000000
_symmetry_Int_Tables_number   1
_chemical_formula_structural   YbDy4(In2Pt)2
_chemical_formula_sum   'Yb2 Dy8 In8 Pt4'
_cell_volume   546.39761486
_cell_formula_units_Z   2
loop_
 _symmetry_equiv_pos_site_id
 _symmetry_equiv_pos_as_xyz
  1  'x, y, z'
loop_
 _atom_site_type_symbol
 _atom_site_label
 _atom_site_symmetry_multiplicity
 _atom_site_fract_x
 _atom_site_fract_y
 _atom_site_fract_z
 _atom_site_occupancy
  Yb  Yb0  1  0.000000  0.000000  0.000000  1
  Yb  Yb1  1  0.000000  0.500000  0.500000  1
  Dy  Dy2  1  0.000000  0.117922  0.414089  1
  Dy  Dy3  1  0.000000  0.882078  0.585911  1
  Dy  Dy4  1  0.000000  0.382078  0.914089  1
  Dy  Dy5  1  0.000000  0.617922  0.085911  1
  Dy  Dy6  1  0.000000  0.244384  0.220624  1
  Dy  Dy7  1  0.000000  0.755616  0.779376  1
  Dy  Dy8  1  0.000000  0.255616  0.720624  1
  Dy  Dy9  1  0.000000  0.744384  0.279376  1
  In  In10  1  0.500000  0.425981  0.351446  1
  In  In11  1  0.500000  0.574019  0.648554  1
  In  In12  1  0.500000  0.074019  0.851446  1
  In  In13  1  0.500000  0.925981  0.148554  1
  In  In14  1  0.500000  0.291963  0.067375  1
  In  In15  1  0.500000  0.708037  0.932625  1
  In  In16  1  0.500000  0.208037  0.567375  1
  In  In17  1  0.500000  0.791963  0.432625  1
  Pt  Pt18  1  0.500000  0.024254  0.302851  1
  Pt  Pt19  1  0.500000  0.975746  0.697149  1
  Pt  Pt20  1  0.500000  0.475746  0.802851  1
  Pt  Pt21  1  0.500000  0.524254  0.197149  1
