# generated using pymatgen
data_Ta13Nb3(GaTe4)4
_symmetry_space_group_name_H-M   'P 1'
_cell_length_a   4.86347600
_cell_length_b   11.17450242
_cell_length_c   19.57040234
_cell_angle_alpha   89.96613963
_cell_angle_beta   90.00000000
_cell_angle_gamma   90.00000000
_symmetry_Int_Tables_number   1
_chemical_formula_structural   Ta13Nb3(GaTe4)4
_chemical_formula_sum   'Ta13 Nb3 Ga4 Te16'
_cell_volume   1063.59098973
_cell_formula_units_Z   1
loop_
 _symmetry_equiv_pos_site_id
 _symmetry_equiv_pos_as_xyz
  1  'x, y, z'
loop_
 _atom_site_type_symbol
 _atom_site_label
 _atom_site_symmetry_multiplicity
 _atom_site_fract_x
 _atom_site_fract_y
 _atom_site_fract_z
 _atom_site_occupancy
  Ta  Ta0  1  0.500000  0.563874  0.383307  1
  Ta  Ta1  1  0.500000  0.436056  0.616543  1
  Ta  Ta2  1  0.500000  0.064060  0.116827  1
  Ta  Ta3  1  0.500000  0.935905  0.883809  1
  Ta  Ta4  1  0.500000  0.704554  0.536315  1
  Ta  Ta5  1  0.500000  0.295331  0.463496  1
  Ta  Ta6  1  0.500000  0.204872  0.963431  1
  Ta  Ta7  1  0.500000  0.795813  0.036409  1
  Ta  Ta8  1  0.000000  0.810283  0.943352  1
  Ta  Ta9  1  0.000000  0.400813  0.391671  1
  Ta  Ta10  1  0.000000  0.599064  0.608146  1
  Ta  Ta11  1  0.000000  0.901013  0.108361  1
  Ta  Ta12  1  0.000000  0.098873  0.891760  1
  Nb  Nb13  1  0.000000  0.690910  0.442721  1
  Nb  Nb14  1  0.000000  0.309032  0.557138  1
  Nb  Nb15  1  0.000000  0.191054  0.057193  1
  Ga  Ga16  1  0.249556  0.499940  0.499914  1
  Ga  Ga17  1  0.750248  0.000696  0.000276  1
  Ga  Ga18  1  0.750444  0.499940  0.499914  1
  Ga  Ga19  1  0.249752  0.000696  0.000276  1
  Te  Te20  1  0.000000  0.841572  0.561814  1
  Te  Te21  1  0.000000  0.158353  0.437966  1
  Te  Te22  1  0.000000  0.341478  0.937929  1
  Te  Te23  1  0.000000  0.658207  0.061404  1
  Te  Te24  1  0.500000  0.334198  0.318854  1
  Te  Te25  1  0.500000  0.665963  0.680931  1
  Te  Te26  1  0.500000  0.834329  0.181160  1
  Te  Te27  1  0.500000  0.165831  0.818971  1
  Te  Te28  1  0.500000  0.816898  0.405047  1
  Te  Te29  1  0.500000  0.183002  0.594791  1
  Te  Te30  1  0.500000  0.316976  0.094693  1
  Te  Te31  1  0.500000  0.682134  0.905207  1
  Te  Te32  1  0.000000  0.605135  0.304346  1
  Te  Te33  1  0.000000  0.394763  0.695545  1
  Te  Te34  1  0.000000  0.105337  0.195630  1
  Te  Te35  1  0.000000  0.893045  0.804849  1
