# generated using pymatgen
data_Rb3Nd(VSe4)2
_symmetry_space_group_name_H-M   'P 1'
_cell_length_a   10.35312877
_cell_length_b   7.24147000
_cell_length_c   12.18202079
_cell_angle_alpha   90.00000000
_cell_angle_beta   90.46105931
_cell_angle_gamma   90.00000000
_symmetry_Int_Tables_number   1
_chemical_formula_structural   Rb3Nd(VSe4)2
_chemical_formula_sum   'Rb6 Nd2 V4 Se16'
_cell_volume   913.27932549
_cell_formula_units_Z   2
loop_
 _symmetry_equiv_pos_site_id
 _symmetry_equiv_pos_as_xyz
  1  'x, y, z'
loop_
 _atom_site_type_symbol
 _atom_site_label
 _atom_site_symmetry_multiplicity
 _atom_site_fract_x
 _atom_site_fract_y
 _atom_site_fract_z
 _atom_site_occupancy
  Rb  Rb0  1  0.364578  0.801883  0.089518  1
  Rb  Rb1  1  0.400869  0.307799  0.347817  1
  Rb  Rb2  1  0.838953  0.308567  0.427658  1
  Rb  Rb3  1  0.161047  0.808567  0.572343  1
  Rb  Rb4  1  0.599131  0.807799  0.652183  1
  Rb  Rb5  1  0.635423  0.301883  0.910482  1
  Nd  Nd6  1  0.888319  0.782332  0.148739  1
  Nd  Nd7  1  0.111681  0.282332  0.851261  1
  V  V8  1  0.089079  0.333479  0.156690  1
  V  V9  1  0.631141  0.807984  0.312173  1
  V  V10  1  0.368859  0.307983  0.687827  1
  V  V11  1  0.910921  0.833479  0.843310  1
  Se  Se12  1  0.926238  0.396409  0.034262  1
  Se  Se13  1  0.277326  0.305161  0.059871  1
  Se  Se14  1  0.661595  0.052789  0.195438  1
  Se  Se15  1  0.648522  0.550794  0.200919  1
  Se  Se16  1  0.057817  0.073232  0.260393  1
  Se  Se17  1  0.100081  0.580615  0.273071  1
  Se  Se18  1  0.438160  0.816944  0.396943  1
  Se  Se19  1  0.812683  0.804291  0.420577  1
  Se  Se20  1  0.187318  0.304290  0.579423  1
  Se  Se21  1  0.561839  0.316943  0.603057  1
  Se  Se22  1  0.899919  0.080614  0.726929  1
  Se  Se23  1  0.942183  0.573232  0.739607  1
  Se  Se24  1  0.351478  0.050795  0.799081  1
  Se  Se25  1  0.338405  0.552787  0.804562  1
  Se  Se26  1  0.722673  0.805162  0.940129  1
  Se  Se27  1  0.073762  0.896409  0.965737  1
