# generated using pymatgen
data_Nd6In8HgTe
_symmetry_space_group_name_H-M   'P 1'
_cell_length_a   8.57962504
_cell_length_b   8.57962352
_cell_length_c   8.57962300
_cell_angle_alpha   120.04013921
_cell_angle_beta   120.04014107
_cell_angle_gamma   89.93049200
_symmetry_Int_Tables_number   1
_chemical_formula_structural   Nd6In8HgTe
_chemical_formula_sum   'Nd6 In8 Hg1 Te1'
_cell_volume   446.29889902
_cell_formula_units_Z   1
loop_
 _symmetry_equiv_pos_site_id
 _symmetry_equiv_pos_as_xyz
  1  'x, y, z'
loop_
 _atom_site_type_symbol
 _atom_site_label
 _atom_site_symmetry_multiplicity
 _atom_site_fract_x
 _atom_site_fract_y
 _atom_site_fract_z
 _atom_site_occupancy
  Nd  Nd0  1  0.755414  0.755407  0.000008  1
  Nd  Nd1  1  0.244586  0.244593  0.999992  1
  Nd  Nd2  1  0.664257  0.154878  0.819132  1
  Nd  Nd3  1  0.335743  0.845122  0.180868  1
  Nd  Nd4  1  0.154871  0.335773  0.490645  1
  Nd  Nd5  1  0.845129  0.664227  0.509355  1
  In  In6  1  0.335386  0.818550  0.789576  1
  In  In7  1  0.664614  0.181450  0.210424  1
  In  In8  1  0.028972  0.545809  0.210399  1
  In  In9  1  0.818526  0.028991  0.483180  1
  In  In10  1  0.454180  0.664667  0.483182  1
  In  In11  1  0.971028  0.454191  0.789601  1
  In  In12  1  0.181474  0.971009  0.516820  1
  In  In13  1  0.545820  0.335333  0.516818  1
  Hg  Hg14  1  0.500000  0.500000  0.000000  1
  Te  Te15  1  0.000000  0.000000  0.000000  1
