# generated using pymatgen
data_NaSm6RuI12
_symmetry_space_group_name_H-M   'P 1'
_cell_length_a   9.95559431
_cell_length_b   9.95559430
_cell_length_c   9.95559406
_cell_angle_alpha   106.96824994
_cell_angle_beta   106.96824815
_cell_angle_gamma   106.96824059
_symmetry_Int_Tables_number   1
_chemical_formula_structural   NaSm6RuI12
_chemical_formula_sum   'Na1 Sm6 Ru1 I12'
_cell_volume   822.47507767
_cell_formula_units_Z   1
loop_
 _symmetry_equiv_pos_site_id
 _symmetry_equiv_pos_as_xyz
  1  'x, y, z'
loop_
 _atom_site_type_symbol
 _atom_site_label
 _atom_site_symmetry_multiplicity
 _atom_site_fract_x
 _atom_site_fract_y
 _atom_site_fract_z
 _atom_site_occupancy
  Na  Na0  1  0.500000  0.500000  0.500000  1
  Sm  Sm1  1  0.898195  0.695389  0.969523  1
  Sm  Sm2  1  0.969523  0.898195  0.695389  1
  Sm  Sm3  1  0.695389  0.969523  0.898195  1
  Sm  Sm4  1  0.101805  0.304611  0.030477  1
  Sm  Sm5  1  0.030477  0.101805  0.304611  1
  Sm  Sm6  1  0.304611  0.030477  0.101805  1
  Ru  Ru7  1  0.000000  0.000000  0.000000  1
  I  I8  1  0.625246  0.854165  0.546075  1
  I  I9  1  0.546075  0.625246  0.854165  1
  I  I10  1  0.854165  0.546075  0.625246  1
  I  I11  1  0.374754  0.145835  0.453925  1
  I  I12  1  0.453925  0.374754  0.145835  1
  I  I13  1  0.145835  0.453925  0.374754  1
  I  I14  1  0.683979  0.074173  0.224654  1
  I  I15  1  0.224654  0.683979  0.074173  1
  I  I16  1  0.074173  0.224654  0.683979  1
  I  I17  1  0.316021  0.925827  0.775346  1
  I  I18  1  0.775346  0.316021  0.925827  1
  I  I19  1  0.925827  0.775346  0.316021  1
