# generated using pymatgen
data_Yb2DyY(NiB4)4
_symmetry_space_group_name_H-M   'P 1'
_cell_length_a   6.81727652
_cell_length_b   6.81727604
_cell_length_c   6.81727600
_cell_angle_alpha   112.84949274
_cell_angle_beta   112.84950295
_cell_angle_gamma   102.90741779
_symmetry_Int_Tables_number   1
_chemical_formula_structural   Yb2DyY(NiB4)4
_chemical_formula_sum   'Yb2 Dy1 Y1 Ni4 B16'
_cell_volume   241.53665928
_cell_formula_units_Z   1
loop_
 _symmetry_equiv_pos_site_id
 _symmetry_equiv_pos_as_xyz
  1  'x, y, z'
loop_
 _atom_site_type_symbol
 _atom_site_label
 _atom_site_symmetry_multiplicity
 _atom_site_fract_x
 _atom_site_fract_y
 _atom_site_fract_z
 _atom_site_occupancy
  Yb  Yb0  1  0.795989  0.795989  0.000000  1
  Yb  Yb1  1  0.204011  0.204011  0.000000  1
  Dy  Dy2  1  0.250000  0.750000  0.500000  1
  Y  Y3  1  0.750000  0.250000  0.500000  1
  Ni  Ni4  1  0.273604  0.500119  0.773485  1
  Ni  Ni5  1  0.726634  0.500119  0.226515  1
  Ni  Ni6  1  0.499881  0.726396  0.226515  1
  Ni  Ni7  1  0.499881  0.273366  0.773485  1
  B  B8  1  0.276242  0.112169  0.388540  1
  B  B9  1  0.723628  0.887701  0.611460  1
  B  B10  1  0.276242  0.887701  0.164073  1
  B  B11  1  0.723628  0.112169  0.835927  1
  B  B12  1  0.112299  0.723758  0.835927  1
  B  B13  1  0.887831  0.276372  0.164073  1
  B  B14  1  0.112299  0.276372  0.388540  1
  B  B15  1  0.887831  0.723758  0.611460  1
  B  B16  1  0.113311  0.113174  0.530329  1
  B  B17  1  0.582843  0.582981  0.469671  1
  B  B18  1  0.113311  0.582981  0.000138  1
  B  B19  1  0.582843  0.113174  0.999862  1
  B  B20  1  0.886826  0.886689  0.469671  1
  B  B21  1  0.417019  0.417157  0.530329  1
  B  B22  1  0.886826  0.417157  0.000138  1
  B  B23  1  0.417019  0.886689  0.999862  1
