# generated using pymatgen
data_Ho6Zn21Pd2S
_symmetry_space_group_name_H-M   'P 1'
_cell_length_a   9.03029572
_cell_length_b   8.98733561
_cell_length_c   9.03029700
_cell_angle_alpha   60.15724640
_cell_angle_beta   59.75246780
_cell_angle_gamma   60.15724585
_symmetry_Int_Tables_number   1
_chemical_formula_structural   Ho6Zn21Pd2S
_chemical_formula_sum   'Ho6 Zn21 Pd2 S1'
_cell_volume   518.47193749
_cell_formula_units_Z   1
loop_
 _symmetry_equiv_pos_site_id
 _symmetry_equiv_pos_as_xyz
  1  'x, y, z'
loop_
 _atom_site_type_symbol
 _atom_site_label
 _atom_site_symmetry_multiplicity
 _atom_site_fract_x
 _atom_site_fract_y
 _atom_site_fract_z
 _atom_site_occupancy
  Ho  Ho0  1  0.711454  0.287867  0.288546  1
  Ho  Ho1  1  0.711135  0.288865  0.711135  1
  Ho  Ho2  1  0.711454  0.712133  0.288546  1
  Ho  Ho3  1  0.288546  0.712133  0.711454  1
  Ho  Ho4  1  0.288865  0.711135  0.288865  1
  Ho  Ho5  1  0.288546  0.287867  0.711454  1
  Zn  Zn6  1  0.632475  0.121014  0.125499  1
  Zn  Zn7  1  0.122777  0.634074  0.122777  1
  Zn  Zn8  1  0.125499  0.121014  0.632475  1
  Zn  Zn9  1  0.122777  0.120372  0.122777  1
  Zn  Zn10  1  0.367525  0.878986  0.874501  1
  Zn  Zn11  1  0.877223  0.365926  0.877223  1
  Zn  Zn12  1  0.874501  0.878986  0.367525  1
  Zn  Zn13  1  0.877223  0.879628  0.877223  1
  Zn  Zn14  1  0.500000  0.000000  0.000000  1
  Zn  Zn15  1  0.500000  0.500000  0.000000  1
  Zn  Zn16  1  0.000000  0.500000  0.500000  1
  Zn  Zn17  1  0.000000  0.500000  0.000000  1
  Zn  Zn18  1  0.000000  0.000000  0.500000  1
  Zn  Zn19  1  0.008543  0.331130  0.329196  1
  Zn  Zn20  1  0.328415  0.012796  0.328415  1
  Zn  Zn21  1  0.329196  0.331130  0.008543  1
  Zn  Zn22  1  0.328415  0.330372  0.328415  1
  Zn  Zn23  1  0.991457  0.668870  0.670804  1
  Zn  Zn24  1  0.671585  0.987204  0.671585  1
  Zn  Zn25  1  0.670804  0.668870  0.991457  1
  Zn  Zn26  1  0.671585  0.669628  0.671585  1
  Pd  Pd27  1  0.500000  0.000000  0.500000  1
  Pd  Pd28  1  0.000000  0.000000  0.000000  1
  S  S29  1  0.500000  0.500000  0.500000  1
