# generated using pymatgen
data_Ac4MgGe4
_symmetry_space_group_name_H-M   'P 1'
_cell_length_a   7.84886400
_cell_length_b   8.53694300
_cell_length_c   16.01112900
_cell_angle_alpha   90.00000000
_cell_angle_beta   90.00000000
_cell_angle_gamma   90.00000000
_symmetry_Int_Tables_number   1
_chemical_formula_structural   Ac4MgGe4
_chemical_formula_sum   'Ac16 Mg4 Ge16'
_cell_volume   1072.83057536
_cell_formula_units_Z   4
loop_
 _symmetry_equiv_pos_site_id
 _symmetry_equiv_pos_as_xyz
  1  'x, y, z'
loop_
 _atom_site_type_symbol
 _atom_site_label
 _atom_site_symmetry_multiplicity
 _atom_site_fract_x
 _atom_site_fract_y
 _atom_site_fract_z
 _atom_site_occupancy
  Ac  Ac0  1  0.326128  0.179527  0.631098  1
  Ac  Ac1  1  0.673872  0.820473  0.368902  1
  Ac  Ac2  1  0.173872  0.679527  0.368902  1
  Ac  Ac3  1  0.673872  0.820473  0.131098  1
  Ac  Ac4  1  0.826128  0.320473  0.631098  1
  Ac  Ac5  1  0.326128  0.179527  0.868902  1
  Ac  Ac6  1  0.826128  0.320473  0.868902  1
  Ac  Ac7  1  0.173872  0.679527  0.131098  1
  Ac  Ac8  1  0.017911  0.190853  0.099347  1
  Ac  Ac9  1  0.982089  0.809147  0.900653  1
  Ac  Ac10  1  0.482089  0.690853  0.900653  1
  Ac  Ac11  1  0.982089  0.809147  0.599347  1
  Ac  Ac12  1  0.517911  0.309147  0.099347  1
  Ac  Ac13  1  0.017911  0.190853  0.400653  1
  Ac  Ac14  1  0.517911  0.309147  0.400653  1
  Ac  Ac15  1  0.482089  0.690853  0.599347  1
  Mg  Mg16  1  0.167604  0.529191  0.750000  1
  Mg  Mg17  1  0.832396  0.470809  0.250000  1
  Mg  Mg18  1  0.332396  0.029191  0.250000  1
  Mg  Mg19  1  0.667604  0.970809  0.750000  1
  Ge  Ge20  1  0.275665  0.863251  0.750000  1
  Ge  Ge21  1  0.724335  0.136749  0.250000  1
  Ge  Ge22  1  0.224335  0.363251  0.250000  1
  Ge  Ge23  1  0.775665  0.636749  0.750000  1
  Ge  Ge24  1  0.014801  0.067722  0.750000  1
  Ge  Ge25  1  0.985199  0.932278  0.250000  1
  Ge  Ge26  1  0.485199  0.567722  0.250000  1
  Ge  Ge27  1  0.514801  0.432278  0.750000  1
  Ge  Ge28  1  0.156958  0.470699  0.534707  1
  Ge  Ge29  1  0.843042  0.529301  0.465293  1
  Ge  Ge30  1  0.343042  0.970699  0.465293  1
  Ge  Ge31  1  0.843042  0.529301  0.034707  1
  Ge  Ge32  1  0.656958  0.029301  0.534707  1
  Ge  Ge33  1  0.156958  0.470699  0.965293  1
  Ge  Ge34  1  0.656958  0.029301  0.965293  1
  Ge  Ge35  1  0.343042  0.970699  0.034707  1
