# generated using pymatgen
data_La2Pr6Cd2PdRu
_symmetry_space_group_name_H-M   'P 1'
_cell_length_a   10.05961610
_cell_length_b   10.05961639
_cell_length_c   10.13151900
_cell_angle_alpha   59.76327134
_cell_angle_beta   59.76327039
_cell_angle_gamma   59.77411441
_symmetry_Int_Tables_number   1
_chemical_formula_structural   La2Pr6Cd2PdRu
_chemical_formula_sum   'La4 Pr12 Cd4 Pd2 Ru2'
_cell_volume   721.13663877
_cell_formula_units_Z   2
loop_
 _symmetry_equiv_pos_site_id
 _symmetry_equiv_pos_as_xyz
  1  'x, y, z'
loop_
 _atom_site_type_symbol
 _atom_site_label
 _atom_site_symmetry_multiplicity
 _atom_site_fract_x
 _atom_site_fract_y
 _atom_site_fract_z
 _atom_site_occupancy
  La  La0  1  0.346399  0.346399  0.357599  1
  La  La1  1  0.346399  0.346399  0.949603  1
  La  La2  1  0.342301  0.957051  0.350324  1
  La  La3  1  0.957051  0.342301  0.350324  1
  Pr  Pr4  1  0.816290  0.189424  0.190498  1
  Pr  Pr5  1  0.189424  0.816290  0.803787  1
  Pr  Pr6  1  0.189424  0.816290  0.190498  1
  Pr  Pr7  1  0.816290  0.189424  0.803787  1
  Pr  Pr8  1  0.188591  0.188591  0.811409  1
  Pr  Pr9  1  0.806790  0.806790  0.193210  1
  Pr  Pr10  1  0.935850  0.559743  0.566224  1
  Pr  Pr11  1  0.559743  0.935850  0.938184  1
  Pr  Pr12  1  0.559743  0.935850  0.566224  1
  Pr  Pr13  1  0.935850  0.559743  0.938184  1
  Pr  Pr14  1  0.563296  0.563296  0.936704  1
  Pr  Pr15  1  0.937205  0.937205  0.562795  1
  Cd  Cd16  1  0.579908  0.579908  0.580087  1
  Cd  Cd17  1  0.579908  0.579908  0.260096  1
  Cd  Cd18  1  0.580958  0.258292  0.580375  1
  Cd  Cd19  1  0.258292  0.580958  0.580375  1
  Pd  Pd20  1  0.146881  0.572633  0.140243  1
  Pd  Pd21  1  0.572633  0.146881  0.140243  1
  Ru  Ru22  1  0.145386  0.145386  0.138303  1
  Ru  Ru23  1  0.145386  0.145386  0.570925  1
