# generated using pymatgen
data_BeCo4Si7(Mo6C)2
_symmetry_space_group_name_H-M   'P 1'
_cell_length_a   7.73473854
_cell_length_b   7.73473901
_cell_length_c   7.73473855
_cell_angle_alpha   60.18143915
_cell_angle_beta   60.18143757
_cell_angle_gamma   60.18144395
_symmetry_Int_Tables_number   1
_chemical_formula_structural   BeCo4Si7(Mo6C)2
_chemical_formula_sum   'Be1 Co4 Si7 Mo12 C2'
_cell_volume   328.55099767
_cell_formula_units_Z   1
loop_
 _symmetry_equiv_pos_site_id
 _symmetry_equiv_pos_as_xyz
  1  'x, y, z'
loop_
 _atom_site_type_symbol
 _atom_site_label
 _atom_site_symmetry_multiplicity
 _atom_site_fract_x
 _atom_site_fract_y
 _atom_site_fract_z
 _atom_site_occupancy
  Be  Be0  1  0.832312  0.832312  0.832312  1
  Co  Co1  1  0.623900  0.623900  0.128690  1
  Co  Co2  1  0.623900  0.128690  0.623900  1
  Co  Co3  1  0.128690  0.623900  0.623900  1
  Co  Co4  1  0.625461  0.625461  0.625461  1
  Si  Si5  1  0.414483  0.414483  0.756661  1
  Si  Si6  1  0.414483  0.756661  0.414483  1
  Si  Si7  1  0.756661  0.414483  0.414483  1
  Si  Si8  1  0.414167  0.414167  0.414167  1
  Si  Si9  1  0.836920  0.836920  0.497958  1
  Si  Si10  1  0.836920  0.497958  0.836920  1
  Si  Si11  1  0.497958  0.836920  0.836920  1
  Mo  Mo12  1  0.056111  0.056111  0.447077  1
  Mo  Mo13  1  0.442830  0.056961  0.442830  1
  Mo  Mo14  1  0.056961  0.442830  0.442830  1
  Mo  Mo15  1  0.442830  0.442830  0.056961  1
  Mo  Mo16  1  0.056111  0.447077  0.056111  1
  Mo  Mo17  1  0.447077  0.056111  0.056111  1
  Mo  Mo18  1  0.191132  0.191132  0.808491  1
  Mo  Mo19  1  0.807537  0.187161  0.807537  1
  Mo  Mo20  1  0.187161  0.807537  0.807537  1
  Mo  Mo21  1  0.807537  0.807537  0.187161  1
  Mo  Mo22  1  0.191132  0.808491  0.191132  1
  Mo  Mo23  1  0.808491  0.191132  0.191132  1
  C  C24  1  0.250195  0.250195  0.250195  1
  C  C25  1  0.999041  0.999041  0.999041  1
