# generated using pymatgen
data_Ag2Pt2O7
_symmetry_space_group_name_H-M   'P 1'
_cell_length_a   7.21239586
_cell_length_b   7.21239563
_cell_length_c   7.21239600
_cell_angle_alpha   59.99999829
_cell_angle_beta   59.99999937
_cell_angle_gamma   59.99999320
_symmetry_Int_Tables_number   1
_chemical_formula_structural   Ag2Pt2O7
_chemical_formula_sum   'Ag4 Pt4 O14'
_cell_volume   265.29168184
_cell_formula_units_Z   2
loop_
 _symmetry_equiv_pos_site_id
 _symmetry_equiv_pos_as_xyz
  1  'x, y, z'
loop_
 _atom_site_type_symbol
 _atom_site_label
 _atom_site_symmetry_multiplicity
 _atom_site_fract_x
 _atom_site_fract_y
 _atom_site_fract_z
 _atom_site_occupancy
  Ag  Ag0  1  0.625000  0.625000  0.125000  1
  Ag  Ag1  1  0.625000  0.125000  0.625000  1
  Ag  Ag2  1  0.125000  0.625000  0.625000  1
  Ag  Ag3  1  0.625000  0.625000  0.625000  1
  Pt  Pt4  1  0.125000  0.125000  0.625000  1
  Pt  Pt5  1  0.125000  0.625000  0.125000  1
  Pt  Pt6  1  0.625000  0.125000  0.125000  1
  Pt  Pt7  1  0.125000  0.125000  0.125000  1
  O  O8  1  0.500000  0.500000  0.500000  1
  O  O9  1  0.750000  0.750000  0.750000  1
  O  O10  1  0.457815  0.042185  0.457815  1
  O  O11  1  0.207815  0.792185  0.207815  1
  O  O12  1  0.457815  0.457815  0.042185  1
  O  O13  1  0.042185  0.457815  0.457815  1
  O  O14  1  0.457815  0.042185  0.042185  1
  O  O15  1  0.042185  0.042185  0.457815  1
  O  O16  1  0.042185  0.457815  0.042185  1
  O  O17  1  0.792185  0.207815  0.207815  1
  O  O18  1  0.207815  0.792185  0.792185  1
  O  O19  1  0.792185  0.207815  0.792185  1
  O  O20  1  0.207815  0.207815  0.792185  1
  O  O21  1  0.792185  0.792185  0.207815  1
