# generated using pymatgen
data_TmLu4GePb3
_symmetry_space_group_name_H-M   'P 1'
_cell_length_a   9.19249500
_cell_length_b   9.17925414
_cell_length_c   6.41820100
_cell_angle_alpha   90.00000000
_cell_angle_beta   90.00000000
_cell_angle_gamma   120.04773183
_symmetry_Int_Tables_number   1
_chemical_formula_structural   TmLu4GePb3
_chemical_formula_sum   'Tm2 Lu8 Ge2 Pb6'
_cell_volume   468.78710292
_cell_formula_units_Z   2
loop_
 _symmetry_equiv_pos_site_id
 _symmetry_equiv_pos_as_xyz
  1  'x, y, z'
loop_
 _atom_site_type_symbol
 _atom_site_label
 _atom_site_symmetry_multiplicity
 _atom_site_fract_x
 _atom_site_fract_y
 _atom_site_fract_z
 _atom_site_occupancy
  Tm  Tm0  1  0.252009  0.000000  0.750000  1
  Tm  Tm1  1  0.747991  0.000000  0.250000  1
  Lu  Lu2  1  0.000011  0.251566  0.750000  1
  Lu  Lu3  1  0.999989  0.748434  0.250000  1
  Lu  Lu4  1  0.748445  0.748434  0.750000  1
  Lu  Lu5  1  0.251555  0.251566  0.250000  1
  Lu  Lu6  1  0.333292  0.666585  0.500000  1
  Lu  Lu7  1  0.666708  0.333415  0.500000  1
  Lu  Lu8  1  0.666708  0.333415  0.000000  1
  Lu  Lu9  1  0.333292  0.666585  0.000000  1
  Ge  Ge10  1  0.000000  0.000000  0.500000  1
  Ge  Ge11  1  0.000000  0.000000  0.000000  1
  Pb  Pb12  1  0.606562  0.000000  0.750000  1
  Pb  Pb13  1  0.393438  0.000000  0.250000  1
  Pb  Pb14  1  0.999801  0.605854  0.750000  1
  Pb  Pb15  1  0.000199  0.394146  0.250000  1
  Pb  Pb16  1  0.393947  0.394146  0.750000  1
  Pb  Pb17  1  0.606053  0.605854  0.250000  1
