# generated using pymatgen
data_Ba2AcIrO6
_symmetry_space_group_name_H-M   'P 1'
_cell_length_a   6.15670477
_cell_length_b   6.17391798
_cell_length_c   6.17622755
_cell_angle_alpha   60.65826106
_cell_angle_beta   60.73635329
_cell_angle_gamma   60.32338637
_symmetry_Int_Tables_number   1
_chemical_formula_structural   Ba2AcIrO6
_chemical_formula_sum   'Ba2 Ac1 Ir1 O6'
_cell_volume   168.14618291
_cell_formula_units_Z   1
loop_
 _symmetry_equiv_pos_site_id
 _symmetry_equiv_pos_as_xyz
  1  'x, y, z'
loop_
 _atom_site_type_symbol
 _atom_site_label
 _atom_site_symmetry_multiplicity
 _atom_site_fract_x
 _atom_site_fract_y
 _atom_site_fract_z
 _atom_site_occupancy
  Ba  Ba0  1  0.752043  0.247228  0.745024  1
  Ba  Ba1  1  0.247957  0.752772  0.254976  1
  Ac  Ac2  1  0.000000  0.500000  0.000000  1
  Ir  Ir3  1  0.500000  0.000000  0.500000  1
  O  O4  1  0.755584  0.196287  0.290837  1
  O  O5  1  0.244416  0.803713  0.709163  1
  O  O6  1  0.747695  0.732650  0.317226  1
  O  O7  1  0.252305  0.267350  0.682774  1
  O  O8  1  0.671998  0.789394  0.777147  1
  O  O9  1  0.328002  0.210606  0.222853  1
