# generated using pymatgen
data_TbNp7TiS17
_symmetry_space_group_name_H-M   'P 1'
_cell_length_a   7.77525767
_cell_length_b   7.78724261
_cell_length_c   10.32916000
_cell_angle_alpha   80.75363302
_cell_angle_beta   80.62585352
_cell_angle_gamma   65.25730655
_symmetry_Int_Tables_number   1
_chemical_formula_structural   TbNp7TiS17
_chemical_formula_sum   'Tb1 Np7 Ti1 S17'
_cell_volume   557.41398814
_cell_formula_units_Z   1
loop_
 _symmetry_equiv_pos_site_id
 _symmetry_equiv_pos_as_xyz
  1  'x, y, z'
loop_
 _atom_site_type_symbol
 _atom_site_label
 _atom_site_symmetry_multiplicity
 _atom_site_fract_x
 _atom_site_fract_y
 _atom_site_fract_z
 _atom_site_occupancy
  Tb  Tb0  1  0.812908  0.306814  0.299153  1
  Np  Np1  1  0.299786  0.819253  0.298237  1
  Np  Np2  1  0.183089  0.698389  0.699403  1
  Np  Np3  1  0.698572  0.183255  0.702418  1
  Np  Np4  1  0.206247  0.207032  0.541679  1
  Np  Np5  1  0.793121  0.793101  0.456780  1
  Np  Np6  1  0.679575  0.677134  0.980942  1
  Np  Np7  1  0.317544  0.319425  0.020058  1
  Ti  Ti8  1  0.000571  0.997673  0.998361  1
  S  S9  1  0.824551  0.430850  0.538975  1
  S  S10  1  0.431840  0.821650  0.535140  1
  S  S11  1  0.177316  0.568119  0.464462  1
  S  S12  1  0.570589  0.172583  0.470243  1
  S  S13  1  0.942039  0.323243  0.025309  1
  S  S14  1  0.324600  0.943486  0.029007  1
  S  S15  1  0.058772  0.675531  0.970548  1
  S  S16  1  0.675877  0.059672  0.972040  1
  S  S17  1  0.216283  0.208288  0.278918  1
  S  S18  1  0.790078  0.788626  0.722085  1
  S  S19  1  0.063170  0.059157  0.770373  1
  S  S20  1  0.940854  0.937466  0.229037  1
  S  S21  1  0.301951  0.303974  0.755640  1
  S  S22  1  0.692513  0.705959  0.242390  1
  S  S23  1  0.519749  0.521124  0.828895  1
  S  S24  1  0.473212  0.485369  0.166191  1
  S  S25  1  0.005193  0.992829  0.503718  1
