# generated using pymatgen
data_KThTe3Au
_symmetry_space_group_name_H-M   'P 1'
_cell_length_a   8.39196066
_cell_length_b   8.39195994
_cell_length_c   11.55709800
_cell_angle_alpha   90.00000000
_cell_angle_beta   90.00000000
_cell_angle_gamma   148.80830727
_symmetry_Int_Tables_number   1
_chemical_formula_structural   KThTe3Au
_chemical_formula_sum   'K2 Th2 Te6 Au2'
_cell_volume   421.52569391
_cell_formula_units_Z   2
loop_
 _symmetry_equiv_pos_site_id
 _symmetry_equiv_pos_as_xyz
  1  'x, y, z'
loop_
 _atom_site_type_symbol
 _atom_site_label
 _atom_site_symmetry_multiplicity
 _atom_site_fract_x
 _atom_site_fract_y
 _atom_site_fract_z
 _atom_site_occupancy
  K  K0  1  0.759267  0.240734  0.250000  1
  K  K1  1  0.240734  0.759267  0.750000  1
  Th  Th2  1  0.000000  0.000000  0.000000  1
  Th  Th3  1  0.000000  0.000000  0.500000  1
  Te  Te4  1  0.369051  0.630951  0.054461  1
  Te  Te5  1  0.077820  0.922181  0.250000  1
  Te  Te6  1  0.369051  0.630951  0.445539  1
  Te  Te7  1  0.630951  0.369051  0.554461  1
  Te  Te8  1  0.922181  0.077820  0.750000  1
  Te  Te9  1  0.630951  0.369051  0.945539  1
  Au  Au10  1  0.469988  0.530013  0.250000  1
  Au  Au11  1  0.530013  0.469988  0.750000  1
