# generated using pymatgen
data_Er4PaNi19
_symmetry_space_group_name_H-M   'P 1'
_cell_length_a   4.90175430
_cell_length_b   4.90175321
_cell_length_c   16.38256900
_cell_angle_alpha   81.39610294
_cell_angle_beta   81.39610486
_cell_angle_gamma   60.00000960
_symmetry_Int_Tables_number   1
_chemical_formula_structural   Er4PaNi19
_chemical_formula_sum   'Er4 Pa1 Ni19'
_cell_volume   335.76626799
_cell_formula_units_Z   1
loop_
 _symmetry_equiv_pos_site_id
 _symmetry_equiv_pos_as_xyz
  1  'x, y, z'
loop_
 _atom_site_type_symbol
 _atom_site_label
 _atom_site_symmetry_multiplicity
 _atom_site_fract_x
 _atom_site_fract_y
 _atom_site_fract_z
 _atom_site_occupancy
  Er  Er0  1  0.079369  0.079369  0.761893  1
  Er  Er1  1  0.920631  0.920631  0.238107  1
  Er  Er2  1  0.152035  0.152035  0.543894  1
  Er  Er3  1  0.847965  0.847965  0.456106  1
  Pa  Pa4  1  0.000000  0.000000  0.000000  1
  Ni  Ni5  1  0.500000  0.500000  0.500000  1
  Ni  Ni6  1  0.250484  0.250484  0.248547  1
  Ni  Ni7  1  0.749516  0.749516  0.751453  1
  Ni  Ni8  1  0.333372  0.333372  0.999886  1
  Ni  Ni9  1  0.666628  0.666628  0.000114  1
  Ni  Ni10  1  0.416019  0.416019  0.751943  1
  Ni  Ni11  1  0.583981  0.583981  0.248057  1
  Ni  Ni12  1  0.122882  0.624452  0.628215  1
  Ni  Ni13  1  0.624452  0.624452  0.628215  1
  Ni  Ni14  1  0.624452  0.122882  0.628215  1
  Ni  Ni15  1  0.877118  0.375548  0.371785  1
  Ni  Ni16  1  0.375548  0.375548  0.371785  1
  Ni  Ni17  1  0.375548  0.877118  0.371785  1
  Ni  Ni18  1  0.041489  0.541220  0.876072  1
  Ni  Ni19  1  0.541220  0.541220  0.876072  1
  Ni  Ni20  1  0.541220  0.041489  0.876072  1
  Ni  Ni21  1  0.958511  0.458780  0.123928  1
  Ni  Ni22  1  0.458780  0.458780  0.123928  1
  Ni  Ni23  1  0.458780  0.958511  0.123928  1
