# generated using pymatgen
data_Tb8GeSBr12
_symmetry_space_group_name_H-M   'P 1'
_cell_length_a   4.05293000
_cell_length_b   13.16057914
_cell_length_c   13.95210262
_cell_angle_alpha   90.14851164
_cell_angle_beta   90.00000000
_cell_angle_gamma   90.00000000
_symmetry_Int_Tables_number   1
_chemical_formula_structural   Tb8GeSBr12
_chemical_formula_sum   'Tb8 Ge1 S1 Br12'
_cell_volume   744.18739067
_cell_formula_units_Z   1
loop_
 _symmetry_equiv_pos_site_id
 _symmetry_equiv_pos_as_xyz
  1  'x, y, z'
loop_
 _atom_site_type_symbol
 _atom_site_label
 _atom_site_symmetry_multiplicity
 _atom_site_fract_x
 _atom_site_fract_y
 _atom_site_fract_z
 _atom_site_occupancy
  Tb  Tb0  1  0.500000  0.120567  0.339205  1
  Tb  Tb1  1  0.500000  0.879433  0.660795  1
  Tb  Tb2  1  0.500000  0.615356  0.153789  1
  Tb  Tb3  1  0.500000  0.384644  0.846211  1
  Tb  Tb4  1  0.000000  0.120442  0.580593  1
  Tb  Tb5  1  0.000000  0.879558  0.419407  1
  Tb  Tb6  1  0.000000  0.611245  0.925998  1
  Tb  Tb7  1  0.000000  0.388755  0.074002  1
  Ge  Ge8  1  0.500000  0.000000  0.500000  1
  S  S9  1  0.500000  0.500000  0.000000  1
  Br  Br10  1  0.500000  0.249936  0.158218  1
  Br  Br11  1  0.500000  0.750064  0.841782  1
  Br  Br12  1  0.500000  0.740013  0.334139  1
  Br  Br13  1  0.500000  0.259987  0.665861  1
  Br  Br14  1  0.000000  0.258766  0.411832  1
  Br  Br15  1  0.000000  0.741234  0.588168  1
  Br  Br16  1  0.000000  0.754921  0.086735  1
  Br  Br17  1  0.000000  0.245079  0.913265  1
  Br  Br18  1  0.000000  0.002047  0.239676  1
  Br  Br19  1  0.000000  0.997953  0.760324  1
  Br  Br20  1  0.000000  0.501150  0.255432  1
  Br  Br21  1  0.000000  0.498850  0.744568  1
