# generated using pymatgen
data_Er16In4IrRuPt2
_symmetry_space_group_name_H-M   'P 1'
_cell_length_a   9.60135587
_cell_length_b   9.60728421
_cell_length_c   9.60135440
_cell_angle_alpha   60.04038999
_cell_angle_beta   59.99466251
_cell_angle_gamma   60.04037899
_symmetry_Int_Tables_number   1
_chemical_formula_structural   Er16In4IrRuPt2
_chemical_formula_sum   'Er16 In4 Ir1 Ru1 Pt2'
_cell_volume   626.61096956
_cell_formula_units_Z   1
loop_
 _symmetry_equiv_pos_site_id
 _symmetry_equiv_pos_as_xyz
  1  'x, y, z'
loop_
 _atom_site_type_symbol
 _atom_site_label
 _atom_site_symmetry_multiplicity
 _atom_site_fract_x
 _atom_site_fract_y
 _atom_site_fract_z
 _atom_site_occupancy
  Er  Er0  1  0.060748  0.060354  0.441408  1
  Er  Er1  1  0.651846  0.049336  0.651846  1
  Er  Er2  1  0.191654  0.808637  0.191654  1
  Er  Er3  1  0.437315  0.062854  0.437315  1
  Er  Er4  1  0.187907  0.194327  0.809203  1
  Er  Er5  1  0.651609  0.646892  0.651609  1
  Er  Er6  1  0.047339  0.649515  0.653529  1
  Er  Er7  1  0.441408  0.060354  0.060748  1
  Er  Er8  1  0.653529  0.649515  0.047339  1
  Er  Er9  1  0.186030  0.809666  0.809982  1
  Er  Er10  1  0.810404  0.188902  0.810404  1
  Er  Er11  1  0.809203  0.194327  0.187907  1
  Er  Er12  1  0.809982  0.809666  0.186030  1
  Er  Er13  1  0.061726  0.437367  0.439638  1
  Er  Er14  1  0.439638  0.437367  0.061726  1
  Er  Er15  1  0.059867  0.440973  0.059867  1
  In  In16  1  0.749381  0.416754  0.417253  1
  In  In17  1  0.417253  0.416754  0.749381  1
  In  In18  1  0.416857  0.749907  0.416857  1
  In  In19  1  0.416493  0.416200  0.416493  1
  Ir  Ir20  1  0.858022  0.425026  0.858022  1
  Ru  Ru21  1  0.858484  0.858677  0.858484  1
  Pt  Pt22  1  0.425577  0.858317  0.857732  1
  Pt  Pt23  1  0.857732  0.858317  0.425577  1
