# generated using pymatgen
data_Sr4In2Pt3Rh
_symmetry_space_group_name_H-M   'P 1'
_cell_length_a   6.04887239
_cell_length_b   5.99329040
_cell_length_c   8.39449931
_cell_angle_alpha   78.43662012
_cell_angle_beta   78.04310670
_cell_angle_gamma   60.25605767
_symmetry_Int_Tables_number   1
_chemical_formula_structural   Sr4In2Pt3Rh
_chemical_formula_sum   'Sr4 In2 Pt3 Rh1'
_cell_volume   256.78147852
_cell_formula_units_Z   1
loop_
 _symmetry_equiv_pos_site_id
 _symmetry_equiv_pos_as_xyz
  1  'x, y, z'
loop_
 _atom_site_type_symbol
 _atom_site_label
 _atom_site_symmetry_multiplicity
 _atom_site_fract_x
 _atom_site_fract_y
 _atom_site_fract_z
 _atom_site_occupancy
  Sr  Sr0  1  0.505012  0.789805  0.351365  1
  Sr  Sr1  1  0.210514  0.496465  0.144861  1
  Sr  Sr2  1  0.492432  0.210591  0.649011  1
  Sr  Sr3  1  0.790921  0.504264  0.855169  1
  In  In4  1  0.876876  0.126504  0.244802  1
  In  In5  1  0.131347  0.871681  0.754457  1
  Pt  Pt6  1  0.002140  0.724412  0.506374  1
  Pt  Pt7  1  0.714448  0.001812  0.003925  1
  Pt  Pt8  1  0.997678  0.277001  0.495309  1
  Rh  Rh9  1  0.278634  0.997464  0.994727  1
