# generated using pymatgen
data_Tb2TiFe11P7
_symmetry_space_group_name_H-M   'P 1'
_cell_length_a   9.08436241
_cell_length_b   9.15474333
_cell_length_c   3.64999800
_cell_angle_alpha   90.00000000
_cell_angle_beta   90.00000000
_cell_angle_gamma   120.60656963
_symmetry_Int_Tables_number   1
_chemical_formula_structural   Tb2TiFe11P7
_chemical_formula_sum   'Tb2 Ti1 Fe11 P7'
_cell_volume   261.26233597
_cell_formula_units_Z   1
loop_
 _symmetry_equiv_pos_site_id
 _symmetry_equiv_pos_as_xyz
  1  'x, y, z'
loop_
 _atom_site_type_symbol
 _atom_site_label
 _atom_site_symmetry_multiplicity
 _atom_site_fract_x
 _atom_site_fract_y
 _atom_site_fract_z
 _atom_site_occupancy
  Tb  Tb0  1  0.672913  0.331372  0.000000  1
  Tb  Tb1  1  0.332510  0.670784  0.500000  1
  Ti  Ti2  1  0.110752  0.215475  0.500000  1
  Fe  Fe3  1  0.054733  0.632787  0.000000  1
  Fe  Fe4  1  0.572296  0.945226  0.000000  1
  Fe  Fe5  1  0.383465  0.432724  0.000000  1
  Fe  Fe6  1  0.277090  0.119996  0.000000  1
  Fe  Fe7  1  0.839964  0.721269  0.000000  1
  Fe  Fe8  1  0.878797  0.149621  0.000000  1
  Fe  Fe9  1  0.433839  0.046087  0.500000  1
  Fe  Fe10  1  0.612120  0.566140  0.500000  1
  Fe  Fe11  1  0.950884  0.386529  0.500000  1
  Fe  Fe12  1  0.092877  0.879220  0.500000  1
  Fe  Fe13  1  0.777971  0.899628  0.500000  1
  P  P14  1  0.296059  0.888849  0.000000  1
  P  P15  1  0.595405  0.716097  0.000000  1
  P  P16  1  0.105541  0.416196  0.000000  1
  P  P17  1  0.412797  0.280251  0.500000  1
  P  P18  1  0.891996  0.601024  0.500000  1
  P  P19  1  0.712271  0.110417  0.500000  1
  P  P20  1  0.995719  0.990308  0.000000  1
