# generated using pymatgen
data_Ca6Ni2Sn7
_symmetry_space_group_name_H-M   'P 1'
_cell_length_a   7.52505187
_cell_length_b   7.52505204
_cell_length_c   12.17982609
_cell_angle_alpha   86.32019736
_cell_angle_beta   86.32019633
_cell_angle_gamma   36.07502218
_symmetry_Int_Tables_number   1
_chemical_formula_structural   Ca6Ni2Sn7
_chemical_formula_sum   'Ca6 Ni2 Sn7'
_cell_volume   405.19942485
_cell_formula_units_Z   1
loop_
 _symmetry_equiv_pos_site_id
 _symmetry_equiv_pos_as_xyz
  1  'x, y, z'
loop_
 _atom_site_type_symbol
 _atom_site_label
 _atom_site_symmetry_multiplicity
 _atom_site_fract_x
 _atom_site_fract_y
 _atom_site_fract_z
 _atom_site_occupancy
  Ca  Ca0  1  0.460134  0.460134  0.700805  1
  Ca  Ca1  1  0.803217  0.803217  0.296372  1
  Ca  Ca2  1  0.196783  0.196783  0.703628  1
  Ca  Ca3  1  0.364901  0.364901  0.001676  1
  Ca  Ca4  1  0.539866  0.539866  0.299195  1
  Ca  Ca5  1  0.635099  0.635099  0.998324  1
  Ni  Ni6  1  0.167346  0.167346  0.400800  1
  Ni  Ni7  1  0.832654  0.832654  0.599200  1
  Sn  Sn8  1  0.336961  0.336961  0.480073  1
  Sn  Sn9  1  0.182920  0.182920  0.184808  1
  Sn  Sn10  1  0.988399  0.988399  0.120638  1
  Sn  Sn11  1  0.817080  0.817080  0.815192  1
  Sn  Sn12  1  0.000000  0.000000  0.500000  1
  Sn  Sn13  1  0.011601  0.011601  0.879362  1
  Sn  Sn14  1  0.663039  0.663039  0.519927  1
