# generated using pymatgen
data_YbLuPa(SnIr)3
_symmetry_space_group_name_H-M   'P 1'
_cell_length_a   7.47736269
_cell_length_b   7.59949100
_cell_length_c   3.92002900
_cell_angle_alpha   90.00000000
_cell_angle_beta   90.00000000
_cell_angle_gamma   121.05263242
_symmetry_Int_Tables_number   1
_chemical_formula_structural   YbLuPa(SnIr)3
_chemical_formula_sum   'Yb1 Lu1 Pa1 Sn3 Ir3'
_cell_volume   190.83053403
_cell_formula_units_Z   1
loop_
 _symmetry_equiv_pos_site_id
 _symmetry_equiv_pos_as_xyz
  1  'x, y, z'
loop_
 _atom_site_type_symbol
 _atom_site_label
 _atom_site_symmetry_multiplicity
 _atom_site_fract_x
 _atom_site_fract_y
 _atom_site_fract_z
 _atom_site_occupancy
  Yb  Yb0  1  0.596128  0.594171  0.500000  1
  Lu  Lu1  1  0.402502  0.998157  0.500000  1
  Pa  Pa2  1  0.999045  0.412757  0.500000  1
  Sn  Sn3  1  0.996455  0.755105  0.000000  1
  Sn  Sn4  1  0.277591  0.263972  0.000000  1
  Sn  Sn5  1  0.727340  0.982568  0.000000  1
  Ir  Ir6  1  0.299447  0.645087  0.000000  1
  Ir  Ir7  1  0.693178  0.327853  0.000000  1
  Ir  Ir8  1  0.008314  0.020331  0.500000  1
