# generated using pymatgen
data_K3Dy(SbAu)4
_symmetry_space_group_name_H-M   'P 1'
_cell_length_a   4.64413800
_cell_length_b   4.64413758
_cell_length_c   20.12420600
_cell_angle_alpha   90.00000000
_cell_angle_beta   90.00000000
_cell_angle_gamma   120.00000300
_symmetry_Int_Tables_number   1
_chemical_formula_structural   K3Dy(SbAu)4
_chemical_formula_sum   'K3 Dy1 Sb4 Au4'
_cell_volume   375.88895608
_cell_formula_units_Z   1
loop_
 _symmetry_equiv_pos_site_id
 _symmetry_equiv_pos_as_xyz
  1  'x, y, z'
loop_
 _atom_site_type_symbol
 _atom_site_label
 _atom_site_symmetry_multiplicity
 _atom_site_fract_x
 _atom_site_fract_y
 _atom_site_fract_z
 _atom_site_occupancy
  K  K0  1  0.000000  0.000000  0.763707  1
  K  K1  1  0.000000  0.000000  0.502003  1
  K  K2  1  0.000000  0.000000  0.237168  1
  Dy  Dy3  1  0.000000  0.000000  0.998250  1
  Sb  Sb4  1  0.333333  0.666667  0.366921  1
  Sb  Sb5  1  0.666667  0.333333  0.635566  1
  Sb  Sb6  1  0.666667  0.333333  0.892700  1
  Sb  Sb7  1  0.333333  0.666667  0.104640  1
  Au  Au8  1  0.666667  0.333333  0.365994  1
  Au  Au9  1  0.333333  0.666667  0.638177  1
  Au  Au10  1  0.333333  0.666667  0.917788  1
  Au  Au11  1  0.666667  0.333333  0.077085  1
