# generated using pymatgen
data_Tm4Mn3Co4P12Ir13
_symmetry_space_group_name_H-M   'P 1'
_cell_length_a   3.88265600
_cell_length_b   10.67473776
_cell_length_c   12.35981735
_cell_angle_alpha   90.27873070
_cell_angle_beta   90.00000000
_cell_angle_gamma   90.00000000
_symmetry_Int_Tables_number   1
_chemical_formula_structural   Tm4Mn3Co4P12Ir13
_chemical_formula_sum   'Tm4 Mn3 Co4 P12 Ir13'
_cell_volume   512.26306413
_cell_formula_units_Z   1
loop_
 _symmetry_equiv_pos_site_id
 _symmetry_equiv_pos_as_xyz
  1  'x, y, z'
loop_
 _atom_site_type_symbol
 _atom_site_label
 _atom_site_symmetry_multiplicity
 _atom_site_fract_x
 _atom_site_fract_y
 _atom_site_fract_z
 _atom_site_occupancy
  Tm  Tm0  1  0.250000  0.585266  0.710976  1
  Tm  Tm1  1  0.250000  0.915701  0.207498  1
  Tm  Tm2  1  0.750000  0.418456  0.290451  1
  Tm  Tm3  1  0.750000  0.082449  0.792977  1
  Mn  Mn4  1  0.250000  0.715140  0.979834  1
  Mn  Mn5  1  0.250000  0.783336  0.479460  1
  Mn  Mn6  1  0.750000  0.283270  0.020174  1
  Co  Co7  1  0.250000  0.465652  0.934565  1
  Co  Co8  1  0.250000  0.037926  0.435430  1
  Co  Co9  1  0.750000  0.532997  0.064091  1
  Co  Co10  1  0.750000  0.965568  0.564463  1
  P  P11  1  0.250000  0.422770  0.104654  1
  P  P12  1  0.250000  0.072983  0.608557  1
  P  P13  1  0.750000  0.576065  0.894397  1
  P  P14  1  0.750000  0.922978  0.394171  1
  P  P15  1  0.250000  0.270290  0.874173  1
  P  P16  1  0.250000  0.230588  0.369641  1
  P  P17  1  0.750000  0.728014  0.126514  1
  P  P18  1  0.750000  0.771560  0.628525  1
  P  P19  1  0.250000  0.600832  0.386643  1
  P  P20  1  0.250000  0.898998  0.889319  1
  P  P21  1  0.750000  0.407478  0.615570  1
  P  P22  1  0.750000  0.099382  0.110598  1
  Ir  Ir23  1  0.750000  0.219556  0.518097  1
  Ir  Ir24  1  0.250000  0.407847  0.477886  1
  Ir  Ir25  1  0.250000  0.094344  0.980456  1
  Ir  Ir26  1  0.750000  0.595392  0.521044  1
  Ir  Ir27  1  0.750000  0.904396  0.020855  1
  Ir  Ir28  1  0.250000  0.230845  0.179341  1
  Ir  Ir29  1  0.250000  0.268117  0.680506  1
  Ir  Ir30  1  0.750000  0.768475  0.821801  1
  Ir  Ir31  1  0.750000  0.730605  0.319874  1
  Ir  Ir32  1  0.250000  0.884415  0.697027  1
  Ir  Ir33  1  0.250000  0.612941  0.195518  1
  Ir  Ir34  1  0.750000  0.110628  0.301718  1
  Ir  Ir35  1  0.750000  0.384742  0.803197  1
