# generated using pymatgen
data_KRb7Cd2O6
_symmetry_space_group_name_H-M   'P 1'
_cell_length_a   7.20379040
_cell_length_b   10.13073753
_cell_length_c   12.37304313
_cell_angle_alpha   106.86730605
_cell_angle_beta   89.54925161
_cell_angle_gamma   108.86997291
_symmetry_Int_Tables_number   1
_chemical_formula_structural   KRb7Cd2O6
_chemical_formula_sum   'K2 Rb14 Cd4 O12'
_cell_volume   813.99752604
_cell_formula_units_Z   2
loop_
 _symmetry_equiv_pos_site_id
 _symmetry_equiv_pos_as_xyz
  1  'x, y, z'
loop_
 _atom_site_type_symbol
 _atom_site_label
 _atom_site_symmetry_multiplicity
 _atom_site_fract_x
 _atom_site_fract_y
 _atom_site_fract_z
 _atom_site_occupancy
  K  K0  1  0.293935  0.109950  0.210528  1
  K  K1  1  0.706065  0.890050  0.789472  1
  Rb  Rb2  1  0.955029  0.658696  0.577571  1
  Rb  Rb3  1  0.551519  0.349253  0.005754  1
  Rb  Rb4  1  0.996027  0.489249  0.206323  1
  Rb  Rb5  1  0.504339  0.509159  0.708375  1
  Rb  Rb6  1  0.448481  0.650747  0.994246  1
  Rb  Rb7  1  0.044971  0.341304  0.422429  1
  Rb  Rb8  1  0.495661  0.490841  0.291625  1
  Rb  Rb9  1  0.005281  0.854342  0.375937  1
  Rb  Rb10  1  0.218325  0.913342  0.901154  1
  Rb  Rb11  1  0.510383  0.150508  0.703416  1
  Rb  Rb12  1  0.781675  0.086658  0.098846  1
  Rb  Rb13  1  0.489617  0.849492  0.296584  1
  Rb  Rb14  1  0.003973  0.510751  0.793677  1
  Rb  Rb15  1  0.994719  0.145658  0.624063  1
  Cd  Cd16  1  0.561778  0.252792  0.449407  1
  Cd  Cd17  1  0.438222  0.747208  0.550593  1
  Cd  Cd18  1  0.068987  0.257276  0.933208  1
  Cd  Cd19  1  0.931013  0.742724  0.066792  1
  O  O20  1  0.244459  0.829477  0.106638  1
  O  O21  1  0.227832  0.654380  0.402704  1
  O  O22  1  0.178928  0.266783  0.100614  1
  O  O23  1  0.772168  0.345620  0.597296  1
  O  O24  1  0.249680  0.152022  0.441695  1
  O  O25  1  0.716096  0.663049  0.174366  1
  O  O26  1  0.821072  0.733217  0.899386  1
  O  O27  1  0.681688  0.269974  0.288174  1
  O  O28  1  0.755541  0.170523  0.893362  1
  O  O29  1  0.318312  0.730026  0.711826  1
  O  O30  1  0.283904  0.336951  0.825634  1
  O  O31  1  0.750320  0.847978  0.558305  1
