# generated using pymatgen
data_VNi5O8
_symmetry_space_group_name_H-M   'P 1'
_cell_length_a   10.04656884
_cell_length_b   10.04656871
_cell_length_c   5.17976085
_cell_angle_alpha   80.67907748
_cell_angle_beta   80.67907846
_cell_angle_gamma   34.52417418
_symmetry_Int_Tables_number   1
_chemical_formula_structural   VNi5O8
_chemical_formula_sum   'V2 Ni10 O16'
_cell_volume   292.01276033
_cell_formula_units_Z   2
loop_
 _symmetry_equiv_pos_site_id
 _symmetry_equiv_pos_as_xyz
  1  'x, y, z'
loop_
 _atom_site_type_symbol
 _atom_site_label
 _atom_site_symmetry_multiplicity
 _atom_site_fract_x
 _atom_site_fract_y
 _atom_site_fract_z
 _atom_site_occupancy
  V  V0  1  0.214673  0.214673  0.198947  1
  V  V1  1  0.785327  0.785327  0.801053  1
  Ni  Ni2  1  0.629491  0.629491  0.242637  1
  Ni  Ni3  1  0.370509  0.370509  0.757363  1
  Ni  Ni4  1  0.751507  0.248493  0.500000  1
  Ni  Ni5  1  0.248493  0.751507  0.500000  1
  Ni  Ni6  1  0.882887  0.373939  0.749537  1
  Ni  Ni7  1  0.373939  0.882887  0.749537  1
  Ni  Ni8  1  0.117113  0.626061  0.250463  1
  Ni  Ni9  1  0.626061  0.117113  0.250463  1
  Ni  Ni10  1  0.000000  0.000000  0.000000  1
  Ni  Ni11  1  0.500000  0.500000  0.000000  1
  O  O12  1  0.420711  0.946772  0.373588  1
  O  O13  1  0.946772  0.420711  0.373588  1
  O  O14  1  0.579289  0.053228  0.626412  1
  O  O15  1  0.053228  0.579289  0.626412  1
  O  O16  1  0.330683  0.784232  0.110542  1
  O  O17  1  0.784232  0.330683  0.110542  1
  O  O18  1  0.669317  0.215768  0.889458  1
  O  O19  1  0.215768  0.669317  0.889458  1
  O  O20  1  0.433110  0.433110  0.389256  1
  O  O21  1  0.566890  0.566890  0.610744  1
  O  O22  1  0.943544  0.943544  0.334977  1
  O  O23  1  0.056456  0.056456  0.665023  1
  O  O24  1  0.183794  0.183794  0.903596  1
  O  O25  1  0.816206  0.816206  0.096404  1
  O  O26  1  0.689137  0.689137  0.869782  1
  O  O27  1  0.310863  0.310863  0.130218  1
