# generated using pymatgen
data_Sm7Hf(Si4Mo3)4
_symmetry_space_group_name_H-M   'P 1'
_cell_length_a   6.82446369
_cell_length_b   6.97615932
_cell_length_c   13.03417303
_cell_angle_alpha   89.80261036
_cell_angle_beta   90.05905767
_cell_angle_gamma   90.12143986
_symmetry_Int_Tables_number   1
_chemical_formula_structural   Sm7Hf(Si4Mo3)4
_chemical_formula_sum   'Sm7 Hf1 Si16 Mo12'
_cell_volume   620.53262445
_cell_formula_units_Z   1
loop_
 _symmetry_equiv_pos_site_id
 _symmetry_equiv_pos_as_xyz
  1  'x, y, z'
loop_
 _atom_site_type_symbol
 _atom_site_label
 _atom_site_symmetry_multiplicity
 _atom_site_fract_x
 _atom_site_fract_y
 _atom_site_fract_z
 _atom_site_occupancy
  Sm  Sm0  1  0.997454  0.164498  0.094523  1
  Sm  Sm1  1  0.003298  0.834860  0.903715  1
  Sm  Sm2  1  0.503488  0.664250  0.906100  1
  Sm  Sm3  1  0.003941  0.834497  0.593587  1
  Sm  Sm4  1  0.497077  0.334568  0.094502  1
  Sm  Sm5  1  0.998665  0.166687  0.407720  1
  Sm  Sm6  1  0.498394  0.334224  0.407743  1
  Hf  Hf7  1  0.505446  0.670491  0.599327  1
  Si  Si8  1  0.035745  0.140859  0.748267  1
  Si  Si9  1  0.962183  0.860694  0.250885  1
  Si  Si10  1  0.463053  0.637535  0.250022  1
  Si  Si11  1  0.535206  0.365972  0.746217  1
  Si  Si12  1  0.308760  0.870698  0.747404  1
  Si  Si13  1  0.693987  0.122793  0.251393  1
  Si  Si14  1  0.194853  0.375367  0.250887  1
  Si  Si15  1  0.799816  0.626904  0.747618  1
  Si  Si16  1  0.168586  0.460761  0.547675  1
  Si  Si17  1  0.838810  0.545563  0.456388  1
  Si  Si18  1  0.344498  0.949469  0.456473  1
  Si  Si19  1  0.844199  0.545496  0.047844  1
  Si  Si20  1  0.654522  0.038647  0.547882  1
  Si  Si21  1  0.154565  0.454147  0.950490  1
  Si  Si22  1  0.655561  0.045731  0.950814  1
  Si  Si23  1  0.343937  0.954917  0.047684  1
  Mo  Mo24  1  0.167355  0.503837  0.745971  1
  Mo  Mo25  1  0.834677  0.501205  0.252164  1
  Mo  Mo26  1  0.333966  0.996599  0.251066  1
  Mo  Mo27  1  0.664612  0.996940  0.746843  1
  Mo  Mo28  1  0.332330  0.163735  0.625135  1
  Mo  Mo29  1  0.665537  0.830731  0.377455  1
  Mo  Mo30  1  0.168346  0.664837  0.375229  1
  Mo  Mo31  1  0.666958  0.834163  0.126463  1
  Mo  Mo32  1  0.830754  0.341271  0.624457  1
  Mo  Mo33  1  0.332501  0.166550  0.871774  1
  Mo  Mo34  1  0.829810  0.336647  0.872666  1
  Mo  Mo35  1  0.167111  0.663857  0.125618  1
