# generated using pymatgen
data_Nd5YZn4IrPd12
_symmetry_space_group_name_H-M   'P 1'
_cell_length_a   8.36316623
_cell_length_b   8.36316664
_cell_length_c   8.36316692
_cell_angle_alpha   109.49815090
_cell_angle_beta   109.49814883
_cell_angle_gamma   109.41737074
_symmetry_Int_Tables_number   1
_chemical_formula_structural   Nd5YZn4IrPd12
_chemical_formula_sum   'Nd5 Y1 Zn4 Ir1 Pd12'
_cell_volume   450.28770846
_cell_formula_units_Z   1
loop_
 _symmetry_equiv_pos_site_id
 _symmetry_equiv_pos_as_xyz
  1  'x, y, z'
loop_
 _atom_site_type_symbol
 _atom_site_label
 _atom_site_symmetry_multiplicity
 _atom_site_fract_x
 _atom_site_fract_y
 _atom_site_fract_z
 _atom_site_occupancy
  Nd  Nd0  1  0.295582  0.999505  0.296077  1
  Nd  Nd1  1  0.999505  0.295582  0.296077  1
  Nd  Nd2  1  0.295773  0.295773  0.000000  1
  Nd  Nd3  1  0.703428  0.999505  0.703923  1
  Nd  Nd4  1  0.999505  0.703428  0.703923  1
  Y  Y5  1  0.700676  0.700676  0.000000  1
  Zn  Zn6  1  0.999973  0.999973  0.498236  1
  Zn  Zn7  1  0.999973  0.501737  0.000000  1
  Zn  Zn8  1  0.501737  0.999973  0.000000  1
  Zn  Zn9  1  0.501737  0.501737  0.501764  1
  Ir  Ir10  1  0.994154  0.994154  0.000000  1
  Pd  Pd11  1  0.335333  0.335333  0.668693  1
  Pd  Pd12  1  0.668478  0.999421  0.330943  1
  Pd  Pd13  1  0.999421  0.668478  0.330943  1
  Pd  Pd14  1  0.666640  0.335333  0.000000  1
  Pd  Pd15  1  0.332525  0.664753  0.332228  1
  Pd  Pd16  1  0.000297  0.332525  0.667772  1
  Pd  Pd17  1  0.335333  0.666640  0.000000  1
  Pd  Pd18  1  0.332525  0.000297  0.667772  1
  Pd  Pd19  1  0.664753  0.332525  0.332228  1
  Pd  Pd20  1  0.666640  0.666640  0.331307  1
  Pd  Pd21  1  0.668478  0.337534  0.669057  1
  Pd  Pd22  1  0.337534  0.668478  0.669057  1
