# generated using pymatgen
data_Ca2CdPdRh
_symmetry_space_group_name_H-M   'P 1'
_cell_length_a   5.69175600
_cell_length_b   5.69175609
_cell_length_c   5.69175602
_cell_angle_alpha   134.46319741
_cell_angle_beta   116.39825881
_cell_angle_gamma   81.65930861
_symmetry_Int_Tables_number   1
_chemical_formula_structural   Ca2CdPdRh
_chemical_formula_sum   'Ca2 Cd1 Pd1 Rh1'
_cell_volume   113.81552983
_cell_formula_units_Z   1
loop_
 _symmetry_equiv_pos_site_id
 _symmetry_equiv_pos_as_xyz
  1  'x, y, z'
loop_
 _atom_site_type_symbol
 _atom_site_label
 _atom_site_symmetry_multiplicity
 _atom_site_fract_x
 _atom_site_fract_y
 _atom_site_fract_z
 _atom_site_occupancy
  Ca  Ca0  1  0.704713  0.203038  0.501675  1
  Ca  Ca1  1  0.298636  0.796962  0.501675  1
  Cd  Cd2  1  0.993521  0.000000  0.993521  1
  Pd  Pd3  1  0.277950  0.500000  0.777950  1
  Rh  Rh4  1  0.725179  0.500000  0.225179  1
