# generated using pymatgen
data_Cr(OsO3)2
_symmetry_space_group_name_H-M   'P 1'
_cell_length_a   6.47722372
_cell_length_b   6.47784561
_cell_length_c   10.43239931
_cell_angle_alpha   71.90644850
_cell_angle_beta   71.91101752
_cell_angle_gamma   89.99795437
_symmetry_Int_Tables_number   1
_chemical_formula_structural   Cr(OsO3)2
_chemical_formula_sum   'Cr4 Os8 O24'
_cell_volume   393.26026154
_cell_formula_units_Z   4
loop_
 _symmetry_equiv_pos_site_id
 _symmetry_equiv_pos_as_xyz
  1  'x, y, z'
loop_
 _atom_site_type_symbol
 _atom_site_label
 _atom_site_symmetry_multiplicity
 _atom_site_fract_x
 _atom_site_fract_y
 _atom_site_fract_z
 _atom_site_occupancy
  Cr  Cr0  1  0.416696  0.916682  0.166657  1
  Cr  Cr1  1  0.166674  0.166737  0.666622  1
  Cr  Cr2  1  0.916636  0.416567  0.166732  1
  Cr  Cr3  1  0.666695  0.666679  0.666641  1
  Os  Os4  1  0.251082  0.751201  0.497734  1
  Os  Os5  1  0.751068  0.251161  0.497721  1
  Os  Os6  1  0.082260  0.582171  0.835608  1
  Os  Os7  1  0.582258  0.082167  0.835608  1
  Os  Os8  1  0.501113  0.501012  0.997839  1
  Os  Os9  1  0.001096  0.000975  0.997881  1
  Os  Os10  1  0.332214  0.332352  0.335480  1
  Os  Os11  1  0.832235  0.832300  0.335484  1
  O  O12  1  0.729779  0.916682  0.166650  1
  O  O13  1  0.229724  0.416653  0.166686  1
  O  O14  1  0.103597  0.916684  0.166650  1
  O  O15  1  0.603580  0.416653  0.166690  1
  O  O16  1  0.166627  0.853593  0.666679  1
  O  O17  1  0.666633  0.353592  0.666671  1
  O  O18  1  0.166614  0.479798  0.666690  1
  O  O19  1  0.666620  0.979729  0.666691  1
  O  O20  1  0.552559  0.751813  0.496419  1
  O  O21  1  0.052569  0.251865  0.496359  1
  O  O22  1  0.382347  0.581577  0.836868  1
  O  O23  1  0.882363  0.081559  0.836902  1
  O  O24  1  0.950994  0.751736  0.496433  1
  O  O25  1  0.450994  0.251784  0.496383  1
  O  O26  1  0.780829  0.581511  0.836899  1
  O  O27  1  0.280775  0.081494  0.836922  1
  O  O28  1  0.331537  0.030792  0.336895  1
  O  O29  1  0.831494  0.530740  0.336944  1
  O  O30  1  0.001752  0.700888  0.996460  1
  O  O31  1  0.501781  0.200952  0.996404  1
  O  O32  1  0.001824  0.302580  0.996428  1
  O  O33  1  0.501838  0.802598  0.996401  1
  O  O34  1  0.331595  0.632417  0.336904  1
  O  O35  1  0.831550  0.132310  0.336966  1
