# generated using pymatgen
data_Pr4DyIrPt2
_symmetry_space_group_name_H-M   'P 1'
_cell_length_a   11.43871100
_cell_length_b   11.43871100
_cell_length_c   6.52293300
_cell_angle_alpha   90.00000000
_cell_angle_beta   90.00000000
_cell_angle_gamma   90.00000000
_symmetry_Int_Tables_number   1
_chemical_formula_structural   Pr4DyIrPt2
_chemical_formula_sum   'Pr16 Dy4 Ir4 Pt8'
_cell_volume   853.48735868
_cell_formula_units_Z   4
loop_
 _symmetry_equiv_pos_site_id
 _symmetry_equiv_pos_as_xyz
  1  'x, y, z'
loop_
 _atom_site_type_symbol
 _atom_site_label
 _atom_site_symmetry_multiplicity
 _atom_site_fract_x
 _atom_site_fract_y
 _atom_site_fract_z
 _atom_site_occupancy
  Pr  Pr0  1  0.292017  0.087552  0.375888  1
  Pr  Pr1  1  0.292017  0.912448  0.875888  1
  Pr  Pr2  1  0.707983  0.087552  0.875888  1
  Pr  Pr3  1  0.707983  0.912448  0.375888  1
  Pr  Pr4  1  0.587552  0.792017  0.875888  1
  Pr  Pr5  1  0.587552  0.207983  0.375888  1
  Pr  Pr6  1  0.412448  0.792017  0.375888  1
  Pr  Pr7  1  0.412448  0.207983  0.875888  1
  Pr  Pr8  1  0.207983  0.412448  0.624112  1
  Pr  Pr9  1  0.207983  0.587552  0.124112  1
  Pr  Pr10  1  0.792017  0.412448  0.124112  1
  Pr  Pr11  1  0.792017  0.587552  0.624112  1
  Pr  Pr12  1  0.912448  0.707983  0.124112  1
  Pr  Pr13  1  0.912448  0.292017  0.624112  1
  Pr  Pr14  1  0.087552  0.707983  0.624112  1
  Pr  Pr15  1  0.087552  0.292017  0.124112  1
  Dy  Dy16  1  0.000000  0.000000  0.500000  1
  Dy  Dy17  1  0.000000  0.000000  0.000000  1
  Dy  Dy18  1  0.500000  0.500000  0.000000  1
  Dy  Dy19  1  0.500000  0.500000  0.500000  1
  Ir  Ir20  1  0.500000  0.000000  0.115793  1
  Ir  Ir21  1  0.500000  0.000000  0.615793  1
  Ir  Ir22  1  0.000000  0.500000  0.884207  1
  Ir  Ir23  1  0.000000  0.500000  0.384207  1
  Pt  Pt24  1  0.853382  0.146618  0.250000  1
  Pt  Pt25  1  0.853382  0.853382  0.750000  1
  Pt  Pt26  1  0.146618  0.146618  0.750000  1
  Pt  Pt27  1  0.146618  0.853382  0.250000  1
  Pt  Pt28  1  0.646618  0.353382  0.750000  1
  Pt  Pt29  1  0.646618  0.646618  0.250000  1
  Pt  Pt30  1  0.353382  0.353382  0.250000  1
  Pt  Pt31  1  0.353382  0.646618  0.750000  1
