# generated using pymatgen
data_Eu2(Zn3Ir)3
_symmetry_space_group_name_H-M   'P 1'
_cell_length_a   7.64824321
_cell_length_b   7.64824314
_cell_length_c   9.64819700
_cell_angle_alpha   90.00000000
_cell_angle_beta   90.00000000
_cell_angle_gamma   118.66688669
_symmetry_Int_Tables_number   1
_chemical_formula_structural   Eu2(Zn3Ir)3
_chemical_formula_sum   'Eu4 Zn18 Ir6'
_cell_volume   495.19793805
_cell_formula_units_Z   2
loop_
 _symmetry_equiv_pos_site_id
 _symmetry_equiv_pos_as_xyz
  1  'x, y, z'
loop_
 _atom_site_type_symbol
 _atom_site_label
 _atom_site_symmetry_multiplicity
 _atom_site_fract_x
 _atom_site_fract_y
 _atom_site_fract_z
 _atom_site_occupancy
  Eu  Eu0  1  0.006014  0.325697  0.750000  1
  Eu  Eu1  1  0.993986  0.674303  0.250000  1
  Eu  Eu2  1  0.325697  0.006014  0.750000  1
  Eu  Eu3  1  0.674303  0.993986  0.250000  1
  Zn  Zn4  1  0.661932  0.661932  0.467064  1
  Zn  Zn5  1  0.338068  0.338068  0.967064  1
  Zn  Zn6  1  0.661932  0.661932  0.032936  1
  Zn  Zn7  1  0.338068  0.338068  0.532936  1
  Zn  Zn8  1  0.011032  0.337395  0.431041  1
  Zn  Zn9  1  0.988968  0.662605  0.931041  1
  Zn  Zn10  1  0.337395  0.011032  0.068959  1
  Zn  Zn11  1  0.662605  0.988968  0.568959  1
  Zn  Zn12  1  0.988968  0.662605  0.568959  1
  Zn  Zn13  1  0.011032  0.337395  0.068959  1
  Zn  Zn14  1  0.662605  0.988968  0.931041  1
  Zn  Zn15  1  0.337395  0.011032  0.431041  1
  Zn  Zn16  1  0.125911  0.125911  0.250000  1
  Zn  Zn17  1  0.874089  0.874089  0.750000  1
  Zn  Zn18  1  0.668011  0.443900  0.750000  1
  Zn  Zn19  1  0.331989  0.556100  0.250000  1
  Zn  Zn20  1  0.443900  0.668011  0.750000  1
  Zn  Zn21  1  0.556100  0.331989  0.250000  1
  Ir  Ir22  1  0.000000  0.000000  0.500000  1
  Ir  Ir23  1  0.000000  0.000000  0.000000  1
  Ir  Ir24  1  0.674679  0.325321  0.500000  1
  Ir  Ir25  1  0.325321  0.674679  0.000000  1
  Ir  Ir26  1  0.325321  0.674679  0.500000  1
  Ir  Ir27  1  0.674679  0.325321  0.000000  1
