# generated using pymatgen
data_Nd5SnBi2C
_symmetry_space_group_name_H-M   'P 1'
_cell_length_a   9.40901010
_cell_length_b   9.41143889
_cell_length_c   6.72705000
_cell_angle_alpha   90.00000000
_cell_angle_beta   90.00000000
_cell_angle_gamma   120.00853335
_symmetry_Int_Tables_number   1
_chemical_formula_structural   Nd5SnBi2C
_chemical_formula_sum   'Nd10 Sn2 Bi4 C2'
_cell_volume   515.84342407
_cell_formula_units_Z   2
loop_
 _symmetry_equiv_pos_site_id
 _symmetry_equiv_pos_as_xyz
  1  'x, y, z'
loop_
 _atom_site_type_symbol
 _atom_site_label
 _atom_site_symmetry_multiplicity
 _atom_site_fract_x
 _atom_site_fract_y
 _atom_site_fract_z
 _atom_site_occupancy
  Nd  Nd0  1  0.663545  0.330882  0.996112  1
  Nd  Nd1  1  0.336455  0.667337  0.996112  1
  Nd  Nd2  1  0.336455  0.667337  0.503888  1
  Nd  Nd3  1  0.663545  0.330882  0.503888  1
  Nd  Nd4  1  0.785535  0.789128  0.750000  1
  Nd  Nd5  1  0.214465  0.003594  0.750000  1
  Nd  Nd6  1  0.000000  0.211820  0.750000  1
  Nd  Nd7  1  0.212790  0.212938  0.250000  1
  Nd  Nd8  1  0.787210  0.000147  0.250000  1
  Nd  Nd9  1  0.000000  0.788854  0.250000  1
  Sn  Sn10  1  0.401583  0.401672  0.750000  1
  Sn  Sn11  1  0.598417  0.000089  0.750000  1
  Bi  Bi12  1  0.000000  0.598764  0.750000  1
  Bi  Bi13  1  0.597972  0.597637  0.250000  1
  Bi  Bi14  1  0.402028  0.999665  0.250000  1
  Bi  Bi15  1  0.000000  0.401272  0.250000  1
  C  C16  1  0.000000  0.998990  0.001882  1
  C  C17  1  0.000000  0.998990  0.498118  1
