# generated using pymatgen
data_Na4CuAg3Te4
_symmetry_space_group_name_H-M   'P 1'
_cell_length_a   4.62198000
_cell_length_b   7.81697630
_cell_length_c   8.30125579
_cell_angle_alpha   90.74871297
_cell_angle_beta   90.00000000
_cell_angle_gamma   90.00000000
_symmetry_Int_Tables_number   1
_chemical_formula_structural   Na4CuAg3Te4
_chemical_formula_sum   'Na4 Cu1 Ag3 Te4'
_cell_volume   299.89800203
_cell_formula_units_Z   1
loop_
 _symmetry_equiv_pos_site_id
 _symmetry_equiv_pos_as_xyz
  1  'x, y, z'
loop_
 _atom_site_type_symbol
 _atom_site_label
 _atom_site_symmetry_multiplicity
 _atom_site_fract_x
 _atom_site_fract_y
 _atom_site_fract_z
 _atom_site_occupancy
  Na  Na0  1  0.750000  0.479475  0.317470  1
  Na  Na1  1  0.250000  0.016639  0.810523  1
  Na  Na2  1  0.750000  0.976855  0.186528  1
  Na  Na3  1  0.250000  0.510463  0.690235  1
  Cu  Cu4  1  0.750000  0.871138  0.560447  1
  Ag  Ag5  1  0.250000  0.646276  0.067973  1
  Ag  Ag6  1  0.250000  0.134162  0.431481  1
  Ag  Ag7  1  0.750000  0.372289  0.935150  1
  Te  Te8  1  0.250000  0.764227  0.402679  1
  Te  Te9  1  0.250000  0.265256  0.112711  1
  Te  Te10  1  0.750000  0.741379  0.869990  1
  Te  Te11  1  0.750000  0.221840  0.614815  1
