# generated using pymatgen
data_TeP4WO14
_symmetry_space_group_name_H-M   'P 1'
_cell_length_a   8.63550382
_cell_length_b   5.00888150
_cell_length_c   7.18533600
_cell_angle_alpha   74.22729883
_cell_angle_beta   90.74593078
_cell_angle_gamma   89.29583967
_symmetry_Int_Tables_number   1
_chemical_formula_structural   TeP4WO14
_chemical_formula_sum   'Te1 P4 W1 O14'
_cell_volume   299.02804761
_cell_formula_units_Z   1
loop_
 _symmetry_equiv_pos_site_id
 _symmetry_equiv_pos_as_xyz
  1  'x, y, z'
loop_
 _atom_site_type_symbol
 _atom_site_label
 _atom_site_symmetry_multiplicity
 _atom_site_fract_x
 _atom_site_fract_y
 _atom_site_fract_z
 _atom_site_occupancy
  Te  Te0  1  0.055488  0.781966  0.729459  1
  P  P1  1  0.365572  0.622004  0.516548  1
  P  P2  1  0.300396  0.231963  0.887538  1
  P  P3  1  0.869287  0.382984  0.480970  1
  P  P4  1  0.770268  0.760116  0.110922  1
  W  W5  1  0.549449  0.218588  0.281493  1
  O  O6  1  0.151846  0.398920  0.905507  1
  O  O7  1  0.265968  0.985042  0.808045  1
  O  O8  1  0.719036  0.992758  0.199465  1
  O  O9  1  0.395502  0.148698  0.072088  1
  O  O10  1  0.995637  0.156898  0.508263  1
  O  O11  1  0.703617  0.280184  0.495200  1
  O  O12  1  0.380806  0.441435  0.376764  1
  O  O13  1  0.632490  0.569840  0.098805  1
  O  O14  1  0.476168  0.863655  0.475803  1
  O  O15  1  0.409437  0.441735  0.730877  1
  O  O16  1  0.896683  0.574706  0.264152  1
  O  O17  1  0.888902  0.566001  0.621781  1
  O  O18  1  0.192909  0.716212  0.513251  1
  O  O19  1  0.852630  0.866296  0.923070  1
