# generated using pymatgen
data_Pr2Sc2Al13Ga5Ir6
_symmetry_space_group_name_H-M   'P 1'
_cell_length_a   7.53081707
_cell_length_b   7.53592282
_cell_length_c   9.57021800
_cell_angle_alpha   90.00000000
_cell_angle_beta   90.00000000
_cell_angle_gamma   119.61349333
_symmetry_Int_Tables_number   1
_chemical_formula_structural   Pr2Sc2Al13Ga5Ir6
_chemical_formula_sum   'Pr2 Sc2 Al13 Ga5 Ir6'
_cell_volume   472.18186883
_cell_formula_units_Z   1
loop_
 _symmetry_equiv_pos_site_id
 _symmetry_equiv_pos_as_xyz
  1  'x, y, z'
loop_
 _atom_site_type_symbol
 _atom_site_label
 _atom_site_symmetry_multiplicity
 _atom_site_fract_x
 _atom_site_fract_y
 _atom_site_fract_z
 _atom_site_occupancy
  Pr  Pr0  1  0.994975  0.669587  0.250000  1
  Pr  Pr1  1  0.669495  0.995438  0.250000  1
  Sc  Sc2  1  0.000278  0.324553  0.750000  1
  Sc  Sc3  1  0.329410  0.005898  0.750000  1
  Al  Al4  1  0.005195  0.334782  0.062003  1
  Al  Al5  1  0.003289  0.665244  0.917561  1
  Al  Al6  1  0.003289  0.665244  0.582439  1
  Al  Al7  1  0.334941  0.004963  0.438064  1
  Al  Al8  1  0.005195  0.334782  0.437997  1
  Al  Al9  1  0.664487  0.001692  0.582552  1
  Al  Al10  1  0.664487  0.001692  0.917448  1
  Al  Al11  1  0.334941  0.004963  0.061936  1
  Al  Al12  1  0.330506  0.330931  0.569186  1
  Al  Al13  1  0.664529  0.664264  0.459059  1
  Al  Al14  1  0.664529  0.664264  0.040941  1
  Al  Al15  1  0.330506  0.330931  0.930814  1
  Al  Al16  1  0.442228  0.661142  0.750000  1
  Ga  Ga17  1  0.133790  0.133630  0.250000  1
  Ga  Ga18  1  0.875448  0.874775  0.750000  1
  Ga  Ga19  1  0.337672  0.542280  0.250000  1
  Ga  Ga20  1  0.660396  0.447459  0.750000  1
  Ga  Ga21  1  0.542596  0.338151  0.250000  1
  Ir  Ir22  1  0.672280  0.328107  0.996388  1
  Ir  Ir23  1  0.329305  0.671484  0.994464  1
  Ir  Ir24  1  0.329305  0.671484  0.505536  1
  Ir  Ir25  1  0.672280  0.328107  0.503612  1
  Ir  Ir26  1  0.002324  0.002078  0.995348  1
  Ir  Ir27  1  0.002324  0.002078  0.504652  1
