# generated using pymatgen
data_Li3SbPt2
_symmetry_space_group_name_H-M   'P 1'
_cell_length_a   4.16302745
_cell_length_b   4.16302638
_cell_length_c   10.73723000
_cell_angle_alpha   101.17810347
_cell_angle_beta   101.17810058
_cell_angle_gamma   89.99999886
_symmetry_Int_Tables_number   1
_chemical_formula_structural   Li3SbPt2
_chemical_formula_sum   'Li6 Sb2 Pt4'
_cell_volume   178.95477999
_cell_formula_units_Z   2
loop_
 _symmetry_equiv_pos_site_id
 _symmetry_equiv_pos_as_xyz
  1  'x, y, z'
loop_
 _atom_site_type_symbol
 _atom_site_label
 _atom_site_symmetry_multiplicity
 _atom_site_fract_x
 _atom_site_fract_y
 _atom_site_fract_z
 _atom_site_occupancy
  Li  Li0  1  0.036001  0.286001  0.072000  1
  Li  Li1  1  0.125000  0.874999  0.250000  1
  Li  Li2  1  0.713999  0.963999  0.427999  1
  Li  Li3  1  0.286001  0.036001  0.572001  1
  Li  Li4  1  0.875000  0.125000  0.750000  1
  Li  Li5  1  0.963999  0.713999  0.927999  1
  Sb  Sb6  1  0.625000  0.375000  0.250000  1
  Sb  Sb7  1  0.375000  0.625000  0.750000  1
  Pt  Pt8  1  0.544285  0.794285  0.088571  1
  Pt  Pt9  1  0.205714  0.455714  0.411429  1
  Pt  Pt10  1  0.794285  0.544285  0.588571  1
  Pt  Pt11  1  0.455714  0.205715  0.911429  1
