# generated using pymatgen
data_Hf2Zr4Fe16Si6W
_symmetry_space_group_name_H-M   'P 1'
_cell_length_a   8.13947012
_cell_length_b   8.13149977
_cell_length_c   8.13946890
_cell_angle_alpha   60.03237521
_cell_angle_beta   59.93523153
_cell_angle_gamma   60.03237816
_symmetry_Int_Tables_number   1
_chemical_formula_structural   Hf2Zr4Fe16Si6W
_chemical_formula_sum   'Hf2 Zr4 Fe16 Si6 W1'
_cell_volume   380.93157817
_cell_formula_units_Z   1
loop_
 _symmetry_equiv_pos_site_id
 _symmetry_equiv_pos_as_xyz
  1  'x, y, z'
loop_
 _atom_site_type_symbol
 _atom_site_label
 _atom_site_symmetry_multiplicity
 _atom_site_fract_x
 _atom_site_fract_y
 _atom_site_fract_z
 _atom_site_occupancy
  Hf  Hf0  1  0.712117  0.287883  0.712117  1
  Hf  Hf1  1  0.287883  0.712117  0.287883  1
  Zr  Zr2  1  0.290899  0.709101  0.709101  1
  Zr  Zr3  1  0.709101  0.709101  0.290899  1
  Zr  Zr4  1  0.290899  0.290899  0.709101  1
  Zr  Zr5  1  0.709101  0.290899  0.290899  1
  Fe  Fe6  1  0.875283  0.877879  0.875283  1
  Fe  Fe7  1  0.029774  0.323276  0.323672  1
  Fe  Fe8  1  0.122121  0.124717  0.628445  1
  Fe  Fe9  1  0.323276  0.029774  0.323276  1
  Fe  Fe10  1  0.323276  0.323672  0.323276  1
  Fe  Fe11  1  0.676328  0.676724  0.970226  1
  Fe  Fe12  1  0.877879  0.875283  0.371555  1
  Fe  Fe13  1  0.676724  0.676328  0.676724  1
  Fe  Fe14  1  0.676724  0.970226  0.676724  1
  Fe  Fe15  1  0.323672  0.323276  0.029774  1
  Fe  Fe16  1  0.875283  0.371555  0.875283  1
  Fe  Fe17  1  0.628445  0.124717  0.122121  1
  Fe  Fe18  1  0.124717  0.628445  0.124717  1
  Fe  Fe19  1  0.124717  0.122121  0.124717  1
  Fe  Fe20  1  0.970226  0.676724  0.676328  1
  Fe  Fe21  1  0.371555  0.875283  0.877879  1
  Si  Si22  1  0.000000  0.000000  0.500000  1
  Si  Si23  1  0.000000  0.500000  0.000000  1
  Si  Si24  1  0.500000  0.000000  0.500000  1
  Si  Si25  1  0.000000  0.500000  0.500000  1
  Si  Si26  1  0.500000  0.000000  0.000000  1
  Si  Si27  1  0.500000  0.500000  0.000000  1
  W  W28  1  0.000000  0.000000  0.000000  1
