# generated using pymatgen
data_Tb2EuEr4PtI12
_symmetry_space_group_name_H-M   'P 1'
_cell_length_a   9.82469805
_cell_length_b   9.79920464
_cell_length_c   9.77961036
_cell_angle_alpha   106.55231960
_cell_angle_beta   106.35962181
_cell_angle_gamma   106.47414966
_symmetry_Int_Tables_number   1
_chemical_formula_structural   Tb2EuEr4PtI12
_chemical_formula_sum   'Tb2 Eu1 Er4 Pt1 I12'
_cell_volume   795.33527478
_cell_formula_units_Z   1
loop_
 _symmetry_equiv_pos_site_id
 _symmetry_equiv_pos_as_xyz
  1  'x, y, z'
loop_
 _atom_site_type_symbol
 _atom_site_label
 _atom_site_symmetry_multiplicity
 _atom_site_fract_x
 _atom_site_fract_y
 _atom_site_fract_z
 _atom_site_occupancy
  Tb  Tb0  1  0.700747  0.905240  0.978775  1
  Tb  Tb1  1  0.977464  0.699278  0.903632  1
  Eu  Eu2  1  0.499966  0.500229  0.500147  1
  Er  Er3  1  0.095812  0.023163  0.297562  1
  Er  Er4  1  0.294950  0.095446  0.021887  1
  Er  Er5  1  0.022731  0.296069  0.095241  1
  Er  Er6  1  0.905826  0.976866  0.702792  1
  Pt  Pt7  1  0.999845  0.999518  0.000323  1
  I  I8  1  0.073967  0.675473  0.225042  1
  I  I9  1  0.221327  0.073414  0.674433  1
  I  I10  1  0.676649  0.225732  0.074905  1
  I  I11  1  0.926980  0.322200  0.777410  1
  I  I12  1  0.781752  0.928814  0.329065  1
  I  I13  1  0.324864  0.780147  0.925745  1
  I  I14  1  0.449713  0.139359  0.370991  1
  I  I15  1  0.370529  0.450412  0.138640  1
  I  I16  1  0.140004  0.372081  0.451391  1
  I  I17  1  0.551127  0.861391  0.626193  1
  I  I18  1  0.627010  0.547301  0.860258  1
  I  I19  1  0.858737  0.627868  0.545570  1
