# generated using pymatgen
data_Ce3Lu2Al2Os3
_symmetry_space_group_name_H-M   'P 1'
_cell_length_a   8.40272016
_cell_length_b   8.40271952
_cell_length_c   8.40272007
_cell_angle_alpha   110.15739122
_cell_angle_beta   110.15739675
_cell_angle_gamma   110.15739017
_symmetry_Int_Tables_number   1
_chemical_formula_structural   Ce3Lu2Al2Os3
_chemical_formula_sum   'Ce6 Lu4 Al4 Os6'
_cell_volume   444.72654721
_cell_formula_units_Z   2
loop_
 _symmetry_equiv_pos_site_id
 _symmetry_equiv_pos_as_xyz
  1  'x, y, z'
loop_
 _atom_site_type_symbol
 _atom_site_label
 _atom_site_symmetry_multiplicity
 _atom_site_fract_x
 _atom_site_fract_y
 _atom_site_fract_z
 _atom_site_occupancy
  Ce  Ce0  1  0.714794  0.510006  0.997977  1
  Ce  Ce1  1  0.997977  0.714794  0.510006  1
  Ce  Ce2  1  0.510006  0.997977  0.714794  1
  Ce  Ce3  1  0.247847  0.189315  0.940729  1
  Ce  Ce4  1  0.940729  0.247847  0.189315  1
  Ce  Ce5  1  0.189315  0.940729  0.247847  1
  Lu  Lu6  1  0.773038  0.773038  0.773038  1
  Lu  Lu7  1  0.318334  0.569826  0.750814  1
  Lu  Lu8  1  0.750814  0.318334  0.569826  1
  Lu  Lu9  1  0.569826  0.750814  0.318334  1
  Al  Al10  1  0.405135  0.405135  0.405135  1
  Al  Al11  1  0.099176  0.500435  0.999012  1
  Al  Al12  1  0.999012  0.099176  0.500435  1
  Al  Al13  1  0.500435  0.999012  0.099176  1
  Os  Os14  1  0.881073  0.116192  0.747432  1
  Os  Os15  1  0.747432  0.881073  0.116192  1
  Os  Os16  1  0.116192  0.747432  0.881073  1
  Os  Os17  1  0.242756  0.618902  0.377208  1
  Os  Os18  1  0.377208  0.242756  0.618902  1
  Os  Os19  1  0.618902  0.377208  0.242756  1
