# generated using pymatgen
data_Ho20Cd3Ni2Au3
_symmetry_space_group_name_H-M   'P 1'
_cell_length_a   9.55885400
_cell_length_b   9.55886703
_cell_length_c   9.49388600
_cell_angle_alpha   90.00000000
_cell_angle_beta   90.00000000
_cell_angle_gamma   120.00046967
_symmetry_Int_Tables_number   1
_chemical_formula_structural   Ho20Cd3Ni2Au3
_chemical_formula_sum   'Ho20 Cd3 Ni2 Au3'
_cell_volume   751.25060998
_cell_formula_units_Z   1
loop_
 _symmetry_equiv_pos_site_id
 _symmetry_equiv_pos_as_xyz
  1  'x, y, z'
loop_
 _atom_site_type_symbol
 _atom_site_label
 _atom_site_symmetry_multiplicity
 _atom_site_fract_x
 _atom_site_fract_y
 _atom_site_fract_z
 _atom_site_occupancy
  Ho  Ho0  1  0.000025  0.999984  0.459570  1
  Ho  Ho1  1  0.000025  0.999984  0.040430  1
  Ho  Ho2  1  0.541866  0.458067  0.250000  1
  Ho  Ho3  1  0.541920  0.083793  0.250000  1
  Ho  Ho4  1  0.916198  0.458144  0.250000  1
  Ho  Ho5  1  0.456718  0.543254  0.750000  1
  Ho  Ho6  1  0.456773  0.913497  0.750000  1
  Ho  Ho7  1  0.086497  0.543249  0.750000  1
  Ho  Ho8  1  0.209818  0.790216  0.437414  1
  Ho  Ho9  1  0.209769  0.419585  0.437393  1
  Ho  Ho10  1  0.580418  0.790191  0.437392  1
  Ho  Ho11  1  0.790642  0.209356  0.560173  1
  Ho  Ho12  1  0.790630  0.581288  0.560179  1
  Ho  Ho13  1  0.418717  0.209365  0.560178  1
  Ho  Ho14  1  0.790642  0.209356  0.939827  1
  Ho  Ho15  1  0.790630  0.581288  0.939821  1
  Ho  Ho16  1  0.418717  0.209365  0.939822  1
  Ho  Ho17  1  0.209818  0.790216  0.062586  1
  Ho  Ho18  1  0.209769  0.419585  0.062607  1
  Ho  Ho19  1  0.580418  0.790191  0.062608  1
  Cd  Cd20  1  0.109803  0.890206  0.750000  1
  Cd  Cd21  1  0.109800  0.219581  0.750000  1
  Cd  Cd22  1  0.780422  0.890191  0.750000  1
  Ni  Ni23  1  0.333321  0.666682  0.250000  1
  Ni  Ni24  1  0.666667  0.333334  0.750000  1
  Au  Au25  1  0.869424  0.130608  0.250000  1
  Au  Au26  1  0.869354  0.738808  0.250000  1
  Au  Au27  1  0.261200  0.130619  0.250000  1
