# generated using pymatgen
data_CsAg(HS)2
_symmetry_space_group_name_H-M   'P 1'
_cell_length_a   7.42798993
_cell_length_b   7.42798981
_cell_length_c   7.40699872
_cell_angle_alpha   110.08848955
_cell_angle_beta   110.87067376
_cell_angle_gamma   107.59259154
_symmetry_Int_Tables_number   1
_chemical_formula_structural   CsAg(HS)2
_chemical_formula_sum   'Cs2 Ag2 H4 S4'
_cell_volume   313.85689074
_cell_formula_units_Z   2
loop_
 _symmetry_equiv_pos_site_id
 _symmetry_equiv_pos_as_xyz
  1  'x, y, z'
loop_
 _atom_site_type_symbol
 _atom_site_label
 _atom_site_symmetry_multiplicity
 _atom_site_fract_x
 _atom_site_fract_y
 _atom_site_fract_z
 _atom_site_occupancy
  Cs  Cs0  1  0.821878  0.821878  0.000000  1
  Cs  Cs1  1  0.595844  0.095844  0.500000  1
  Ag  Ag2  1  0.083041  0.583041  0.500000  1
  Ag  Ag3  1  0.342957  0.342957  0.000000  1
  H  H4  1  0.191415  0.303177  0.566552  1
  H  H5  1  0.340036  0.978446  0.923694  1
  H  H6  1  0.054750  0.416341  0.076306  1
  H  H7  1  0.736625  0.624863  0.433448  1
  S  S8  1  0.276278  0.775193  0.898992  1
  S  S9  1  0.152072  0.130874  0.601973  1
  S  S10  1  0.528901  0.550100  0.398027  1
  S  S11  1  0.876201  0.377286  0.101008  1
