# generated using pymatgen
data_Na16HfTiP8
_symmetry_space_group_name_H-M   'P 1'
_cell_length_a   9.60216764
_cell_length_b   9.60216768
_cell_length_c   9.60216800
_cell_angle_alpha   59.99999890
_cell_angle_beta   59.99999875
_cell_angle_gamma   59.99999932
_symmetry_Int_Tables_number   1
_chemical_formula_structural   Na16HfTiP8
_chemical_formula_sum   'Na16 Hf1 Ti1 P8'
_cell_volume   626.02670796
_cell_formula_units_Z   1
loop_
 _symmetry_equiv_pos_site_id
 _symmetry_equiv_pos_as_xyz
  1  'x, y, z'
loop_
 _atom_site_type_symbol
 _atom_site_label
 _atom_site_symmetry_multiplicity
 _atom_site_fract_x
 _atom_site_fract_y
 _atom_site_fract_z
 _atom_site_occupancy
  Na  Na0  1  0.469667  0.030333  0.030333  1
  Na  Na1  1  0.030333  0.469667  0.030333  1
  Na  Na2  1  0.469667  0.469667  0.030334  1
  Na  Na3  1  0.627055  0.627055  0.118835  1
  Na  Na4  1  0.780513  0.219487  0.219487  1
  Na  Na5  1  0.219487  0.780513  0.219487  1
  Na  Na6  1  0.780513  0.780513  0.219486  1
  Na  Na7  1  0.030333  0.030333  0.469667  1
  Na  Na8  1  0.469667  0.030334  0.469667  1
  Na  Na9  1  0.030334  0.469667  0.469667  1
  Na  Na10  1  0.627055  0.118835  0.627055  1
  Na  Na11  1  0.118835  0.627055  0.627055  1
  Na  Na12  1  0.627055  0.627055  0.627055  1
  Na  Na13  1  0.219487  0.219487  0.780513  1
  Na  Na14  1  0.780513  0.219486  0.780513  1
  Na  Na15  1  0.219486  0.780513  0.780513  1
  Hf  Hf16  1  0.500000  0.500000  0.500000  1
  Ti  Ti17  1  0.750000  0.750000  0.750000  1
  P  P18  1  0.821583  0.392805  0.392805  1
  P  P19  1  0.392805  0.821583  0.392805  1
  P  P20  1  0.392805  0.392805  0.392805  1
  P  P21  1  0.853592  0.853592  0.439225  1
  P  P22  1  0.392805  0.392805  0.821583  1
  P  P23  1  0.853592  0.439225  0.853592  1
  P  P24  1  0.853592  0.853592  0.853592  1
  P  P25  1  0.439225  0.853592  0.853592  1
