# generated using pymatgen
data_Tb2TmAl3Zn2Cu
_symmetry_space_group_name_H-M   'P 1'
_cell_length_a   6.87355908
_cell_length_b   6.89793723
_cell_length_c   4.32524400
_cell_angle_alpha   90.00000000
_cell_angle_beta   90.00000000
_cell_angle_gamma   120.11739405
_symmetry_Int_Tables_number   1
_chemical_formula_structural   Tb2TmAl3Zn2Cu
_chemical_formula_sum   'Tb2 Tm1 Al3 Zn2 Cu1'
_cell_volume   177.38920642
_cell_formula_units_Z   1
loop_
 _symmetry_equiv_pos_site_id
 _symmetry_equiv_pos_as_xyz
  1  'x, y, z'
loop_
 _atom_site_type_symbol
 _atom_site_label
 _atom_site_symmetry_multiplicity
 _atom_site_fract_x
 _atom_site_fract_y
 _atom_site_fract_z
 _atom_site_occupancy
  Tb  Tb0  1  0.410695  0.412585  0.500000  1
  Tb  Tb1  1  0.589305  0.001890  0.500000  1
  Tm  Tm2  1  0.000000  0.589084  0.500000  1
  Al  Al3  1  0.766336  0.765451  0.000000  1
  Al  Al4  1  0.000000  0.233729  0.000000  1
  Al  Al5  1  0.233664  0.999115  0.000000  1
  Zn  Zn6  1  0.329770  0.666187  0.000000  1
  Zn  Zn7  1  0.670230  0.336414  0.000000  1
  Cu  Cu8  1  0.000000  0.995546  0.500000  1
