# generated using pymatgen
data_Tb10Er2Ga9Si9Ge2
_symmetry_space_group_name_H-M   'P 1'
_cell_length_a   5.99372948
_cell_length_b   5.99373453
_cell_length_c   18.70286400
_cell_angle_alpha   90.00000000
_cell_angle_beta   90.00000000
_cell_angle_gamma   102.77935863
_symmetry_Int_Tables_number   1
_chemical_formula_structural   Tb10Er2Ga9Si9Ge2
_chemical_formula_sum   'Tb10 Er2 Ga9 Si9 Ge2'
_cell_volume   655.25359337
_cell_formula_units_Z   1
loop_
 _symmetry_equiv_pos_site_id
 _symmetry_equiv_pos_as_xyz
  1  'x, y, z'
loop_
 _atom_site_type_symbol
 _atom_site_label
 _atom_site_symmetry_multiplicity
 _atom_site_fract_x
 _atom_site_fract_y
 _atom_site_fract_z
 _atom_site_occupancy
  Tb  Tb0  1  0.338985  0.338983  0.250425  1
  Tb  Tb1  1  0.338985  0.338983  0.749575  1
  Tb  Tb2  1  0.201151  0.801439  0.128192  1
  Tb  Tb3  1  0.199364  0.801343  0.624939  1
  Tb  Tb4  1  0.201151  0.801439  0.871808  1
  Tb  Tb5  1  0.199364  0.801343  0.375061  1
  Tb  Tb6  1  0.801439  0.201151  0.128192  1
  Tb  Tb7  1  0.801343  0.199366  0.624939  1
  Tb  Tb8  1  0.801343  0.199366  0.375061  1
  Tb  Tb9  1  0.801439  0.201151  0.871808  1
  Er  Er10  1  0.654102  0.654099  0.000000  1
  Er  Er11  1  0.663350  0.663353  0.500000  1
  Ga  Ga12  1  0.317752  0.317752  0.902801  1
  Ga  Ga13  1  0.323665  0.323667  0.402679  1
  Ga  Ga14  1  0.677897  0.677898  0.348315  1
  Ga  Ga15  1  0.677907  0.677907  0.848055  1
  Ga  Ga16  1  0.317752  0.317752  0.097199  1
  Ga  Ga17  1  0.323665  0.323667  0.597321  1
  Ga  Ga18  1  0.677907  0.677907  0.151945  1
  Ga  Ga19  1  0.677897  0.677898  0.651685  1
  Ga  Ga20  1  0.038751  0.038751  0.000000  1
  Si  Si21  1  0.482210  0.088166  0.500000  1
  Si  Si22  1  0.911362  0.520076  0.250673  1
  Si  Si23  1  0.911362  0.520076  0.749327  1
  Si  Si24  1  0.520076  0.911362  0.250673  1
  Si  Si25  1  0.520076  0.911362  0.749327  1
  Si  Si26  1  0.088164  0.482212  0.500000  1
  Si  Si27  1  0.053563  0.053564  0.500000  1
  Si  Si28  1  0.947329  0.947330  0.250949  1
  Si  Si29  1  0.947329  0.947330  0.749051  1
  Ge  Ge30  1  0.497101  0.086212  0.000000  1
  Ge  Ge31  1  0.086224  0.497098  0.000000  1
