# generated using pymatgen
data_Pr3U(NbN2)4
_symmetry_space_group_name_H-M   'P 1'
_cell_length_a   3.38263100
_cell_length_b   5.81303433
_cell_length_c   11.08584101
_cell_angle_alpha   89.93589737
_cell_angle_beta   90.00000000
_cell_angle_gamma   90.00000000
_symmetry_Int_Tables_number   1
_chemical_formula_structural   Pr3U(NbN2)4
_chemical_formula_sum   'Pr3 U1 Nb4 N8'
_cell_volume   217.98463684
_cell_formula_units_Z   1
loop_
 _symmetry_equiv_pos_site_id
 _symmetry_equiv_pos_as_xyz
  1  'x, y, z'
loop_
 _atom_site_type_symbol
 _atom_site_label
 _atom_site_symmetry_multiplicity
 _atom_site_fract_x
 _atom_site_fract_y
 _atom_site_fract_z
 _atom_site_occupancy
  Pr  Pr0  1  0.250000  0.580309  0.858168  1
  Pr  Pr1  1  0.750000  0.416918  0.142759  1
  Pr  Pr2  1  0.750000  0.917462  0.358662  1
  U  U3  1  0.250000  0.077843  0.637478  1
  Nb  Nb4  1  0.250000  0.922017  0.104549  1
  Nb  Nb5  1  0.750000  0.078249  0.894811  1
  Nb  Nb6  1  0.750000  0.578642  0.602579  1
  Nb  Nb7  1  0.250000  0.421685  0.401259  1
  N  N8  1  0.250000  0.661992  0.250802  1
  N  N9  1  0.750000  0.326901  0.745262  1
  N  N10  1  0.750000  0.854173  0.737622  1
  N  N11  1  0.250000  0.163750  0.252342  1
  N  N12  1  0.250000  0.750698  0.517549  1
  N  N13  1  0.750000  0.247936  0.498222  1
  N  N14  1  0.750000  0.770550  0.011490  1
  N  N15  1  0.250000  0.230876  0.986445  1
