# generated using pymatgen
data_YHo(ScBi)2
_symmetry_space_group_name_H-M   'P 1'
_cell_length_a   4.42384800
_cell_length_b   4.42384800
_cell_length_c   8.35137400
_cell_angle_alpha   90.00000000
_cell_angle_beta   90.00000000
_cell_angle_gamma   90.00000000
_symmetry_Int_Tables_number   1
_chemical_formula_structural   YHo(ScBi)2
_chemical_formula_sum   'Y1 Ho1 Sc2 Bi2'
_cell_volume   163.43998968
_cell_formula_units_Z   1
loop_
 _symmetry_equiv_pos_site_id
 _symmetry_equiv_pos_as_xyz
  1  'x, y, z'
loop_
 _atom_site_type_symbol
 _atom_site_label
 _atom_site_symmetry_multiplicity
 _atom_site_fract_x
 _atom_site_fract_y
 _atom_site_fract_z
 _atom_site_occupancy
  Y  Y0  1  0.000000  0.500000  0.654784  1
  Ho  Ho1  1  0.500000  0.000000  0.344227  1
  Sc  Sc2  1  0.000000  0.000000  0.000345  1
  Sc  Sc3  1  0.500000  0.500000  0.000345  1
  Bi  Bi4  1  0.000000  0.500000  0.269258  1
  Bi  Bi5  1  0.500000  0.000000  0.731042  1
