# generated using pymatgen
data_Nd16MgHg3Pt3Rh
_symmetry_space_group_name_H-M   'P 1'
_cell_length_a   9.96323013
_cell_length_b   10.01804174
_cell_length_c   10.01804200
_cell_angle_alpha   59.99999913
_cell_angle_beta   59.81784715
_cell_angle_gamma   59.81784681
_symmetry_Int_Tables_number   1
_chemical_formula_structural   Nd16MgHg3Pt3Rh
_chemical_formula_sum   'Nd16 Mg1 Hg3 Pt3 Rh1'
_cell_volume   705.09823068
_cell_formula_units_Z   1
loop_
 _symmetry_equiv_pos_site_id
 _symmetry_equiv_pos_as_xyz
  1  'x, y, z'
loop_
 _atom_site_type_symbol
 _atom_site_label
 _atom_site_symmetry_multiplicity
 _atom_site_fract_x
 _atom_site_fract_y
 _atom_site_fract_z
 _atom_site_occupancy
  Nd  Nd0  1  0.602452  0.596944  0.596944  1
  Nd  Nd1  1  0.602452  0.596944  0.203662  1
  Nd  Nd2  1  0.602452  0.203662  0.596944  1
  Nd  Nd3  1  0.192036  0.602655  0.602655  1
  Nd  Nd4  1  0.053277  0.442363  0.442363  1
  Nd  Nd5  1  0.438644  0.059948  0.059948  1
  Nd  Nd6  1  0.438644  0.059948  0.441460  1
  Nd  Nd7  1  0.053277  0.442363  0.061996  1
  Nd  Nd8  1  0.438644  0.441460  0.059948  1
  Nd  Nd9  1  0.053277  0.061996  0.442363  1
  Nd  Nd10  1  0.185574  0.814985  0.814985  1
  Nd  Nd11  1  0.814362  0.185866  0.185866  1
  Nd  Nd12  1  0.814362  0.185866  0.813906  1
  Nd  Nd13  1  0.185574  0.814985  0.184455  1
  Nd  Nd14  1  0.814362  0.813906  0.185866  1
  Nd  Nd15  1  0.185574  0.184455  0.814985  1
  Mg  Mg16  1  0.538602  0.820466  0.820466  1
  Hg  Hg17  1  0.830465  0.836306  0.836306  1
  Hg  Hg18  1  0.830465  0.836306  0.496924  1
  Hg  Hg19  1  0.830465  0.496924  0.836306  1
  Pt  Pt20  1  0.390764  0.393634  0.393634  1
  Pt  Pt21  1  0.390764  0.393634  0.821965  1
  Pt  Pt22  1  0.390764  0.821965  0.393634  1
  Rh  Rh23  1  0.822750  0.392416  0.392416  1
