# generated using pymatgen
data_Nd10Bi3Pb3S2
_symmetry_space_group_name_H-M   'P 1'
_cell_length_a   9.45172200
_cell_length_b   9.45172082
_cell_length_c   6.79751800
_cell_angle_alpha   90.00000000
_cell_angle_beta   90.00000000
_cell_angle_gamma   120.00000413
_symmetry_Int_Tables_number   1
_chemical_formula_structural   Nd10Bi3Pb3S2
_chemical_formula_sum   'Nd10 Bi3 Pb3 S2'
_cell_volume   525.89955648
_cell_formula_units_Z   1
loop_
 _symmetry_equiv_pos_site_id
 _symmetry_equiv_pos_as_xyz
  1  'x, y, z'
loop_
 _atom_site_type_symbol
 _atom_site_label
 _atom_site_symmetry_multiplicity
 _atom_site_fract_x
 _atom_site_fract_y
 _atom_site_fract_z
 _atom_site_occupancy
  Nd  Nd0  1  0.755922  0.755922  0.750000  1
  Nd  Nd1  1  0.244078  0.000000  0.750000  1
  Nd  Nd2  1  0.000000  0.244078  0.750000  1
  Nd  Nd3  1  0.244516  0.244516  0.250000  1
  Nd  Nd4  1  0.755484  0.000000  0.250000  1
  Nd  Nd5  1  0.000000  0.755484  0.250000  1
  Nd  Nd6  1  0.666667  0.333333  0.001024  1
  Nd  Nd7  1  0.333333  0.666667  0.001024  1
  Nd  Nd8  1  0.333333  0.666667  0.498976  1
  Nd  Nd9  1  0.666667  0.333333  0.498976  1
  Bi  Bi10  1  0.395674  0.395674  0.750000  1
  Bi  Bi11  1  0.604326  0.000000  0.750000  1
  Bi  Bi12  1  0.000000  0.604326  0.750000  1
  Pb  Pb13  1  0.604437  0.604437  0.250000  1
  Pb  Pb14  1  0.395563  0.000000  0.250000  1
  Pb  Pb15  1  0.000000  0.395563  0.250000  1
  S  S16  1  0.000000  0.000000  0.000056  1
  S  S17  1  0.000000  0.000000  0.499944  1
