# generated using pymatgen
data_Pr3Th2AgSn3
_symmetry_space_group_name_H-M   'P 1'
_cell_length_a   9.63770700
_cell_length_b   9.63770630
_cell_length_c   6.66893100
_cell_angle_alpha   90.00000000
_cell_angle_beta   90.00000000
_cell_angle_gamma   120.00000583
_symmetry_Int_Tables_number   1
_chemical_formula_structural   Pr3Th2AgSn3
_chemical_formula_sum   'Pr6 Th4 Ag2 Sn6'
_cell_volume   536.45616014
_cell_formula_units_Z   2
loop_
 _symmetry_equiv_pos_site_id
 _symmetry_equiv_pos_as_xyz
  1  'x, y, z'
loop_
 _atom_site_type_symbol
 _atom_site_label
 _atom_site_symmetry_multiplicity
 _atom_site_fract_x
 _atom_site_fract_y
 _atom_site_fract_z
 _atom_site_occupancy
  Pr  Pr0  1  0.276276  0.000000  0.750000  1
  Pr  Pr1  1  0.723724  0.000000  0.250000  1
  Pr  Pr2  1  0.000000  0.276276  0.750000  1
  Pr  Pr3  1  0.000000  0.723724  0.250000  1
  Pr  Pr4  1  0.723724  0.723724  0.750000  1
  Pr  Pr5  1  0.276276  0.276276  0.250000  1
  Th  Th6  1  0.333333  0.666667  0.500000  1
  Th  Th7  1  0.666667  0.333333  0.500000  1
  Th  Th8  1  0.666667  0.333333  0.000000  1
  Th  Th9  1  0.333333  0.666667  0.000000  1
  Ag  Ag10  1  0.000000  0.000000  0.500000  1
  Ag  Ag11  1  0.000000  0.000000  0.000000  1
  Sn  Sn12  1  0.622401  0.000000  0.750000  1
  Sn  Sn13  1  0.377599  0.000000  0.250000  1
  Sn  Sn14  1  0.000000  0.622401  0.750000  1
  Sn  Sn15  1  0.000000  0.377599  0.250000  1
  Sn  Sn16  1  0.377599  0.377599  0.750000  1
  Sn  Sn17  1  0.622401  0.622401  0.250000  1
