# generated using pymatgen
data_Ho4CuPd3Pb2
_symmetry_space_group_name_H-M   'P 1'
_cell_length_a   7.86553681
_cell_length_b   7.86553681
_cell_length_c   3.60969100
_cell_angle_alpha   90.00000000
_cell_angle_beta   90.00000000
_cell_angle_gamma   89.59217427
_symmetry_Int_Tables_number   1
_chemical_formula_structural   Ho4CuPd3Pb2
_chemical_formula_sum   'Ho4 Cu1 Pd3 Pb2'
_cell_volume   223.31390241
_cell_formula_units_Z   1
loop_
 _symmetry_equiv_pos_site_id
 _symmetry_equiv_pos_as_xyz
  1  'x, y, z'
loop_
 _atom_site_type_symbol
 _atom_site_label
 _atom_site_symmetry_multiplicity
 _atom_site_fract_x
 _atom_site_fract_y
 _atom_site_fract_z
 _atom_site_occupancy
  Ho  Ho0  1  0.672238  0.168910  0.500000  1
  Ho  Ho1  1  0.170279  0.329721  0.500000  1
  Ho  Ho2  1  0.826935  0.673065  0.500000  1
  Ho  Ho3  1  0.331090  0.827762  0.500000  1
  Cu  Cu4  1  0.379682  0.120318  0.000000  1
  Pd  Pd5  1  0.124747  0.625682  0.000000  1
  Pd  Pd6  1  0.618203  0.881797  0.000000  1
  Pd  Pd7  1  0.874318  0.375253  0.000000  1
  Pb  Pb8  1  0.002659  0.000151  0.000000  1
  Pb  Pb9  1  0.499849  0.497341  0.000000  1
