# generated using pymatgen
data_TbEr(AuCl6)2
_symmetry_space_group_name_H-M   'P 1'
_cell_length_a   8.01347357
_cell_length_b   9.94166362
_cell_length_c   14.10772500
_cell_angle_alpha   102.87481697
_cell_angle_beta   97.38681235
_cell_angle_gamma   113.06372614
_symmetry_Int_Tables_number   1
_chemical_formula_structural   TbEr(AuCl6)2
_chemical_formula_sum   'Tb2 Er2 Au4 Cl24'
_cell_volume   978.46169526
_cell_formula_units_Z   2
loop_
 _symmetry_equiv_pos_site_id
 _symmetry_equiv_pos_as_xyz
  1  'x, y, z'
loop_
 _atom_site_type_symbol
 _atom_site_label
 _atom_site_symmetry_multiplicity
 _atom_site_fract_x
 _atom_site_fract_y
 _atom_site_fract_z
 _atom_site_occupancy
  Tb  Tb0  1  0.578686  0.929150  0.624097  1
  Tb  Tb1  1  0.421314  0.070850  0.375903  1
  Er  Er2  1  0.969147  0.315345  0.872719  1
  Er  Er3  1  0.030853  0.684655  0.127281  1
  Au  Au4  1  0.287901  0.633132  0.764362  1
  Au  Au5  1  0.712099  0.366868  0.235638  1
  Au  Au6  1  0.500000  0.500000  0.500000  1
  Au  Au7  1  0.000000  0.000000  0.000000  1
  Cl  Cl8  1  0.596147  0.734004  0.750708  1
  Cl  Cl9  1  0.403853  0.265996  0.249292  1
  Cl  Cl10  1  0.278038  0.848538  0.731076  1
  Cl  Cl11  1  0.721962  0.151462  0.268924  1
  Cl  Cl12  1  0.978071  0.532323  0.774204  1
  Cl  Cl13  1  0.021929  0.467677  0.225796  1
  Cl  Cl14  1  0.294290  0.413256  0.792931  1
  Cl  Cl15  1  0.705710  0.586744  0.207069  1
  Cl  Cl16  1  0.686822  0.370616  0.501318  1
  Cl  Cl17  1  0.313178  0.629384  0.498682  1
  Cl  Cl18  1  0.755054  0.736211  0.534561  1
  Cl  Cl19  1  0.244946  0.263789  0.465439  1
  Cl  Cl20  1  0.792506  0.106947  0.974391  1
  Cl  Cl21  1  0.207494  0.893053  0.025609  1
  Cl  Cl22  1  0.779770  0.788838  0.031033  1
  Cl  Cl23  1  0.220230  0.211162  0.968967  1
  Cl  Cl24  1  0.626621  0.196083  0.748200  1
  Cl  Cl25  1  0.373379  0.803917  0.251800  1
  Cl  Cl26  1  0.935841  0.063200  0.733989  1
  Cl  Cl27  1  0.064159  0.936800  0.266011  1
  Cl  Cl28  1  0.713943  0.046137  0.482823  1
  Cl  Cl29  1  0.286057  0.953863  0.517177  1
  Cl  Cl30  1  0.777113  0.438013  0.978141  1
  Cl  Cl31  1  0.222887  0.561987  0.021859  1
