# generated using pymatgen
data_SrNd4Sn15Ir8
_symmetry_space_group_name_H-M   'P 1'
_cell_length_a   4.50926600
_cell_length_b   7.36317259
_cell_length_c   18.85502953
_cell_angle_alpha   89.70725940
_cell_angle_beta   90.00000000
_cell_angle_gamma   90.00000000
_symmetry_Int_Tables_number   1
_chemical_formula_structural   SrNd4Sn15Ir8
_chemical_formula_sum   'Sr1 Nd4 Sn15 Ir8'
_cell_volume   626.02601877
_cell_formula_units_Z   1
loop_
 _symmetry_equiv_pos_site_id
 _symmetry_equiv_pos_as_xyz
  1  'x, y, z'
loop_
 _atom_site_type_symbol
 _atom_site_label
 _atom_site_symmetry_multiplicity
 _atom_site_fract_x
 _atom_site_fract_y
 _atom_site_fract_z
 _atom_site_occupancy
  Sr  Sr0  1  0.500000  0.003358  0.856284  1
  Nd  Nd1  1  0.500000  0.498376  0.357665  1
  Nd  Nd2  1  0.000000  0.999756  0.145007  1
  Nd  Nd3  1  0.000000  0.500392  0.641047  1
  Nd  Nd4  1  0.500000  0.492508  0.930890  1
  Sn  Sn5  1  0.000000  0.718015  0.803720  1
  Sn  Sn6  1  0.000000  0.778852  0.306497  1
  Sn  Sn7  1  0.500000  0.276302  0.193913  1
  Sn  Sn8  1  0.500000  0.217744  0.691845  1
  Sn  Sn9  1  0.000000  0.855034  0.971270  1
  Sn  Sn10  1  0.000000  0.630923  0.467662  1
  Sn  Sn11  1  0.500000  0.132075  0.033625  1
  Sn  Sn12  1  0.500000  0.366178  0.531643  1
  Sn  Sn13  1  0.000000  0.306905  0.818716  1
  Sn  Sn14  1  0.000000  0.200074  0.318223  1
  Sn  Sn15  1  0.500000  0.698520  0.186863  1
  Sn  Sn16  1  0.500000  0.805878  0.678173  1
  Sn  Sn17  1  0.500000  0.020930  0.433393  1
  Sn  Sn18  1  0.000000  0.513150  0.067706  1
  Sn  Sn19  1  0.000000  0.980031  0.566714  1
  Ir  Ir20  1  0.000000  0.231532  0.966052  1
  Ir  Ir21  1  0.000000  0.249637  0.463937  1
  Ir  Ir22  1  0.500000  0.763448  0.047061  1
  Ir  Ir23  1  0.500000  0.750156  0.533496  1
  Ir  Ir24  1  0.000000  0.019155  0.712805  1
  Ir  Ir25  1  0.000000  0.483994  0.214467  1
  Ir  Ir26  1  0.500000  0.988734  0.289303  1
  Ir  Ir27  1  0.500000  0.518341  0.772027  1
