# generated using pymatgen
data_Er3Tm3Rh2
_symmetry_space_group_name_H-M   'P 1'
_cell_length_a   6.26034400
_cell_length_b   7.12170601
_cell_length_c   9.29175601
_cell_angle_alpha   89.99407524
_cell_angle_beta   90.00000000
_cell_angle_gamma   90.00000000
_symmetry_Int_Tables_number   1
_chemical_formula_structural   Er3Tm3Rh2
_chemical_formula_sum   'Er6 Tm6 Rh4'
_cell_volume   414.26670935
_cell_formula_units_Z   2
loop_
 _symmetry_equiv_pos_site_id
 _symmetry_equiv_pos_as_xyz
  1  'x, y, z'
loop_
 _atom_site_type_symbol
 _atom_site_label
 _atom_site_symmetry_multiplicity
 _atom_site_fract_x
 _atom_site_fract_y
 _atom_site_fract_z
 _atom_site_occupancy
  Er  Er0  1  0.172881  0.321478  0.563115  1
  Er  Er1  1  0.672881  0.178522  0.436885  1
  Er  Er2  1  0.866719  0.965676  0.750282  1
  Er  Er3  1  0.366719  0.534324  0.249718  1
  Er  Er4  1  0.633195  0.466062  0.750320  1
  Er  Er5  1  0.133195  0.033938  0.249680  1
  Tm  Tm6  1  0.672859  0.178258  0.063087  1
  Tm  Tm7  1  0.172859  0.321742  0.936913  1
  Tm  Tm8  1  0.827017  0.678478  0.436645  1
  Tm  Tm9  1  0.327017  0.821522  0.563355  1
  Tm  Tm10  1  0.326965  0.821650  0.936787  1
  Tm  Tm11  1  0.826965  0.678350  0.063213  1
  Rh  Rh12  1  0.053191  0.615787  0.750460  1
  Rh  Rh13  1  0.553191  0.884213  0.249540  1
  Rh  Rh14  1  0.447172  0.114859  0.750747  1
  Rh  Rh15  1  0.947172  0.385141  0.249253  1
