# generated using pymatgen
data_NaSmSnI6
_symmetry_space_group_name_H-M   'P 1'
_cell_length_a   8.67960282
_cell_length_b   8.67955698
_cell_length_c   8.67960005
_cell_angle_alpha   54.49356372
_cell_angle_beta   54.49364621
_cell_angle_gamma   54.49376848
_symmetry_Int_Tables_number   1
_chemical_formula_structural   NaSmSnI6
_chemical_formula_sum   'Na1 Sm1 Sn1 I6'
_cell_volume   403.00633424
_cell_formula_units_Z   1
loop_
 _symmetry_equiv_pos_site_id
 _symmetry_equiv_pos_as_xyz
  1  'x, y, z'
loop_
 _atom_site_type_symbol
 _atom_site_label
 _atom_site_symmetry_multiplicity
 _atom_site_fract_x
 _atom_site_fract_y
 _atom_site_fract_z
 _atom_site_occupancy
  Na  Na0  1  0.670077  0.670074  0.670078  1
  Sm  Sm1  1  0.999890  0.999892  0.999897  1
  Sn  Sn2  1  0.330659  0.330657  0.330654  1
  I  I3  1  0.240364  0.599222  0.918019  1
  I  I4  1  0.599218  0.918022  0.240365  1
  I  I5  1  0.918024  0.240364  0.599213  1
  I  I6  1  0.753597  0.395893  0.092282  1
  I  I7  1  0.395891  0.092280  0.753601  1
  I  I8  1  0.092282  0.753598  0.395892  1
