# generated using pymatgen
data_SmLu(SiTc2)4
_symmetry_space_group_name_H-M   'P 1'
_cell_length_a   7.37428643
_cell_length_b   7.37428619
_cell_length_c   4.13373500
_cell_angle_alpha   90.00000000
_cell_angle_beta   90.00000000
_cell_angle_gamma   91.67227470
_symmetry_Int_Tables_number   1
_chemical_formula_structural   SmLu(SiTc2)4
_chemical_formula_sum   'Sm1 Lu1 Si4 Tc8'
_cell_volume   224.69717703
_cell_formula_units_Z   1
loop_
 _symmetry_equiv_pos_site_id
 _symmetry_equiv_pos_as_xyz
  1  'x, y, z'
loop_
 _atom_site_type_symbol
 _atom_site_label
 _atom_site_symmetry_multiplicity
 _atom_site_fract_x
 _atom_site_fract_y
 _atom_site_fract_z
 _atom_site_occupancy
  Sm  Sm0  1  0.000000  0.000000  0.500000  1
  Lu  Lu1  1  0.500000  0.500000  0.000000  1
  Si  Si2  1  0.704464  0.704464  0.500000  1
  Si  Si3  1  0.295536  0.295536  0.500000  1
  Si  Si4  1  0.213325  0.786675  0.000000  1
  Si  Si5  1  0.786675  0.213325  0.000000  1
  Tc  Tc6  1  0.588145  0.160932  0.500000  1
  Tc  Tc7  1  0.411855  0.839068  0.500000  1
  Tc  Tc8  1  0.099296  0.349315  0.000000  1
  Tc  Tc9  1  0.900704  0.650685  0.000000  1
  Tc  Tc10  1  0.160932  0.588145  0.500000  1
  Tc  Tc11  1  0.839068  0.411855  0.500000  1
  Tc  Tc12  1  0.349315  0.099296  0.000000  1
  Tc  Tc13  1  0.650685  0.900704  0.000000  1
