# generated using pymatgen
data_Lu4Zn2In2CuNi
_symmetry_space_group_name_H-M   'P 1'
_cell_length_a   7.55252005
_cell_length_b   7.55251978
_cell_length_c   3.59777400
_cell_angle_alpha   90.00000000
_cell_angle_beta   90.00000000
_cell_angle_gamma   88.93579037
_symmetry_Int_Tables_number   1
_chemical_formula_structural   Lu4Zn2In2CuNi
_chemical_formula_sum   'Lu4 Zn2 In2 Cu1 Ni1'
_cell_volume   205.18363475
_cell_formula_units_Z   1
loop_
 _symmetry_equiv_pos_site_id
 _symmetry_equiv_pos_as_xyz
  1  'x, y, z'
loop_
 _atom_site_type_symbol
 _atom_site_label
 _atom_site_symmetry_multiplicity
 _atom_site_fract_x
 _atom_site_fract_y
 _atom_site_fract_z
 _atom_site_occupancy
  Lu  Lu0  1  0.667076  0.152927  0.500000  1
  Lu  Lu1  1  0.347073  0.832924  0.500000  1
  Lu  Lu2  1  0.178598  0.321402  0.500000  1
  Lu  Lu3  1  0.810779  0.689221  0.500000  1
  Zn  Zn4  1  0.119633  0.626200  0.000000  1
  Zn  Zn5  1  0.873800  0.380367  0.000000  1
  In  In6  1  0.499890  0.497445  0.000000  1
  In  In7  1  0.002555  0.000110  0.000000  1
  Cu  Cu8  1  0.379719  0.120281  0.000000  1
  Ni  Ni9  1  0.620877  0.879123  0.000000  1
