# generated using pymatgen
data_Pr5Dy2Ho(Si3Rh)4
_symmetry_space_group_name_H-M   'P 1'
_cell_length_a   8.24952808
_cell_length_b   8.25146808
_cell_length_c   8.21939800
_cell_angle_alpha   90.00000000
_cell_angle_beta   90.00000000
_cell_angle_gamma   120.00777846
_symmetry_Int_Tables_number   1
_chemical_formula_structural   Pr5Dy2Ho(Si3Rh)4
_chemical_formula_sum   'Pr5 Dy2 Ho1 Si12 Rh4'
_cell_volume   484.50350739
_cell_formula_units_Z   1
loop_
 _symmetry_equiv_pos_site_id
 _symmetry_equiv_pos_as_xyz
  1  'x, y, z'
loop_
 _atom_site_type_symbol
 _atom_site_label
 _atom_site_symmetry_multiplicity
 _atom_site_fract_x
 _atom_site_fract_y
 _atom_site_fract_z
 _atom_site_occupancy
  Pr  Pr0  1  0.999709  0.999855  0.250000  1
  Pr  Pr1  1  0.000158  0.000079  0.750000  1
  Pr  Pr2  1  0.504529  0.495555  0.250000  1
  Pr  Pr3  1  0.504529  0.008975  0.250000  1
  Pr  Pr4  1  0.991271  0.495636  0.250000  1
  Dy  Dy5  1  0.492585  0.507345  0.750000  1
  Dy  Dy6  1  0.492585  0.985241  0.750000  1
  Ho  Ho7  1  0.014378  0.507189  0.750000  1
  Si  Si8  1  0.166707  0.833149  0.507216  1
  Si  Si9  1  0.166707  0.333558  0.507216  1
  Si  Si10  1  0.666374  0.833187  0.506895  1
  Si  Si11  1  0.831612  0.168473  0.505318  1
  Si  Si12  1  0.831612  0.663142  0.505318  1
  Si  Si13  1  0.336956  0.168479  0.505191  1
  Si  Si14  1  0.831612  0.168473  0.994682  1
  Si  Si15  1  0.831612  0.663142  0.994682  1
  Si  Si16  1  0.336956  0.168479  0.994809  1
  Si  Si17  1  0.166707  0.833149  0.992784  1
  Si  Si18  1  0.166707  0.333558  0.992784  1
  Si  Si19  1  0.666374  0.833187  0.993105  1
  Rh  Rh20  1  0.333062  0.666532  0.493721  1
  Rh  Rh21  1  0.667094  0.333547  0.545470  1
  Rh  Rh22  1  0.667094  0.333547  0.954530  1
  Rh  Rh23  1  0.333062  0.666532  0.006279  1
