# generated using pymatgen
data_Li4HoCo2(NiAs)7
_symmetry_space_group_name_H-M   'P 1'
_cell_length_a   9.44175101
_cell_length_b   9.39689635
_cell_length_c   3.81583500
_cell_angle_alpha   90.00000000
_cell_angle_beta   90.00000000
_cell_angle_gamma   120.21145350
_symmetry_Int_Tables_number   1
_chemical_formula_structural   Li4HoCo2(NiAs)7
_chemical_formula_sum   'Li4 Ho1 Co2 Ni7 As7'
_cell_volume   292.56871101
_cell_formula_units_Z   1
loop_
 _symmetry_equiv_pos_site_id
 _symmetry_equiv_pos_as_xyz
  1  'x, y, z'
loop_
 _atom_site_type_symbol
 _atom_site_label
 _atom_site_symmetry_multiplicity
 _atom_site_fract_x
 _atom_site_fract_y
 _atom_site_fract_z
 _atom_site_occupancy
  Li  Li0  1  0.773832  0.549213  0.500000  1
  Li  Li1  1  0.453100  0.226508  0.500000  1
  Li  Li2  1  0.773543  0.227076  0.500000  1
  Li  Li3  1  0.998431  0.001722  0.500000  1
  Ho  Ho4  1  0.333036  0.665715  0.000000  1
  Co  Co5  1  0.276071  0.376175  0.500000  1
  Co  Co6  1  0.622461  0.898698  0.500000  1
  Ni  Ni7  1  0.102111  0.724327  0.500000  1
  Ni  Ni8  1  0.496892  0.451878  0.000000  1
  Ni  Ni9  1  0.548762  0.046468  0.000000  1
  Ni  Ni10  1  0.956096  0.503442  0.000000  1
  Ni  Ni11  1  0.715018  0.759539  0.000000  1
  Ni  Ni12  1  0.238309  0.954481  0.000000  1
  Ni  Ni13  1  0.043851  0.282903  0.000000  1
  As  As14  1  0.963847  0.756488  0.000000  1
  As  As15  1  0.243069  0.209325  0.000000  1
  As  As16  1  0.788884  0.032799  0.000000  1
  As  As17  1  0.667764  0.335556  0.000000  1
  As  As18  1  0.544357  0.619234  0.500000  1
  As  As19  1  0.384620  0.926659  0.500000  1
  As  As20  1  0.075951  0.451793  0.500000  1
