# generated using pymatgen
data_LaHg3(Ru2O7)2
_symmetry_space_group_name_H-M   'P 1'
_cell_length_a   7.31079028
_cell_length_b   7.31079118
_cell_length_c   7.38956123
_cell_angle_alpha   60.35199480
_cell_angle_beta   60.35199440
_cell_angle_gamma   59.99999316
_symmetry_Int_Tables_number   1
_chemical_formula_structural   LaHg3(Ru2O7)2
_chemical_formula_sum   'La1 Hg3 Ru4 O14'
_cell_volume   280.75182102
_cell_formula_units_Z   1
loop_
 _symmetry_equiv_pos_site_id
 _symmetry_equiv_pos_as_xyz
  1  'x, y, z'
loop_
 _atom_site_type_symbol
 _atom_site_label
 _atom_site_symmetry_multiplicity
 _atom_site_fract_x
 _atom_site_fract_y
 _atom_site_fract_z
 _atom_site_occupancy
  La  La0  1  0.625000  0.625000  0.125000  1
  Hg  Hg1  1  0.625000  0.625000  0.625000  1
  Hg  Hg2  1  0.125000  0.625000  0.625000  1
  Hg  Hg3  1  0.625000  0.125000  0.625000  1
  Ru  Ru4  1  0.125000  0.125000  0.125000  1
  Ru  Ru5  1  0.625000  0.125000  0.125000  1
  Ru  Ru6  1  0.125000  0.125000  0.625000  1
  Ru  Ru7  1  0.125000  0.625000  0.125000  1
  O  O8  1  0.492078  0.492078  0.523765  1
  O  O9  1  0.757922  0.757922  0.726235  1
  O  O10  1  0.062782  0.062782  0.434739  1
  O  O11  1  0.803499  0.803499  0.193178  1
  O  O12  1  0.439696  0.062782  0.434739  1
  O  O13  1  0.446501  0.050177  0.056822  1
  O  O14  1  0.062782  0.439696  0.434739  1
  O  O15  1  0.050177  0.446501  0.056822  1
  O  O16  1  0.446501  0.446501  0.056822  1
  O  O17  1  0.187218  0.810304  0.815261  1
  O  O18  1  0.803499  0.199823  0.193178  1
  O  O19  1  0.187218  0.187218  0.815261  1
  O  O20  1  0.199823  0.803499  0.193178  1
  O  O21  1  0.810304  0.187218  0.815261  1
