# generated using pymatgen
data_Ho9Tm(IrRu)2
_symmetry_space_group_name_H-M   'P 1'
_cell_length_a   6.38228938
_cell_length_b   7.24560305
_cell_length_c   8.43876298
_cell_angle_alpha   96.77443435
_cell_angle_beta   112.21933880
_cell_angle_gamma   90.00000066
_symmetry_Int_Tables_number   1
_chemical_formula_structural   Ho9Tm(IrRu)2
_chemical_formula_sum   'Ho9 Tm1 Ir2 Ru2'
_cell_volume   358.31549154
_cell_formula_units_Z   1
loop_
 _symmetry_equiv_pos_site_id
 _symmetry_equiv_pos_as_xyz
  1  'x, y, z'
loop_
 _atom_site_type_symbol
 _atom_site_label
 _atom_site_symmetry_multiplicity
 _atom_site_fract_x
 _atom_site_fract_y
 _atom_site_fract_z
 _atom_site_occupancy
  Ho  Ho0  1  0.792043  0.082003  0.815122  1
  Ho  Ho1  1  0.976920  0.417997  0.184878  1
  Ho  Ho2  1  0.209180  0.915143  0.183372  1
  Ho  Ho3  1  0.025809  0.584857  0.816628  1
  Ho  Ho4  1  0.208840  0.182576  0.563597  1
  Ho  Ho5  1  0.645243  0.317424  0.436403  1
  Ho  Ho6  1  0.789784  0.814774  0.437341  1
  Ho  Ho7  1  0.352443  0.685226  0.562659  1
  Ho  Ho8  1  0.423930  0.250000  0.000000  1
  Tm  Tm9  1  0.575631  0.750000  0.000000  1
  Ir  Ir10  1  0.604397  0.424543  0.779593  1
  Ir  Ir11  1  0.824802  0.075457  0.220407  1
  Ru  Ru12  1  0.394935  0.575394  0.218894  1
  Ru  Ru13  1  0.176042  0.924606  0.781106  1
