# generated using pymatgen
data_Tm2LuAl8(SiOs)4
_symmetry_space_group_name_H-M   'P 1'
_cell_length_a   8.66442849
_cell_length_b   8.65967151
_cell_length_c   9.37793800
_cell_angle_alpha   90.00000000
_cell_angle_beta   90.00000000
_cell_angle_gamma   120.11607791
_symmetry_Int_Tables_number   1
_chemical_formula_structural   Tm2LuAl8(SiOs)4
_chemical_formula_sum   'Tm4 Lu2 Al16 Si8 Os8'
_cell_volume   608.65354282
_cell_formula_units_Z   2
loop_
 _symmetry_equiv_pos_site_id
 _symmetry_equiv_pos_as_xyz
  1  'x, y, z'
loop_
 _atom_site_type_symbol
 _atom_site_label
 _atom_site_symmetry_multiplicity
 _atom_site_fract_x
 _atom_site_fract_y
 _atom_site_fract_z
 _atom_site_occupancy
  Tm  Tm0  1  0.610998  0.807170  0.250000  1
  Tm  Tm1  1  0.389002  0.192830  0.750000  1
  Tm  Tm2  1  0.195548  0.804412  0.250000  1
  Tm  Tm3  1  0.804452  0.195588  0.750000  1
  Lu  Lu4  1  0.193331  0.389980  0.250000  1
  Lu  Lu5  1  0.806669  0.610020  0.750000  1
  Al  Al6  1  0.165426  0.328975  0.578710  1
  Al  Al7  1  0.834574  0.671025  0.421290  1
  Al  Al8  1  0.671125  0.834538  0.578936  1
  Al  Al9  1  0.834574  0.671025  0.078710  1
  Al  Al10  1  0.328875  0.165462  0.421064  1
  Al  Al11  1  0.165426  0.328975  0.921290  1
  Al  Al12  1  0.164407  0.835403  0.578869  1
  Al  Al13  1  0.328875  0.165462  0.078936  1
  Al  Al14  1  0.835593  0.164597  0.421131  1
  Al  Al15  1  0.671125  0.834538  0.921064  1
  Al  Al16  1  0.835593  0.164597  0.078869  1
  Al  Al17  1  0.164407  0.835403  0.921131  1
  Al  Al18  1  0.564562  0.435129  0.250000  1
  Al  Al19  1  0.435438  0.564871  0.750000  1
  Al  Al20  1  0.000418  0.000016  0.250000  1
  Al  Al21  1  0.999582  0.999984  0.750000  1
  Si  Si22  1  0.334716  0.664671  0.041950  1
  Si  Si23  1  0.665284  0.335329  0.958050  1
  Si  Si24  1  0.665284  0.335329  0.541950  1
  Si  Si25  1  0.334716  0.664671  0.458050  1
  Si  Si26  1  0.563523  0.123970  0.250000  1
  Si  Si27  1  0.436477  0.876030  0.750000  1
  Si  Si28  1  0.876385  0.436463  0.250000  1
  Si  Si29  1  0.123615  0.563537  0.750000  1
  Os  Os30  1  0.500000  0.000000  0.000000  1
  Os  Os31  1  0.000000  0.500000  0.000000  1
  Os  Os32  1  0.500000  0.000000  0.500000  1
  Os  Os33  1  0.500000  0.500000  0.000000  1
  Os  Os34  1  0.000000  0.500000  0.500000  1
  Os  Os35  1  0.500000  0.500000  0.500000  1
  Os  Os36  1  0.000000  0.000000  0.000000  1
  Os  Os37  1  0.000000  0.000000  0.500000  1
