# generated using pymatgen
data_Nd4CdHgPd4
_symmetry_space_group_name_H-M   'P 1'
_cell_length_a   7.80178700
_cell_length_b   7.80178700
_cell_length_c   3.94810200
_cell_angle_alpha   90.00000000
_cell_angle_beta   90.00000000
_cell_angle_gamma   90.00000000
_symmetry_Int_Tables_number   1
_chemical_formula_structural   Nd4CdHgPd4
_chemical_formula_sum   'Nd4 Cd1 Hg1 Pd4'
_cell_volume   240.31260032
_cell_formula_units_Z   1
loop_
 _symmetry_equiv_pos_site_id
 _symmetry_equiv_pos_as_xyz
  1  'x, y, z'
loop_
 _atom_site_type_symbol
 _atom_site_label
 _atom_site_symmetry_multiplicity
 _atom_site_fract_x
 _atom_site_fract_y
 _atom_site_fract_z
 _atom_site_occupancy
  Nd  Nd0  1  0.680031  0.167382  0.500000  1
  Nd  Nd1  1  0.319969  0.832618  0.500000  1
  Nd  Nd2  1  0.167382  0.319969  0.500000  1
  Nd  Nd3  1  0.832618  0.680031  0.500000  1
  Cd  Cd4  1  0.500000  0.500000  0.000000  1
  Hg  Hg5  1  0.000000  0.000000  0.000000  1
  Pd  Pd6  1  0.134761  0.622156  0.000000  1
  Pd  Pd7  1  0.865239  0.377844  0.000000  1
  Pd  Pd8  1  0.622156  0.865239  0.000000  1
  Pd  Pd9  1  0.377844  0.134761  0.000000  1
