# generated using pymatgen
data_Nb10Ga6HN
_symmetry_space_group_name_H-M   'P 1'
_cell_length_a   7.76047900
_cell_length_b   7.76047965
_cell_length_c   5.33745400
_cell_angle_alpha   90.00000000
_cell_angle_beta   90.00000000
_cell_angle_gamma   119.99999296
_symmetry_Int_Tables_number   1
_chemical_formula_structural   Nb10Ga6HN
_chemical_formula_sum   'Nb10 Ga6 H1 N1'
_cell_volume   278.38248044
_cell_formula_units_Z   1
loop_
 _symmetry_equiv_pos_site_id
 _symmetry_equiv_pos_as_xyz
  1  'x, y, z'
loop_
 _atom_site_type_symbol
 _atom_site_label
 _atom_site_symmetry_multiplicity
 _atom_site_fract_x
 _atom_site_fract_y
 _atom_site_fract_z
 _atom_site_occupancy
  Nb  Nb0  1  0.233750  0.000000  0.255330  1
  Nb  Nb1  1  0.766250  0.000000  0.744670  1
  Nb  Nb2  1  0.000000  0.233750  0.255330  1
  Nb  Nb3  1  0.000000  0.766250  0.744670  1
  Nb  Nb4  1  0.766250  0.766250  0.255330  1
  Nb  Nb5  1  0.233750  0.233750  0.744670  1
  Nb  Nb6  1  0.333333  0.666667  0.000000  1
  Nb  Nb7  1  0.666667  0.333333  0.000000  1
  Nb  Nb8  1  0.666667  0.333333  0.500000  1
  Nb  Nb9  1  0.333333  0.666667  0.500000  1
  Ga  Ga10  1  0.597034  0.000000  0.245884  1
  Ga  Ga11  1  0.402966  0.000000  0.754116  1
  Ga  Ga12  1  0.000000  0.597034  0.245884  1
  Ga  Ga13  1  0.000000  0.402966  0.754116  1
  Ga  Ga14  1  0.402966  0.402966  0.245884  1
  Ga  Ga15  1  0.597034  0.597034  0.754116  1
  H  H16  1  0.000000  0.000000  0.000000  1
  N  N17  1  0.000000  0.000000  0.500000  1
