# generated using pymatgen
data_Ho3CdGa4Ag
_symmetry_space_group_name_H-M   'P 1'
_cell_length_a   7.07668100
_cell_length_b   6.97549341
_cell_length_c   4.36010900
_cell_angle_alpha   90.00000000
_cell_angle_beta   90.00000000
_cell_angle_gamma   120.48103597
_symmetry_Int_Tables_number   1
_chemical_formula_structural   Ho3CdGa4Ag
_chemical_formula_sum   'Ho3 Cd1 Ga4 Ag1'
_cell_volume   185.48420256
_cell_formula_units_Z   1
loop_
 _symmetry_equiv_pos_site_id
 _symmetry_equiv_pos_as_xyz
  1  'x, y, z'
loop_
 _atom_site_type_symbol
 _atom_site_label
 _atom_site_symmetry_multiplicity
 _atom_site_fract_x
 _atom_site_fract_y
 _atom_site_fract_z
 _atom_site_occupancy
  Ho  Ho0  1  0.577929  0.000000  0.000000  1
  Ho  Ho1  1  0.429066  0.426486  0.000000  1
  Ho  Ho2  1  0.002579  0.573514  0.000000  1
  Cd  Cd3  1  0.247110  0.000000  0.500000  1
  Ga  Ga4  1  0.998015  0.249378  0.500000  1
  Ga  Ga5  1  0.675450  0.340528  0.500000  1
  Ga  Ga6  1  0.334923  0.659472  0.500000  1
  Ga  Ga7  1  0.748638  0.750623  0.500000  1
  Ag  Ag8  1  0.986289  0.000000  0.000000  1
