# generated using pymatgen
data_Sr3(InRh)2
_symmetry_space_group_name_H-M   'P 1'
_cell_length_a   6.25811600
_cell_length_b   8.52802800
_cell_length_c   14.76862100
_cell_angle_alpha   90.00000000
_cell_angle_beta   90.00000000
_cell_angle_gamma   90.00000000
_symmetry_Int_Tables_number   1
_chemical_formula_structural   Sr3(InRh)2
_chemical_formula_sum   'Sr12 In8 Rh8'
_cell_volume   788.19227139
_cell_formula_units_Z   4
loop_
 _symmetry_equiv_pos_site_id
 _symmetry_equiv_pos_as_xyz
  1  'x, y, z'
loop_
 _atom_site_type_symbol
 _atom_site_label
 _atom_site_symmetry_multiplicity
 _atom_site_fract_x
 _atom_site_fract_y
 _atom_site_fract_z
 _atom_site_occupancy
  Sr  Sr0  1  0.626910  0.248257  0.250000  1
  Sr  Sr1  1  0.373090  0.751743  0.750000  1
  Sr  Sr2  1  0.373090  0.748257  0.250000  1
  Sr  Sr3  1  0.626910  0.251743  0.750000  1
  Sr  Sr4  1  0.152151  0.400151  0.092390  1
  Sr  Sr5  1  0.847849  0.599849  0.907610  1
  Sr  Sr6  1  0.847849  0.599849  0.592390  1
  Sr  Sr7  1  0.847849  0.900151  0.407610  1
  Sr  Sr8  1  0.152151  0.400151  0.407610  1
  Sr  Sr9  1  0.152151  0.099849  0.592390  1
  Sr  Sr10  1  0.152151  0.099849  0.907610  1
  Sr  Sr11  1  0.847849  0.900151  0.092390  1
  In  In12  1  0.152587  0.096266  0.250000  1
  In  In13  1  0.847413  0.903734  0.750000  1
  In  In14  1  0.847413  0.596266  0.250000  1
  In  In15  1  0.152587  0.403734  0.750000  1
  In  In16  1  0.614987  0.250000  0.000000  1
  In  In17  1  0.385013  0.750000  0.000000  1
  In  In18  1  0.385013  0.750000  0.500000  1
  In  In19  1  0.614987  0.250000  0.500000  1
  Rh  Rh20  1  0.362632  0.030805  0.092412  1
  Rh  Rh21  1  0.637368  0.969195  0.907588  1
  Rh  Rh22  1  0.637368  0.969195  0.592412  1
  Rh  Rh23  1  0.637368  0.530805  0.407588  1
  Rh  Rh24  1  0.362632  0.030805  0.407588  1
  Rh  Rh25  1  0.362632  0.469195  0.592412  1
  Rh  Rh26  1  0.362632  0.469195  0.907588  1
  Rh  Rh27  1  0.637368  0.530805  0.092412  1
