# generated using pymatgen
data_Tb4Er12CdNi4Ag3
_symmetry_space_group_name_H-M   'P 1'
_cell_length_a   9.41995625
_cell_length_b   9.42934166
_cell_length_c   9.43007624
_cell_angle_alpha   60.00092306
_cell_angle_beta   59.98959243
_cell_angle_gamma   59.96340607
_symmetry_Int_Tables_number   1
_chemical_formula_structural   Tb4Er12CdNi4Ag3
_chemical_formula_sum   'Tb4 Er12 Cd1 Ni4 Ag3'
_cell_volume   592.07822248
_cell_formula_units_Z   1
loop_
 _symmetry_equiv_pos_site_id
 _symmetry_equiv_pos_as_xyz
  1  'x, y, z'
loop_
 _atom_site_type_symbol
 _atom_site_label
 _atom_site_symmetry_multiplicity
 _atom_site_fract_x
 _atom_site_fract_y
 _atom_site_fract_z
 _atom_site_occupancy
  Tb  Tb0  1  0.350523  0.349499  0.350169  1
  Tb  Tb1  1  0.351498  0.349970  0.948596  1
  Tb  Tb2  1  0.350527  0.949798  0.350199  1
  Tb  Tb3  1  0.945556  0.351168  0.352122  1
  Er  Er4  1  0.811912  0.188467  0.187757  1
  Er  Er5  1  0.187689  0.812042  0.811952  1
  Er  Er6  1  0.187952  0.811895  0.188204  1
  Er  Er7  1  0.811985  0.187989  0.812027  1
  Er  Er8  1  0.187697  0.188317  0.811914  1
  Er  Er9  1  0.811966  0.811837  0.187741  1
  Er  Er10  1  0.932377  0.565263  0.565400  1
  Er  Er11  1  0.564131  0.935261  0.935381  1
  Er  Er12  1  0.564126  0.935306  0.565285  1
  Er  Er13  1  0.932464  0.565247  0.937042  1
  Er  Er14  1  0.564122  0.565257  0.935380  1
  Er  Er15  1  0.932339  0.936943  0.565434  1
  Cd  Cd16  1  0.261470  0.579629  0.579274  1
  Ni  Ni17  1  0.142122  0.142600  0.142580  1
  Ni  Ni18  1  0.141914  0.142424  0.573219  1
  Ni  Ni19  1  0.142159  0.572701  0.142581  1
  Ni  Ni20  1  0.573287  0.142341  0.142038  1
  Ag  Ag21  1  0.584024  0.582893  0.583026  1
  Ag  Ag22  1  0.584130  0.583099  0.249660  1
  Ag  Ag23  1  0.584027  0.250056  0.583022  1
