# generated using pymatgen
data_Nd2Lu4FeCl10
_symmetry_space_group_name_H-M   'P 1'
_cell_length_a   7.06180013
_cell_length_b   8.87468357
_cell_length_c   8.73536600
_cell_angle_alpha   106.70129629
_cell_angle_beta   95.59242702
_cell_angle_gamma   105.55886883
_symmetry_Int_Tables_number   1
_chemical_formula_structural   Nd2Lu4FeCl10
_chemical_formula_sum   'Nd2 Lu4 Fe1 Cl10'
_cell_volume   496.02809295
_cell_formula_units_Z   1
loop_
 _symmetry_equiv_pos_site_id
 _symmetry_equiv_pos_as_xyz
  1  'x, y, z'
loop_
 _atom_site_type_symbol
 _atom_site_label
 _atom_site_symmetry_multiplicity
 _atom_site_fract_x
 _atom_site_fract_y
 _atom_site_fract_z
 _atom_site_occupancy
  Nd  Nd0  1  0.124001  0.049691  0.764644  1
  Nd  Nd1  1  0.875999  0.950309  0.235356  1
  Lu  Lu2  1  0.971814  0.302494  0.095251  1
  Lu  Lu3  1  0.028186  0.697506  0.904749  1
  Lu  Lu4  1  0.363210  0.137800  0.178922  1
  Lu  Lu5  1  0.636790  0.862200  0.821078  1
  Fe  Fe6  1  0.000000  0.000000  0.000000  1
  Cl  Cl7  1  0.338151  0.438242  0.263364  1
  Cl  Cl8  1  0.661849  0.561758  0.736636  1
  Cl  Cl9  1  0.262004  0.086873  0.446113  1
  Cl  Cl10  1  0.737996  0.913127  0.553887  1
  Cl  Cl11  1  0.079690  0.379658  0.836224  1
  Cl  Cl12  1  0.920310  0.620342  0.163776  1
  Cl  Cl13  1  0.452623  0.825987  0.080628  1
  Cl  Cl14  1  0.547377  0.174013  0.919372  1
  Cl  Cl15  1  0.776079  0.258296  0.332930  1
  Cl  Cl16  1  0.223921  0.741704  0.667070  1
