# generated using pymatgen
data_Tb4Co12Cu3Ni5P12
_symmetry_space_group_name_H-M   'P 1'
_cell_length_a   3.70789700
_cell_length_b   10.28918063
_cell_length_c   11.89361272
_cell_angle_alpha   90.04011526
_cell_angle_beta   90.00000000
_cell_angle_gamma   90.00000000
_symmetry_Int_Tables_number   1
_chemical_formula_structural   Tb4Co12Cu3Ni5P12
_chemical_formula_sum   'Tb4 Co12 Cu3 Ni5 P12'
_cell_volume   453.75574829
_cell_formula_units_Z   1
loop_
 _symmetry_equiv_pos_site_id
 _symmetry_equiv_pos_as_xyz
  1  'x, y, z'
loop_
 _atom_site_type_symbol
 _atom_site_label
 _atom_site_symmetry_multiplicity
 _atom_site_fract_x
 _atom_site_fract_y
 _atom_site_fract_z
 _atom_site_occupancy
  Tb  Tb0  1  0.250000  0.579933  0.703530  1
  Tb  Tb1  1  0.250000  0.919104  0.203681  1
  Tb  Tb2  1  0.750000  0.418795  0.296133  1
  Tb  Tb3  1  0.750000  0.081016  0.794908  1
  Co  Co4  1  0.250000  0.221714  0.175389  1
  Co  Co5  1  0.250000  0.277960  0.672570  1
  Co  Co6  1  0.750000  0.778896  0.827092  1
  Co  Co7  1  0.750000  0.721583  0.327131  1
  Co  Co8  1  0.250000  0.880999  0.697048  1
  Co  Co9  1  0.250000  0.620333  0.197356  1
  Co  Co10  1  0.750000  0.119863  0.303569  1
  Co  Co11  1  0.750000  0.379409  0.801095  1
  Co  Co12  1  0.250000  0.466165  0.933204  1
  Co  Co13  1  0.250000  0.032822  0.433088  1
  Co  Co14  1  0.750000  0.533191  0.066077  1
  Co  Co15  1  0.750000  0.966270  0.566101  1
  Cu  Cu16  1  0.250000  0.709892  0.989863  1
  Cu  Cu17  1  0.250000  0.789341  0.490270  1
  Cu  Cu18  1  0.750000  0.290039  0.009864  1
  Ni  Ni19  1  0.750000  0.211330  0.510377  1
  Ni  Ni20  1  0.250000  0.407302  0.484581  1
  Ni  Ni21  1  0.250000  0.093567  0.984587  1
  Ni  Ni22  1  0.750000  0.592383  0.515437  1
  Ni  Ni23  1  0.750000  0.907783  0.016003  1
  P  P24  1  0.250000  0.422683  0.115292  1
  P  P25  1  0.250000  0.078998  0.612157  1
  P  P26  1  0.750000  0.576843  0.884497  1
  P  P27  1  0.750000  0.923231  0.385084  1
  P  P28  1  0.250000  0.272622  0.858495  1
  P  P29  1  0.250000  0.227708  0.364119  1
  P  P30  1  0.750000  0.726686  0.141261  1
  P  P31  1  0.750000  0.773330  0.641358  1
  P  P32  1  0.250000  0.602736  0.387255  1
  P  P33  1  0.250000  0.897246  0.887284  1
  P  P34  1  0.750000  0.393840  0.610235  1
  P  P35  1  0.750000  0.104386  0.114011  1
