# generated using pymatgen
data_Sc2Be2CrIr5
_symmetry_space_group_name_H-M   'P 1'
_cell_length_a   9.47383700
_cell_length_b   9.47383700
_cell_length_c   3.09314400
_cell_angle_alpha   90.00000000
_cell_angle_beta   90.00000000
_cell_angle_gamma   90.00000000
_symmetry_Int_Tables_number   1
_chemical_formula_structural   Sc2Be2CrIr5
_chemical_formula_sum   'Sc4 Be4 Cr2 Ir10'
_cell_volume   277.62077066
_cell_formula_units_Z   2
loop_
 _symmetry_equiv_pos_site_id
 _symmetry_equiv_pos_as_xyz
  1  'x, y, z'
loop_
 _atom_site_type_symbol
 _atom_site_label
 _atom_site_symmetry_multiplicity
 _atom_site_fract_x
 _atom_site_fract_y
 _atom_site_fract_z
 _atom_site_occupancy
  Sc  Sc0  1  0.175460  0.675460  0.000000  1
  Sc  Sc1  1  0.675460  0.824540  0.000000  1
  Sc  Sc2  1  0.324540  0.175460  0.000000  1
  Sc  Sc3  1  0.824540  0.324540  0.000000  1
  Be  Be4  1  0.376452  0.876452  0.000000  1
  Be  Be5  1  0.876452  0.623548  0.000000  1
  Be  Be6  1  0.123548  0.376452  0.000000  1
  Be  Be7  1  0.623548  0.123548  0.000000  1
  Cr  Cr8  1  0.000000  0.000000  0.000000  1
  Cr  Cr9  1  0.500000  0.500000  0.000000  1
  Ir  Ir10  1  0.000000  0.500000  0.500000  1
  Ir  Ir11  1  0.500000  0.000000  0.500000  1
  Ir  Ir12  1  0.291273  0.430886  0.500000  1
  Ir  Ir13  1  0.708728  0.569114  0.500000  1
  Ir  Ir14  1  0.569114  0.291273  0.500000  1
  Ir  Ir15  1  0.430886  0.708728  0.500000  1
  Ir  Ir16  1  0.930886  0.791272  0.500000  1
  Ir  Ir17  1  0.791272  0.069114  0.500000  1
  Ir  Ir18  1  0.208727  0.930886  0.500000  1
  Ir  Ir19  1  0.069114  0.208727  0.500000  1
