# generated using pymatgen
data_Zr(Si2Rh3)2
_symmetry_space_group_name_H-M   'P 1'
_cell_length_a   7.00088700
_cell_length_b   7.00088676
_cell_length_c   3.74832100
_cell_angle_alpha   90.00000000
_cell_angle_beta   90.00000000
_cell_angle_gamma   119.99999642
_symmetry_Int_Tables_number   1
_chemical_formula_structural   Zr(Si2Rh3)2
_chemical_formula_sum   'Zr1 Si4 Rh6'
_cell_volume   159.10123254
_cell_formula_units_Z   1
loop_
 _symmetry_equiv_pos_site_id
 _symmetry_equiv_pos_as_xyz
  1  'x, y, z'
loop_
 _atom_site_type_symbol
 _atom_site_label
 _atom_site_symmetry_multiplicity
 _atom_site_fract_x
 _atom_site_fract_y
 _atom_site_fract_z
 _atom_site_occupancy
  Zr  Zr0  1  0.000000  0.000000  0.000000  1
  Si  Si1  1  0.666667  0.333333  0.000000  1
  Si  Si2  1  0.197845  0.802155  0.500000  1
  Si  Si3  1  0.197845  0.395689  0.500000  1
  Si  Si4  1  0.604311  0.802155  0.500000  1
  Rh  Rh5  1  0.467309  0.532691  0.000000  1
  Rh  Rh6  1  0.467309  0.934616  0.000000  1
  Rh  Rh7  1  0.065384  0.532691  0.000000  1
  Rh  Rh8  1  0.804862  0.195138  0.500000  1
  Rh  Rh9  1  0.804862  0.609724  0.500000  1
  Rh  Rh10  1  0.390276  0.195138  0.500000  1
