# generated using pymatgen
data_ScPa2Ga5
_symmetry_space_group_name_H-M   'P 1'
_cell_length_a   6.01227200
_cell_length_b   9.39025000
_cell_length_c   11.51306200
_cell_angle_alpha   90.00000000
_cell_angle_beta   90.00000000
_cell_angle_gamma   90.00000000
_symmetry_Int_Tables_number   1
_chemical_formula_structural   ScPa2Ga5
_chemical_formula_sum   'Sc4 Pa8 Ga20'
_cell_volume   649.98991510
_cell_formula_units_Z   4
loop_
 _symmetry_equiv_pos_site_id
 _symmetry_equiv_pos_as_xyz
  1  'x, y, z'
loop_
 _atom_site_type_symbol
 _atom_site_label
 _atom_site_symmetry_multiplicity
 _atom_site_fract_x
 _atom_site_fract_y
 _atom_site_fract_z
 _atom_site_occupancy
  Sc  Sc0  1  0.854068  0.750000  0.070386  1
  Sc  Sc1  1  0.645932  0.750000  0.570386  1
  Sc  Sc2  1  0.145932  0.250000  0.929614  1
  Sc  Sc3  1  0.354068  0.250000  0.429614  1
  Pa  Pa4  1  0.880116  0.503763  0.352960  1
  Pa  Pa5  1  0.619884  0.996237  0.852960  1
  Pa  Pa6  1  0.119884  0.003763  0.647040  1
  Pa  Pa7  1  0.380116  0.496237  0.147040  1
  Pa  Pa8  1  0.119884  0.496237  0.647040  1
  Pa  Pa9  1  0.380116  0.003763  0.147040  1
  Pa  Pa10  1  0.880116  0.996237  0.352960  1
  Pa  Pa11  1  0.619884  0.503763  0.852960  1
  Ga  Ga12  1  0.873844  0.048331  0.089714  1
  Ga  Ga13  1  0.626156  0.451669  0.589714  1
  Ga  Ga14  1  0.126156  0.548331  0.910286  1
  Ga  Ga15  1  0.373844  0.951669  0.410286  1
  Ga  Ga16  1  0.126156  0.951669  0.910286  1
  Ga  Ga17  1  0.373844  0.548331  0.410286  1
  Ga  Ga18  1  0.873844  0.451669  0.089714  1
  Ga  Ga19  1  0.626156  0.048331  0.589714  1
  Ga  Ga20  1  0.148716  0.750000  0.257898  1
  Ga  Ga21  1  0.351284  0.750000  0.757898  1
  Ga  Ga22  1  0.851284  0.250000  0.742102  1
  Ga  Ga23  1  0.648716  0.250000  0.242102  1
  Ga  Ga24  1  0.395250  0.750000  0.992610  1
  Ga  Ga25  1  0.104750  0.750000  0.492610  1
  Ga  Ga26  1  0.604750  0.250000  0.007390  1
  Ga  Ga27  1  0.895250  0.250000  0.507390  1
  Ga  Ga28  1  0.594881  0.750000  0.288296  1
  Ga  Ga29  1  0.905119  0.750000  0.788296  1
  Ga  Ga30  1  0.405119  0.250000  0.711704  1
  Ga  Ga31  1  0.094881  0.250000  0.211704  1
