# generated using pymatgen
data_Pa8Al8Pt7Rh
_symmetry_space_group_name_H-M   'P 1'
_cell_length_a   4.19144900
_cell_length_b   7.06471806
_cell_length_c   16.01527310
_cell_angle_alpha   89.32021461
_cell_angle_beta   90.00000000
_cell_angle_gamma   90.00000000
_symmetry_Int_Tables_number   1
_chemical_formula_structural   Pa8Al8Pt7Rh
_chemical_formula_sum   'Pa8 Al8 Pt7 Rh1'
_cell_volume   474.20136766
_cell_formula_units_Z   1
loop_
 _symmetry_equiv_pos_site_id
 _symmetry_equiv_pos_as_xyz
  1  'x, y, z'
loop_
 _atom_site_type_symbol
 _atom_site_label
 _atom_site_symmetry_multiplicity
 _atom_site_fract_x
 _atom_site_fract_y
 _atom_site_fract_z
 _atom_site_occupancy
  Pa  Pa0  1  0.250000  0.507211  0.774785  1
  Pa  Pa1  1  0.750000  0.495105  0.224566  1
  Pa  Pa2  1  0.750000  0.992516  0.276367  1
  Pa  Pa3  1  0.250000  0.012136  0.719842  1
  Pa  Pa4  1  0.250000  0.618815  0.557899  1
  Pa  Pa5  1  0.750000  0.372096  0.446079  1
  Pa  Pa6  1  0.750000  0.883844  0.053561  1
  Pa  Pa7  1  0.250000  0.117946  0.944197  1
  Al  Al8  1  0.250000  0.655101  0.352803  1
  Al  Al9  1  0.750000  0.343016  0.648050  1
  Al  Al10  1  0.750000  0.843349  0.849201  1
  Al  Al11  1  0.250000  0.159434  0.148619  1
  Al  Al12  1  0.250000  0.521675  0.063243  1
  Al  Al13  1  0.750000  0.479745  0.935956  1
  Al  Al14  1  0.750000  0.982962  0.561805  1
  Al  Al15  1  0.250000  0.017376  0.439322  1
  Pt  Pt16  1  0.250000  0.779917  0.185071  1
  Pt  Pt17  1  0.750000  0.222092  0.814861  1
  Pt  Pt18  1  0.750000  0.723389  0.683977  1
  Pt  Pt19  1  0.250000  0.276777  0.316394  1
  Pt  Pt20  1  0.250000  0.708670  0.925891  1
  Pt  Pt21  1  0.750000  0.292925  0.073586  1
  Pt  Pt22  1  0.750000  0.785514  0.427914  1
  Rh  Rh23  1  0.250000  0.208388  0.576011  1
