# generated using pymatgen
data_Yb2Pr3Pb3Cl
_symmetry_space_group_name_H-M   'P 1'
_cell_length_a   9.38794710
_cell_length_b   9.38794497
_cell_length_c   7.16386900
_cell_angle_alpha   90.00000000
_cell_angle_beta   90.00000000
_cell_angle_gamma   120.02766989
_symmetry_Int_Tables_number   1
_chemical_formula_structural   Yb2Pr3Pb3Cl
_chemical_formula_sum   'Yb4 Pr6 Pb6 Cl2'
_cell_volume   546.63606125
_cell_formula_units_Z   2
loop_
 _symmetry_equiv_pos_site_id
 _symmetry_equiv_pos_as_xyz
  1  'x, y, z'
loop_
 _atom_site_type_symbol
 _atom_site_label
 _atom_site_symmetry_multiplicity
 _atom_site_fract_x
 _atom_site_fract_y
 _atom_site_fract_z
 _atom_site_occupancy
  Yb  Yb0  1  0.750436  0.749471  0.250000  1
  Yb  Yb1  1  0.250808  0.998179  0.250000  1
  Yb  Yb2  1  0.250529  0.249565  0.750000  1
  Yb  Yb3  1  0.001820  0.749190  0.750000  1
  Pr  Pr4  1  0.747357  0.001863  0.750000  1
  Pr  Pr5  1  0.998137  0.252642  0.250000  1
  Pr  Pr6  1  0.332947  0.667056  0.500000  1
  Pr  Pr7  1  0.332947  0.667056  0.000000  1
  Pr  Pr8  1  0.661265  0.338733  0.500000  1
  Pr  Pr9  1  0.661265  0.338733  0.000000  1
  Pb  Pb10  1  0.397607  0.000355  0.750000  1
  Pb  Pb11  1  0.605431  0.998743  0.250000  1
  Pb  Pb12  1  0.999647  0.602393  0.250000  1
  Pb  Pb13  1  0.605512  0.606402  0.750000  1
  Pb  Pb14  1  0.001257  0.394570  0.750000  1
  Pb  Pb15  1  0.393597  0.394488  0.250000  1
  Cl  Cl16  1  0.004719  0.995280  0.500000  1
  Cl  Cl17  1  0.004719  0.995280  0.000000  1
