# generated using pymatgen
data_Er8ZnHgRh2
_symmetry_space_group_name_H-M   'P 1'
_cell_length_a   9.47769789
_cell_length_b   9.45986996
_cell_length_c   9.45986881
_cell_angle_alpha   59.91199013
_cell_angle_beta   59.93764369
_cell_angle_gamma   59.93764258
_symmetry_Int_Tables_number   1
_chemical_formula_structural   Er8ZnHgRh2
_chemical_formula_sum   'Er16 Zn2 Hg2 Rh4'
_cell_volume   598.76859642
_cell_formula_units_Z   2
loop_
 _symmetry_equiv_pos_site_id
 _symmetry_equiv_pos_as_xyz
  1  'x, y, z'
loop_
 _atom_site_type_symbol
 _atom_site_label
 _atom_site_symmetry_multiplicity
 _atom_site_fract_x
 _atom_site_fract_y
 _atom_site_fract_z
 _atom_site_occupancy
  Er  Er0  1  0.189041  0.189873  0.811205  1
  Er  Er1  1  0.436192  0.063808  0.063808  1
  Er  Er2  1  0.436292  0.060734  0.435360  1
  Er  Er3  1  0.067614  0.435360  0.060734  1
  Er  Er4  1  0.647502  0.056894  0.648103  1
  Er  Er5  1  0.189878  0.810122  0.810122  1
  Er  Er6  1  0.067614  0.060734  0.435360  1
  Er  Er7  1  0.810532  0.189468  0.189468  1
  Er  Er8  1  0.809879  0.811205  0.189873  1
  Er  Er9  1  0.647502  0.648103  0.056894  1
  Er  Er10  1  0.646545  0.647494  0.647494  1
  Er  Er11  1  0.064124  0.435876  0.435876  1
  Er  Er12  1  0.058466  0.647494  0.647494  1
  Er  Er13  1  0.809879  0.189873  0.811205  1
  Er  Er14  1  0.436292  0.435360  0.060734  1
  Er  Er15  1  0.189041  0.811205  0.189873  1
  Zn  Zn16  1  0.416958  0.745606  0.420477  1
  Zn  Zn17  1  0.416958  0.420477  0.745606  1
  Hg  Hg18  1  0.744864  0.420341  0.420341  1
  Hg  Hg19  1  0.414453  0.420341  0.420341  1
  Rh  Rh20  1  0.856617  0.431226  0.855539  1
  Rh  Rh21  1  0.856617  0.855539  0.431226  1
  Rh  Rh22  1  0.429966  0.856434  0.856434  1
  Rh  Rh23  1  0.857168  0.856434  0.856434  1
