# generated using pymatgen
data_YbZn2SiAu
_symmetry_space_group_name_H-M   'P 1'
_cell_length_a   6.31395686
_cell_length_b   6.31395733
_cell_length_c   6.31395717
_cell_angle_alpha   141.99060966
_cell_angle_beta   141.99062055
_cell_angle_gamma   54.84294272
_symmetry_Int_Tables_number   1
_chemical_formula_structural   YbZn2SiAu
_chemical_formula_sum   'Yb1 Zn2 Si1 Au1'
_cell_volume   94.77494591
_cell_formula_units_Z   1
loop_
 _symmetry_equiv_pos_site_id
 _symmetry_equiv_pos_as_xyz
  1  'x, y, z'
loop_
 _atom_site_type_symbol
 _atom_site_label
 _atom_site_symmetry_multiplicity
 _atom_site_fract_x
 _atom_site_fract_y
 _atom_site_fract_z
 _atom_site_occupancy
  Yb  Yb0  1  0.003380  0.003380  0.000000  1
  Zn  Zn1  1  0.741672  0.241672  0.500000  1
  Zn  Zn2  1  0.241672  0.741672  0.500000  1
  Si  Si3  1  0.615799  0.615799  0.000000  1
  Au  Au4  1  0.397476  0.397476  0.000000  1
