# generated using pymatgen
data_Dy5YHo10(InIr)4
_symmetry_space_group_name_H-M   'P 1'
_cell_length_a   9.65307955
_cell_length_b   9.64782487
_cell_length_c   9.64606718
_cell_angle_alpha   59.98779941
_cell_angle_beta   60.00571842
_cell_angle_gamma   59.96882726
_symmetry_Int_Tables_number   1
_chemical_formula_structural   Dy5YHo10(InIr)4
_chemical_formula_sum   'Dy5 Y1 Ho10 In4 Ir4'
_cell_volume   635.04846916
_cell_formula_units_Z   1
loop_
 _symmetry_equiv_pos_site_id
 _symmetry_equiv_pos_as_xyz
  1  'x, y, z'
loop_
 _atom_site_type_symbol
 _atom_site_label
 _atom_site_symmetry_multiplicity
 _atom_site_fract_x
 _atom_site_fract_y
 _atom_site_fract_z
 _atom_site_occupancy
  Dy  Dy0  1  0.651079  0.650894  0.046074  1
  Dy  Dy1  1  0.191101  0.810333  0.190531  1
  Dy  Dy2  1  0.059967  0.438838  0.060508  1
  Dy  Dy3  1  0.191265  0.810244  0.807978  1
  Dy  Dy4  1  0.059809  0.438924  0.440815  1
  Y  Y5  1  0.439530  0.438601  0.060900  1
  Ho  Ho6  1  0.809849  0.191128  0.190465  1
  Ho  Ho7  1  0.651152  0.650985  0.652040  1
  Ho  Ho8  1  0.809765  0.191281  0.808499  1
  Ho  Ho9  1  0.191079  0.191162  0.808898  1
  Ho  Ho10  1  0.047295  0.650005  0.651373  1
  Ho  Ho11  1  0.439442  0.059863  0.060311  1
  Ho  Ho12  1  0.060013  0.059961  0.440035  1
  Ho  Ho13  1  0.649966  0.047484  0.651280  1
  Ho  Ho14  1  0.808959  0.809769  0.190716  1
  Ho  Ho15  1  0.439503  0.059745  0.440471  1
  In  In16  1  0.416827  0.416634  0.416857  1
  In  In17  1  0.416832  0.416660  0.749731  1
  In  In18  1  0.416850  0.749696  0.416767  1
  In  In19  1  0.749360  0.416817  0.416957  1
  Ir  Ir20  1  0.424065  0.859500  0.857957  1
  Ir  Ir21  1  0.858599  0.859151  0.858422  1
  Ir  Ir22  1  0.859341  0.423425  0.858358  1
  Ir  Ir23  1  0.858354  0.858898  0.424058  1
