# generated using pymatgen
data_Pr8Si12AgIr3
_symmetry_space_group_name_H-M   'P 1'
_cell_length_a   8.29617000
_cell_length_b   8.29617139
_cell_length_c   8.61024500
_cell_angle_alpha   90.00000000
_cell_angle_beta   90.00000000
_cell_angle_gamma   120.00000244
_symmetry_Int_Tables_number   1
_chemical_formula_structural   Pr8Si12AgIr3
_chemical_formula_sum   'Pr8 Si12 Ag1 Ir3'
_cell_volume   513.21753746
_cell_formula_units_Z   1
loop_
 _symmetry_equiv_pos_site_id
 _symmetry_equiv_pos_as_xyz
  1  'x, y, z'
loop_
 _atom_site_type_symbol
 _atom_site_label
 _atom_site_symmetry_multiplicity
 _atom_site_fract_x
 _atom_site_fract_y
 _atom_site_fract_z
 _atom_site_occupancy
  Pr  Pr0  1  0.495570  0.504430  0.755117  1
  Pr  Pr1  1  0.498033  0.501967  0.245391  1
  Pr  Pr2  1  0.008859  0.504430  0.755117  1
  Pr  Pr3  1  0.003935  0.501967  0.245391  1
  Pr  Pr4  1  0.495570  0.991141  0.755117  1
  Pr  Pr5  1  0.498033  0.996065  0.245391  1
  Pr  Pr6  1  0.000000  0.000000  0.749768  1
  Pr  Pr7  1  0.000000  0.000000  0.248883  1
  Si  Si8  1  0.832423  0.167577  0.001737  1
  Si  Si9  1  0.166350  0.833650  0.998274  1
  Si  Si10  1  0.335153  0.167577  0.001737  1
  Si  Si11  1  0.168255  0.831745  0.502013  1
  Si  Si12  1  0.667300  0.833650  0.998274  1
  Si  Si13  1  0.839568  0.160432  0.497301  1
  Si  Si14  1  0.832423  0.664847  0.001737  1
  Si  Si15  1  0.663489  0.831745  0.502013  1
  Si  Si16  1  0.166350  0.332700  0.998274  1
  Si  Si17  1  0.320863  0.160432  0.497301  1
  Si  Si18  1  0.168255  0.336511  0.502013  1
  Si  Si19  1  0.839568  0.679137  0.497301  1
  Ag  Ag20  1  0.666667  0.333333  0.507336  1
  Ir  Ir21  1  0.666667  0.333333  0.993401  1
  Ir  Ir22  1  0.333333  0.666667  0.005782  1
  Ir  Ir23  1  0.333333  0.666667  0.495329  1
