# generated using pymatgen
data_AcYHo2(MoN3)4
_symmetry_space_group_name_H-M   'P 1'
_cell_length_a   7.27493149
_cell_length_b   7.27493146
_cell_length_c   6.17365543
_cell_angle_alpha   76.48205465
_cell_angle_beta   76.48204007
_cell_angle_gamma   83.81450354
_symmetry_Int_Tables_number   1
_chemical_formula_structural   AcYHo2(MoN3)4
_chemical_formula_sum   'Ac1 Y1 Ho2 Mo4 N12'
_cell_volume   308.39792725
_cell_formula_units_Z   1
loop_
 _symmetry_equiv_pos_site_id
 _symmetry_equiv_pos_as_xyz
  1  'x, y, z'
loop_
 _atom_site_type_symbol
 _atom_site_label
 _atom_site_symmetry_multiplicity
 _atom_site_fract_x
 _atom_site_fract_y
 _atom_site_fract_z
 _atom_site_occupancy
  Ac  Ac0  1  0.686682  0.313318  0.250000  1
  Y  Y1  1  0.307917  0.692083  0.750000  1
  Ho  Ho2  1  0.922589  0.077411  0.750000  1
  Ho  Ho3  1  0.093965  0.906035  0.250000  1
  Mo  Mo4  1  0.801658  0.621613  0.735083  1
  Mo  Mo5  1  0.193470  0.382121  0.257816  1
  Mo  Mo6  1  0.617879  0.806530  0.242184  1
  Mo  Mo7  1  0.378387  0.198342  0.764917  1
  N  N8  1  0.223233  0.992817  0.856983  1
  N  N9  1  0.330458  0.373003  0.496708  1
  N  N10  1  0.648861  0.627245  0.513178  1
  N  N11  1  0.617234  0.116425  0.675486  1
  N  N12  1  0.007183  0.776767  0.643017  1
  N  N13  1  0.794769  0.989567  0.142718  1
  N  N14  1  0.097453  0.615495  0.157567  1
  N  N15  1  0.883575  0.382766  0.824514  1
  N  N16  1  0.010433  0.205231  0.357282  1
  N  N17  1  0.372755  0.351139  0.986822  1
  N  N18  1  0.626997  0.669542  0.003292  1
  N  N19  1  0.384505  0.902547  0.342433  1
