# generated using pymatgen
data_MgBi3(Pt2O7)2
_symmetry_space_group_name_H-M   'P 1'
_cell_length_a   7.38294258
_cell_length_b   7.28070104
_cell_length_c   7.38294300
_cell_angle_alpha   59.53437258
_cell_angle_beta   60.00000261
_cell_angle_gamma   59.53437169
_symmetry_Int_Tables_number   1
_chemical_formula_structural   MgBi3(Pt2O7)2
_chemical_formula_sum   'Mg1 Bi3 Pt4 O14'
_cell_volume   278.62786144
_cell_formula_units_Z   1
loop_
 _symmetry_equiv_pos_site_id
 _symmetry_equiv_pos_as_xyz
  1  'x, y, z'
loop_
 _atom_site_type_symbol
 _atom_site_label
 _atom_site_symmetry_multiplicity
 _atom_site_fract_x
 _atom_site_fract_y
 _atom_site_fract_z
 _atom_site_occupancy
  Mg  Mg0  1  0.125000  0.625000  0.125000  1
  Bi  Bi1  1  0.125000  0.125000  0.625000  1
  Bi  Bi2  1  0.625000  0.125000  0.125000  1
  Bi  Bi3  1  0.125000  0.125000  0.125000  1
  Pt  Pt4  1  0.625000  0.625000  0.125000  1
  Pt  Pt5  1  0.625000  0.125000  0.625000  1
  Pt  Pt6  1  0.125000  0.625000  0.625000  1
  Pt  Pt7  1  0.625000  0.625000  0.625000  1
  O  O8  1  0.239524  0.281428  0.239524  1
  O  O9  1  0.010476  0.968572  0.010476  1
  O  O10  1  0.540380  0.960779  0.540380  1
  O  O11  1  0.290594  0.704233  0.290594  1
  O  O12  1  0.535421  0.545767  0.959406  1
  O  O13  1  0.959406  0.545767  0.535421  1
  O  O14  1  0.540380  0.960779  0.958461  1
  O  O15  1  0.958461  0.960779  0.540380  1
  O  O16  1  0.959406  0.545767  0.959406  1
  O  O17  1  0.709620  0.289221  0.291539  1
  O  O18  1  0.290594  0.704233  0.714579  1
  O  O19  1  0.709620  0.289221  0.709620  1
  O  O20  1  0.291539  0.289221  0.709620  1
  O  O21  1  0.714579  0.704233  0.290594  1
