# generated using pymatgen
data_YHoSc2(B6Ir)2
_symmetry_space_group_name_H-M   'P 1'
_cell_length_a   3.54755800
_cell_length_b   9.01100200
_cell_length_c   11.38071400
_cell_angle_alpha   89.99831993
_cell_angle_beta   90.00000000
_cell_angle_gamma   90.00000000
_symmetry_Int_Tables_number   1
_chemical_formula_structural   YHoSc2(B6Ir)2
_chemical_formula_sum   'Y2 Ho2 Sc4 B24 Ir4'
_cell_volume   363.80787881
_cell_formula_units_Z   2
loop_
 _symmetry_equiv_pos_site_id
 _symmetry_equiv_pos_as_xyz
  1  'x, y, z'
loop_
 _atom_site_type_symbol
 _atom_site_label
 _atom_site_symmetry_multiplicity
 _atom_site_fract_x
 _atom_site_fract_y
 _atom_site_fract_z
 _atom_site_occupancy
  Y  Y0  1  0.500000  0.319842  0.414073  1
  Y  Y1  1  0.500000  0.680158  0.585927  1
  Ho  Ho2  1  0.500000  0.180140  0.914083  1
  Ho  Ho3  1  0.500000  0.819860  0.085917  1
  Sc  Sc4  1  0.500000  0.445122  0.124209  1
  Sc  Sc5  1  0.500000  0.554878  0.875791  1
  Sc  Sc6  1  0.500000  0.054931  0.624358  1
  Sc  Sc7  1  0.500000  0.945069  0.375642  1
  B  B8  1  0.000000  0.100157  0.472932  1
  B  B9  1  0.000000  0.899843  0.527068  1
  B  B10  1  0.000000  0.399462  0.972831  1
  B  B11  1  0.000000  0.600538  0.027169  1
  B  B12  1  0.000000  0.129725  0.318336  1
  B  B13  1  0.000000  0.870275  0.681664  1
  B  B14  1  0.000000  0.369927  0.818607  1
  B  B15  1  0.000000  0.630073  0.181393  1
  B  B16  1  0.000000  0.054659  0.065535  1
  B  B17  1  0.000000  0.945341  0.934465  1
  B  B18  1  0.000000  0.445208  0.565800  1
  B  B19  1  0.000000  0.554792  0.434200  1
  B  B20  1  0.000000  0.481863  0.284885  1
  B  B21  1  0.000000  0.518137  0.715115  1
  B  B22  1  0.000000  0.018401  0.785180  1
  B  B23  1  0.000000  0.981599  0.214820  1
  B  B24  1  0.000000  0.253906  0.080056  1
  B  B25  1  0.000000  0.746094  0.919944  1
  B  B26  1  0.000000  0.245917  0.580429  1
  B  B27  1  0.000000  0.754083  0.419571  1
  B  B28  1  0.000000  0.295689  0.235276  1
  B  B29  1  0.000000  0.704311  0.764724  1
  B  B30  1  0.000000  0.204201  0.735663  1
  B  B31  1  0.000000  0.795799  0.264337  1
  Ir  Ir32  1  0.500000  0.141180  0.181183  1
  Ir  Ir33  1  0.500000  0.858820  0.818817  1
  Ir  Ir34  1  0.500000  0.358284  0.681825  1
  Ir  Ir35  1  0.500000  0.641716  0.318175  1
