# generated using pymatgen
data_NdAlRu2C
_symmetry_space_group_name_H-M   'P 1'
_cell_length_a   5.95337284
_cell_length_b   5.95337232
_cell_length_c   7.31980700
_cell_angle_alpha   90.00000000
_cell_angle_beta   90.00000000
_cell_angle_gamma   140.44400369
_symmetry_Int_Tables_number   1
_chemical_formula_structural   NdAlRu2C
_chemical_formula_sum   'Nd2 Al2 Ru4 C2'
_cell_volume   165.21545146
_cell_formula_units_Z   2
loop_
 _symmetry_equiv_pos_site_id
 _symmetry_equiv_pos_as_xyz
  1  'x, y, z'
loop_
 _atom_site_type_symbol
 _atom_site_label
 _atom_site_symmetry_multiplicity
 _atom_site_fract_x
 _atom_site_fract_y
 _atom_site_fract_z
 _atom_site_occupancy
  Nd  Nd0  1  0.549320  0.450680  0.250000  1
  Nd  Nd1  1  0.450680  0.549320  0.750000  1
  Al  Al2  1  0.272474  0.727526  0.250000  1
  Al  Al3  1  0.727526  0.272474  0.750000  1
  Ru  Ru4  1  0.836296  0.163704  0.057457  1
  Ru  Ru5  1  0.163704  0.836296  0.942543  1
  Ru  Ru6  1  0.163704  0.836296  0.557457  1
  Ru  Ru7  1  0.836296  0.163704  0.442543  1
  C  C8  1  0.000000  0.000000  0.000000  1
  C  C9  1  0.000000  0.000000  0.500000  1
