# generated using pymatgen
data_Ta5TiPt2
_symmetry_space_group_name_H-M   'P 1'
_cell_length_a   5.19035100
_cell_length_b   5.19035100
_cell_length_c   5.13383600
_cell_angle_alpha   90.00000000
_cell_angle_beta   90.00000000
_cell_angle_gamma   90.00000000
_symmetry_Int_Tables_number   1
_chemical_formula_structural   Ta5TiPt2
_chemical_formula_sum   'Ta5 Ti1 Pt2'
_cell_volume   138.30422503
_cell_formula_units_Z   1
loop_
 _symmetry_equiv_pos_site_id
 _symmetry_equiv_pos_as_xyz
  1  'x, y, z'
loop_
 _atom_site_type_symbol
 _atom_site_label
 _atom_site_symmetry_multiplicity
 _atom_site_fract_x
 _atom_site_fract_y
 _atom_site_fract_z
 _atom_site_occupancy
  Ta  Ta0  1  0.000000  0.250243  0.498479  1
  Ta  Ta1  1  0.000000  0.749757  0.498479  1
  Ta  Ta2  1  0.249757  0.500000  0.001521  1
  Ta  Ta3  1  0.750243  0.500000  0.001521  1
  Ta  Ta4  1  0.500000  0.000000  0.250000  1
  Ti  Ti5  1  0.500000  0.000000  0.750000  1
  Pt  Pt6  1  0.500000  0.500000  0.508265  1
  Pt  Pt7  1  0.000000  0.000000  0.991735  1
