# generated using pymatgen
data_Gd2Ga5(Fe6C)2
_symmetry_space_group_name_H-M   'P 1'
_cell_length_a   6.61750694
_cell_length_b   6.61750785
_cell_length_c   6.54053700
_cell_angle_alpha   83.65788728
_cell_angle_beta   83.65788641
_cell_angle_gamma   84.15407314
_symmetry_Int_Tables_number   1
_chemical_formula_structural   Gd2Ga5(Fe6C)2
_chemical_formula_sum   'Gd2 Ga5 Fe12 C2'
_cell_volume   281.75661802
_cell_formula_units_Z   1
loop_
 _symmetry_equiv_pos_site_id
 _symmetry_equiv_pos_as_xyz
  1  'x, y, z'
loop_
 _atom_site_type_symbol
 _atom_site_label
 _atom_site_symmetry_multiplicity
 _atom_site_fract_x
 _atom_site_fract_y
 _atom_site_fract_z
 _atom_site_occupancy
  Gd  Gd0  1  0.344298  0.344298  0.343030  1
  Gd  Gd1  1  0.655702  0.655702  0.656970  1
  Ga  Ga2  1  0.665532  0.665532  0.153760  1
  Ga  Ga3  1  0.334468  0.334468  0.846240  1
  Ga  Ga4  1  0.000000  0.000000  0.500000  1
  Ga  Ga5  1  0.729252  0.270748  0.000000  1
  Ga  Ga6  1  0.270748  0.729252  0.000000  1
  Fe  Fe7  1  0.657061  0.142921  0.658416  1
  Fe  Fe8  1  0.142921  0.657061  0.658416  1
  Fe  Fe9  1  0.342939  0.857079  0.341584  1
  Fe  Fe10  1  0.857079  0.342939  0.341584  1
  Fe  Fe11  1  0.095927  0.095927  0.092496  1
  Fe  Fe12  1  0.904073  0.904073  0.907504  1
  Fe  Fe13  1  0.000000  0.500000  0.000000  1
  Fe  Fe14  1  0.500000  0.000000  0.000000  1
  Fe  Fe15  1  0.287656  0.999519  0.710285  1
  Fe  Fe16  1  0.000481  0.712344  0.289715  1
  Fe  Fe17  1  0.712344  0.000481  0.289715  1
  Fe  Fe18  1  0.999519  0.287656  0.710285  1
  C  C19  1  0.500000  0.000000  0.500000  1
  C  C20  1  0.000000  0.500000  0.500000  1
