# generated using pymatgen
data_PrGd2RuO7
_symmetry_space_group_name_H-M   'P 1'
_cell_length_a   6.52744803
_cell_length_b   6.52744762
_cell_length_c   7.56664900
_cell_angle_alpha   90.00000000
_cell_angle_beta   90.00000000
_cell_angle_gamma   110.69453104
_symmetry_Int_Tables_number   1
_chemical_formula_structural   PrGd2RuO7
_chemical_formula_sum   'Pr2 Gd4 Ru2 O14'
_cell_volume   301.59481866
_cell_formula_units_Z   2
loop_
 _symmetry_equiv_pos_site_id
 _symmetry_equiv_pos_as_xyz
  1  'x, y, z'
loop_
 _atom_site_type_symbol
 _atom_site_label
 _atom_site_symmetry_multiplicity
 _atom_site_fract_x
 _atom_site_fract_y
 _atom_site_fract_z
 _atom_site_occupancy
  Pr  Pr0  1  0.000000  0.000000  0.500000  1
  Pr  Pr1  1  0.000000  0.000000  0.000000  1
  Gd  Gd2  1  0.478403  0.925929  0.750000  1
  Gd  Gd3  1  0.521597  0.074071  0.250000  1
  Gd  Gd4  1  0.925929  0.478403  0.750000  1
  Gd  Gd5  1  0.074071  0.521597  0.250000  1
  Ru  Ru6  1  0.500000  0.500000  0.500000  1
  Ru  Ru7  1  0.500000  0.500000  0.000000  1
  O  O8  1  0.586405  0.586405  0.750000  1
  O  O9  1  0.413595  0.413595  0.250000  1
  O  O10  1  0.837690  0.113074  0.750000  1
  O  O11  1  0.162310  0.886926  0.250000  1
  O  O12  1  0.113074  0.837690  0.750000  1
  O  O13  1  0.886926  0.162310  0.250000  1
  O  O14  1  0.439724  0.183791  0.962202  1
  O  O15  1  0.560276  0.816209  0.462202  1
  O  O16  1  0.183791  0.439724  0.962202  1
  O  O17  1  0.816209  0.560276  0.462202  1
  O  O18  1  0.439724  0.183791  0.537798  1
  O  O19  1  0.560276  0.816209  0.037798  1
  O  O20  1  0.816209  0.560276  0.037798  1
  O  O21  1  0.183791  0.439724  0.537798  1
