# generated using pymatgen
data_Dy7Y3Cd3Os
_symmetry_space_group_name_H-M   'P 1'
_cell_length_a   9.60704200
_cell_length_b   9.60642863
_cell_length_c   9.88094500
_cell_angle_alpha   90.00000000
_cell_angle_beta   90.00000000
_cell_angle_gamma   120.00542996
_symmetry_Int_Tables_number   1
_chemical_formula_structural   Dy7Y3Cd3Os
_chemical_formula_sum   'Dy14 Y6 Cd6 Os2'
_cell_volume   789.69065399
_cell_formula_units_Z   2
loop_
 _symmetry_equiv_pos_site_id
 _symmetry_equiv_pos_as_xyz
  1  'x, y, z'
loop_
 _atom_site_type_symbol
 _atom_site_label
 _atom_site_symmetry_multiplicity
 _atom_site_fract_x
 _atom_site_fract_y
 _atom_site_fract_z
 _atom_site_occupancy
  Dy  Dy0  1  0.000000  0.000000  0.500000  1
  Dy  Dy1  1  0.000000  0.000000  0.000000  1
  Dy  Dy2  1  0.209760  0.790245  0.440201  1
  Dy  Dy3  1  0.209757  0.419516  0.440191  1
  Dy  Dy4  1  0.580483  0.790245  0.440198  1
  Dy  Dy5  1  0.790240  0.209755  0.559799  1
  Dy  Dy6  1  0.790243  0.580484  0.559809  1
  Dy  Dy7  1  0.419517  0.209755  0.559802  1
  Dy  Dy8  1  0.790240  0.209755  0.940201  1
  Dy  Dy9  1  0.790243  0.580484  0.940191  1
  Dy  Dy10  1  0.419517  0.209755  0.940198  1
  Dy  Dy11  1  0.209760  0.790245  0.059799  1
  Dy  Dy12  1  0.209757  0.419516  0.059809  1
  Dy  Dy13  1  0.580483  0.790245  0.059802  1
  Y  Y14  1  0.540298  0.459685  0.250000  1
  Y  Y15  1  0.540309  0.080610  0.250000  1
  Y  Y16  1  0.919389  0.459682  0.250000  1
  Y  Y17  1  0.459702  0.540315  0.750000  1
  Y  Y18  1  0.459691  0.919390  0.750000  1
  Y  Y19  1  0.080611  0.540318  0.750000  1
  Cd  Cd20  1  0.885526  0.114477  0.250000  1
  Cd  Cd21  1  0.885524  0.771052  0.250000  1
  Cd  Cd22  1  0.228951  0.114479  0.250000  1
  Cd  Cd23  1  0.114474  0.885523  0.750000  1
  Cd  Cd24  1  0.114476  0.228948  0.750000  1
  Cd  Cd25  1  0.771049  0.885521  0.750000  1
  Os  Os26  1  0.333334  0.666665  0.250000  1
  Os  Os27  1  0.666666  0.333335  0.750000  1
