# generated using pymatgen
data_NaBrF6
_symmetry_space_group_name_H-M   'P 1'
_cell_length_a   6.02439962
_cell_length_b   6.02439986
_cell_length_c   6.02439900
_cell_angle_alpha   59.99999923
_cell_angle_beta   59.99999790
_cell_angle_gamma   60.00000310
_symmetry_Int_Tables_number   1
_chemical_formula_structural   NaBrF6
_chemical_formula_sum   'Na1 Br1 F6'
_cell_volume   154.60598165
_cell_formula_units_Z   1
loop_
 _symmetry_equiv_pos_site_id
 _symmetry_equiv_pos_as_xyz
  1  'x, y, z'
loop_
 _atom_site_type_symbol
 _atom_site_label
 _atom_site_symmetry_multiplicity
 _atom_site_fract_x
 _atom_site_fract_y
 _atom_site_fract_z
 _atom_site_occupancy
  Na  Na0  1  0.500000  0.500000  0.500000  1
  Br  Br1  1  0.000000  0.000000  0.000000  1
  F  F2  1  0.777153  0.777153  0.222847  1
  F  F3  1  0.222847  0.777153  0.222847  1
  F  F4  1  0.777153  0.222847  0.222847  1
  F  F5  1  0.222847  0.222847  0.777153  1
  F  F6  1  0.777153  0.222847  0.777153  1
  F  F7  1  0.222847  0.777153  0.777153  1
