# generated using pymatgen
data_Yb12HoEr7Si16
_symmetry_space_group_name_H-M   'P 1'
_cell_length_a   7.37134713
_cell_length_b   7.77380606
_cell_length_c   15.04019414
_cell_angle_alpha   89.99771377
_cell_angle_beta   90.01551368
_cell_angle_gamma   90.01435356
_symmetry_Int_Tables_number   1
_chemical_formula_structural   Yb12HoEr7Si16
_chemical_formula_sum   'Yb12 Ho1 Er7 Si16'
_cell_volume   861.85454712
_cell_formula_units_Z   1
loop_
 _symmetry_equiv_pos_site_id
 _symmetry_equiv_pos_as_xyz
  1  'x, y, z'
loop_
 _atom_site_type_symbol
 _atom_site_label
 _atom_site_symmetry_multiplicity
 _atom_site_fract_x
 _atom_site_fract_y
 _atom_site_fract_z
 _atom_site_occupancy
  Yb  Yb0  1  0.972184  0.815975  0.403602  1
  Yb  Yb1  1  0.472277  0.683964  0.096412  1
  Yb  Yb2  1  0.527786  0.316022  0.596410  1
  Yb  Yb3  1  0.027762  0.184012  0.903566  1
  Yb  Yb4  1  0.027807  0.184001  0.596424  1
  Yb  Yb5  1  0.527823  0.316038  0.903566  1
  Yb  Yb6  1  0.472216  0.683959  0.403609  1
  Yb  Yb7  1  0.972159  0.815980  0.096407  1
  Yb  Yb8  1  0.353762  0.019141  0.749995  1
  Yb  Yb9  1  0.853767  0.480827  0.750003  1
  Yb  Yb10  1  0.146196  0.519221  0.250043  1
  Yb  Yb11  1  0.646299  0.980802  0.250025  1
  Ho  Ho12  1  0.314239  0.176755  0.121142  1
  Er  Er13  1  0.814342  0.323592  0.378860  1
  Er  Er14  1  0.185690  0.676443  0.878822  1
  Er  Er15  1  0.685684  0.823558  0.621162  1
  Er  Er16  1  0.314308  0.176426  0.378897  1
  Er  Er17  1  0.814303  0.323619  0.121118  1
  Er  Er18  1  0.185686  0.676457  0.621169  1
  Er  Er19  1  0.685742  0.823529  0.878800  1
  Si  Si20  1  0.857615  0.533571  0.538466  1
  Si  Si21  1  0.357717  0.966210  0.961364  1
  Si  Si22  1  0.642384  0.033548  0.461529  1
  Si  Si23  1  0.142051  0.466640  0.038332  1
  Si  Si24  1  0.142396  0.466404  0.461534  1
  Si  Si25  1  0.642712  0.033396  0.038362  1
  Si  Si26  1  0.357589  0.966420  0.538470  1
  Si  Si27  1  0.857589  0.533641  0.961526  1
  Si  Si28  1  0.977865  0.882030  0.749995  1
  Si  Si29  1  0.477830  0.617928  0.749991  1
  Si  Si30  1  0.522426  0.382304  0.250076  1
  Si  Si31  1  0.021923  0.117847  0.250145  1
  Si  Si32  1  0.249038  0.395382  0.749994  1
  Si  Si33  1  0.749044  0.104621  0.749993  1
  Si  Si34  1  0.250810  0.895127  0.250149  1
  Si  Si35  1  0.750980  0.604610  0.250041  1
