# generated using pymatgen
data_Mg8Zn7Ni9
_symmetry_space_group_name_H-M   'P 1'
_cell_length_a   5.09168300
_cell_length_b   4.99034593
_cell_length_c   15.85518900
_cell_angle_alpha   90.00000000
_cell_angle_beta   90.00000000
_cell_angle_gamma   120.67402225
_symmetry_Int_Tables_number   1
_chemical_formula_structural   Mg8Zn7Ni9
_chemical_formula_sum   'Mg8 Zn7 Ni9'
_cell_volume   346.50071119
_cell_formula_units_Z   1
loop_
 _symmetry_equiv_pos_site_id
 _symmetry_equiv_pos_as_xyz
  1  'x, y, z'
loop_
 _atom_site_type_symbol
 _atom_site_label
 _atom_site_symmetry_multiplicity
 _atom_site_fract_x
 _atom_site_fract_y
 _atom_site_fract_z
 _atom_site_occupancy
  Mg  Mg0  1  0.994264  0.988528  0.090885  1
  Mg  Mg1  1  0.670857  0.341715  0.157025  1
  Mg  Mg2  1  0.670857  0.341715  0.342975  1
  Mg  Mg3  1  0.994264  0.988528  0.409115  1
  Mg  Mg4  1  0.001623  0.003246  0.595925  1
  Mg  Mg5  1  0.329309  0.658619  0.660610  1
  Mg  Mg6  1  0.329309  0.658619  0.839390  1
  Mg  Mg7  1  0.001623  0.003246  0.904075  1
  Zn  Zn8  1  0.500638  0.001277  0.997140  1
  Zn  Zn9  1  0.333220  0.666442  0.124786  1
  Zn  Zn10  1  0.155703  0.311407  0.250000  1
  Zn  Zn11  1  0.333220  0.666442  0.375214  1
  Zn  Zn12  1  0.500638  0.001277  0.502860  1
  Zn  Zn13  1  0.675333  0.350666  0.629087  1
  Zn  Zn14  1  0.675333  0.350666  0.870913  1
  Ni  Ni15  1  0.000449  0.499635  0.998685  1
  Ni  Ni16  1  0.499186  0.499635  0.998685  1
  Ni  Ni17  1  0.158985  0.828264  0.250000  1
  Ni  Ni18  1  0.669280  0.828264  0.250000  1
  Ni  Ni19  1  0.000449  0.499635  0.501315  1
  Ni  Ni20  1  0.499186  0.499635  0.501315  1
  Ni  Ni21  1  0.324906  0.163022  0.750000  1
  Ni  Ni22  1  0.838116  0.163022  0.750000  1
  Ni  Ni23  1  0.843250  0.686501  0.750000  1
