# generated using pymatgen
data_NdY2In3Ga2Ni
_symmetry_space_group_name_H-M   'P 1'
_cell_length_a   7.33626299
_cell_length_b   7.28068994
_cell_length_c   4.38500100
_cell_angle_alpha   90.00000000
_cell_angle_beta   90.00000000
_cell_angle_gamma   119.74972086
_symmetry_Int_Tables_number   1
_chemical_formula_structural   NdY2In3Ga2Ni
_chemical_formula_sum   'Nd1 Y2 In3 Ga2 Ni1'
_cell_volume   203.34688403
_cell_formula_units_Z   1
loop_
 _symmetry_equiv_pos_site_id
 _symmetry_equiv_pos_as_xyz
  1  'x, y, z'
loop_
 _atom_site_type_symbol
 _atom_site_label
 _atom_site_symmetry_multiplicity
 _atom_site_fract_x
 _atom_site_fract_y
 _atom_site_fract_z
 _atom_site_occupancy
  Nd  Nd0  1  0.000000  0.592359  0.500000  1
  Y  Y1  1  0.404518  0.403426  0.500000  1
  Y  Y2  1  0.595482  0.998909  0.500000  1
  In  In3  1  0.756055  0.758004  0.000000  1
  In  In4  1  0.243945  0.001949  0.000000  1
  In  In5  1  0.000000  0.241259  0.000000  1
  Ga  Ga6  1  0.662084  0.330579  0.000000  1
  Ga  Ga7  1  0.337916  0.668497  0.000000  1
  Ni  Ni8  1  0.000000  0.005017  0.500000  1
