# generated using pymatgen
data_YbIr4Pb3O14
_symmetry_space_group_name_H-M   'P 1'
_cell_length_a   7.32432863
_cell_length_b   7.29794001
_cell_length_c   7.29794100
_cell_angle_alpha   60.00000003
_cell_angle_beta   60.11911068
_cell_angle_gamma   60.11910610
_symmetry_Int_Tables_number   1
_chemical_formula_structural   YbIr4Pb3O14
_chemical_formula_sum   'Yb1 Ir4 Pb3 O14'
_cell_volume   276.33315131
_cell_formula_units_Z   1
loop_
 _symmetry_equiv_pos_site_id
 _symmetry_equiv_pos_as_xyz
  1  'x, y, z'
loop_
 _atom_site_type_symbol
 _atom_site_label
 _atom_site_symmetry_multiplicity
 _atom_site_fract_x
 _atom_site_fract_y
 _atom_site_fract_z
 _atom_site_occupancy
  Yb  Yb0  1  0.625000  0.125000  0.125000  1
  Ir  Ir1  1  0.125000  0.625000  0.625000  1
  Ir  Ir2  1  0.625000  0.125000  0.625000  1
  Ir  Ir3  1  0.625000  0.625000  0.125000  1
  Ir  Ir4  1  0.625000  0.625000  0.625000  1
  Pb  Pb5  1  0.125000  0.625000  0.125000  1
  Pb  Pb6  1  0.125000  0.125000  0.625000  1
  Pb  Pb7  1  0.125000  0.125000  0.125000  1
  O  O8  1  0.707478  0.697834  0.297344  1
  O  O9  1  0.294213  0.295367  0.705210  1
  O  O10  1  0.707478  0.297344  0.697834  1
  O  O11  1  0.294213  0.705210  0.295367  1
  O  O12  1  0.294213  0.705210  0.705210  1
  O  O13  1  0.707478  0.297344  0.297344  1
  O  O14  1  0.542522  0.552166  0.952656  1
  O  O15  1  0.955787  0.954633  0.544790  1
  O  O16  1  0.542522  0.952656  0.552166  1
  O  O17  1  0.955787  0.544790  0.954633  1
  O  O18  1  0.955787  0.544790  0.544790  1
  O  O19  1  0.542522  0.952656  0.952656  1
  O  O20  1  0.256863  0.247712  0.247712  1
  O  O21  1  0.993137  0.002288  0.002288  1
