# generated using pymatgen
data_LaTl(ReO4)6
_symmetry_space_group_name_H-M   'P 1'
_cell_length_a   10.17688600
_cell_length_b   10.17688430
_cell_length_c   6.21632600
_cell_angle_alpha   90.00000000
_cell_angle_beta   90.00000000
_cell_angle_gamma   119.99999252
_symmetry_Int_Tables_number   1
_chemical_formula_structural   LaTl(ReO4)6
_chemical_formula_sum   'La1 Tl1 Re6 O24'
_cell_volume   557.56331701
_cell_formula_units_Z   1
loop_
 _symmetry_equiv_pos_site_id
 _symmetry_equiv_pos_as_xyz
  1  'x, y, z'
loop_
 _atom_site_type_symbol
 _atom_site_label
 _atom_site_symmetry_multiplicity
 _atom_site_fract_x
 _atom_site_fract_y
 _atom_site_fract_z
 _atom_site_occupancy
  La  La0  1  0.333333  0.666667  0.250000  1
  Tl  Tl1  1  0.666667  0.333333  0.750000  1
  Re  Re2  1  0.083334  0.380938  0.750000  1
  Re  Re3  1  0.404328  0.303607  0.250000  1
  Re  Re4  1  0.619062  0.702395  0.750000  1
  Re  Re5  1  0.899276  0.595672  0.250000  1
  Re  Re6  1  0.297605  0.916666  0.750000  1
  Re  Re7  1  0.696393  0.100724  0.250000  1
  O  O8  1  0.500533  0.648948  0.521678  1
  O  O9  1  0.351052  0.851586  0.521678  1
  O  O10  1  0.821330  0.712331  0.250000  1
  O  O11  1  0.103586  0.843865  0.750000  1
  O  O12  1  0.287669  0.108998  0.250000  1
  O  O13  1  0.156135  0.259721  0.750000  1
  O  O14  1  0.520376  0.362910  0.018214  1
  O  O15  1  0.891002  0.178670  0.250000  1
  O  O16  1  0.097195  0.706293  0.250000  1
  O  O17  1  0.148414  0.499467  0.978322  1
  O  O18  1  0.148414  0.499467  0.521678  1
  O  O19  1  0.884755  0.275745  0.750000  1
  O  O20  1  0.293707  0.390902  0.250000  1
  O  O21  1  0.724255  0.609011  0.750000  1
  O  O22  1  0.842535  0.479624  0.481786  1
  O  O23  1  0.390989  0.115245  0.750000  1
  O  O24  1  0.637090  0.157465  0.018214  1
  O  O25  1  0.500533  0.648948  0.978322  1
  O  O26  1  0.351052  0.851586  0.978322  1
  O  O27  1  0.637090  0.157465  0.481786  1
  O  O28  1  0.520376  0.362910  0.481786  1
  O  O29  1  0.842535  0.479624  0.018214  1
  O  O30  1  0.740279  0.896414  0.750000  1
  O  O31  1  0.609098  0.902805  0.250000  1
