# generated using pymatgen
data_Ta2FeSn(BRu2)2
_symmetry_space_group_name_H-M   'P 1'
_cell_length_a   9.30205900
_cell_length_b   9.30205900
_cell_length_c   3.04140200
_cell_angle_alpha   90.00000000
_cell_angle_beta   90.00000000
_cell_angle_gamma   90.00000000
_symmetry_Int_Tables_number   1
_chemical_formula_structural   Ta2FeSn(BRu2)2
_chemical_formula_sum   'Ta4 Fe2 Sn2 B4 Ru8'
_cell_volume   263.16734966
_cell_formula_units_Z   2
loop_
 _symmetry_equiv_pos_site_id
 _symmetry_equiv_pos_as_xyz
  1  'x, y, z'
loop_
 _atom_site_type_symbol
 _atom_site_label
 _atom_site_symmetry_multiplicity
 _atom_site_fract_x
 _atom_site_fract_y
 _atom_site_fract_z
 _atom_site_occupancy
  Ta  Ta0  1  0.827482  0.672518  0.000000  1
  Ta  Ta1  1  0.172518  0.327482  0.000000  1
  Ta  Ta2  1  0.327482  0.827482  0.000000  1
  Ta  Ta3  1  0.672518  0.172518  0.000000  1
  Fe  Fe4  1  0.500000  0.000000  0.500000  1
  Fe  Fe5  1  0.000000  0.500000  0.500000  1
  Sn  Sn6  1  0.500000  0.500000  0.000000  1
  Sn  Sn7  1  0.000000  0.000000  0.000000  1
  B  B8  1  0.612682  0.887318  0.000000  1
  B  B9  1  0.387318  0.112682  0.000000  1
  B  B10  1  0.112682  0.612682  0.000000  1
  B  B11  1  0.887318  0.387318  0.000000  1
  Ru  Ru12  1  0.565734  0.725696  0.500000  1
  Ru  Ru13  1  0.434266  0.274304  0.500000  1
  Ru  Ru14  1  0.065734  0.774304  0.500000  1
  Ru  Ru15  1  0.934266  0.225696  0.500000  1
  Ru  Ru16  1  0.274304  0.565734  0.500000  1
  Ru  Ru17  1  0.725696  0.434266  0.500000  1
  Ru  Ru18  1  0.225696  0.065734  0.500000  1
  Ru  Ru19  1  0.774304  0.934266  0.500000  1
