# generated using pymatgen
data_YbPa(ReO4)6
_symmetry_space_group_name_H-M   'P 1'
_cell_length_a   10.24120100
_cell_length_b   10.24120046
_cell_length_c   6.30333900
_cell_angle_alpha   90.00000000
_cell_angle_beta   90.00000000
_cell_angle_gamma   119.99999177
_symmetry_Int_Tables_number   1
_chemical_formula_structural   YbPa(ReO4)6
_chemical_formula_sum   'Yb1 Pa1 Re6 O24'
_cell_volume   572.53638206
_cell_formula_units_Z   1
loop_
 _symmetry_equiv_pos_site_id
 _symmetry_equiv_pos_as_xyz
  1  'x, y, z'
loop_
 _atom_site_type_symbol
 _atom_site_label
 _atom_site_symmetry_multiplicity
 _atom_site_fract_x
 _atom_site_fract_y
 _atom_site_fract_z
 _atom_site_occupancy
  Yb  Yb0  1  0.333333  0.666667  0.250000  1
  Pa  Pa1  1  0.666667  0.333333  0.750000  1
  Re  Re2  1  0.088342  0.395939  0.750000  1
  Re  Re3  1  0.395314  0.301114  0.250000  1
  Re  Re4  1  0.604061  0.692402  0.750000  1
  Re  Re5  1  0.905799  0.604686  0.250000  1
  Re  Re6  1  0.307598  0.911658  0.750000  1
  Re  Re7  1  0.698886  0.094201  0.250000  1
  O  O8  1  0.489764  0.647513  0.524620  1
  O  O9  1  0.352487  0.842251  0.524620  1
  O  O10  1  0.837485  0.728361  0.250000  1
  O  O11  1  0.116716  0.851142  0.750000  1
  O  O12  1  0.271639  0.109123  0.250000  1
  O  O13  1  0.148858  0.265574  0.750000  1
  O  O14  1  0.514983  0.351137  0.023265  1
  O  O15  1  0.890877  0.162515  0.250000  1
  O  O16  1  0.101921  0.700616  0.250000  1
  O  O17  1  0.157749  0.510236  0.975380  1
  O  O18  1  0.157749  0.510236  0.524620  1
  O  O19  1  0.887127  0.304658  0.750000  1
  O  O20  1  0.299384  0.401306  0.250000  1
  O  O21  1  0.695342  0.582470  0.750000  1
  O  O22  1  0.836155  0.485017  0.476735  1
  O  O23  1  0.417530  0.112873  0.750000  1
  O  O24  1  0.648863  0.163845  0.023265  1
  O  O25  1  0.489764  0.647513  0.975380  1
  O  O26  1  0.352487  0.842251  0.975380  1
  O  O27  1  0.648863  0.163845  0.476735  1
  O  O28  1  0.514983  0.351137  0.476735  1
  O  O29  1  0.836155  0.485017  0.023265  1
  O  O30  1  0.734426  0.883284  0.750000  1
  O  O31  1  0.598694  0.898079  0.250000  1
