# generated using pymatgen
data_Yb2HoTl(Pt2O7)2
_symmetry_space_group_name_H-M   'P 1'
_cell_length_a   7.21868766
_cell_length_b   7.22765585
_cell_length_c   7.22765305
_cell_angle_alpha   60.73406783
_cell_angle_beta   60.80490135
_cell_angle_gamma   60.80489489
_symmetry_Int_Tables_number   1
_chemical_formula_structural   Yb2HoTl(Pt2O7)2
_chemical_formula_sum   'Yb2 Ho1 Tl1 Pt4 O14'
_cell_volume   271.34701317
_cell_formula_units_Z   1
loop_
 _symmetry_equiv_pos_site_id
 _symmetry_equiv_pos_as_xyz
  1  'x, y, z'
loop_
 _atom_site_type_symbol
 _atom_site_label
 _atom_site_symmetry_multiplicity
 _atom_site_fract_x
 _atom_site_fract_y
 _atom_site_fract_z
 _atom_site_occupancy
  Yb  Yb0  1  0.625000  0.625000  0.125000  1
  Yb  Yb1  1  0.625000  0.125000  0.625000  1
  Ho  Ho2  1  0.125000  0.625000  0.625000  1
  Tl  Tl3  1  0.625000  0.625000  0.625000  1
  Pt  Pt4  1  0.125000  0.125000  0.125000  1
  Pt  Pt5  1  0.625000  0.125000  0.125000  1
  Pt  Pt6  1  0.125000  0.625000  0.125000  1
  Pt  Pt7  1  0.125000  0.125000  0.625000  1
  O  O8  1  0.048515  0.458313  0.458313  1
  O  O9  1  0.794441  0.793592  0.205092  1
  O  O10  1  0.791965  0.209611  0.209611  1
  O  O11  1  0.455559  0.044908  0.456408  1
  O  O12  1  0.752562  0.742306  0.742306  1
  O  O13  1  0.043709  0.031382  0.461328  1
  O  O14  1  0.043709  0.461328  0.031382  1
  O  O15  1  0.794441  0.205092  0.793592  1
  O  O16  1  0.206291  0.788672  0.218618  1
  O  O17  1  0.206291  0.218618  0.788672  1
  O  O18  1  0.497438  0.507694  0.507694  1
  O  O19  1  0.458035  0.040389  0.040389  1
  O  O20  1  0.455559  0.456408  0.044908  1
  O  O21  1  0.201485  0.791687  0.791687  1
