# generated using pymatgen
data_Sc2Fe6Co2P7Ru4
_symmetry_space_group_name_H-M   'P 1'
_cell_length_a   8.94339362
_cell_length_b   9.03090244
_cell_length_c   3.68389800
_cell_angle_alpha   90.00000000
_cell_angle_beta   90.00000000
_cell_angle_gamma   120.28188725
_symmetry_Int_Tables_number   1
_chemical_formula_structural   Sc2Fe6Co2P7Ru4
_chemical_formula_sum   'Sc2 Fe6 Co2 P7 Ru4'
_cell_volume   256.93963171
_cell_formula_units_Z   1
loop_
 _symmetry_equiv_pos_site_id
 _symmetry_equiv_pos_as_xyz
  1  'x, y, z'
loop_
 _atom_site_type_symbol
 _atom_site_label
 _atom_site_symmetry_multiplicity
 _atom_site_fract_x
 _atom_site_fract_y
 _atom_site_fract_z
 _atom_site_occupancy
  Sc  Sc0  1  0.664543  0.329258  0.500000  1
  Sc  Sc1  1  0.333625  0.665778  0.000000  1
  Fe  Fe2  1  0.715862  0.880106  0.000000  1
  Fe  Fe3  1  0.118988  0.846417  0.000000  1
  Fe  Fe4  1  0.162648  0.279564  0.000000  1
  Fe  Fe5  1  0.431333  0.060143  0.000000  1
  Fe  Fe6  1  0.937189  0.363496  0.000000  1
  Fe  Fe7  1  0.628006  0.570180  0.000000  1
  Co  Co8  1  0.559129  0.946081  0.500000  1
  Co  Co9  1  0.389627  0.440949  0.500000  1
  P  P10  1  0.588067  0.710478  0.500000  1
  P  P11  1  0.998369  0.001283  0.000000  1
  P  P12  1  0.293907  0.886928  0.500000  1
  P  P13  1  0.123462  0.403840  0.500000  1
  P  P14  1  0.877686  0.577737  0.000000  1
  P  P15  1  0.421160  0.301466  0.000000  1
  P  P16  1  0.697905  0.116820  0.000000  1
  Ru  Ru17  1  0.903977  0.119700  0.500000  1
  Ru  Ru18  1  0.223527  0.099987  0.500000  1
  Ru  Ru19  1  0.875964  0.786736  0.500000  1
  Ru  Ru20  1  0.055026  0.613052  0.500000  1
