# generated using pymatgen
data_Mg3Cd(PN2)6
_symmetry_space_group_name_H-M   'P 1'
_cell_length_a   7.17444738
_cell_length_b   7.17444638
_cell_length_c   7.17444704
_cell_angle_alpha   109.56658321
_cell_angle_beta   109.56657929
_cell_angle_gamma   109.56654733
_symmetry_Int_Tables_number   1
_chemical_formula_structural   Mg3Cd(PN2)6
_chemical_formula_sum   'Mg3 Cd1 P6 N12'
_cell_volume   283.27008533
_cell_formula_units_Z   1
loop_
 _symmetry_equiv_pos_site_id
 _symmetry_equiv_pos_as_xyz
  1  'x, y, z'
loop_
 _atom_site_type_symbol
 _atom_site_label
 _atom_site_symmetry_multiplicity
 _atom_site_fract_x
 _atom_site_fract_y
 _atom_site_fract_z
 _atom_site_occupancy
  Mg  Mg0  1  0.009209  0.347752  0.009209  1
  Mg  Mg1  1  0.009209  0.009209  0.347752  1
  Mg  Mg2  1  0.347752  0.009209  0.009209  1
  Cd  Cd3  1  0.781398  0.781398  0.781398  1
  P  P4  1  0.511978  0.264497  0.761463  1
  P  P5  1  0.264497  0.761463  0.511978  1
  P  P6  1  0.761463  0.511978  0.264497  1
  P  P7  1  0.761463  0.264497  0.511978  1
  P  P8  1  0.511978  0.761463  0.264497  1
  P  P9  1  0.264497  0.511978  0.761463  1
  N  N10  1  0.457107  0.727512  0.457107  1
  N  N11  1  0.727512  0.457107  0.457107  1
  N  N12  1  0.457107  0.457107  0.727512  1
  N  N13  1  0.738526  0.293010  0.738526  1
  N  N14  1  0.011453  0.567406  0.283524  1
  N  N15  1  0.283524  0.567406  0.011453  1
  N  N16  1  0.283524  0.011453  0.567406  1
  N  N17  1  0.011453  0.283524  0.567406  1
  N  N18  1  0.738526  0.738526  0.293010  1
  N  N19  1  0.567406  0.011453  0.283524  1
  N  N20  1  0.293010  0.738526  0.738526  1
  N  N21  1  0.567406  0.283524  0.011453  1
