# generated using pymatgen
data_Tb2MnCo3O10
_symmetry_space_group_name_H-M   'P 1'
_cell_length_a   5.70457200
_cell_length_b   7.30350100
_cell_length_c   8.45893800
_cell_angle_alpha   90.00000000
_cell_angle_beta   90.00000000
_cell_angle_gamma   90.00000000
_symmetry_Int_Tables_number   1
_chemical_formula_structural   Tb2MnCo3O10
_chemical_formula_sum   'Tb4 Mn2 Co6 O20'
_cell_volume   352.42767174
_cell_formula_units_Z   2
loop_
 _symmetry_equiv_pos_site_id
 _symmetry_equiv_pos_as_xyz
  1  'x, y, z'
loop_
 _atom_site_type_symbol
 _atom_site_label
 _atom_site_symmetry_multiplicity
 _atom_site_fract_x
 _atom_site_fract_y
 _atom_site_fract_z
 _atom_site_occupancy
  Tb  Tb0  1  0.000383  0.362511  0.671694  1
  Tb  Tb1  1  0.000383  0.637489  0.328306  1
  Tb  Tb2  1  0.999617  0.862511  0.828306  1
  Tb  Tb3  1  0.999617  0.137489  0.171694  1
  Mn  Mn4  1  0.742802  0.500000  0.000000  1
  Mn  Mn5  1  0.257198  0.000000  0.500000  1
  Co  Co6  1  0.498840  0.090084  0.849113  1
  Co  Co7  1  0.498840  0.909916  0.150887  1
  Co  Co8  1  0.501160  0.590084  0.650887  1
  Co  Co9  1  0.501160  0.409916  0.349113  1
  Co  Co10  1  0.256176  0.500000  0.000000  1
  Co  Co11  1  0.743824  0.000000  0.500000  1
  O  O12  1  0.243706  0.894721  0.290571  1
  O  O13  1  0.243706  0.105279  0.709429  1
  O  O14  1  0.756294  0.394721  0.209429  1
  O  O15  1  0.756294  0.605279  0.790571  1
  O  O16  1  0.754686  0.103306  0.706319  1
  O  O17  1  0.754686  0.896694  0.293681  1
  O  O18  1  0.245314  0.603306  0.793681  1
  O  O19  1  0.245314  0.396694  0.206319  1
  O  O20  1  0.497772  0.345642  0.930607  1
  O  O21  1  0.497772  0.654358  0.069393  1
  O  O22  1  0.502228  0.845642  0.569393  1
  O  O23  1  0.502228  0.154358  0.430607  1
  O  O24  1  0.275969  0.000000  0.000000  1
  O  O25  1  0.724031  0.500000  0.500000  1
  O  O26  1  0.724232  0.000000  0.000000  1
  O  O27  1  0.275768  0.500000  0.500000  1
  O  O28  1  0.998977  0.163164  0.445037  1
  O  O29  1  0.998977  0.836836  0.554963  1
  O  O30  1  0.001023  0.663164  0.054963  1
  O  O31  1  0.001023  0.336836  0.945037  1
