# generated using pymatgen
data_Y5Ho2Tm3(In2Pt)4
_symmetry_space_group_name_H-M   'P 1'
_cell_length_a   3.61960800
_cell_length_b   8.15715263
_cell_length_c   18.19508379
_cell_angle_alpha   90.12157308
_cell_angle_beta   90.00000000
_cell_angle_gamma   90.00000000
_symmetry_Int_Tables_number   1
_chemical_formula_structural   Y5Ho2Tm3(In2Pt)4
_chemical_formula_sum   'Y5 Ho2 Tm3 In8 Pt4'
_cell_volume   537.22128348
_cell_formula_units_Z   1
loop_
 _symmetry_equiv_pos_site_id
 _symmetry_equiv_pos_as_xyz
  1  'x, y, z'
loop_
 _atom_site_type_symbol
 _atom_site_label
 _atom_site_symmetry_multiplicity
 _atom_site_fract_x
 _atom_site_fract_y
 _atom_site_fract_z
 _atom_site_occupancy
  Y  Y0  1  0.000000  0.617377  0.084208  1
  Y  Y1  1  0.000000  0.242186  0.220023  1
  Y  Y2  1  0.000000  0.758444  0.780222  1
  Y  Y3  1  0.000000  0.000417  0.999633  1
  Y  Y4  1  0.000000  0.500040  0.500057  1
  Ho  Ho5  1  0.000000  0.257655  0.719783  1
  Ho  Ho6  1  0.000000  0.741819  0.280447  1
  Tm  Tm7  1  0.000000  0.116110  0.414468  1
  Tm  Tm8  1  0.000000  0.883988  0.585662  1
  Tm  Tm9  1  0.000000  0.383208  0.913902  1
  In  In10  1  0.500000  0.421109  0.351482  1
  In  In11  1  0.500000  0.578674  0.648784  1
  In  In12  1  0.500000  0.079113  0.850817  1
  In  In13  1  0.500000  0.922523  0.149749  1
  In  In14  1  0.500000  0.293190  0.065958  1
  In  In15  1  0.500000  0.705306  0.933024  1
  In  In16  1  0.500000  0.205089  0.565926  1
  In  In17  1  0.500000  0.794936  0.434124  1
  Pt  Pt18  1  0.500000  0.023119  0.305239  1
  Pt  Pt19  1  0.500000  0.976939  0.694881  1
  Pt  Pt20  1  0.500000  0.472087  0.804196  1
  Pt  Pt21  1  0.500000  0.526670  0.197415  1
