# generated using pymatgen
data_Gd5Ru2Au
_symmetry_space_group_name_H-M   'P 1'
_cell_length_a   8.59405100
_cell_length_b   8.59405092
_cell_length_c   8.59405000
_cell_angle_alpha   126.72522454
_cell_angle_beta   126.72522417
_cell_angle_gamma   78.69941939
_symmetry_Int_Tables_number   1
_chemical_formula_structural   Gd5Ru2Au
_chemical_formula_sum   'Gd10 Ru4 Au2'
_cell_volume   394.65361368
_cell_formula_units_Z   2
loop_
 _symmetry_equiv_pos_site_id
 _symmetry_equiv_pos_as_xyz
  1  'x, y, z'
loop_
 _atom_site_type_symbol
 _atom_site_label
 _atom_site_symmetry_multiplicity
 _atom_site_fract_x
 _atom_site_fract_y
 _atom_site_fract_z
 _atom_site_occupancy
  Gd  Gd0  1  0.000000  0.000000  0.000000  1
  Gd  Gd1  1  0.500000  0.500000  0.000000  1
  Gd  Gd2  1  0.797596  0.297596  0.820640  1
  Gd  Gd3  1  0.202404  0.702404  0.179360  1
  Gd  Gd4  1  0.476540  0.976540  0.181078  1
  Gd  Gd5  1  0.296554  0.476451  0.499873  1
  Gd  Gd6  1  0.023549  0.203446  0.500127  1
  Gd  Gd7  1  0.523460  0.023460  0.818922  1
  Gd  Gd8  1  0.703446  0.523549  0.500127  1
  Gd  Gd9  1  0.976451  0.796554  0.499873  1
  Ru  Ru10  1  0.141492  0.641492  0.783745  1
  Ru  Ru11  1  0.858508  0.358508  0.216255  1
  Ru  Ru12  1  0.641260  0.858740  0.500000  1
  Ru  Ru13  1  0.358740  0.141260  0.500000  1
  Au  Au14  1  0.249803  0.250197  0.000000  1
  Au  Au15  1  0.750197  0.749803  0.000000  1
