# generated using pymatgen
data_Ho2Al9OsPd2
_symmetry_space_group_name_H-M   'P 1'
_cell_length_a   7.59392417
_cell_length_b   7.59392314
_cell_length_c   9.47752200
_cell_angle_alpha   90.00000000
_cell_angle_beta   90.00000000
_cell_angle_gamma   119.38898760
_symmetry_Int_Tables_number   1
_chemical_formula_structural   Ho2Al9OsPd2
_chemical_formula_sum   'Ho4 Al18 Os2 Pd4'
_cell_volume   476.21056906
_cell_formula_units_Z   2
loop_
 _symmetry_equiv_pos_site_id
 _symmetry_equiv_pos_as_xyz
  1  'x, y, z'
loop_
 _atom_site_type_symbol
 _atom_site_label
 _atom_site_symmetry_multiplicity
 _atom_site_fract_x
 _atom_site_fract_y
 _atom_site_fract_z
 _atom_site_occupancy
  Ho  Ho0  1  0.994831  0.672438  0.250000  1
  Ho  Ho1  1  0.005169  0.327562  0.750000  1
  Ho  Ho2  1  0.672438  0.994831  0.250000  1
  Ho  Ho3  1  0.327562  0.005169  0.750000  1
  Al  Al4  1  0.127131  0.127131  0.250000  1
  Al  Al5  1  0.872869  0.872869  0.750000  1
  Al  Al6  1  0.000183  0.331150  0.076310  1
  Al  Al7  1  0.999817  0.668850  0.923690  1
  Al  Al8  1  0.999817  0.668850  0.576310  1
  Al  Al9  1  0.331150  0.000183  0.423690  1
  Al  Al10  1  0.000183  0.331150  0.423690  1
  Al  Al11  1  0.668850  0.999817  0.576310  1
  Al  Al12  1  0.668850  0.999817  0.923690  1
  Al  Al13  1  0.331150  0.000183  0.076310  1
  Al  Al14  1  0.329295  0.329295  0.555675  1
  Al  Al15  1  0.670705  0.670706  0.444325  1
  Al  Al16  1  0.670705  0.670706  0.055675  1
  Al  Al17  1  0.329295  0.329295  0.944325  1
  Al  Al18  1  0.341883  0.548816  0.250000  1
  Al  Al19  1  0.658117  0.451184  0.750000  1
  Al  Al20  1  0.548816  0.341883  0.250000  1
  Al  Al21  1  0.451184  0.658117  0.750000  1
  Os  Os22  1  0.000000  0.000000  0.000000  1
  Os  Os23  1  0.000000  0.000000  0.500000  1
  Pd  Pd24  1  0.672110  0.327890  0.000000  1
  Pd  Pd25  1  0.327890  0.672110  0.000000  1
  Pd  Pd26  1  0.327890  0.672110  0.500000  1
  Pd  Pd27  1  0.672110  0.327890  0.500000  1
