# generated using pymatgen
data_Hf6Al16Pd2Rh5
_symmetry_space_group_name_H-M   'P 1'
_cell_length_a   8.70463245
_cell_length_b   8.70463257
_cell_length_c   8.73131800
_cell_angle_alpha   59.89853692
_cell_angle_beta   59.89853645
_cell_angle_gamma   60.20291509
_symmetry_Int_Tables_number   1
_chemical_formula_structural   Hf6Al16Pd2Rh5
_chemical_formula_sum   'Hf6 Al16 Pd2 Rh5'
_cell_volume   467.79703402
_cell_formula_units_Z   1
loop_
 _symmetry_equiv_pos_site_id
 _symmetry_equiv_pos_as_xyz
  1  'x, y, z'
loop_
 _atom_site_type_symbol
 _atom_site_label
 _atom_site_symmetry_multiplicity
 _atom_site_fract_x
 _atom_site_fract_y
 _atom_site_fract_z
 _atom_site_occupancy
  Hf  Hf0  1  0.688732  0.311267  0.311267  1
  Hf  Hf1  1  0.311267  0.688732  0.688732  1
  Hf  Hf2  1  0.311267  0.688732  0.311267  1
  Hf  Hf3  1  0.327021  0.327021  0.672978  1
  Hf  Hf4  1  0.688732  0.311267  0.688732  1
  Hf  Hf5  1  0.672978  0.672978  0.327021  1
  Al  Al6  1  0.335879  0.335879  0.337507  1
  Al  Al7  1  0.335879  0.335879  0.990733  1
  Al  Al8  1  0.990733  0.337507  0.335879  1
  Al  Al9  1  0.337507  0.990733  0.335879  1
  Al  Al10  1  0.664121  0.664121  0.662493  1
  Al  Al11  1  0.664121  0.664121  0.009267  1
  Al  Al12  1  0.662493  0.009267  0.664121  1
  Al  Al13  1  0.009267  0.662493  0.664121  1
  Al  Al14  1  0.122276  0.122276  0.112838  1
  Al  Al15  1  0.122276  0.122276  0.642610  1
  Al  Al16  1  0.642610  0.112838  0.122276  1
  Al  Al17  1  0.112838  0.642610  0.122276  1
  Al  Al18  1  0.877723  0.877723  0.887161  1
  Al  Al19  1  0.877723  0.877723  0.357393  1
  Al  Al20  1  0.887161  0.357393  0.877723  1
  Al  Al21  1  0.357393  0.887161  0.877723  1
  Pd  Pd22  1  0.000000  0.000000  0.500000  1
  Pd  Pd23  1  0.500000  0.500000  0.000000  1
  Rh  Rh24  1  0.000000  0.000000  0.000000  1
  Rh  Rh25  1  0.500000  0.000000  0.000000  1
  Rh  Rh26  1  0.000000  0.500000  0.500000  1
  Rh  Rh27  1  0.000000  0.500000  0.000000  1
  Rh  Rh28  1  0.500000  0.000000  0.500000  1
