# generated using pymatgen
data_Tm6Zn16Au7S
_symmetry_space_group_name_H-M   'P 1'
_cell_length_a   9.09967073
_cell_length_b   9.10668787
_cell_length_c   9.10672700
_cell_angle_alpha   60.00007944
_cell_angle_beta   59.97674877
_cell_angle_gamma   59.97637108
_symmetry_Int_Tables_number   1
_chemical_formula_structural   Tm6Zn16Au7S
_chemical_formula_sum   'Tm6 Zn16 Au7 S1'
_cell_volume   533.43284086
_cell_formula_units_Z   1
loop_
 _symmetry_equiv_pos_site_id
 _symmetry_equiv_pos_as_xyz
  1  'x, y, z'
loop_
 _atom_site_type_symbol
 _atom_site_label
 _atom_site_symmetry_multiplicity
 _atom_site_fract_x
 _atom_site_fract_y
 _atom_site_fract_z
 _atom_site_occupancy
  Tm  Tm0  1  0.714347  0.286774  0.286812  1
  Tm  Tm1  1  0.285634  0.710772  0.710740  1
  Tm  Tm2  1  0.285616  0.710734  0.292874  1
  Tm  Tm3  1  0.714377  0.286821  0.712034  1
  Tm  Tm4  1  0.285623  0.292863  0.710720  1
  Tm  Tm5  1  0.714362  0.712049  0.286839  1
  Zn  Zn6  1  0.366983  0.877671  0.877677  1
  Zn  Zn7  1  0.498423  0.998300  0.998303  1
  Zn  Zn8  1  0.999268  0.499412  0.499414  1
  Zn  Zn9  1  0.999271  0.499410  0.001912  1
  Zn  Zn10  1  0.498421  0.998306  0.504972  1
  Zn  Zn11  1  0.999271  0.001911  0.499412  1
  Zn  Zn12  1  0.498421  0.504973  0.998307  1
  Zn  Zn13  1  0.330963  0.332004  0.332005  1
  Zn  Zn14  1  0.668330  0.668613  0.668617  1
  Zn  Zn15  1  0.330971  0.332007  0.005019  1
  Zn  Zn16  1  0.330968  0.005023  0.332007  1
  Zn  Zn17  1  0.668319  0.668615  0.994457  1
  Zn  Zn18  1  0.668322  0.994453  0.668616  1
  Zn  Zn19  1  0.007197  0.330936  0.330939  1
  Zn  Zn20  1  0.992433  0.669188  0.669186  1
  Zn  Zn21  1  0.998114  0.000629  0.000632  1
  Au  Au22  1  0.126580  0.117870  0.117848  1
  Au  Au23  1  0.877233  0.878139  0.878157  1
  Au  Au24  1  0.126542  0.117861  0.637713  1
  Au  Au25  1  0.126553  0.637709  0.117847  1
  Au  Au26  1  0.877249  0.878157  0.366459  1
  Au  Au27  1  0.877238  0.366462  0.878170  1
  Au  Au28  1  0.629901  0.123361  0.123342  1
  S  S29  1  0.503071  0.498975  0.498976  1
