# generated using pymatgen
data_Th10AgSn5Bi2
_symmetry_space_group_name_H-M   'P 1'
_cell_length_a   9.67218174
_cell_length_b   9.66300504
_cell_length_c   6.64091051
_cell_angle_alpha   89.97753845
_cell_angle_beta   90.04469561
_cell_angle_gamma   120.03306176
_symmetry_Int_Tables_number   1
_chemical_formula_structural   Th10AgSn5Bi2
_chemical_formula_sum   'Th10 Ag1 Sn5 Bi2'
_cell_volume   537.34102437
_cell_formula_units_Z   1
loop_
 _symmetry_equiv_pos_site_id
 _symmetry_equiv_pos_as_xyz
  1  'x, y, z'
loop_
 _atom_site_type_symbol
 _atom_site_label
 _atom_site_symmetry_multiplicity
 _atom_site_fract_x
 _atom_site_fract_y
 _atom_site_fract_z
 _atom_site_occupancy
  Th  Th0  1  0.004154  0.727050  0.750764  1
  Th  Th1  1  0.277110  0.272946  0.750764  1
  Th  Th2  1  0.333818  0.669849  0.496624  1
  Th  Th3  1  0.663969  0.330151  0.496624  1
  Th  Th4  1  0.723458  0.723368  0.249399  1
  Th  Th5  1  0.722230  0.000003  0.750206  1
  Th  Th6  1  0.000082  0.276629  0.249399  1
  Th  Th7  1  0.276913  0.000005  0.249542  1
  Th  Th8  1  0.333887  0.669917  0.002992  1
  Th  Th9  1  0.663971  0.330083  0.002993  1
  Ag  Ag10  1  0.999602  0.000000  0.002153  1
  Sn  Sn11  1  0.379756  0.000012  0.750600  1
  Sn  Sn12  1  0.621660  0.000007  0.248812  1
  Sn  Sn13  1  0.378418  0.378687  0.249177  1
  Sn  Sn14  1  0.999712  0.621308  0.249172  1
  Sn  Sn15  1  0.999375  0.000000  0.499598  1
  Bi  Bi16  1  0.620837  0.619765  0.750591  1
  Bi  Bi17  1  0.001049  0.380221  0.750592  1
