# generated using pymatgen
data_LuSiP3(RuRh)3
_symmetry_space_group_name_H-M   'P 1'
_cell_length_a   6.99794200
_cell_length_b   6.99794326
_cell_length_c   3.70949400
_cell_angle_alpha   90.00000000
_cell_angle_beta   90.00000000
_cell_angle_gamma   119.99999405
_symmetry_Int_Tables_number   1
_chemical_formula_structural   LuSiP3(RuRh)3
_chemical_formula_sum   'Lu1 Si1 P3 Ru3 Rh3'
_cell_volume   157.32077825
_cell_formula_units_Z   1
loop_
 _symmetry_equiv_pos_site_id
 _symmetry_equiv_pos_as_xyz
  1  'x, y, z'
loop_
 _atom_site_type_symbol
 _atom_site_label
 _atom_site_symmetry_multiplicity
 _atom_site_fract_x
 _atom_site_fract_y
 _atom_site_fract_z
 _atom_site_occupancy
  Lu  Lu0  1  0.333333  0.666667  0.000000  1
  Si  Si1  1  0.666667  0.333333  0.000000  1
  P  P2  1  0.721215  0.860607  0.500000  1
  P  P3  1  0.139393  0.278785  0.500000  1
  P  P4  1  0.139393  0.860607  0.500000  1
  Ru  Ru5  1  0.261391  0.130695  0.000000  1
  Ru  Ru6  1  0.869305  0.738609  0.000000  1
  Ru  Ru7  1  0.869305  0.130695  0.000000  1
  Rh  Rh8  1  0.945203  0.472601  0.500000  1
  Rh  Rh9  1  0.527399  0.054797  0.500000  1
  Rh  Rh10  1  0.527399  0.472601  0.500000  1
