# generated using pymatgen
data_CaNd16(HoGa4)3
_symmetry_space_group_name_H-M   'P 1'
_cell_length_a   7.81901300
_cell_length_b   7.81901300
_cell_length_c   14.67814000
_cell_angle_alpha   90.00000000
_cell_angle_beta   90.00000000
_cell_angle_gamma   90.00000000
_symmetry_Int_Tables_number   1
_chemical_formula_structural   CaNd16(HoGa4)3
_chemical_formula_sum   'Ca1 Nd16 Ho3 Ga12'
_cell_volume   897.37692108
_cell_formula_units_Z   1
loop_
 _symmetry_equiv_pos_site_id
 _symmetry_equiv_pos_as_xyz
  1  'x, y, z'
loop_
 _atom_site_type_symbol
 _atom_site_label
 _atom_site_symmetry_multiplicity
 _atom_site_fract_x
 _atom_site_fract_y
 _atom_site_fract_z
 _atom_site_occupancy
  Ca  Ca0  1  0.000000  0.500000  0.768278  1
  Nd  Nd1  1  0.681540  0.660882  0.602220  1
  Nd  Nd2  1  0.683642  0.339785  0.104156  1
  Nd  Nd3  1  0.817121  0.839829  0.396308  1
  Nd  Nd4  1  0.183606  0.838418  0.897452  1
  Nd  Nd5  1  0.318460  0.339118  0.602220  1
  Nd  Nd6  1  0.316358  0.660215  0.104156  1
  Nd  Nd7  1  0.182879  0.160171  0.396308  1
  Nd  Nd8  1  0.816394  0.161582  0.897452  1
  Nd  Nd9  1  0.660171  0.317121  0.396308  1
  Nd  Nd10  1  0.338418  0.316394  0.897452  1
  Nd  Nd11  1  0.160882  0.818460  0.602220  1
  Nd  Nd12  1  0.839785  0.816358  0.104156  1
  Nd  Nd13  1  0.339829  0.682879  0.396308  1
  Nd  Nd14  1  0.661582  0.683606  0.897452  1
  Nd  Nd15  1  0.839118  0.181540  0.602220  1
  Nd  Nd16  1  0.160215  0.183642  0.104156  1
  Ho  Ho17  1  0.000000  0.500000  0.275191  1
  Ho  Ho18  1  0.500000  0.000000  0.223544  1
  Ho  Ho19  1  0.500000  0.000000  0.724502  1
  Ga  Ga20  1  0.000000  0.500000  0.488464  1
  Ga  Ga21  1  0.000000  0.500000  0.993098  1
  Ga  Ga22  1  0.500000  0.000000  0.510947  1
  Ga  Ga23  1  0.500000  0.000000  0.012256  1
  Ga  Ga24  1  0.876161  0.884017  0.750504  1
  Ga  Ga25  1  0.878863  0.122014  0.250290  1
  Ga  Ga26  1  0.622014  0.621137  0.250290  1
  Ga  Ga27  1  0.384017  0.623839  0.750504  1
  Ga  Ga28  1  0.123839  0.115983  0.750504  1
  Ga  Ga29  1  0.121137  0.877986  0.250290  1
  Ga  Ga30  1  0.377986  0.378863  0.250290  1
  Ga  Ga31  1  0.615983  0.376161  0.750504  1
