# generated using pymatgen
data_Tb2Y3Er(Al8Ga)2
_symmetry_space_group_name_H-M   'P 1'
_cell_length_a   14.48674699
_cell_length_b   14.48529299
_cell_length_c   14.48529365
_cell_angle_alpha   24.62241717
_cell_angle_beta   24.63179590
_cell_angle_gamma   24.63180893
_symmetry_Int_Tables_number   1
_chemical_formula_structural   Tb2Y3Er(Al8Ga)2
_chemical_formula_sum   'Tb2 Y3 Er1 Al16 Ga2'
_cell_volume   464.20468570
_cell_formula_units_Z   1
loop_
 _symmetry_equiv_pos_site_id
 _symmetry_equiv_pos_as_xyz
  1  'x, y, z'
loop_
 _atom_site_type_symbol
 _atom_site_label
 _atom_site_symmetry_multiplicity
 _atom_site_fract_x
 _atom_site_fract_y
 _atom_site_fract_z
 _atom_site_occupancy
  Tb  Tb0  1  0.001613  0.999798  0.999798  1
  Tb  Tb1  1  0.501619  0.499908  0.499909  1
  Y  Y2  1  0.109277  0.108133  0.108134  1
  Y  Y3  1  0.890273  0.891617  0.891617  1
  Y  Y4  1  0.389988  0.391417  0.391417  1
  Er  Er5  1  0.609378  0.608034  0.608032  1
  Al  Al6  1  0.367381  0.369829  0.928151  1
  Al  Al7  1  0.866572  0.869208  0.428813  1
  Al  Al8  1  0.367381  0.928151  0.369829  1
  Al  Al9  1  0.866572  0.428813  0.869208  1
  Al  Al10  1  0.573714  0.130653  0.130653  1
  Al  Al11  1  0.073836  0.630582  0.630582  1
  Al  Al12  1  0.131913  0.130483  0.573318  1
  Al  Al13  1  0.631831  0.630365  0.073518  1
  Al  Al14  1  0.131914  0.573318  0.130483  1
  Al  Al15  1  0.631831  0.073518  0.630365  1
  Al  Al16  1  0.501120  0.499838  0.998007  1
  Al  Al17  1  0.000684  0.999422  0.499788  1
  Al  Al18  1  0.501121  0.998007  0.499838  1
  Al  Al19  1  0.000684  0.499788  0.999422  1
  Al  Al20  1  0.998985  0.500196  0.500196  1
  Al  Al21  1  0.500834  0.999749  0.999749  1
  Ga  Ga22  1  0.925397  0.369999  0.369999  1
  Ga  Ga23  1  0.426082  0.869171  0.869171  1
