# generated using pymatgen
data_Gd2TmOsO7
_symmetry_space_group_name_H-M   'P 1'
_cell_length_a   6.48381019
_cell_length_b   6.48381020
_cell_length_c   7.44177023
_cell_angle_alpha   90.07706577
_cell_angle_beta   90.07706802
_cell_angle_gamma   108.74821855
_symmetry_Int_Tables_number   1
_chemical_formula_structural   Gd2TmOsO7
_chemical_formula_sum   'Gd4 Tm2 Os2 O14'
_cell_volume   296.24989377
_cell_formula_units_Z   2
loop_
 _symmetry_equiv_pos_site_id
 _symmetry_equiv_pos_as_xyz
  1  'x, y, z'
loop_
 _atom_site_type_symbol
 _atom_site_label
 _atom_site_symmetry_multiplicity
 _atom_site_fract_x
 _atom_site_fract_y
 _atom_site_fract_z
 _atom_site_occupancy
  Gd  Gd0  1  0.466375  0.000774  0.255353  1
  Gd  Gd1  1  0.999226  0.533625  0.244647  1
  Gd  Gd2  1  0.476653  0.477630  0.996933  1
  Gd  Gd3  1  0.522370  0.523347  0.503067  1
  Tm  Tm4  1  0.534161  0.999943  0.755611  1
  Tm  Tm5  1  0.000057  0.465839  0.744389  1
  Os  Os6  1  0.999141  0.999167  0.502743  1
  Os  Os7  1  0.000833  0.000859  0.997257  1
  O  O8  1  0.927523  0.072477  0.750000  1
  O  O9  1  0.643809  0.356191  0.750000  1
  O  O10  1  0.310192  0.056285  0.541736  1
  O  O11  1  0.943715  0.689808  0.958264  1
  O  O12  1  0.629713  0.370287  0.250000  1
  O  O13  1  0.924773  0.676941  0.531589  1
  O  O14  1  0.323059  0.075227  0.968411  1
  O  O15  1  0.077930  0.325088  0.019830  1
  O  O16  1  0.674912  0.922070  0.480170  1
  O  O17  1  0.365668  0.634332  0.750000  1
  O  O18  1  0.686461  0.937716  0.029306  1
  O  O19  1  0.062284  0.313539  0.470694  1
  O  O20  1  0.363219  0.636781  0.250000  1
  O  O21  1  0.067927  0.932073  0.250000  1
