# generated using pymatgen
data_Tb3Ho9Ga2TcNi3
_symmetry_space_group_name_H-M   'P 1'
_cell_length_a   8.32324111
_cell_length_b   8.31942759
_cell_length_c   8.31941608
_cell_angle_alpha   112.84904646
_cell_angle_beta   109.60077763
_cell_angle_gamma   106.01873739
_symmetry_Int_Tables_number   1
_chemical_formula_structural   Tb3Ho9Ga2TcNi3
_chemical_formula_sum   'Tb3 Ho9 Ga2 Tc1 Ni3'
_cell_volume   441.98167114
_cell_formula_units_Z   1
loop_
 _symmetry_equiv_pos_site_id
 _symmetry_equiv_pos_as_xyz
  1  'x, y, z'
loop_
 _atom_site_type_symbol
 _atom_site_label
 _atom_site_symmetry_multiplicity
 _atom_site_fract_x
 _atom_site_fract_y
 _atom_site_fract_z
 _atom_site_occupancy
  Tb  Tb0  1  0.442549  0.248539  0.194010  1
  Tb  Tb1  1  0.573282  0.767943  0.805340  1
  Tb  Tb2  1  0.037249  0.231779  0.805472  1
  Ho  Ho3  1  0.946206  0.751150  0.195055  1
  Ho  Ho4  1  0.184731  0.280121  0.465510  1
  Ho  Ho5  1  0.826343  0.721502  0.547160  1
  Ho  Ho6  1  0.184731  0.719220  0.904610  1
  Ho  Ho7  1  0.826343  0.279184  0.104841  1
  Ho  Ho8  1  0.325075  0.638758  0.306999  1
  Ho  Ho9  1  0.669559  0.362147  0.687642  1
  Ho  Ho10  1  0.325075  0.018077  0.686317  1
  Ho  Ho11  1  0.669559  0.981917  0.307413  1
  Ga  Ga12  1  0.494431  0.500862  0.993569  1
  Ga  Ga13  1  0.017184  0.998450  0.018735  1
  Tc  Tc14  1  0.325442  0.999883  0.325559  1
  Ni  Ni15  1  0.652250  0.999633  0.652617  1
  Ni  Ni16  1  0.117823  0.618596  0.499228  1
  Ni  Ni17  1  0.882165  0.382241  0.499925  1
