# generated using pymatgen
data_RbLa(GaO2)4
_symmetry_space_group_name_H-M   'P 1'
_cell_length_a   6.75074806
_cell_length_b   6.75074777
_cell_length_c   6.75074800
_cell_angle_alpha   103.92985244
_cell_angle_beta   93.33623165
_cell_angle_gamma   134.51298418
_symmetry_Int_Tables_number   1
_chemical_formula_structural   RbLa(GaO2)4
_chemical_formula_sum   'Rb1 La1 Ga4 O8'
_cell_volume   201.15565583
_cell_formula_units_Z   1
loop_
 _symmetry_equiv_pos_site_id
 _symmetry_equiv_pos_as_xyz
  1  'x, y, z'
loop_
 _atom_site_type_symbol
 _atom_site_label
 _atom_site_symmetry_multiplicity
 _atom_site_fract_x
 _atom_site_fract_y
 _atom_site_fract_z
 _atom_site_occupancy
  Rb  Rb0  1  0.985678  0.985678  0.000000  1
  La  La1  1  0.074598  0.574598  0.500000  1
  Ga  Ga2  1  0.374852  0.834820  0.121915  1
  Ga  Ga3  1  0.712904  0.834820  0.459968  1
  Ga  Ga4  1  0.374852  0.252937  0.540032  1
  Ga  Ga5  1  0.712905  0.252937  0.878084  1
  O  O6  1  0.727072  0.201262  0.133101  1
  O  O7  1  0.413528  0.623473  0.209946  1
  O  O8  1  0.239018  0.913598  0.325421  1
  O  O9  1  0.068161  0.201263  0.474189  1
  O  O10  1  0.727072  0.593971  0.525811  1
  O  O11  1  0.588177  0.913598  0.674579  1
  O  O12  1  0.413529  0.203583  0.790054  1
  O  O13  1  0.068161  0.593972  0.866899  1
