# generated using pymatgen
data_Yb6TmLuSb6
_symmetry_space_group_name_H-M   'P 1'
_cell_length_a   8.15559076
_cell_length_b   8.13535495
_cell_length_c   8.07274605
_cell_angle_alpha   109.45358721
_cell_angle_beta   109.54705849
_cell_angle_gamma   109.77516472
_symmetry_Int_Tables_number   1
_chemical_formula_structural   Yb6TmLuSb6
_chemical_formula_sum   'Yb6 Tm1 Lu1 Sb6'
_cell_volume   410.46137175
_cell_formula_units_Z   1
loop_
 _symmetry_equiv_pos_site_id
 _symmetry_equiv_pos_as_xyz
  1  'x, y, z'
loop_
 _atom_site_type_symbol
 _atom_site_label
 _atom_site_symmetry_multiplicity
 _atom_site_fract_x
 _atom_site_fract_y
 _atom_site_fract_z
 _atom_site_occupancy
  Yb  Yb0  1  0.003975  0.354530  0.499372  1
  Yb  Yb1  1  0.350623  0.494486  0.995997  1
  Yb  Yb2  1  0.004493  0.855084  0.500645  1
  Yb  Yb3  1  0.854584  0.498532  0.003926  1
  Yb  Yb4  1  0.499268  0.004050  0.857416  1
  Yb  Yb5  1  0.141774  0.146635  0.142528  1
  Tm  Tm6  1  0.498869  0.000071  0.353231  1
  Lu  Lu7  1  0.645583  0.646738  0.646665  1
  Sb  Sb8  1  0.862901  0.112989  0.737196  1
  Sb  Sb9  1  0.384134  0.253872  0.619858  1
  Sb  Sb10  1  0.121763  0.751519  0.879815  1
  Sb  Sb11  1  0.741984  0.871592  0.119842  1
  Sb  Sb12  1  0.264345  0.633625  0.380385  1
  Sb  Sb13  1  0.625704  0.376276  0.263123  1
