# generated using pymatgen
data_SiAsSe
_symmetry_space_group_name_H-M   'P 1'
_cell_length_a   4.98329000
_cell_length_b   10.03008600
_cell_length_c   13.10653000
_cell_angle_alpha   90.00000000
_cell_angle_beta   90.00000000
_cell_angle_gamma   90.00000000
_symmetry_Int_Tables_number   1
_chemical_formula_structural   SiAsSe
_chemical_formula_sum   'Si8 As8 Se8'
_cell_volume   655.10142501
_cell_formula_units_Z   8
loop_
 _symmetry_equiv_pos_site_id
 _symmetry_equiv_pos_as_xyz
  1  'x, y, z'
loop_
 _atom_site_type_symbol
 _atom_site_label
 _atom_site_symmetry_multiplicity
 _atom_site_fract_x
 _atom_site_fract_y
 _atom_site_fract_z
 _atom_site_occupancy
  Si  Si0  1  0.250000  0.000000  0.765130  1
  Si  Si1  1  0.250000  0.500000  0.734870  1
  Si  Si2  1  0.750000  0.000000  0.234870  1
  Si  Si3  1  0.750000  0.500000  0.265130  1
  Si  Si4  1  0.298087  0.250000  0.250000  1
  Si  Si5  1  0.201913  0.750000  0.250000  1
  Si  Si6  1  0.701913  0.750000  0.750000  1
  Si  Si7  1  0.798087  0.250000  0.750000  1
  As  As8  1  0.071365  0.411027  0.143811  1
  As  As9  1  0.071365  0.088973  0.356189  1
  As  As10  1  0.428635  0.911027  0.356189  1
  As  As11  1  0.428635  0.588973  0.143811  1
  As  As12  1  0.928635  0.588973  0.856189  1
  As  As13  1  0.928635  0.911027  0.643811  1
  As  As14  1  0.571365  0.088973  0.643811  1
  As  As15  1  0.571365  0.411027  0.856189  1
  Se  Se16  1  0.937708  0.847003  0.124762  1
  Se  Se17  1  0.937708  0.652997  0.375238  1
  Se  Se18  1  0.562292  0.347003  0.375238  1
  Se  Se19  1  0.562292  0.152997  0.124762  1
  Se  Se20  1  0.062292  0.152997  0.875238  1
  Se  Se21  1  0.062292  0.347003  0.624762  1
  Se  Se22  1  0.437708  0.652997  0.624762  1
  Se  Se23  1  0.437708  0.847003  0.875238  1
