# generated using pymatgen
data_Er8Sn(Pd2Pt)8
_symmetry_space_group_name_H-M   'P 1'
_cell_length_a   8.39538700
_cell_length_b   8.39326600
_cell_length_c   8.37687800
_cell_angle_alpha   90.00000000
_cell_angle_beta   90.00000000
_cell_angle_gamma   90.00000000
_symmetry_Int_Tables_number   1
_chemical_formula_structural   Er8Sn(Pd2Pt)8
_chemical_formula_sum   'Er8 Sn1 Pd16 Pt8'
_cell_volume   590.27433145
_cell_formula_units_Z   1
loop_
 _symmetry_equiv_pos_site_id
 _symmetry_equiv_pos_as_xyz
  1  'x, y, z'
loop_
 _atom_site_type_symbol
 _atom_site_label
 _atom_site_symmetry_multiplicity
 _atom_site_fract_x
 _atom_site_fract_y
 _atom_site_fract_z
 _atom_site_occupancy
  Er  Er0  1  0.253508  0.254217  0.253300  1
  Er  Er1  1  0.746115  0.745695  0.746322  1
  Er  Er2  1  0.746115  0.745695  0.253678  1
  Er  Er3  1  0.746492  0.254217  0.746700  1
  Er  Er4  1  0.253508  0.254217  0.746700  1
  Er  Er5  1  0.253885  0.745695  0.253678  1
  Er  Er6  1  0.253885  0.745695  0.746322  1
  Er  Er7  1  0.746492  0.254217  0.253300  1
  Sn  Sn8  1  0.000000  0.000618  0.000000  1
  Pd  Pd9  1  0.000000  0.734691  0.500000  1
  Pd  Pd10  1  0.500000  0.735831  0.000000  1
  Pd  Pd11  1  0.500000  0.999983  0.265080  1
  Pd  Pd12  1  0.265566  0.999979  0.500000  1
  Pd  Pd13  1  0.500000  0.999983  0.734920  1
  Pd  Pd14  1  0.734434  0.999979  0.500000  1
  Pd  Pd15  1  0.000000  0.500484  0.264787  1
  Pd  Pd16  1  0.000000  0.500484  0.735213  1
  Pd  Pd17  1  0.500000  0.499960  0.254177  1
  Pd  Pd18  1  0.500000  0.499960  0.745823  1
  Pd  Pd19  1  0.307202  0.999534  0.000000  1
  Pd  Pd20  1  0.692798  0.999534  0.000000  1
  Pd  Pd21  1  0.000000  0.307632  0.000000  1
  Pd  Pd22  1  0.000000  0.693353  0.000000  1
  Pd  Pd23  1  0.000000  0.999471  0.308722  1
  Pd  Pd24  1  0.000000  0.999471  0.691278  1
  Pt  Pt25  1  0.264365  0.500229  0.000000  1
  Pt  Pt26  1  0.735635  0.500229  0.000000  1
  Pt  Pt27  1  0.000000  0.265082  0.500000  1
  Pt  Pt28  1  0.500000  0.264116  0.000000  1
  Pt  Pt29  1  0.254142  0.499930  0.500000  1
  Pt  Pt30  1  0.745858  0.499930  0.500000  1
  Pt  Pt31  1  0.500000  0.254280  0.500000  1
  Pt  Pt32  1  0.500000  0.745612  0.500000  1
