# generated using pymatgen
data_Ca3Hg(Rh2O7)2
_symmetry_space_group_name_H-M   'P 1'
_cell_length_a   7.32066040
_cell_length_b   7.21186808
_cell_length_c   7.32066000
_cell_angle_alpha   59.49972079
_cell_angle_beta   60.00000183
_cell_angle_gamma   59.49971750
_symmetry_Int_Tables_number   1
_chemical_formula_structural   Ca3Hg(Rh2O7)2
_chemical_formula_sum   'Ca3 Hg1 Rh4 O14'
_cell_volume   271.21114394
_cell_formula_units_Z   1
loop_
 _symmetry_equiv_pos_site_id
 _symmetry_equiv_pos_as_xyz
  1  'x, y, z'
loop_
 _atom_site_type_symbol
 _atom_site_label
 _atom_site_symmetry_multiplicity
 _atom_site_fract_x
 _atom_site_fract_y
 _atom_site_fract_z
 _atom_site_occupancy
  Ca  Ca0  1  0.625000  0.625000  0.125000  1
  Ca  Ca1  1  0.125000  0.625000  0.625000  1
  Ca  Ca2  1  0.625000  0.625000  0.625000  1
  Hg  Hg3  1  0.625000  0.125000  0.625000  1
  Rh  Rh4  1  0.625000  0.125000  0.125000  1
  Rh  Rh5  1  0.125000  0.625000  0.125000  1
  Rh  Rh6  1  0.125000  0.125000  0.625000  1
  Rh  Rh7  1  0.125000  0.125000  0.125000  1
  O  O8  1  0.194334  0.200311  0.802677  1
  O  O9  1  0.202554  0.796189  0.202554  1
  O  O10  1  0.447323  0.049689  0.055666  1
  O  O11  1  0.202554  0.796189  0.798703  1
  O  O12  1  0.047446  0.453811  0.451297  1
  O  O13  1  0.798703  0.796189  0.202554  1
  O  O14  1  0.451297  0.453811  0.047446  1
  O  O15  1  0.508049  0.475851  0.508049  1
  O  O16  1  0.055666  0.049689  0.447323  1
  O  O17  1  0.447323  0.049689  0.447323  1
  O  O18  1  0.047446  0.453811  0.047446  1
  O  O19  1  0.741951  0.774149  0.741951  1
  O  O20  1  0.802677  0.200311  0.802677  1
  O  O21  1  0.802677  0.200311  0.194334  1
