# generated using pymatgen
data_Yb3(HoSn2)2
_symmetry_space_group_name_H-M   'P 1'
_cell_length_a   7.83030800
_cell_length_b   8.41466800
_cell_length_c   16.02732600
_cell_angle_alpha   90.00000000
_cell_angle_beta   90.00000000
_cell_angle_gamma   90.00000000
_symmetry_Int_Tables_number   1
_chemical_formula_structural   Yb3(HoSn2)2
_chemical_formula_sum   'Yb12 Ho8 Sn16'
_cell_volume   1056.03156942
_cell_formula_units_Z   4
loop_
 _symmetry_equiv_pos_site_id
 _symmetry_equiv_pos_as_xyz
  1  'x, y, z'
loop_
 _atom_site_type_symbol
 _atom_site_label
 _atom_site_symmetry_multiplicity
 _atom_site_fract_x
 _atom_site_fract_y
 _atom_site_fract_z
 _atom_site_occupancy
  Yb  Yb0  1  0.499066  0.686677  0.593256  1
  Yb  Yb1  1  0.999066  0.813323  0.906744  1
  Yb  Yb2  1  0.500934  0.313323  0.093256  1
  Yb  Yb3  1  0.000934  0.186677  0.406744  1
  Yb  Yb4  1  0.500934  0.313323  0.406744  1
  Yb  Yb5  1  0.000934  0.186677  0.093256  1
  Yb  Yb6  1  0.499066  0.686677  0.906744  1
  Yb  Yb7  1  0.999066  0.813323  0.593256  1
  Yb  Yb8  1  0.827741  0.511180  0.750000  1
  Yb  Yb9  1  0.327741  0.988820  0.750000  1
  Yb  Yb10  1  0.172259  0.488820  0.250000  1
  Yb  Yb11  1  0.672259  0.011180  0.250000  1
  Ho  Ho12  1  0.666827  0.167304  0.622126  1
  Ho  Ho13  1  0.166827  0.332696  0.877874  1
  Ho  Ho14  1  0.333173  0.832696  0.122126  1
  Ho  Ho15  1  0.833173  0.667304  0.377874  1
  Ho  Ho16  1  0.333173  0.832696  0.377874  1
  Ho  Ho17  1  0.833173  0.667304  0.122126  1
  Ho  Ho18  1  0.666827  0.167304  0.877874  1
  Ho  Ho19  1  0.166827  0.332696  0.622126  1
  Sn  Sn20  1  0.673982  0.964281  0.460345  1
  Sn  Sn21  1  0.173982  0.535719  0.039655  1
  Sn  Sn22  1  0.326018  0.035719  0.960345  1
  Sn  Sn23  1  0.826018  0.464281  0.539655  1
  Sn  Sn24  1  0.326018  0.035719  0.539655  1
  Sn  Sn25  1  0.826018  0.464281  0.960345  1
  Sn  Sn26  1  0.673982  0.964281  0.039655  1
  Sn  Sn27  1  0.173982  0.535719  0.460345  1
  Sn  Sn28  1  0.463094  0.374982  0.750000  1
  Sn  Sn29  1  0.963094  0.125018  0.750000  1
  Sn  Sn30  1  0.536906  0.625018  0.250000  1
  Sn  Sn31  1  0.036906  0.874982  0.250000  1
  Sn  Sn32  1  0.707602  0.873117  0.750000  1
  Sn  Sn33  1  0.207602  0.626883  0.750000  1
  Sn  Sn34  1  0.292398  0.126883  0.250000  1
  Sn  Sn35  1  0.792398  0.373117  0.250000  1
