# generated using pymatgen
data_Eu2Al19SiRu4
_symmetry_space_group_name_H-M   'P 1'
_cell_length_a   6.88185784
_cell_length_b   6.91173219
_cell_length_c   9.13534800
_cell_angle_alpha   90.00000000
_cell_angle_beta   90.00000000
_cell_angle_gamma   96.31048782
_symmetry_Int_Tables_number   1
_chemical_formula_structural   Eu2Al19SiRu4
_chemical_formula_sum   'Eu2 Al19 Si1 Ru4'
_cell_volume   431.89505957
_cell_formula_units_Z   1
loop_
 _symmetry_equiv_pos_site_id
 _symmetry_equiv_pos_as_xyz
  1  'x, y, z'
loop_
 _atom_site_type_symbol
 _atom_site_label
 _atom_site_symmetry_multiplicity
 _atom_site_fract_x
 _atom_site_fract_y
 _atom_site_fract_z
 _atom_site_occupancy
  Eu  Eu0  1  0.876411  0.121792  0.750000  1
  Eu  Eu1  1  0.119867  0.876992  0.250000  1
  Al  Al2  1  0.773468  0.773683  0.999937  1
  Al  Al3  1  0.773468  0.773683  0.500063  1
  Al  Al4  1  0.225437  0.223835  0.998854  1
  Al  Al5  1  0.225437  0.223835  0.501146  1
  Al  Al6  1  0.622631  0.377822  0.945887  1
  Al  Al7  1  0.376240  0.622412  0.046432  1
  Al  Al8  1  0.622631  0.377822  0.554113  1
  Al  Al9  1  0.376240  0.622412  0.453568  1
  Al  Al10  1  0.837875  0.159555  0.399848  1
  Al  Al11  1  0.157444  0.840362  0.601506  1
  Al  Al12  1  0.837875  0.159555  0.100152  1
  Al  Al13  1  0.157444  0.840362  0.898494  1
  Al  Al14  1  0.139275  0.412190  0.250000  1
  Al  Al15  1  0.585718  0.860903  0.250000  1
  Al  Al16  1  0.865284  0.589629  0.750000  1
  Al  Al17  1  0.518271  0.783024  0.750000  1
  Al  Al18  1  0.778036  0.519858  0.250000  1
  Al  Al19  1  0.478816  0.219959  0.250000  1
  Al  Al20  1  0.228082  0.478225  0.750000  1
  Si  Si21  1  0.428072  0.147363  0.750000  1
  Ru  Ru22  1  0.498576  0.001313  0.995083  1
  Ru  Ru23  1  0.999412  0.496050  0.998152  1
  Ru  Ru24  1  0.498576  0.001313  0.504917  1
  Ru  Ru25  1  0.999412  0.496050  0.501848  1
