# generated using pymatgen
data_Ho3TmPa2(Co3P2)6
_symmetry_space_group_name_H-M   'P 1'
_cell_length_a   3.70925300
_cell_length_b   10.51501400
_cell_length_c   12.13061400
_cell_angle_alpha   90.00240065
_cell_angle_beta   90.00000000
_cell_angle_gamma   90.00000000
_symmetry_Int_Tables_number   1
_chemical_formula_structural   Ho3TmPa2(Co3P2)6
_chemical_formula_sum   'Ho3 Tm1 Pa2 Co18 P12'
_cell_volume   473.12848437
_cell_formula_units_Z   1
loop_
 _symmetry_equiv_pos_site_id
 _symmetry_equiv_pos_as_xyz
  1  'x, y, z'
loop_
 _atom_site_type_symbol
 _atom_site_label
 _atom_site_symmetry_multiplicity
 _atom_site_fract_x
 _atom_site_fract_y
 _atom_site_fract_z
 _atom_site_occupancy
  Ho  Ho0  1  0.500000  0.184556  0.205081  1
  Ho  Ho1  1  0.000000  0.684903  0.794900  1
  Ho  Ho2  1  0.000000  0.315170  0.795208  1
  Tm  Tm3  1  0.500000  0.815327  0.205050  1
  Pa  Pa4  1  0.000000  0.499968  0.528886  1
  Pa  Pa5  1  0.500000  0.999659  0.470814  1
  Co  Co6  1  0.000000  0.500308  0.984967  1
  Co  Co7  1  0.500000  0.999672  0.015864  1
  Co  Co8  1  0.500000  0.301202  0.431544  1
  Co  Co9  1  0.500000  0.698801  0.430949  1
  Co  Co10  1  0.000000  0.198605  0.568419  1
  Co  Co11  1  0.000000  0.801350  0.567974  1
  Co  Co12  1  0.500000  0.880045  0.710606  1
  Co  Co13  1  0.500000  0.119934  0.710855  1
  Co  Co14  1  0.000000  0.620599  0.288643  1
  Co  Co15  1  0.000000  0.380175  0.289336  1
  Co  Co16  1  0.500000  0.333975  0.993805  1
  Co  Co17  1  0.500000  0.666416  0.994053  1
  Co  Co18  1  0.000000  0.165790  0.006596  1
  Co  Co19  1  0.000000  0.833937  0.006889  1
  Co  Co20  1  0.500000  0.500138  0.158398  1
  Co  Co21  1  0.000000  0.999813  0.841620  1
  Co  Co22  1  0.500000  0.500092  0.696834  1
  Co  Co23  1  0.000000  0.999521  0.302786  1
  P  P24  1  0.500000  0.306885  0.617449  1
  P  P25  1  0.500000  0.693167  0.617058  1
  P  P26  1  0.000000  0.192809  0.382571  1
  P  P27  1  0.000000  0.806975  0.381683  1
  P  P28  1  0.500000  0.500206  0.879150  1
  P  P29  1  0.000000  0.999382  0.121457  1
  P  P30  1  0.500000  0.847466  0.894534  1
  P  P31  1  0.500000  0.152421  0.894825  1
  P  P32  1  0.000000  0.653417  0.105839  1
  P  P33  1  0.000000  0.347323  0.105478  1
  P  P34  1  0.500000  0.500003  0.343307  1
  P  P35  1  0.000000  0.999991  0.656570  1
