# generated using pymatgen
data_Sr3LaP3
_symmetry_space_group_name_H-M   'P 1'
_cell_length_a   7.98564989
_cell_length_b   7.98565062
_cell_length_c   8.01872412
_cell_angle_alpha   109.49350215
_cell_angle_beta   109.49351096
_cell_angle_gamma   109.19492304
_symmetry_Int_Tables_number   1
_chemical_formula_structural   Sr3LaP3
_chemical_formula_sum   'Sr6 La2 P6'
_cell_volume   394.76333938
_cell_formula_units_Z   2
loop_
 _symmetry_equiv_pos_site_id
 _symmetry_equiv_pos_as_xyz
  1  'x, y, z'
loop_
 _atom_site_type_symbol
 _atom_site_label
 _atom_site_symmetry_multiplicity
 _atom_site_fract_x
 _atom_site_fract_y
 _atom_site_fract_z
 _atom_site_occupancy
  Sr  Sr0  1  0.998514  0.124695  0.495909  1
  Sr  Sr1  1  0.370812  0.368187  0.371190  1
  Sr  Sr2  1  0.624695  0.498514  0.995909  1
  Sr  Sr3  1  0.502484  0.003903  0.131988  1
  Sr  Sr4  1  0.868187  0.870812  0.871190  1
  Sr  Sr5  1  0.503903  0.002484  0.631988  1
  La  La6  1  0.001235  0.630428  0.500917  1
  La  La7  1  0.130428  0.501235  0.000917  1
  P  P8  1  0.885902  0.266899  0.131587  1
  P  P9  1  0.358809  0.623376  0.747518  1
  P  P10  1  0.123376  0.858809  0.247518  1
  P  P11  1  0.621626  0.743130  0.370891  1
  P  P12  1  0.243130  0.121626  0.870891  1
  P  P13  1  0.766899  0.385902  0.631587  1
