# generated using pymatgen
data_TbSm5Cd23Ge
_symmetry_space_group_name_H-M   'P 1'
_cell_length_a   10.03071917
_cell_length_b   10.03071809
_cell_length_c   10.03464900
_cell_angle_alpha   59.98703234
_cell_angle_beta   59.98703590
_cell_angle_gamma   60.02592459
_symmetry_Int_Tables_number   1
_chemical_formula_structural   TbSm5Cd23Ge
_chemical_formula_sum   'Tb1 Sm5 Cd23 Ge1'
_cell_volume   713.92259628
_cell_formula_units_Z   1
loop_
 _symmetry_equiv_pos_site_id
 _symmetry_equiv_pos_as_xyz
  1  'x, y, z'
loop_
 _atom_site_type_symbol
 _atom_site_label
 _atom_site_symmetry_multiplicity
 _atom_site_fract_x
 _atom_site_fract_y
 _atom_site_fract_z
 _atom_site_occupancy
  Tb  Tb0  1  0.794319  0.794319  0.205681  1
  Sm  Sm1  1  0.206174  0.793675  0.206325  1
  Sm  Sm2  1  0.793675  0.206174  0.206325  1
  Sm  Sm3  1  0.206352  0.206352  0.793648  1
  Sm  Sm4  1  0.793675  0.206174  0.793826  1
  Sm  Sm5  1  0.206174  0.793675  0.793826  1
  Cd  Cd6  1  0.836781  0.836781  0.487611  1
  Cd  Cd7  1  0.836899  0.489832  0.836634  1
  Cd  Cd8  1  0.489832  0.836899  0.836634  1
  Cd  Cd9  1  0.836781  0.836781  0.838825  1
  Cd  Cd10  1  0.163366  0.163366  0.510168  1
  Cd  Cd11  1  0.161175  0.512389  0.163219  1
  Cd  Cd12  1  0.512389  0.161175  0.163219  1
  Cd  Cd13  1  0.163366  0.163366  0.163101  1
  Cd  Cd14  1  0.622596  0.622596  0.133418  1
  Cd  Cd15  1  0.623737  0.132091  0.622087  1
  Cd  Cd16  1  0.132091  0.623737  0.622087  1
  Cd  Cd17  1  0.622596  0.622596  0.621393  1
  Cd  Cd18  1  0.377913  0.377913  0.867909  1
  Cd  Cd19  1  0.378607  0.866582  0.377404  1
  Cd  Cd20  1  0.866582  0.378607  0.377404  1
  Cd  Cd21  1  0.377913  0.377913  0.376263  1
  Cd  Cd22  1  0.999690  0.999690  0.500310  1
  Cd  Cd23  1  0.499961  0.999866  0.500039  1
  Cd  Cd24  1  0.999866  0.499961  0.500039  1
  Cd  Cd25  1  0.499690  0.499690  0.000310  1
  Cd  Cd26  1  0.999866  0.499961  0.000134  1
  Cd  Cd27  1  0.499961  0.999866  0.000134  1
  Cd  Cd28  1  0.499290  0.499290  0.500710  1
  Ge  Ge29  1  0.998683  0.998683  0.001317  1
