# generated using pymatgen
data_Tm2V3Co9Si2As5
_symmetry_space_group_name_H-M   'P 1'
_cell_length_a   3.73067400
_cell_length_b   9.33648587
_cell_length_c   9.36406305
_cell_angle_alpha   120.11006493
_cell_angle_beta   90.00000000
_cell_angle_gamma   90.00000000
_symmetry_Int_Tables_number   1
_chemical_formula_structural   Tm2V3Co9Si2As5
_chemical_formula_sum   'Tm2 V3 Co9 Si2 As5'
_cell_volume   282.15189161
_cell_formula_units_Z   1
loop_
 _symmetry_equiv_pos_site_id
 _symmetry_equiv_pos_as_xyz
  1  'x, y, z'
loop_
 _atom_site_type_symbol
 _atom_site_label
 _atom_site_symmetry_multiplicity
 _atom_site_fract_x
 _atom_site_fract_y
 _atom_site_fract_z
 _atom_site_occupancy
  Tm  Tm0  1  0.000000  0.667316  0.328087  1
  Tm  Tm1  1  0.500000  0.334437  0.668467  1
  V  V2  1  0.500000  0.787538  0.900627  1
  V  V3  1  0.500000  0.109856  0.211507  1
  V  V4  1  0.500000  0.099174  0.887143  1
  Co  Co5  1  0.000000  0.573256  0.947837  1
  Co  Co6  1  0.000000  0.372696  0.431342  1
  Co  Co7  1  0.000000  0.058303  0.627438  1
  Co  Co8  1  0.000000  0.877600  0.154789  1
  Co  Co9  1  0.000000  0.275320  0.120024  1
  Co  Co10  1  0.000000  0.844582  0.724701  1
  Co  Co11  1  0.500000  0.945943  0.379649  1
  Co  Co12  1  0.500000  0.437636  0.052541  1
  Co  Co13  1  0.500000  0.615854  0.566578  1
  Si  Si14  1  0.000000  0.999233  0.000241  1
  Si  Si15  1  0.500000  0.710205  0.116595  1
  As  As16  1  0.500000  0.409962  0.290597  1
  As  As17  1  0.500000  0.880253  0.588911  1
  As  As18  1  0.000000  0.587956  0.705649  1
  As  As19  1  0.000000  0.114323  0.411653  1
  As  As20  1  0.000000  0.298556  0.885622  1
