# generated using pymatgen
data_Sm7Y3(Sn3Br)2
_symmetry_space_group_name_H-M   'P 1'
_cell_length_a   9.33372900
_cell_length_b   9.33372975
_cell_length_c   6.71593300
_cell_angle_alpha   90.00000000
_cell_angle_beta   90.00000000
_cell_angle_gamma   120.00000090
_symmetry_Int_Tables_number   1
_chemical_formula_structural   Sm7Y3(Sn3Br)2
_chemical_formula_sum   'Sm7 Y3 Sn6 Br2'
_cell_volume   506.69590194
_cell_formula_units_Z   1
loop_
 _symmetry_equiv_pos_site_id
 _symmetry_equiv_pos_as_xyz
  1  'x, y, z'
loop_
 _atom_site_type_symbol
 _atom_site_label
 _atom_site_symmetry_multiplicity
 _atom_site_fract_x
 _atom_site_fract_y
 _atom_site_fract_z
 _atom_site_occupancy
  Sm  Sm0  1  0.267833  0.267901  0.749683  1
  Sm  Sm1  1  0.000068  0.732167  0.749683  1
  Sm  Sm2  1  0.732099  0.999932  0.749683  1
  Sm  Sm3  1  0.000068  0.267901  0.250317  1
  Sm  Sm4  1  0.732099  0.732167  0.250317  1
  Sm  Sm5  1  0.267833  0.999932  0.250317  1
  Sm  Sm6  1  0.666667  0.333333  0.000000  1
  Y  Y7  1  0.333333  0.666667  0.500000  1
  Y  Y8  1  0.666667  0.333333  0.500000  1
  Y  Y9  1  0.333333  0.666667  0.000000  1
  Sn  Sn10  1  0.610453  0.998701  0.250805  1
  Sn  Sn11  1  0.001299  0.389547  0.749195  1
  Sn  Sn12  1  0.388247  0.998701  0.749195  1
  Sn  Sn13  1  0.610453  0.611753  0.749195  1
  Sn  Sn14  1  0.001299  0.611753  0.250805  1
  Sn  Sn15  1  0.388247  0.389547  0.250805  1
  Br  Br16  1  0.000000  0.000000  0.000000  1
  Br  Br17  1  0.000000  0.000000  0.500000  1
