# generated using pymatgen
data_CaSm(Si2Rh3)2
_symmetry_space_group_name_H-M   'P 1'
_cell_length_a   6.66811281
_cell_length_b   6.66811124
_cell_length_c   6.66811270
_cell_angle_alpha   130.12181032
_cell_angle_beta   115.34307886
_cell_angle_gamma   85.84515305
_symmetry_Int_Tables_number   1
_chemical_formula_structural   CaSm(Si2Rh3)2
_chemical_formula_sum   'Ca1 Sm1 Si4 Rh6'
_cell_volume   195.82508527
_cell_formula_units_Z   1
loop_
 _symmetry_equiv_pos_site_id
 _symmetry_equiv_pos_as_xyz
  1  'x, y, z'
loop_
 _atom_site_type_symbol
 _atom_site_label
 _atom_site_symmetry_multiplicity
 _atom_site_fract_x
 _atom_site_fract_y
 _atom_site_fract_z
 _atom_site_occupancy
  Ca  Ca0  1  0.750000  0.034926  0.284926  1
  Sm  Sm1  1  0.250000  0.957783  0.707783  1
  Si  Si2  1  0.581101  0.383107  0.802006  1
  Si  Si3  1  0.918899  0.720903  0.802006  1
  Si  Si4  1  0.425108  0.621435  0.196327  1
  Si  Si5  1  0.074892  0.271219  0.196327  1
  Rh  Rh6  1  0.215588  0.501829  0.716794  1
  Rh  Rh7  1  0.785035  0.501829  0.286241  1
  Rh  Rh8  1  0.495080  0.502278  0.497359  1
  Rh  Rh9  1  0.004920  0.502278  0.007199  1
  Rh  Rh10  1  0.714965  0.001206  0.716794  1
  Rh  Rh11  1  0.284412  0.001206  0.286241  1
