# generated using pymatgen
data_Hf6Sc3Re4P
_symmetry_space_group_name_H-M   'P 1'
_cell_length_a   8.61958900
_cell_length_b   8.61958921
_cell_length_c   8.54997300
_cell_angle_alpha   90.00000000
_cell_angle_beta   90.00000000
_cell_angle_gamma   120.00000303
_symmetry_Int_Tables_number   1
_chemical_formula_structural   Hf6Sc3Re4P
_chemical_formula_sum   'Hf12 Sc6 Re8 P2'
_cell_volume   550.13400299
_cell_formula_units_Z   2
loop_
 _symmetry_equiv_pos_site_id
 _symmetry_equiv_pos_as_xyz
  1  'x, y, z'
loop_
 _atom_site_type_symbol
 _atom_site_label
 _atom_site_symmetry_multiplicity
 _atom_site_fract_x
 _atom_site_fract_y
 _atom_site_fract_z
 _atom_site_occupancy
  Hf  Hf0  1  0.195637  0.804363  0.452753  1
  Hf  Hf1  1  0.195637  0.391273  0.452753  1
  Hf  Hf2  1  0.608727  0.804363  0.452753  1
  Hf  Hf3  1  0.804363  0.195637  0.547247  1
  Hf  Hf4  1  0.804363  0.608727  0.547247  1
  Hf  Hf5  1  0.391273  0.195637  0.547247  1
  Hf  Hf6  1  0.804363  0.195637  0.952753  1
  Hf  Hf7  1  0.804363  0.608727  0.952753  1
  Hf  Hf8  1  0.391273  0.195637  0.952753  1
  Hf  Hf9  1  0.195637  0.804363  0.047247  1
  Hf  Hf10  1  0.195637  0.391273  0.047247  1
  Hf  Hf11  1  0.608727  0.804363  0.047247  1
  Sc  Sc12  1  0.540100  0.459900  0.250000  1
  Sc  Sc13  1  0.540100  0.080201  0.250000  1
  Sc  Sc14  1  0.919799  0.459900  0.250000  1
  Sc  Sc15  1  0.459900  0.540100  0.750000  1
  Sc  Sc16  1  0.459900  0.919799  0.750000  1
  Sc  Sc17  1  0.080201  0.540100  0.750000  1
  Re  Re18  1  0.890752  0.109248  0.250000  1
  Re  Re19  1  0.890752  0.781504  0.250000  1
  Re  Re20  1  0.218496  0.109248  0.250000  1
  Re  Re21  1  0.109248  0.890752  0.750000  1
  Re  Re22  1  0.109248  0.218496  0.750000  1
  Re  Re23  1  0.781504  0.890752  0.750000  1
  Re  Re24  1  0.000000  0.000000  0.500000  1
  Re  Re25  1  0.000000  0.000000  0.000000  1
  P  P26  1  0.333333  0.666667  0.250000  1
  P  P27  1  0.666667  0.333333  0.750000  1
