# generated using pymatgen
data_Hf9Sc7(Si4W)4
_symmetry_space_group_name_H-M   'P 1'
_cell_length_a   7.00467854
_cell_length_b   7.00468631
_cell_length_c   12.73443629
_cell_angle_alpha   90.02971764
_cell_angle_beta   89.95799047
_cell_angle_gamma   89.98364614
_symmetry_Int_Tables_number   1
_chemical_formula_structural   Hf9Sc7(Si4W)4
_chemical_formula_sum   'Hf9 Sc7 Si16 W4'
_cell_volume   624.82217213
_cell_formula_units_Z   1
loop_
 _symmetry_equiv_pos_site_id
 _symmetry_equiv_pos_as_xyz
  1  'x, y, z'
loop_
 _atom_site_type_symbol
 _atom_site_label
 _atom_site_symmetry_multiplicity
 _atom_site_fract_x
 _atom_site_fract_y
 _atom_site_fract_z
 _atom_site_occupancy
  Hf  Hf0  1  0.999955  0.344707  0.217651  1
  Hf  Hf1  1  0.494914  0.355562  0.125839  1
  Hf  Hf2  1  0.504815  0.643990  0.624984  1
  Hf  Hf3  1  0.855816  0.005560  0.875452  1
  Hf  Hf4  1  0.143683  0.995566  0.374476  1
  Hf  Hf5  1  0.644577  0.504684  0.374447  1
  Hf  Hf6  1  0.355955  0.494936  0.875210  1
  Hf  Hf7  1  0.004649  0.856245  0.125673  1
  Hf  Hf8  1  0.994634  0.144429  0.624611  1
  Sc  Sc9  1  0.498350  0.155405  0.532258  1
  Sc  Sc10  1  0.501158  0.845010  0.032480  1
  Sc  Sc11  1  0.655831  0.001952  0.282153  1
  Sc  Sc12  1  0.344944  0.998382  0.782831  1
  Sc  Sc13  1  0.844551  0.501371  0.967601  1
  Sc  Sc14  1  0.154997  0.498945  0.468017  1
  Sc  Sc15  1  0.001623  0.655106  0.717399  1
  Si  Si16  1  0.798794  0.147944  0.071162  1
  Si  Si17  1  0.200913  0.851844  0.570409  1
  Si  Si18  1  0.648364  0.700917  0.820444  1
  Si  Si19  1  0.351235  0.299478  0.321014  1
  Si  Si20  1  0.852154  0.201813  0.428223  1
  Si  Si21  1  0.147818  0.799010  0.929514  1
  Si  Si22  1  0.701992  0.647620  0.179008  1
  Si  Si23  1  0.299200  0.351600  0.679350  1
  Si  Si24  1  0.547104  0.196009  0.933183  1
  Si  Si25  1  0.452394  0.803841  0.433134  1
  Si  Si26  1  0.695624  0.952769  0.683059  1
  Si  Si27  1  0.304214  0.047142  0.183032  1
  Si  Si28  1  0.804338  0.453042  0.566733  1
  Si  Si29  1  0.196639  0.548067  0.066473  1
  Si  Si30  1  0.952924  0.695567  0.317189  1
  Si  Si31  1  0.047424  0.304128  0.816798  1
  W  W32  1  0.677066  0.322853  0.749893  1
  W  W33  1  0.321830  0.675168  0.250054  1
  W  W34  1  0.823309  0.822484  0.499704  1
  W  W35  1  0.176211  0.176855  0.000541  1
