# generated using pymatgen
data_SmTiCo3P3Ru
_symmetry_space_group_name_H-M   'P 1'
_cell_length_a   3.70196000
_cell_length_b   10.70303800
_cell_length_c   12.23010600
_cell_angle_alpha   90.00000000
_cell_angle_beta   90.00000000
_cell_angle_gamma   90.00000000
_symmetry_Int_Tables_number   1
_chemical_formula_structural   SmTiCo3P3Ru
_chemical_formula_sum   'Sm4 Ti4 Co12 P12 Ru4'
_cell_volume   484.58393288
_cell_formula_units_Z   4
loop_
 _symmetry_equiv_pos_site_id
 _symmetry_equiv_pos_as_xyz
  1  'x, y, z'
loop_
 _atom_site_type_symbol
 _atom_site_label
 _atom_site_symmetry_multiplicity
 _atom_site_fract_x
 _atom_site_fract_y
 _atom_site_fract_z
 _atom_site_occupancy
  Sm  Sm0  1  0.250000  0.582312  0.710020  1
  Sm  Sm1  1  0.250000  0.917688  0.210020  1
  Sm  Sm2  1  0.750000  0.417688  0.289980  1
  Sm  Sm3  1  0.750000  0.082312  0.789980  1
  Ti  Ti4  1  0.250000  0.698685  0.988952  1
  Ti  Ti5  1  0.250000  0.801315  0.488952  1
  Ti  Ti6  1  0.750000  0.301315  0.011048  1
  Ti  Ti7  1  0.750000  0.198685  0.511048  1
  Co  Co8  1  0.250000  0.224517  0.177868  1
  Co  Co9  1  0.250000  0.275483  0.677868  1
  Co  Co10  1  0.750000  0.775483  0.822132  1
  Co  Co11  1  0.750000  0.724517  0.322132  1
  Co  Co12  1  0.250000  0.882719  0.696147  1
  Co  Co13  1  0.250000  0.617281  0.196147  1
  Co  Co14  1  0.750000  0.117281  0.303853  1
  Co  Co15  1  0.750000  0.382719  0.803853  1
  Co  Co16  1  0.250000  0.464378  0.934920  1
  Co  Co17  1  0.250000  0.035622  0.434920  1
  Co  Co18  1  0.750000  0.535622  0.065080  1
  Co  Co19  1  0.750000  0.964378  0.565080  1
  P  P20  1  0.250000  0.424274  0.113604  1
  P  P21  1  0.250000  0.075726  0.613604  1
  P  P22  1  0.750000  0.575726  0.886396  1
  P  P23  1  0.750000  0.924274  0.386396  1
  P  P24  1  0.250000  0.273830  0.862531  1
  P  P25  1  0.250000  0.226170  0.362531  1
  P  P26  1  0.750000  0.726170  0.137469  1
  P  P27  1  0.750000  0.773830  0.637469  1
  P  P28  1  0.250000  0.600473  0.382809  1
  P  P29  1  0.250000  0.899527  0.882809  1
  P  P30  1  0.750000  0.399527  0.617191  1
  P  P31  1  0.750000  0.100473  0.117191  1
  Ru  Ru32  1  0.250000  0.401920  0.491138  1
  Ru  Ru33  1  0.250000  0.098080  0.991138  1
  Ru  Ru34  1  0.750000  0.598080  0.508862  1
  Ru  Ru35  1  0.750000  0.901920  0.008862  1
