# generated using pymatgen
data_Ce7Y(Si4W3)4
_symmetry_space_group_name_H-M   'P 1'
_cell_length_a   6.89628007
_cell_length_b   6.97362620
_cell_length_c   13.03078200
_cell_angle_alpha   90.04568955
_cell_angle_beta   90.00825837
_cell_angle_gamma   90.06125242
_symmetry_Int_Tables_number   1
_chemical_formula_structural   Ce7Y(Si4W3)4
_chemical_formula_sum   'Ce7 Y1 Si16 W12'
_cell_volume   626.67683879
_cell_formula_units_Z   1
loop_
 _symmetry_equiv_pos_site_id
 _symmetry_equiv_pos_as_xyz
  1  'x, y, z'
loop_
 _atom_site_type_symbol
 _atom_site_label
 _atom_site_symmetry_multiplicity
 _atom_site_fract_x
 _atom_site_fract_y
 _atom_site_fract_z
 _atom_site_occupancy
  Ce  Ce0  1  0.494379  0.661647  0.592935  1
  Ce  Ce1  1  0.994723  0.837647  0.907709  1
  Ce  Ce2  1  0.505560  0.338471  0.091999  1
  Ce  Ce3  1  0.004092  0.166450  0.405701  1
  Ce  Ce4  1  0.506335  0.338902  0.408529  1
  Ce  Ce5  1  0.006391  0.161649  0.092059  1
  Ce  Ce6  1  0.494258  0.662612  0.907130  1
  Y  Y7  1  0.994690  0.833334  0.593755  1
  Si  Si8  1  0.659294  0.953935  0.454134  1
  Si  Si9  1  0.156911  0.546454  0.047058  1
  Si  Si10  1  0.344247  0.046925  0.952277  1
  Si  Si11  1  0.843857  0.455571  0.547096  1
  Si  Si12  1  0.339594  0.043802  0.547521  1
  Si  Si13  1  0.842077  0.453933  0.953376  1
  Si  Si14  1  0.657778  0.953964  0.047182  1
  Si  Si15  1  0.155807  0.548509  0.453485  1
  Si  Si16  1  0.461299  0.363877  0.751423  1
  Si  Si17  1  0.962570  0.131135  0.748758  1
  Si  Si18  1  0.538261  0.636243  0.250155  1
  Si  Si19  1  0.038281  0.866590  0.250311  1
  Si  Si20  1  0.693477  0.867976  0.748946  1
  Si  Si21  1  0.191532  0.629846  0.749619  1
  Si  Si22  1  0.308314  0.130979  0.249631  1
  Si  Si23  1  0.808363  0.370994  0.248965  1
  W  W24  1  0.665637  0.162989  0.626163  1
  W  W25  1  0.165327  0.337732  0.873144  1
  W  W26  1  0.332070  0.839059  0.126298  1
  W  W27  1  0.831663  0.662427  0.373564  1
  W  W28  1  0.331901  0.838666  0.374085  1
  W  W29  1  0.832262  0.662998  0.126673  1
  W  W30  1  0.672187  0.159889  0.873015  1
  W  W31  1  0.166212  0.335767  0.626629  1
  W  W32  1  0.832125  0.495750  0.750211  1
  W  W33  1  0.332689  0.000407  0.750284  1
  W  W34  1  0.168301  0.503752  0.249719  1
  W  W35  1  0.667539  0.999122  0.250459  1
