# generated using pymatgen
data_Dy5Bi2As
_symmetry_space_group_name_H-M   'P 1'
_cell_length_a   8.06321600
_cell_length_b   9.13327600
_cell_length_c   12.15612200
_cell_angle_alpha   90.00000000
_cell_angle_beta   90.00000000
_cell_angle_gamma   90.00000000
_symmetry_Int_Tables_number   1
_chemical_formula_structural   Dy5Bi2As
_chemical_formula_sum   'Dy20 Bi8 As4'
_cell_volume   895.22030866
_cell_formula_units_Z   4
loop_
 _symmetry_equiv_pos_site_id
 _symmetry_equiv_pos_as_xyz
  1  'x, y, z'
loop_
 _atom_site_type_symbol
 _atom_site_label
 _atom_site_symmetry_multiplicity
 _atom_site_fract_x
 _atom_site_fract_y
 _atom_site_fract_z
 _atom_site_occupancy
  Dy  Dy0  1  0.848135  0.750000  0.789142  1
  Dy  Dy1  1  0.151865  0.250000  0.210858  1
  Dy  Dy2  1  0.348135  0.250000  0.710858  1
  Dy  Dy3  1  0.651865  0.750000  0.289142  1
  Dy  Dy4  1  0.368831  0.750000  0.705405  1
  Dy  Dy5  1  0.631169  0.250000  0.294595  1
  Dy  Dy6  1  0.868831  0.250000  0.794595  1
  Dy  Dy7  1  0.131169  0.750000  0.205405  1
  Dy  Dy8  1  0.961934  0.750000  0.501440  1
  Dy  Dy9  1  0.038066  0.250000  0.498560  1
  Dy  Dy10  1  0.461934  0.250000  0.998560  1
  Dy  Dy11  1  0.538066  0.750000  0.001440  1
  Dy  Dy12  1  0.685029  0.053977  0.564144  1
  Dy  Dy13  1  0.314971  0.946023  0.435856  1
  Dy  Dy14  1  0.185029  0.946023  0.935856  1
  Dy  Dy15  1  0.314971  0.553977  0.435856  1
  Dy  Dy16  1  0.814971  0.053977  0.064144  1
  Dy  Dy17  1  0.685029  0.446023  0.564144  1
  Dy  Dy18  1  0.814971  0.446023  0.064144  1
  Dy  Dy19  1  0.185029  0.553977  0.935856  1
  Bi  Bi20  1  0.576894  0.491165  0.827118  1
  Bi  Bi21  1  0.423106  0.508835  0.172882  1
  Bi  Bi22  1  0.076894  0.508835  0.672882  1
  Bi  Bi23  1  0.423106  0.991165  0.172882  1
  Bi  Bi24  1  0.923106  0.491165  0.327118  1
  Bi  Bi25  1  0.576894  0.008835  0.827118  1
  Bi  Bi26  1  0.923106  0.008835  0.327118  1
  Bi  Bi27  1  0.076894  0.991165  0.672882  1
  As  As28  1  0.581603  0.750000  0.517431  1
  As  As29  1  0.418397  0.250000  0.482569  1
  As  As30  1  0.081603  0.250000  0.982569  1
  As  As31  1  0.918397  0.750000  0.017431  1
