# generated using pymatgen
data_Yb2ReB8Ru
_symmetry_space_group_name_H-M   'P 1'
_cell_length_a   3.54120000
_cell_length_b   5.97388529
_cell_length_c   11.55090523
_cell_angle_alpha   89.83345331
_cell_angle_beta   90.00000000
_cell_angle_gamma   90.00000000
_symmetry_Int_Tables_number   1
_chemical_formula_structural   Yb2ReB8Ru
_chemical_formula_sum   'Yb4 Re2 B16 Ru2'
_cell_volume   244.35516362
_cell_formula_units_Z   2
loop_
 _symmetry_equiv_pos_site_id
 _symmetry_equiv_pos_as_xyz
  1  'x, y, z'
loop_
 _atom_site_type_symbol
 _atom_site_label
 _atom_site_symmetry_multiplicity
 _atom_site_fract_x
 _atom_site_fract_y
 _atom_site_fract_z
 _atom_site_occupancy
  Yb  Yb0  1  0.500000  0.629503  0.149055  1
  Yb  Yb1  1  0.500000  0.370497  0.850945  1
  Yb  Yb2  1  0.500000  0.129309  0.348242  1
  Yb  Yb3  1  0.500000  0.870691  0.651758  1
  Re  Re4  1  0.500000  0.630389  0.415696  1
  Re  Re5  1  0.500000  0.369611  0.584304  1
  B  B6  1  0.000000  0.976743  0.191577  1
  B  B7  1  0.000000  0.023257  0.808423  1
  B  B8  1  0.000000  0.476357  0.306405  1
  B  B9  1  0.000000  0.523643  0.693595  1
  B  B10  1  0.000000  0.787316  0.314317  1
  B  B11  1  0.000000  0.212684  0.685683  1
  B  B12  1  0.000000  0.284798  0.184432  1
  B  B13  1  0.000000  0.715202  0.815568  1
  B  B14  1  0.000000  0.866482  0.468065  1
  B  B15  1  0.000000  0.133518  0.531935  1
  B  B16  1  0.000000  0.364236  0.030959  1
  B  B17  1  0.000000  0.635764  0.969041  1
  B  B18  1  0.000000  0.887701  0.047225  1
  B  B19  1  0.000000  0.112299  0.952775  1
  B  B20  1  0.000000  0.384890  0.452057  1
  B  B21  1  0.000000  0.615110  0.547943  1
  Ru  Ru22  1  0.500000  0.135551  0.086489  1
  Ru  Ru23  1  0.500000  0.864449  0.913511  1
