# generated using pymatgen
data_TcGe(SeF6)4
_symmetry_space_group_name_H-M   'P 1'
_cell_length_a   6.14964100
_cell_length_b   7.84891461
_cell_length_c   9.92324700
_cell_angle_alpha   89.20129191
_cell_angle_beta   90.00000000
_cell_angle_gamma   90.00000000
_symmetry_Int_Tables_number   1
_chemical_formula_structural   TcGe(SeF6)4
_chemical_formula_sum   'Tc1 Ge1 Se4 F24'
_cell_volume   478.92881874
_cell_formula_units_Z   1
loop_
 _symmetry_equiv_pos_site_id
 _symmetry_equiv_pos_as_xyz
  1  'x, y, z'
loop_
 _atom_site_type_symbol
 _atom_site_label
 _atom_site_symmetry_multiplicity
 _atom_site_fract_x
 _atom_site_fract_y
 _atom_site_fract_z
 _atom_site_occupancy
  Tc  Tc0  1  0.000000  0.500000  0.000000  1
  Ge  Ge1  1  0.500000  0.000000  0.500000  1
  Se  Se2  1  0.500000  0.590196  0.245850  1
  Se  Se3  1  0.500000  0.409804  0.754150  1
  Se  Se4  1  0.000000  0.084838  0.260963  1
  Se  Se5  1  0.000000  0.915162  0.739037  1
  F  F6  1  0.226048  0.361215  0.913596  1
  F  F7  1  0.226048  0.638785  0.086404  1
  F  F8  1  0.288151  0.873638  0.586302  1
  F  F9  1  0.288151  0.126362  0.413698  1
  F  F10  1  0.773952  0.638785  0.086404  1
  F  F11  1  0.773952  0.361215  0.913596  1
  F  F12  1  0.795984  0.958091  0.855099  1
  F  F13  1  0.795984  0.041909  0.144901  1
  F  F14  1  0.705391  0.463487  0.641008  1
  F  F15  1  0.705391  0.536513  0.358992  1
  F  F16  1  0.204016  0.041909  0.144901  1
  F  F17  1  0.204016  0.958091  0.855099  1
  F  F18  1  0.294609  0.536513  0.358992  1
  F  F19  1  0.294609  0.463487  0.641008  1
  F  F20  1  0.000000  0.649055  0.838536  1
  F  F21  1  0.000000  0.350945  0.161464  1
  F  F22  1  0.500000  0.149441  0.640475  1
  F  F23  1  0.500000  0.850559  0.359525  1
  F  F24  1  0.500000  0.613533  0.820823  1
  F  F25  1  0.500000  0.386467  0.179177  1
  F  F26  1  0.000000  0.124310  0.678709  1
  F  F27  1  0.000000  0.875690  0.321291  1
  F  F28  1  0.711849  0.873638  0.586302  1
  F  F29  1  0.711849  0.126362  0.413698  1
