# generated using pymatgen
data_Ac(Zn2Pd)2
_symmetry_space_group_name_H-M   'P 1'
_cell_length_a   7.91173200
_cell_length_b   7.91173200
_cell_length_c   4.21173900
_cell_angle_alpha   90.00000000
_cell_angle_beta   90.00000000
_cell_angle_gamma   90.00000000
_symmetry_Int_Tables_number   1
_chemical_formula_structural   Ac(Zn2Pd)2
_chemical_formula_sum   'Ac2 Zn8 Pd4'
_cell_volume   263.63592222
_cell_formula_units_Z   2
loop_
 _symmetry_equiv_pos_site_id
 _symmetry_equiv_pos_as_xyz
  1  'x, y, z'
loop_
 _atom_site_type_symbol
 _atom_site_label
 _atom_site_symmetry_multiplicity
 _atom_site_fract_x
 _atom_site_fract_y
 _atom_site_fract_z
 _atom_site_occupancy
  Ac  Ac0  1  0.500000  0.500000  0.500000  1
  Ac  Ac1  1  0.000000  0.000000  0.000000  1
  Zn  Zn2  1  0.349539  0.088803  0.500000  1
  Zn  Zn3  1  0.650461  0.911197  0.500000  1
  Zn  Zn4  1  0.849539  0.411197  0.000000  1
  Zn  Zn5  1  0.150461  0.588803  0.000000  1
  Zn  Zn6  1  0.088803  0.349539  0.500000  1
  Zn  Zn7  1  0.911197  0.650461  0.500000  1
  Zn  Zn8  1  0.411197  0.849539  0.000000  1
  Zn  Zn9  1  0.588803  0.150461  0.000000  1
  Pd  Pd10  1  0.777377  0.222623  0.500000  1
  Pd  Pd11  1  0.222623  0.777377  0.500000  1
  Pd  Pd12  1  0.277377  0.277377  0.000000  1
  Pd  Pd13  1  0.722623  0.722623  0.000000  1
