# generated using pymatgen
data_HfAl3(GaFe2)3
_symmetry_space_group_name_H-M   'P 1'
_cell_length_a   6.48411289
_cell_length_b   6.48411405
_cell_length_c   6.48411249
_cell_angle_alpha   135.07945413
_cell_angle_beta   99.54720017
_cell_angle_gamma   97.24158207
_symmetry_Int_Tables_number   1
_chemical_formula_structural   HfAl3(GaFe2)3
_chemical_formula_sum   'Hf1 Al3 Ga3 Fe6'
_cell_volume   177.85073603
_cell_formula_units_Z   1
loop_
 _symmetry_equiv_pos_site_id
 _symmetry_equiv_pos_as_xyz
  1  'x, y, z'
loop_
 _atom_site_type_symbol
 _atom_site_label
 _atom_site_symmetry_multiplicity
 _atom_site_fract_x
 _atom_site_fract_y
 _atom_site_fract_z
 _atom_site_occupancy
  Hf  Hf0  1  0.999825  0.999825  0.000000  1
  Al  Al1  1  0.815197  0.315197  0.500000  1
  Al  Al2  1  0.657898  0.657898  0.000000  1
  Al  Al3  1  0.343824  0.343824  0.000000  1
  Ga  Ga4  1  0.334995  0.001936  0.333059  1
  Ga  Ga5  1  0.176577  0.676577  0.500000  1
  Ga  Ga6  1  0.668876  0.001936  0.666941  1
  Fe  Fe7  1  0.757735  0.499168  0.258568  1
  Fe  Fe8  1  0.240600  0.499168  0.741432  1
  Fe  Fe9  1  0.001231  0.000665  0.499660  1
  Fe  Fe10  1  0.501005  0.000665  0.999434  1
  Fe  Fe11  1  0.001231  0.501571  0.000566  1
  Fe  Fe12  1  0.501005  0.501571  0.500340  1
