# generated using pymatgen
data_MgCo20ReB6Mo
_symmetry_space_group_name_H-M   'P 1'
_cell_length_a   7.41564219
_cell_length_b   7.41564238
_cell_length_c   7.41564200
_cell_angle_alpha   59.99999278
_cell_angle_beta   59.99999193
_cell_angle_gamma   59.99999032
_symmetry_Int_Tables_number   1
_chemical_formula_structural   MgCo20ReB6Mo
_chemical_formula_sum   'Mg1 Co20 Re1 B6 Mo1'
_cell_volume   288.35747915
_cell_formula_units_Z   1
loop_
 _symmetry_equiv_pos_site_id
 _symmetry_equiv_pos_as_xyz
  1  'x, y, z'
loop_
 _atom_site_type_symbol
 _atom_site_label
 _atom_site_symmetry_multiplicity
 _atom_site_fract_x
 _atom_site_fract_y
 _atom_site_fract_z
 _atom_site_occupancy
  Mg  Mg0  1  0.000000  0.000000  0.000000  1
  Co  Co1  1  0.617529  0.617529  0.147413  1
  Co  Co2  1  0.617529  0.147413  0.617529  1
  Co  Co3  1  0.147413  0.617529  0.617529  1
  Co  Co4  1  0.617529  0.617529  0.617529  1
  Co  Co5  1  0.381467  0.381467  0.855599  1
  Co  Co6  1  0.381467  0.855599  0.381467  1
  Co  Co7  1  0.855599  0.381467  0.381467  1
  Co  Co8  1  0.381467  0.381467  0.381467  1
  Co  Co9  1  0.000446  0.000446  0.344408  1
  Co  Co10  1  0.654700  0.000446  0.344408  1
  Co  Co11  1  0.000446  0.654700  0.344408  1
  Co  Co12  1  0.654700  0.344408  0.000446  1
  Co  Co13  1  0.000446  0.344408  0.000446  1
  Co  Co14  1  0.000446  0.344408  0.654700  1
  Co  Co15  1  0.344408  0.654700  0.000446  1
  Co  Co16  1  0.344408  0.000446  0.654700  1
  Co  Co17  1  0.344408  0.000446  0.000446  1
  Co  Co18  1  0.000446  0.000446  0.654700  1
  Co  Co19  1  0.000446  0.654700  0.000446  1
  Co  Co20  1  0.654700  0.000446  0.000446  1
  Re  Re21  1  0.250000  0.250000  0.250000  1
  B  B22  1  0.725991  0.725991  0.274009  1
  B  B23  1  0.274009  0.725991  0.274009  1
  B  B24  1  0.725991  0.274009  0.274009  1
  B  B25  1  0.274009  0.274009  0.725991  1
  B  B26  1  0.725991  0.274009  0.725991  1
  B  B27  1  0.274009  0.725991  0.725991  1
  Mo  Mo28  1  0.750000  0.750000  0.750000  1
