# generated using pymatgen
data_Ti5Al16GePt7
_symmetry_space_group_name_H-M   'P 1'
_cell_length_a   8.60247149
_cell_length_b   8.68028415
_cell_length_c   8.68044102
_cell_angle_alpha   59.40695790
_cell_angle_beta   60.29540328
_cell_angle_gamma   60.30072932
_symmetry_Int_Tables_number   1
_chemical_formula_structural   Ti5Al16GePt7
_chemical_formula_sum   'Ti5 Al16 Ge1 Pt7'
_cell_volume   458.27323873
_cell_formula_units_Z   1
loop_
 _symmetry_equiv_pos_site_id
 _symmetry_equiv_pos_as_xyz
  1  'x, y, z'
loop_
 _atom_site_type_symbol
 _atom_site_label
 _atom_site_symmetry_multiplicity
 _atom_site_fract_x
 _atom_site_fract_y
 _atom_site_fract_z
 _atom_site_occupancy
  Ti  Ti0  1  0.815642  0.184355  0.184329  1
  Ti  Ti1  1  0.792713  0.207294  0.793165  1
  Ti  Ti2  1  0.792821  0.793167  0.207219  1
  Ti  Ti3  1  0.206718  0.793258  0.207179  1
  Ti  Ti4  1  0.206819  0.207192  0.793191  1
  Al  Al5  1  0.874618  0.841119  0.841245  1
  Al  Al6  1  0.850419  0.829792  0.469083  1
  Al  Al7  1  0.443068  0.841253  0.841014  1
  Al  Al8  1  0.850701  0.468927  0.829783  1
  Al  Al9  1  0.170241  0.149516  0.149266  1
  Al  Al10  1  0.158844  0.125406  0.556996  1
  Al  Al11  1  0.158733  0.556874  0.125372  1
  Al  Al12  1  0.531140  0.149241  0.149348  1
  Al  Al13  1  0.621559  0.616461  0.616491  1
  Al  Al14  1  0.630152  0.616571  0.123351  1
  Al  Al15  1  0.145440  0.616470  0.616672  1
  Al  Al16  1  0.630032  0.123363  0.616637  1
  Al  Al17  1  0.383441  0.369829  0.370000  1
  Al  Al18  1  0.383532  0.378477  0.854521  1
  Al  Al19  1  0.383514  0.854569  0.378597  1
  Al  Al20  1  0.876684  0.369981  0.369966  1
  Ge  Ge21  1  0.033678  0.966299  0.966262  1
  Pt  Pt22  1  0.011050  0.489022  0.488944  1
  Pt  Pt23  1  0.511010  0.988960  0.988980  1
  Pt  Pt24  1  0.509359  0.996399  0.490535  1
  Pt  Pt25  1  0.509347  0.490665  0.996384  1
  Pt  Pt26  1  0.003613  0.490625  0.996299  1
  Pt  Pt27  1  0.003672  0.996339  0.490551  1
  Pt  Pt28  1  0.511444  0.488576  0.488617  1
