# generated using pymatgen
data_Yb3ThOs8
_symmetry_space_group_name_H-M   'P 1'
_cell_length_a   5.32531300
_cell_length_b   5.32531195
_cell_length_c   8.85212800
_cell_angle_alpha   90.00000000
_cell_angle_beta   90.00000000
_cell_angle_gamma   119.99998786
_symmetry_Int_Tables_number   1
_chemical_formula_structural   Yb3ThOs8
_chemical_formula_sum   'Yb3 Th1 Os8'
_cell_volume   217.40451667
_cell_formula_units_Z   1
loop_
 _symmetry_equiv_pos_site_id
 _symmetry_equiv_pos_as_xyz
  1  'x, y, z'
loop_
 _atom_site_type_symbol
 _atom_site_label
 _atom_site_symmetry_multiplicity
 _atom_site_fract_x
 _atom_site_fract_y
 _atom_site_fract_z
 _atom_site_occupancy
  Yb  Yb0  1  0.666667  0.333333  0.570518  1
  Yb  Yb1  1  0.666667  0.333333  0.935698  1
  Yb  Yb2  1  0.333333  0.666667  0.058697  1
  Th  Th3  1  0.333333  0.666667  0.435314  1
  Os  Os4  1  0.000000  0.000000  0.502841  1
  Os  Os5  1  0.000000  0.000000  0.000209  1
  Os  Os6  1  0.827310  0.172690  0.245916  1
  Os  Os7  1  0.827310  0.654620  0.245916  1
  Os  Os8  1  0.345380  0.172690  0.245916  1
  Os  Os9  1  0.171840  0.828160  0.752992  1
  Os  Os10  1  0.171840  0.343679  0.752992  1
  Os  Os11  1  0.656321  0.828160  0.752992  1
