# generated using pymatgen
data_La3Th5(Si3Rh)4
_symmetry_space_group_name_H-M   'P 1'
_cell_length_a   8.25917500
_cell_length_b   8.25917580
_cell_length_c   8.49108700
_cell_angle_alpha   90.00000000
_cell_angle_beta   90.00000000
_cell_angle_gamma   120.00000080
_symmetry_Int_Tables_number   1
_chemical_formula_structural   La3Th5(Si3Rh)4
_chemical_formula_sum   'La3 Th5 Si12 Rh4'
_cell_volume   501.61128395
_cell_formula_units_Z   1
loop_
 _symmetry_equiv_pos_site_id
 _symmetry_equiv_pos_as_xyz
  1  'x, y, z'
loop_
 _atom_site_type_symbol
 _atom_site_label
 _atom_site_symmetry_multiplicity
 _atom_site_fract_x
 _atom_site_fract_y
 _atom_site_fract_z
 _atom_site_occupancy
  La  La0  1  0.499949  0.500051  0.250000  1
  La  La1  1  0.000103  0.500051  0.250000  1
  La  La2  1  0.499949  0.999897  0.250000  1
  Th  Th3  1  0.000000  0.000000  0.750000  1
  Th  Th4  1  0.000000  0.000000  0.250000  1
  Th  Th5  1  0.499893  0.500107  0.750000  1
  Th  Th6  1  0.499893  0.999786  0.750000  1
  Th  Th7  1  0.000214  0.500107  0.750000  1
  Si  Si8  1  0.834248  0.165752  0.999366  1
  Si  Si9  1  0.834248  0.668496  0.999366  1
  Si  Si10  1  0.331504  0.165752  0.999366  1
  Si  Si11  1  0.834248  0.165752  0.500634  1
  Si  Si12  1  0.834248  0.668496  0.500634  1
  Si  Si13  1  0.331504  0.165752  0.500634  1
  Si  Si14  1  0.165903  0.834097  0.500710  1
  Si  Si15  1  0.668194  0.834097  0.500710  1
  Si  Si16  1  0.165903  0.331806  0.500710  1
  Si  Si17  1  0.165903  0.834097  0.999290  1
  Si  Si18  1  0.668194  0.834097  0.999290  1
  Si  Si19  1  0.165903  0.331806  0.999290  1
  Rh  Rh20  1  0.666667  0.333333  0.981475  1
  Rh  Rh21  1  0.666667  0.333333  0.518525  1
  Rh  Rh22  1  0.333333  0.666667  0.518566  1
  Rh  Rh23  1  0.333333  0.666667  0.981434  1
