# generated using pymatgen
data_Tm6Al24Os5Pt2Rh
_symmetry_space_group_name_H-M   'P 1'
_cell_length_a   8.80451384
_cell_length_b   8.80888199
_cell_length_c   9.50390220
_cell_angle_alpha   90.08051672
_cell_angle_beta   89.63619617
_cell_angle_gamma   119.68952537
_symmetry_Int_Tables_number   1
_chemical_formula_structural   Tm6Al24Os5Pt2Rh
_chemical_formula_sum   'Tm6 Al24 Os5 Pt2 Rh1'
_cell_volume   640.32338689
_cell_formula_units_Z   1
loop_
 _symmetry_equiv_pos_site_id
 _symmetry_equiv_pos_as_xyz
  1  'x, y, z'
loop_
 _atom_site_type_symbol
 _atom_site_label
 _atom_site_symmetry_multiplicity
 _atom_site_fract_x
 _atom_site_fract_y
 _atom_site_fract_z
 _atom_site_occupancy
  Tm  Tm0  1  0.190263  0.386883  0.252257  1
  Tm  Tm1  1  0.809737  0.613117  0.747743  1
  Tm  Tm2  1  0.612114  0.812838  0.252544  1
  Tm  Tm3  1  0.387886  0.187162  0.747456  1
  Tm  Tm4  1  0.197280  0.809123  0.251111  1
  Tm  Tm5  1  0.802720  0.190877  0.748889  1
  Al  Al6  1  0.337886  0.669082  0.029976  1
  Al  Al7  1  0.662114  0.330918  0.970024  1
  Al  Al8  1  0.669087  0.331585  0.526660  1
  Al  Al9  1  0.330913  0.668415  0.473340  1
  Al  Al10  1  0.158233  0.324916  0.578007  1
  Al  Al11  1  0.841767  0.675084  0.421993  1
  Al  Al12  1  0.674128  0.840512  0.577063  1
  Al  Al13  1  0.833585  0.675637  0.078879  1
  Al  Al14  1  0.325872  0.159488  0.422937  1
  Al  Al15  1  0.166415  0.324363  0.921121  1
  Al  Al16  1  0.164149  0.835914  0.575560  1
  Al  Al17  1  0.326332  0.162292  0.076435  1
  Al  Al18  1  0.835851  0.164086  0.424440  1
  Al  Al19  1  0.673668  0.837708  0.923565  1
  Al  Al20  1  0.832108  0.159584  0.076047  1
  Al  Al21  1  0.167892  0.840416  0.923953  1
  Al  Al22  1  0.561840  0.125396  0.249617  1
  Al  Al23  1  0.438160  0.874604  0.750383  1
  Al  Al24  1  0.874211  0.438347  0.252852  1
  Al  Al25  1  0.125789  0.561653  0.747148  1
  Al  Al26  1  0.561305  0.439453  0.246423  1
  Al  Al27  1  0.438695  0.560547  0.753577  1
  Al  Al28  1  0.000154  0.002466  0.250047  1
  Al  Al29  1  0.999846  0.997534  0.749953  1
  Os  Os30  1  0.500000  0.000000  0.000000  1
  Os  Os31  1  0.500000  0.000000  0.500000  1
  Os  Os32  1  0.000000  0.500000  0.500000  1
  Os  Os33  1  0.000000  0.000000  0.000000  1
  Os  Os34  1  0.000000  0.000000  0.500000  1
  Pt  Pt35  1  0.000000  0.500000  0.000000  1
  Pt  Pt36  1  0.500000  0.500000  0.500000  1
  Rh  Rh37  1  0.500000  0.500000  0.000000  1
