# generated using pymatgen
data_Dy5Si12Ir16Rh3
_symmetry_space_group_name_H-M   'P 1'
_cell_length_a   12.83340200
_cell_length_b   12.83340137
_cell_length_c   3.99226600
_cell_angle_alpha   90.00000000
_cell_angle_beta   90.00000000
_cell_angle_gamma   119.99999647
_symmetry_Int_Tables_number   1
_chemical_formula_structural   Dy5Si12Ir16Rh3
_chemical_formula_sum   'Dy5 Si12 Ir16 Rh3'
_cell_volume   569.42127975
_cell_formula_units_Z   1
loop_
 _symmetry_equiv_pos_site_id
 _symmetry_equiv_pos_as_xyz
  1  'x, y, z'
loop_
 _atom_site_type_symbol
 _atom_site_label
 _atom_site_symmetry_multiplicity
 _atom_site_fract_x
 _atom_site_fract_y
 _atom_site_fract_z
 _atom_site_occupancy
  Dy  Dy0  1  0.333333  0.666667  0.500000  1
  Dy  Dy1  1  0.666667  0.333333  0.500000  1
  Dy  Dy2  1  0.000000  0.815111  0.000000  1
  Dy  Dy3  1  0.184889  0.184889  0.000000  1
  Dy  Dy4  1  0.815111  0.000000  0.000000  1
  Si  Si5  1  0.000000  0.630270  0.500000  1
  Si  Si6  1  0.369730  0.369730  0.500000  1
  Si  Si7  1  0.630270  0.000000  0.500000  1
  Si  Si8  1  0.519705  0.688117  0.000000  1
  Si  Si9  1  0.311883  0.831588  0.000000  1
  Si  Si10  1  0.168412  0.480295  0.000000  1
  Si  Si11  1  0.480295  0.168412  0.000000  1
  Si  Si12  1  0.688117  0.519705  0.000000  1
  Si  Si13  1  0.831588  0.311883  0.000000  1
  Si  Si14  1  0.000000  0.182073  0.500000  1
  Si  Si15  1  0.817927  0.817927  0.500000  1
  Si  Si16  1  0.182073  0.000000  0.500000  1
  Ir  Ir17  1  0.512262  0.873600  0.000000  1
  Ir  Ir18  1  0.126400  0.638663  0.000000  1
  Ir  Ir19  1  0.361337  0.487738  0.000000  1
  Ir  Ir20  1  0.487738  0.361337  0.000000  1
  Ir  Ir21  1  0.873600  0.512262  0.000000  1
  Ir  Ir22  1  0.638663  0.126400  0.000000  1
  Ir  Ir23  1  0.000000  0.281500  0.000000  1
  Ir  Ir24  1  0.718500  0.718500  0.000000  1
  Ir  Ir25  1  0.281500  0.000000  0.000000  1
  Ir  Ir26  1  0.623457  0.806466  0.500000  1
  Ir  Ir27  1  0.193534  0.816992  0.500000  1
  Ir  Ir28  1  0.183008  0.376543  0.500000  1
  Ir  Ir29  1  0.376543  0.183008  0.500000  1
  Ir  Ir30  1  0.806466  0.623457  0.500000  1
  Ir  Ir31  1  0.816992  0.193534  0.500000  1
  Ir  Ir32  1  0.000000  0.000000  0.500000  1
  Rh  Rh33  1  0.000000  0.446654  0.500000  1
  Rh  Rh34  1  0.553346  0.553346  0.500000  1
  Rh  Rh35  1  0.446654  0.000000  0.500000  1
