# generated using pymatgen
data_Ho4TmZnNiSb
_symmetry_space_group_name_H-M   'P 1'
_cell_length_a   8.41695759
_cell_length_b   8.41695851
_cell_length_c   8.55551856
_cell_angle_alpha   124.52249460
_cell_angle_beta   124.52249823
_cell_angle_gamma   81.25025919
_symmetry_Int_Tables_number   1
_chemical_formula_structural   Ho4TmZnNiSb
_chemical_formula_sum   'Ho8 Tm2 Zn2 Ni2 Sb2'
_cell_volume   398.47795854
_cell_formula_units_Z   2
loop_
 _symmetry_equiv_pos_site_id
 _symmetry_equiv_pos_as_xyz
  1  'x, y, z'
loop_
 _atom_site_type_symbol
 _atom_site_label
 _atom_site_symmetry_multiplicity
 _atom_site_fract_x
 _atom_site_fract_y
 _atom_site_fract_z
 _atom_site_occupancy
  Ho  Ho0  1  0.787816  0.287816  0.794816  1
  Ho  Ho1  1  0.212184  0.712184  0.205184  1
  Ho  Ho2  1  0.493000  0.993000  0.205184  1
  Ho  Ho3  1  0.308592  0.465533  0.500000  1
  Ho  Ho4  1  0.034467  0.191408  0.500000  1
  Ho  Ho5  1  0.507000  0.007000  0.794816  1
  Ho  Ho6  1  0.691408  0.534467  0.500000  1
  Ho  Ho7  1  0.965533  0.808592  0.500000  1
  Tm  Tm8  1  0.000000  0.000000  0.000000  1
  Tm  Tm9  1  0.500000  0.500000  0.000000  1
  Zn  Zn10  1  0.135630  0.635630  0.771260  1
  Zn  Zn11  1  0.864370  0.364370  0.228740  1
  Ni  Ni12  1  0.627758  0.872242  0.500000  1
  Ni  Ni13  1  0.372242  0.127758  0.500000  1
  Sb  Sb14  1  0.250000  0.250000  0.000000  1
  Sb  Sb15  1  0.750000  0.750000  0.000000  1
