# generated using pymatgen
data_Ac5Si2SnO
_symmetry_space_group_name_H-M   'P 1'
_cell_length_a   9.59286698
_cell_length_b   9.59286744
_cell_length_c   9.59282400
_cell_angle_alpha   126.98800708
_cell_angle_beta   126.98800166
_cell_angle_gamma   78.27038204
_symmetry_Int_Tables_number   1
_chemical_formula_structural   Ac5Si2SnO
_chemical_formula_sum   'Ac10 Si4 Sn2 O2'
_cell_volume   545.52082240
_cell_formula_units_Z   2
loop_
 _symmetry_equiv_pos_site_id
 _symmetry_equiv_pos_as_xyz
  1  'x, y, z'
loop_
 _atom_site_type_symbol
 _atom_site_label
 _atom_site_symmetry_multiplicity
 _atom_site_fract_x
 _atom_site_fract_y
 _atom_site_fract_z
 _atom_site_occupancy
  Ac  Ac0  1  0.486981  0.299786  0.499991  1
  Ac  Ac1  1  0.799786  0.986981  0.499991  1
  Ac  Ac2  1  0.986961  0.486961  0.187187  1
  Ac  Ac3  1  0.299769  0.799769  0.812798  1
  Ac  Ac4  1  0.515365  0.702544  0.500004  1
  Ac  Ac5  1  0.202544  0.015365  0.500004  1
  Ac  Ac6  1  0.015387  0.515387  0.812826  1
  Ac  Ac7  1  0.702565  0.202565  0.187185  1
  Ac  Ac8  1  0.502004  0.502005  0.000000  1
  Ac  Ac9  1  0.002005  0.002004  0.000000  1
  Si  Si10  1  0.142331  0.359882  0.500004  1
  Si  Si11  1  0.859882  0.642331  0.500004  1
  Si  Si12  1  0.642256  0.142256  0.782311  1
  Si  Si13  1  0.359955  0.859955  0.217688  1
  Sn  Sn14  1  0.751444  0.751472  0.000005  1
  Sn  Sn15  1  0.251472  0.251444  0.000005  1
  O  O16  1  0.751067  0.251067  0.500012  1
  O  O17  1  0.251066  0.751066  0.499986  1
