# generated using pymatgen
data_Hf9ZnRe2MoW
_symmetry_space_group_name_H-M   'P 1'
_cell_length_a   8.68882100
_cell_length_b   8.68574073
_cell_length_c   8.60023300
_cell_angle_alpha   90.00000000
_cell_angle_beta   90.00000000
_cell_angle_gamma   120.01172814
_symmetry_Int_Tables_number   1
_chemical_formula_structural   Hf9ZnRe2MoW
_chemical_formula_sum   'Hf18 Zn2 Re4 Mo2 W2'
_cell_volume   562.02705664
_cell_formula_units_Z   2
loop_
 _symmetry_equiv_pos_site_id
 _symmetry_equiv_pos_as_xyz
  1  'x, y, z'
loop_
 _atom_site_type_symbol
 _atom_site_label
 _atom_site_symmetry_multiplicity
 _atom_site_fract_x
 _atom_site_fract_y
 _atom_site_fract_z
 _atom_site_occupancy
  Hf  Hf0  1  0.195230  0.804886  0.050729  1
  Hf  Hf1  1  0.609656  0.804886  0.050729  1
  Hf  Hf2  1  0.803914  0.607826  0.545975  1
  Hf  Hf3  1  0.194727  0.389453  0.050633  1
  Hf  Hf4  1  0.804795  0.196088  0.547570  1
  Hf  Hf5  1  0.391293  0.196088  0.547570  1
  Hf  Hf6  1  0.803914  0.607826  0.954025  1
  Hf  Hf7  1  0.804795  0.196088  0.952430  1
  Hf  Hf8  1  0.391293  0.196088  0.952430  1
  Hf  Hf9  1  0.609656  0.804886  0.449271  1
  Hf  Hf10  1  0.195230  0.804886  0.449271  1
  Hf  Hf11  1  0.194727  0.389453  0.449367  1
  Hf  Hf12  1  0.540314  0.080627  0.250000  1
  Hf  Hf13  1  0.460029  0.920056  0.750000  1
  Hf  Hf14  1  0.919819  0.459583  0.250000  1
  Hf  Hf15  1  0.539764  0.459583  0.250000  1
  Hf  Hf16  1  0.458495  0.538853  0.750000  1
  Hf  Hf17  1  0.080360  0.538853  0.750000  1
  Zn  Zn18  1  0.666683  0.333364  0.750000  1
  Zn  Zn19  1  0.333115  0.666230  0.250000  1
  Re  Re20  1  0.889101  0.778202  0.250000  1
  Re  Re21  1  0.112094  0.224189  0.750000  1
  Re  Re22  1  0.221641  0.111123  0.250000  1
  Re  Re23  1  0.889482  0.111123  0.250000  1
  Mo  Mo24  1  0.112150  0.889698  0.750000  1
  Mo  Mo25  1  0.777548  0.889698  0.750000  1
  W  W26  1  0.000089  0.000179  0.999423  1
  W  W27  1  0.000089  0.000179  0.500577  1
