# generated using pymatgen
data_Tb4Ga4IrPd2Ru
_symmetry_space_group_name_H-M   'P 1'
_cell_length_a   4.37555300
_cell_length_b   6.94872278
_cell_length_c   7.79594554
_cell_angle_alpha   90.47318316
_cell_angle_beta   90.00000000
_cell_angle_gamma   90.00000000
_symmetry_Int_Tables_number   1
_chemical_formula_structural   Tb4Ga4IrPd2Ru
_chemical_formula_sum   'Tb4 Ga4 Ir1 Pd2 Ru1'
_cell_volume   237.02378045
_cell_formula_units_Z   1
loop_
 _symmetry_equiv_pos_site_id
 _symmetry_equiv_pos_as_xyz
  1  'x, y, z'
loop_
 _atom_site_type_symbol
 _atom_site_label
 _atom_site_symmetry_multiplicity
 _atom_site_fract_x
 _atom_site_fract_y
 _atom_site_fract_z
 _atom_site_occupancy
  Tb  Tb0  1  0.250000  0.480934  0.184717  1
  Tb  Tb1  1  0.750000  0.519154  0.812246  1
  Tb  Tb2  1  0.250000  0.973896  0.303653  1
  Tb  Tb3  1  0.750000  0.024556  0.699039  1
  Ga  Ga4  1  0.250000  0.842538  0.928833  1
  Ga  Ga5  1  0.750000  0.160464  0.069865  1
  Ga  Ga6  1  0.250000  0.334884  0.575391  1
  Ga  Ga7  1  0.750000  0.664641  0.425829  1
  Ir  Ir8  1  0.750000  0.772321  0.107953  1
  Pd  Pd9  1  0.750000  0.278511  0.396580  1
  Pd  Pd10  1  0.250000  0.721003  0.603665  1
  Ru  Ru11  1  0.250000  0.227097  0.892229  1
