# generated using pymatgen
data_CaHoTm4(GaNi2)6
_symmetry_space_group_name_H-M   'P 1'
_cell_length_a   5.18176800
_cell_length_b   5.18176774
_cell_length_c   15.84117600
_cell_angle_alpha   90.00000000
_cell_angle_beta   90.00000000
_cell_angle_gamma   119.99998890
_symmetry_Int_Tables_number   1
_chemical_formula_structural   CaHoTm4(GaNi2)6
_chemical_formula_sum   'Ca1 Ho1 Tm4 Ga6 Ni12'
_cell_volume   368.36130839
_cell_formula_units_Z   1
loop_
 _symmetry_equiv_pos_site_id
 _symmetry_equiv_pos_as_xyz
  1  'x, y, z'
loop_
 _atom_site_type_symbol
 _atom_site_label
 _atom_site_symmetry_multiplicity
 _atom_site_fract_x
 _atom_site_fract_y
 _atom_site_fract_z
 _atom_site_occupancy
  Ca  Ca0  1  0.666667  0.333333  0.250000  1
  Ho  Ho1  1  0.333333  0.666667  0.750000  1
  Tm  Tm2  1  0.333333  0.666667  0.542465  1
  Tm  Tm3  1  0.666667  0.333333  0.456465  1
  Tm  Tm4  1  0.666667  0.333333  0.043535  1
  Tm  Tm5  1  0.333333  0.666667  0.957535  1
  Ga  Ga6  1  0.000000  0.000000  0.250000  1
  Ga  Ga7  1  0.000000  0.000000  0.750000  1
  Ga  Ga8  1  0.333333  0.666667  0.250000  1
  Ga  Ga9  1  0.666667  0.333333  0.750000  1
  Ga  Ga10  1  0.000000  0.000000  0.999487  1
  Ga  Ga11  1  0.000000  0.000000  0.500513  1
  Ni  Ni12  1  0.168857  0.337713  0.124057  1
  Ni  Ni13  1  0.831356  0.662713  0.874379  1
  Ni  Ni14  1  0.662287  0.831143  0.124057  1
  Ni  Ni15  1  0.831356  0.662713  0.625621  1
  Ni  Ni16  1  0.337287  0.168644  0.874379  1
  Ni  Ni17  1  0.168857  0.337713  0.375943  1
  Ni  Ni18  1  0.168857  0.831143  0.124057  1
  Ni  Ni19  1  0.337287  0.168644  0.625621  1
  Ni  Ni20  1  0.831356  0.168644  0.874379  1
  Ni  Ni21  1  0.662287  0.831143  0.375943  1
  Ni  Ni22  1  0.831356  0.168644  0.625621  1
  Ni  Ni23  1  0.168857  0.831143  0.375943  1
