# generated using pymatgen
data_Ho3Er2Lu11(Ga3Co)2
_symmetry_space_group_name_H-M   'P 1'
_cell_length_a   9.81060700
_cell_length_b   9.81093940
_cell_length_c   6.84122600
_cell_angle_alpha   90.00260788
_cell_angle_beta   90.00000000
_cell_angle_gamma   119.99887586
_symmetry_Int_Tables_number   1
_chemical_formula_structural   Ho3Er2Lu11(Ga3Co)2
_chemical_formula_sum   'Ho3 Er2 Lu11 Ga6 Co2'
_cell_volume   570.26400577
_cell_formula_units_Z   1
loop_
 _symmetry_equiv_pos_site_id
 _symmetry_equiv_pos_as_xyz
  1  'x, y, z'
loop_
 _atom_site_type_symbol
 _atom_site_label
 _atom_site_symmetry_multiplicity
 _atom_site_fract_x
 _atom_site_fract_y
 _atom_site_fract_z
 _atom_site_occupancy
  Ho  Ho0  1  0.535052  0.070103  0.707943  1
  Ho  Ho1  1  0.999999  0.999999  0.230474  1
  Ho  Ho2  1  0.999995  0.999990  0.730660  1
  Er  Er3  1  0.535088  0.464934  0.707940  1
  Er  Er4  1  0.929846  0.464934  0.707940  1
  Lu  Lu5  1  0.174296  0.825653  0.509211  1
  Lu  Lu6  1  0.651355  0.825653  0.509211  1
  Lu  Lu7  1  0.174327  0.348656  0.509226  1
  Lu  Lu8  1  0.825921  0.174114  0.012935  1
  Lu  Lu9  1  0.348193  0.174114  0.012935  1
  Lu  Lu10  1  0.825886  0.651770  0.012906  1
  Lu  Lu11  1  0.333322  0.666644  0.828354  1
  Lu  Lu12  1  0.666683  0.333365  0.326984  1
  Lu  Lu13  1  0.463502  0.536509  0.207359  1
  Lu  Lu14  1  0.073004  0.536509  0.207359  1
  Lu  Lu15  1  0.463490  0.926983  0.207369  1
  Ga  Ga16  1  0.163919  0.836074  0.960342  1
  Ga  Ga17  1  0.672155  0.836074  0.960342  1
  Ga  Ga18  1  0.163921  0.327842  0.960330  1
  Ga  Ga19  1  0.836358  0.163652  0.458761  1
  Ga  Ga20  1  0.327294  0.163652  0.458761  1
  Ga  Ga21  1  0.836348  0.672697  0.458803  1
  Co  Co22  1  0.333346  0.666694  0.442934  1
  Co  Co23  1  0.666695  0.333389  0.944965  1
