# generated using pymatgen
data_Na2LiO6
_symmetry_space_group_name_H-M   'P 1'
_cell_length_a   5.51458424
_cell_length_b   4.71714602
_cell_length_c   4.68844305
_cell_angle_alpha   66.24002118
_cell_angle_beta   85.36272028
_cell_angle_gamma   86.67244898
_symmetry_Int_Tables_number   1
_chemical_formula_structural   Na2LiO6
_chemical_formula_sum   'Na2 Li1 O6'
_cell_volume   111.21491047
_cell_formula_units_Z   1
loop_
 _symmetry_equiv_pos_site_id
 _symmetry_equiv_pos_as_xyz
  1  'x, y, z'
loop_
 _atom_site_type_symbol
 _atom_site_label
 _atom_site_symmetry_multiplicity
 _atom_site_fract_x
 _atom_site_fract_y
 _atom_site_fract_z
 _atom_site_occupancy
  Na  Na0  1  0.337420  0.662051  0.647976  1
  Na  Na1  1  0.662580  0.337949  0.352024  1
  Li  Li2  1  0.000000  0.000000  0.000000  1
  O  O3  1  0.137830  0.340845  0.319514  1
  O  O4  1  0.754877  0.827361  0.392825  1
  O  O5  1  0.252574  0.629319  0.160661  1
  O  O6  1  0.862170  0.659155  0.680486  1
  O  O7  1  0.245123  0.172639  0.607175  1
  O  O8  1  0.747426  0.370681  0.839339  1
