# generated using pymatgen
data_Pr9Dy(TlGa2)2
_symmetry_space_group_name_H-M   'P 1'
_cell_length_a   8.06961900
_cell_length_b   8.06961900
_cell_length_c   14.74449200
_cell_angle_alpha   90.00000000
_cell_angle_beta   90.00000000
_cell_angle_gamma   90.00000000
_symmetry_Int_Tables_number   1
_chemical_formula_structural   Pr9Dy(TlGa2)2
_chemical_formula_sum   'Pr18 Dy2 Tl4 Ga8'
_cell_volume   960.14290030
_cell_formula_units_Z   2
loop_
 _symmetry_equiv_pos_site_id
 _symmetry_equiv_pos_as_xyz
  1  'x, y, z'
loop_
 _atom_site_type_symbol
 _atom_site_label
 _atom_site_symmetry_multiplicity
 _atom_site_fract_x
 _atom_site_fract_y
 _atom_site_fract_z
 _atom_site_occupancy
  Pr  Pr0  1  0.823092  0.838048  0.606387  1
  Pr  Pr1  1  0.176908  0.838048  0.106387  1
  Pr  Pr2  1  0.159048  0.821697  0.392701  1
  Pr  Pr3  1  0.840952  0.178303  0.392701  1
  Pr  Pr4  1  0.678303  0.659048  0.392701  1
  Pr  Pr5  1  0.661952  0.323092  0.606387  1
  Pr  Pr6  1  0.338048  0.676908  0.606387  1
  Pr  Pr7  1  0.661952  0.676908  0.106387  1
  Pr  Pr8  1  0.678303  0.340952  0.892701  1
  Pr  Pr9  1  0.840952  0.821697  0.892701  1
  Pr  Pr10  1  0.321697  0.340952  0.392701  1
  Pr  Pr11  1  0.176908  0.161952  0.606387  1
  Pr  Pr12  1  0.823092  0.161952  0.106387  1
  Pr  Pr13  1  0.321697  0.659048  0.892701  1
  Pr  Pr14  1  0.338048  0.323092  0.106387  1
  Pr  Pr15  1  0.500000  0.000000  0.276352  1
  Pr  Pr16  1  0.159048  0.178303  0.892701  1
  Pr  Pr17  1  0.500000  0.000000  0.776352  1
  Dy  Dy18  1  0.000000  0.500000  0.730139  1
  Dy  Dy19  1  0.000000  0.500000  0.230139  1
  Tl  Tl20  1  0.000000  0.500000  0.505300  1
  Tl  Tl21  1  0.500000  0.000000  0.496860  1
  Tl  Tl22  1  0.500000  0.000000  0.996860  1
  Tl  Tl23  1  0.000000  0.500000  0.005300  1
  Ga  Ga24  1  0.626799  0.380515  0.248749  1
  Ga  Ga25  1  0.119485  0.873201  0.748749  1
  Ga  Ga26  1  0.373201  0.380515  0.748749  1
  Ga  Ga27  1  0.373201  0.619485  0.248749  1
  Ga  Ga28  1  0.880515  0.873201  0.248749  1
  Ga  Ga29  1  0.626799  0.619485  0.748749  1
  Ga  Ga30  1  0.880515  0.126799  0.748749  1
  Ga  Ga31  1  0.119485  0.126799  0.248749  1
