# generated using pymatgen
data_Pr3Gd5(AlIr)2
_symmetry_space_group_name_H-M   'P 1'
_cell_length_a   9.76268406
_cell_length_b   9.76268420
_cell_length_c   9.76268500
_cell_angle_alpha   60.00000744
_cell_angle_beta   60.00000698
_cell_angle_gamma   60.00000707
_symmetry_Int_Tables_number   1
_chemical_formula_structural   Pr3Gd5(AlIr)2
_chemical_formula_sum   'Pr6 Gd10 Al4 Ir4'
_cell_volume   657.94989999
_cell_formula_units_Z   2
loop_
 _symmetry_equiv_pos_site_id
 _symmetry_equiv_pos_as_xyz
  1  'x, y, z'
loop_
 _atom_site_type_symbol
 _atom_site_label
 _atom_site_symmetry_multiplicity
 _atom_site_fract_x
 _atom_site_fract_y
 _atom_site_fract_z
 _atom_site_occupancy
  Pr  Pr0  1  0.938822  0.561178  0.561178  1
  Pr  Pr1  1  0.561178  0.938822  0.938822  1
  Pr  Pr2  1  0.561178  0.938822  0.561178  1
  Pr  Pr3  1  0.938822  0.561178  0.938822  1
  Pr  Pr4  1  0.561178  0.561178  0.938822  1
  Pr  Pr5  1  0.938822  0.938822  0.561178  1
  Gd  Gd6  1  0.349226  0.349226  0.349226  1
  Gd  Gd7  1  0.349226  0.349226  0.952324  1
  Gd  Gd8  1  0.349226  0.952324  0.349226  1
  Gd  Gd9  1  0.952324  0.349226  0.349226  1
  Gd  Gd10  1  0.807701  0.192299  0.192299  1
  Gd  Gd11  1  0.192299  0.807701  0.807701  1
  Gd  Gd12  1  0.192299  0.807701  0.192299  1
  Gd  Gd13  1  0.807701  0.192299  0.807701  1
  Gd  Gd14  1  0.192299  0.192299  0.807701  1
  Gd  Gd15  1  0.807701  0.807701  0.192299  1
  Al  Al16  1  0.573608  0.573608  0.573608  1
  Al  Al17  1  0.573608  0.573608  0.279177  1
  Al  Al18  1  0.573608  0.279177  0.573608  1
  Al  Al19  1  0.279177  0.573608  0.573608  1
  Ir  Ir20  1  0.140619  0.140619  0.140619  1
  Ir  Ir21  1  0.140619  0.140619  0.578141  1
  Ir  Ir22  1  0.140619  0.578141  0.140619  1
  Ir  Ir23  1  0.578141  0.140619  0.140619  1
