# generated using pymatgen
data_Na4La3NdTe8
_symmetry_space_group_name_H-M   'P 1'
_cell_length_a   9.21338920
_cell_length_b   9.21338857
_cell_length_c   9.21338736
_cell_angle_alpha   60.39675211
_cell_angle_beta   60.39676095
_cell_angle_gamma   60.39675495
_symmetry_Int_Tables_number   1
_chemical_formula_structural   Na4La3NdTe8
_chemical_formula_sum   'Na4 La3 Nd1 Te8'
_cell_volume   557.98502013
_cell_formula_units_Z   1
loop_
 _symmetry_equiv_pos_site_id
 _symmetry_equiv_pos_as_xyz
  1  'x, y, z'
loop_
 _atom_site_type_symbol
 _atom_site_label
 _atom_site_symmetry_multiplicity
 _atom_site_fract_x
 _atom_site_fract_y
 _atom_site_fract_z
 _atom_site_occupancy
  Na  Na0  1  0.125000  0.625000  0.125000  1
  Na  Na1  1  0.125000  0.125000  0.625000  1
  Na  Na2  1  0.625000  0.125000  0.125000  1
  Na  Na3  1  0.125000  0.125000  0.125000  1
  La  La4  1  0.625000  0.125000  0.625000  1
  La  La5  1  0.125000  0.625000  0.625000  1
  La  La6  1  0.625000  0.625000  0.125000  1
  Nd  Nd7  1  0.625000  0.625000  0.625000  1
  Te  Te8  1  0.379690  0.865387  0.379690  1
  Te  Te9  1  0.870310  0.384613  0.870310  1
  Te  Te10  1  0.870310  0.870310  0.384613  1
  Te  Te11  1  0.872307  0.872307  0.872307  1
  Te  Te12  1  0.865387  0.379690  0.379690  1
  Te  Te13  1  0.379690  0.379690  0.865387  1
  Te  Te14  1  0.377693  0.377693  0.377693  1
  Te  Te15  1  0.384613  0.870310  0.870310  1
