# generated using pymatgen
data_Ta3Fe5B2
_symmetry_space_group_name_H-M   'P 1'
_cell_length_a   8.77451200
_cell_length_b   8.77451200
_cell_length_c   2.98857200
_cell_angle_alpha   90.00000000
_cell_angle_beta   90.00000000
_cell_angle_gamma   90.00000000
_symmetry_Int_Tables_number   1
_chemical_formula_structural   Ta3Fe5B2
_chemical_formula_sum   'Ta6 Fe10 B4'
_cell_volume   230.09631724
_cell_formula_units_Z   2
loop_
 _symmetry_equiv_pos_site_id
 _symmetry_equiv_pos_as_xyz
  1  'x, y, z'
loop_
 _atom_site_type_symbol
 _atom_site_label
 _atom_site_symmetry_multiplicity
 _atom_site_fract_x
 _atom_site_fract_y
 _atom_site_fract_z
 _atom_site_occupancy
  Ta  Ta0  1  0.500000  0.500000  0.000000  1
  Ta  Ta1  1  0.000000  0.000000  0.000000  1
  Ta  Ta2  1  0.825010  0.325010  0.000000  1
  Ta  Ta3  1  0.174990  0.674990  0.000000  1
  Ta  Ta4  1  0.325010  0.174990  0.000000  1
  Ta  Ta5  1  0.674990  0.825010  0.000000  1
  Fe  Fe6  1  0.500000  0.000000  0.500000  1
  Fe  Fe7  1  0.000000  0.500000  0.500000  1
  Fe  Fe8  1  0.722121  0.570382  0.500000  1
  Fe  Fe9  1  0.277879  0.429618  0.500000  1
  Fe  Fe10  1  0.222121  0.929618  0.500000  1
  Fe  Fe11  1  0.777879  0.070382  0.500000  1
  Fe  Fe12  1  0.429618  0.722121  0.500000  1
  Fe  Fe13  1  0.570382  0.277879  0.500000  1
  Fe  Fe14  1  0.070382  0.222121  0.500000  1
  Fe  Fe15  1  0.929618  0.777879  0.500000  1
  B  B16  1  0.619072  0.119072  0.000000  1
  B  B17  1  0.380928  0.880928  0.000000  1
  B  B18  1  0.119072  0.380928  0.000000  1
  B  B19  1  0.880928  0.619072  0.000000  1
