# generated using pymatgen
data_Tm3Sn3PdRu2
_symmetry_space_group_name_H-M   'P 1'
_cell_length_a   7.68696100
_cell_length_b   7.68696168
_cell_length_c   3.68076900
_cell_angle_alpha   90.00000000
_cell_angle_beta   90.00000000
_cell_angle_gamma   120.00000138
_symmetry_Int_Tables_number   1
_chemical_formula_structural   Tm3Sn3PdRu2
_chemical_formula_sum   'Tm3 Sn3 Pd1 Ru2'
_cell_volume   188.35561962
_cell_formula_units_Z   1
loop_
 _symmetry_equiv_pos_site_id
 _symmetry_equiv_pos_as_xyz
  1  'x, y, z'
loop_
 _atom_site_type_symbol
 _atom_site_label
 _atom_site_symmetry_multiplicity
 _atom_site_fract_x
 _atom_site_fract_y
 _atom_site_fract_z
 _atom_site_occupancy
  Tm  Tm0  1  0.014648  0.406373  0.500000  1
  Tm  Tm1  1  0.593627  0.608274  0.500000  1
  Tm  Tm2  1  0.391726  0.985352  0.500000  1
  Sn  Sn3  1  0.002149  0.734535  0.000000  1
  Sn  Sn4  1  0.265465  0.267614  0.000000  1
  Sn  Sn5  1  0.732386  0.997851  0.000000  1
  Pd  Pd6  1  0.666667  0.333333  0.000000  1
  Ru  Ru7  1  0.333333  0.666667  0.000000  1
  Ru  Ru8  1  0.000000  0.000000  0.500000  1
