# generated using pymatgen
data_GaCu2RhO4
_symmetry_space_group_name_H-M   'P 1'
_cell_length_a   6.14830571
_cell_length_b   6.17619785
_cell_length_c   6.75538816
_cell_angle_alpha   62.81585282
_cell_angle_beta   62.93787403
_cell_angle_gamma   60.14832799
_symmetry_Int_Tables_number   1
_chemical_formula_structural   GaCu2RhO4
_chemical_formula_sum   'Ga2 Cu4 Rh2 O8'
_cell_volume   189.10745088
_cell_formula_units_Z   2
loop_
 _symmetry_equiv_pos_site_id
 _symmetry_equiv_pos_as_xyz
  1  'x, y, z'
loop_
 _atom_site_type_symbol
 _atom_site_label
 _atom_site_symmetry_multiplicity
 _atom_site_fract_x
 _atom_site_fract_y
 _atom_site_fract_z
 _atom_site_occupancy
  Ga  Ga0  1  0.000000  0.500000  0.500000  1
  Ga  Ga1  1  0.500000  0.500000  0.500000  1
  Cu  Cu2  1  0.500000  0.000000  0.000000  1
  Cu  Cu3  1  0.000000  0.000000  0.000000  1
  Cu  Cu4  1  0.000000  0.500000  0.000000  1
  Cu  Cu5  1  0.500000  0.500000  0.000000  1
  Rh  Rh6  1  0.000000  0.000000  0.500000  1
  Rh  Rh7  1  0.500000  0.000000  0.500000  1
  O  O8  1  0.611225  0.601162  0.676424  1
  O  O9  1  0.111226  0.601158  0.676427  1
  O  O10  1  0.888774  0.398842  0.323573  1
  O  O11  1  0.388775  0.398838  0.323576  1
  O  O12  1  0.103209  0.116671  0.676917  1
  O  O13  1  0.603211  0.116668  0.676927  1
  O  O14  1  0.396789  0.883332  0.323073  1
  O  O15  1  0.896791  0.883329  0.323083  1
