# generated using pymatgen
data_TbSm4Dy3(B6Ru)4
_symmetry_space_group_name_H-M   'P 1'
_cell_length_a   3.70096500
_cell_length_b   9.21302504
_cell_length_c   11.61061105
_cell_angle_alpha   90.01057129
_cell_angle_beta   90.00000000
_cell_angle_gamma   90.00000000
_symmetry_Int_Tables_number   1
_chemical_formula_structural   TbSm4Dy3(B6Ru)4
_chemical_formula_sum   'Tb1 Sm4 Dy3 B24 Ru4'
_cell_volume   395.88796438
_cell_formula_units_Z   1
loop_
 _symmetry_equiv_pos_site_id
 _symmetry_equiv_pos_as_xyz
  1  'x, y, z'
loop_
 _atom_site_type_symbol
 _atom_site_label
 _atom_site_symmetry_multiplicity
 _atom_site_fract_x
 _atom_site_fract_y
 _atom_site_fract_z
 _atom_site_occupancy
  Tb  Tb0  1  0.000000  0.943859  0.371867  1
  Sm  Sm1  1  0.000000  0.323350  0.414159  1
  Sm  Sm2  1  0.000000  0.676671  0.586005  1
  Sm  Sm3  1  0.000000  0.823205  0.085801  1
  Sm  Sm4  1  0.000000  0.176849  0.914077  1
  Dy  Dy5  1  0.000000  0.056195  0.628355  1
  Dy  Dy6  1  0.000000  0.443852  0.128070  1
  Dy  Dy7  1  0.000000  0.556151  0.871832  1
  B  B8  1  0.500000  0.555192  0.431693  1
  B  B9  1  0.500000  0.444538  0.568406  1
  B  B10  1  0.500000  0.055513  0.068166  1
  B  B11  1  0.500000  0.944583  0.931627  1
  B  B12  1  0.500000  0.748128  0.418465  1
  B  B13  1  0.500000  0.251520  0.581636  1
  B  B14  1  0.500000  0.248681  0.081483  1
  B  B15  1  0.500000  0.751432  0.918421  1
  B  B16  1  0.500000  0.790087  0.266592  1
  B  B17  1  0.500000  0.209540  0.733369  1
  B  B18  1  0.500000  0.290747  0.233239  1
  B  B19  1  0.500000  0.709465  0.766713  1
  B  B20  1  0.500000  0.631403  0.185223  1
  B  B21  1  0.500000  0.368467  0.814683  1
  B  B22  1  0.500000  0.131927  0.314512  1
  B  B23  1  0.500000  0.868384  0.685432  1
  B  B24  1  0.500000  0.985601  0.213114  1
  B  B25  1  0.500000  0.014659  0.786633  1
  B  B26  1  0.500000  0.485164  0.286520  1
  B  B27  1  0.500000  0.514697  0.713440  1
  B  B28  1  0.500000  0.605885  0.029075  1
  B  B29  1  0.500000  0.394106  0.970838  1
  B  B30  1  0.500000  0.106608  0.471029  1
  B  B31  1  0.500000  0.893669  0.529549  1
  Ru  Ru32  1  0.000000  0.638397  0.320419  1
  Ru  Ru33  1  0.000000  0.361278  0.679648  1
  Ru  Ru34  1  0.000000  0.138996  0.179403  1
  Ru  Ru35  1  0.000000  0.861202  0.820506  1
