# generated using pymatgen
data_LiY7Ho12(Cd3Ru)2
_symmetry_space_group_name_H-M   'P 1'
_cell_length_a   9.54354200
_cell_length_b   9.54354129
_cell_length_c   9.74911700
_cell_angle_alpha   90.00000000
_cell_angle_beta   90.00000000
_cell_angle_gamma   120.00000244
_symmetry_Int_Tables_number   1
_chemical_formula_structural   LiY7Ho12(Cd3Ru)2
_chemical_formula_sum   'Li1 Y7 Ho12 Cd6 Ru2'
_cell_volume   768.98000882
_cell_formula_units_Z   1
loop_
 _symmetry_equiv_pos_site_id
 _symmetry_equiv_pos_as_xyz
  1  'x, y, z'
loop_
 _atom_site_type_symbol
 _atom_site_label
 _atom_site_symmetry_multiplicity
 _atom_site_fract_x
 _atom_site_fract_y
 _atom_site_fract_z
 _atom_site_occupancy
  Li  Li0  1  0.000000  0.000000  0.500000  1
  Y  Y1  1  0.000000  0.000000  0.000000  1
  Y  Y2  1  0.541461  0.458539  0.252006  1
  Y  Y3  1  0.541461  0.082921  0.252006  1
  Y  Y4  1  0.917079  0.458539  0.252006  1
  Y  Y5  1  0.458539  0.541461  0.747994  1
  Y  Y6  1  0.458539  0.917079  0.747994  1
  Y  Y7  1  0.082921  0.541461  0.747994  1
  Ho  Ho8  1  0.208405  0.791595  0.440222  1
  Ho  Ho9  1  0.208405  0.416810  0.440222  1
  Ho  Ho10  1  0.583190  0.791595  0.440222  1
  Ho  Ho11  1  0.791595  0.208405  0.559778  1
  Ho  Ho12  1  0.791595  0.583190  0.559778  1
  Ho  Ho13  1  0.416810  0.208405  0.559778  1
  Ho  Ho14  1  0.789123  0.210877  0.941172  1
  Ho  Ho15  1  0.789123  0.578245  0.941172  1
  Ho  Ho16  1  0.421755  0.210877  0.941172  1
  Ho  Ho17  1  0.210877  0.789123  0.058828  1
  Ho  Ho18  1  0.210877  0.421755  0.058828  1
  Ho  Ho19  1  0.578245  0.789123  0.058828  1
  Cd  Cd20  1  0.888322  0.111678  0.258326  1
  Cd  Cd21  1  0.888322  0.776646  0.258326  1
  Cd  Cd22  1  0.223354  0.111678  0.258326  1
  Cd  Cd23  1  0.111678  0.888322  0.741674  1
  Cd  Cd24  1  0.111678  0.223354  0.741674  1
  Cd  Cd25  1  0.776646  0.888322  0.741674  1
  Ru  Ru26  1  0.333333  0.666667  0.250418  1
  Ru  Ru27  1  0.666667  0.333333  0.749582  1
