# generated using pymatgen
data_Pr8GaSi11Pt4
_symmetry_space_group_name_H-M   'P 1'
_cell_length_a   8.31097920
_cell_length_b   8.31098015
_cell_length_c   8.65107502
_cell_angle_alpha   89.99384591
_cell_angle_beta   90.00615588
_cell_angle_gamma   120.06115533
_symmetry_Int_Tables_number   1
_chemical_formula_structural   Pr8GaSi11Pt4
_chemical_formula_sum   'Pr8 Ga1 Si11 Pt4'
_cell_volume   517.17459871
_cell_formula_units_Z   1
loop_
 _symmetry_equiv_pos_site_id
 _symmetry_equiv_pos_as_xyz
  1  'x, y, z'
loop_
 _atom_site_type_symbol
 _atom_site_label
 _atom_site_symmetry_multiplicity
 _atom_site_fract_x
 _atom_site_fract_y
 _atom_site_fract_z
 _atom_site_occupancy
  Pr  Pr0  1  0.499294  0.500706  0.749941  1
  Pr  Pr1  1  0.499993  0.500007  0.250122  1
  Pr  Pr2  1  0.000357  0.500871  0.750775  1
  Pr  Pr3  1  0.999263  0.500470  0.249212  1
  Pr  Pr4  1  0.499129  0.999643  0.750775  1
  Pr  Pr5  1  0.499530  0.000737  0.249212  1
  Pr  Pr6  1  0.001871  0.998129  0.748232  1
  Pr  Pr7  1  0.001914  0.998086  0.251699  1
  Ga  Ga8  1  0.835168  0.164832  0.000897  1
  Si  Si9  1  0.166054  0.833946  0.999239  1
  Si  Si10  1  0.331509  0.165789  0.000697  1
  Si  Si11  1  0.165772  0.834228  0.500667  1
  Si  Si12  1  0.666733  0.830000  0.999395  1
  Si  Si13  1  0.834257  0.165743  0.499211  1
  Si  Si14  1  0.834211  0.668491  0.000697  1
  Si  Si15  1  0.668367  0.834385  0.500611  1
  Si  Si16  1  0.170000  0.333267  0.999395  1
  Si  Si17  1  0.332029  0.166385  0.499379  1
  Si  Si18  1  0.165615  0.331633  0.500611  1
  Si  Si19  1  0.833615  0.667971  0.499379  1
  Pt  Pt20  1  0.662589  0.337411  0.998274  1
  Pt  Pt21  1  0.333057  0.666943  0.001368  1
  Pt  Pt22  1  0.332949  0.667051  0.499014  1
  Pt  Pt23  1  0.666725  0.333275  0.501202  1
