# generated using pymatgen
data_Er6Al24FeOs5Rh2
_symmetry_space_group_name_H-M   'P 1'
_cell_length_a   8.82017000
_cell_length_b   8.77819983
_cell_length_c   9.48177891
_cell_angle_alpha   90.27498216
_cell_angle_beta   90.00000000
_cell_angle_gamma   120.15827909
_symmetry_Int_Tables_number   1
_chemical_formula_structural   Er6Al24FeOs5Rh2
_chemical_formula_sum   'Er6 Al24 Fe1 Os5 Rh2'
_cell_volume   634.74794832
_cell_formula_units_Z   1
loop_
 _symmetry_equiv_pos_site_id
 _symmetry_equiv_pos_as_xyz
  1  'x, y, z'
loop_
 _atom_site_type_symbol
 _atom_site_label
 _atom_site_symmetry_multiplicity
 _atom_site_fract_x
 _atom_site_fract_y
 _atom_site_fract_z
 _atom_site_occupancy
  Er  Er0  1  0.196236  0.392473  0.251291  1
  Er  Er1  1  0.803764  0.607527  0.748709  1
  Er  Er2  1  0.610724  0.801034  0.252863  1
  Er  Er3  1  0.389276  0.198966  0.747137  1
  Er  Er4  1  0.190310  0.801034  0.252863  1
  Er  Er5  1  0.809690  0.198966  0.747137  1
  Al  Al6  1  0.333019  0.666039  0.016198  1
  Al  Al7  1  0.666981  0.333961  0.983802  1
  Al  Al8  1  0.666563  0.333126  0.517958  1
  Al  Al9  1  0.333437  0.666874  0.482042  1
  Al  Al10  1  0.163688  0.327376  0.576786  1
  Al  Al11  1  0.836312  0.672624  0.423214  1
  Al  Al12  1  0.674237  0.838167  0.578563  1
  Al  Al13  1  0.840481  0.680961  0.076622  1
  Al  Al14  1  0.325763  0.161833  0.421437  1
  Al  Al15  1  0.159519  0.319039  0.923378  1
  Al  Al16  1  0.163930  0.838167  0.578563  1
  Al  Al17  1  0.316106  0.159511  0.077174  1
  Al  Al18  1  0.836070  0.161833  0.421437  1
  Al  Al19  1  0.683894  0.840489  0.922826  1
  Al  Al20  1  0.843406  0.159511  0.077174  1
  Al  Al21  1  0.156594  0.840489  0.922826  1
  Al  Al22  1  0.559325  0.118651  0.249378  1
  Al  Al23  1  0.440675  0.881349  0.750622  1
  Al  Al24  1  0.877390  0.437325  0.249227  1
  Al  Al25  1  0.122610  0.562675  0.750773  1
  Al  Al26  1  0.559935  0.437325  0.249227  1
  Al  Al27  1  0.440065  0.562675  0.750773  1
  Al  Al28  1  0.999939  0.999877  0.244033  1
  Al  Al29  1  0.000061  0.000123  0.755967  1
  Fe  Fe30  1  0.000000  0.000000  0.000000  1
  Os  Os31  1  0.000000  0.500000  0.000000  1
  Os  Os32  1  0.500000  0.000000  0.500000  1
  Os  Os33  1  0.500000  0.500000  0.000000  1
  Os  Os34  1  0.000000  0.500000  0.500000  1
  Os  Os35  1  0.500000  0.500000  0.500000  1
  Rh  Rh36  1  0.500000  0.000000  0.000000  1
  Rh  Rh37  1  0.000000  0.000000  0.500000  1
