# generated using pymatgen
data_Ho29Se32
_symmetry_space_group_name_H-M   'P 1'
_cell_length_a   14.10165747
_cell_length_b   14.10165713
_cell_length_c   14.10165700
_cell_angle_alpha   131.84886751
_cell_angle_beta   131.84886629
_cell_angle_gamma   70.46783176
_symmetry_Int_Tables_number   1
_chemical_formula_structural   Ho29Se32
_chemical_formula_sum   'Ho29 Se32'
_cell_volume   1524.69541625
_cell_formula_units_Z   1
loop_
 _symmetry_equiv_pos_site_id
 _symmetry_equiv_pos_as_xyz
  1  'x, y, z'
loop_
 _atom_site_type_symbol
 _atom_site_label
 _atom_site_symmetry_multiplicity
 _atom_site_fract_x
 _atom_site_fract_y
 _atom_site_fract_z
 _atom_site_occupancy
  Ho  Ho0  1  0.124687  0.874424  0.749736  1
  Ho  Ho1  1  0.375006  0.623834  0.248827  1
  Ho  Ho2  1  0.624994  0.376166  0.751173  1
  Ho  Ho3  1  0.875313  0.125576  0.250264  1
  Ho  Ho4  1  0.749233  0.749233  0.498464  1
  Ho  Ho5  1  0.000000  0.500000  0.000000  1
  Ho  Ho6  1  0.250767  0.250767  0.501536  1
  Ho  Ho7  1  0.500000  0.000000  0.000000  1
  Ho  Ho8  1  0.874424  0.124687  0.749736  1
  Ho  Ho9  1  0.125576  0.875313  0.250264  1
  Ho  Ho10  1  0.376166  0.624994  0.751173  1
  Ho  Ho11  1  0.623834  0.375006  0.248827  1
  Ho  Ho12  1  0.624994  0.873821  0.248827  1
  Ho  Ho13  1  0.875313  0.625049  0.749736  1
  Ho  Ho14  1  0.124687  0.374951  0.250264  1
  Ho  Ho15  1  0.375006  0.126179  0.751173  1
  Ho  Ho16  1  0.000000  0.000000  0.500000  1
  Ho  Ho17  1  0.250767  0.749233  0.000000  1
  Ho  Ho18  1  0.500000  0.500000  0.500000  1
  Ho  Ho19  1  0.749233  0.250767  0.000000  1
  Ho  Ho20  1  0.126179  0.375006  0.751173  1
  Ho  Ho21  1  0.374951  0.124687  0.250264  1
  Ho  Ho22  1  0.625049  0.875313  0.749736  1
  Ho  Ho23  1  0.873821  0.624994  0.248827  1
  Ho  Ho24  1  0.500000  0.000000  0.500000  1
  Ho  Ho25  1  0.751111  0.751111  0.000000  1
  Ho  Ho26  1  0.000000  0.500000  0.500000  1
  Ho  Ho27  1  0.248889  0.248889  0.000000  1
  Ho  Ho28  1  0.000000  0.000000  0.000000  1
  Se  Se29  1  0.874796  0.874796  0.499428  1
  Se  Se30  1  0.125204  0.624632  0.000000  1
  Se  Se31  1  0.375368  0.375368  0.500572  1
  Se  Se32  1  0.624632  0.125204  0.000000  1
  Se  Se33  1  0.125204  0.125204  0.500572  1
  Se  Se34  1  0.375368  0.874796  0.000000  1
  Se  Se35  1  0.624632  0.624632  0.499428  1
  Se  Se36  1  0.874796  0.375368  0.000000  1
  Se  Se37  1  0.749153  0.000000  0.749153  1
  Se  Se38  1  0.002584  0.749894  0.252690  1
  Se  Se39  1  0.253626  0.500000  0.753626  1
  Se  Se40  1  0.502797  0.250106  0.252690  1
  Se  Se41  1  0.373481  0.873481  0.500000  1
  Se  Se42  1  0.625013  0.625013  0.000000  1
  Se  Se43  1  0.873481  0.373481  0.500000  1
  Se  Se44  1  0.124785  0.124785  0.000000  1
  Se  Se45  1  0.500000  0.253626  0.753626  1
  Se  Se46  1  0.749894  0.002584  0.252690  1
  Se  Se47  1  0.000000  0.749153  0.749153  1
  Se  Se48  1  0.250106  0.502797  0.252690  1
  Se  Se49  1  0.250847  0.000000  0.250847  1
  Se  Se50  1  0.497203  0.749894  0.747310  1
  Se  Se51  1  0.746374  0.500000  0.246374  1
  Se  Se52  1  0.997416  0.250106  0.747310  1
  Se  Se53  1  0.626519  0.126519  0.500000  1
  Se  Se54  1  0.875215  0.875215  0.000000  1
  Se  Se55  1  0.126519  0.626519  0.500000  1
  Se  Se56  1  0.374987  0.374987  0.000000  1
  Se  Se57  1  0.500000  0.746374  0.246374  1
  Se  Se58  1  0.749894  0.497203  0.747310  1
  Se  Se59  1  0.000000  0.250847  0.250847  1
  Se  Se60  1  0.250106  0.997416  0.747310  1
