# generated using pymatgen
data_Rb5SrNbAs4
_symmetry_space_group_name_H-M   'P 1'
_cell_length_a   10.82518504
_cell_length_b   10.82518596
_cell_length_c   8.17625383
_cell_angle_alpha   87.95119898
_cell_angle_beta   87.95119515
_cell_angle_gamma   120.76214675
_symmetry_Int_Tables_number   1
_chemical_formula_structural   Rb5SrNbAs4
_chemical_formula_sum   'Rb10 Sr2 Nb2 As8'
_cell_volume   821.16351019
_cell_formula_units_Z   2
loop_
 _symmetry_equiv_pos_site_id
 _symmetry_equiv_pos_as_xyz
  1  'x, y, z'
loop_
 _atom_site_type_symbol
 _atom_site_label
 _atom_site_symmetry_multiplicity
 _atom_site_fract_x
 _atom_site_fract_y
 _atom_site_fract_z
 _atom_site_occupancy
  Rb  Rb0  1  0.465517  0.525828  0.602674  1
  Rb  Rb1  1  0.060102  0.529558  0.607886  1
  Rb  Rb2  1  0.525828  0.465517  0.102674  1
  Rb  Rb3  1  0.529558  0.060102  0.107886  1
  Rb  Rb4  1  0.863650  0.141989  0.791310  1
  Rb  Rb5  1  0.292099  0.151992  0.832988  1
  Rb  Rb6  1  0.855124  0.716337  0.765036  1
  Rb  Rb7  1  0.141989  0.863650  0.291310  1
  Rb  Rb8  1  0.716337  0.855124  0.265036  1
  Rb  Rb9  1  0.151992  0.292099  0.332988  1
  Sr  Sr10  1  0.464831  0.937882  0.603789  1
  Sr  Sr11  1  0.937882  0.464831  0.103789  1
  Nb  Nb12  1  0.671189  0.328893  0.500436  1
  Nb  Nb13  1  0.328893  0.671189  0.000436  1
  As  As14  1  0.689739  0.340981  0.806999  1
  As  As15  1  0.340981  0.689739  0.306999  1
  As  As16  1  0.197404  0.791368  0.893120  1
  As  As17  1  0.580558  0.799676  0.866909  1
  As  As18  1  0.186950  0.408334  0.936054  1
  As  As19  1  0.791368  0.197404  0.393120  1
  As  As20  1  0.408334  0.186950  0.436054  1
  As  As21  1  0.799676  0.580558  0.366909  1
