# generated using pymatgen
data_Sc3Tc2Ge3Pd
_symmetry_space_group_name_H-M   'P 1'
_cell_length_a   6.97854100
_cell_length_b   7.04998098
_cell_length_c   3.57211100
_cell_angle_alpha   90.00000000
_cell_angle_beta   90.00000000
_cell_angle_gamma   119.66534889
_symmetry_Int_Tables_number   1
_chemical_formula_structural   Sc3Tc2Ge3Pd
_chemical_formula_sum   'Sc3 Tc2 Ge3 Pd1'
_cell_volume   152.70836074
_cell_formula_units_Z   1
loop_
 _symmetry_equiv_pos_site_id
 _symmetry_equiv_pos_as_xyz
  1  'x, y, z'
loop_
 _atom_site_type_symbol
 _atom_site_label
 _atom_site_symmetry_multiplicity
 _atom_site_fract_x
 _atom_site_fract_y
 _atom_site_fract_z
 _atom_site_occupancy
  Sc  Sc0  1  0.993869  0.587179  0.000000  1
  Sc  Sc1  1  0.406689  0.412821  0.000000  1
  Sc  Sc2  1  0.600046  0.000000  0.000000  1
  Tc  Tc3  1  0.000375  0.253124  0.500000  1
  Tc  Tc4  1  0.747251  0.746876  0.500000  1
  Ge  Ge5  1  0.333402  0.663899  0.500000  1
  Ge  Ge6  1  0.669504  0.336101  0.500000  1
  Ge  Ge7  1  0.993824  0.000000  0.000000  1
  Pd  Pd8  1  0.255040  0.000000  0.500000  1
