# generated using pymatgen
data_Tb3YbAl24Pt8Au
_symmetry_space_group_name_H-M   'P 1'
_cell_length_a   7.55424847
_cell_length_b   7.57461699
_cell_length_c   13.22234281
_cell_angle_alpha   84.59321749
_cell_angle_beta   79.12148185
_cell_angle_gamma   59.95434340
_symmetry_Int_Tables_number   1
_chemical_formula_structural   Tb3YbAl24Pt8Au
_chemical_formula_sum   'Tb3 Yb1 Al24 Pt8 Au1'
_cell_volume   643.15482124
_cell_formula_units_Z   1
loop_
 _symmetry_equiv_pos_site_id
 _symmetry_equiv_pos_as_xyz
  1  'x, y, z'
loop_
 _atom_site_type_symbol
 _atom_site_label
 _atom_site_symmetry_multiplicity
 _atom_site_fract_x
 _atom_site_fract_y
 _atom_site_fract_z
 _atom_site_occupancy
  Tb  Tb0  1  0.605842  0.832169  0.191921  1
  Tb  Tb1  1  0.734281  0.498547  0.808936  1
  Tb  Tb2  1  0.266859  0.500869  0.191102  1
  Yb  Yb3  1  0.392514  0.169208  0.808501  1
  Al  Al4  1  0.683203  0.834629  0.945594  1
  Al  Al5  1  0.315404  0.165949  0.054837  1
  Al  Al6  1  0.146744  0.838887  0.559762  1
  Al  Al7  1  0.853937  0.167402  0.436918  1
  Al  Al8  1  0.487762  0.159688  0.557825  1
  Al  Al9  1  0.520490  0.833473  0.440020  1
  Al  Al10  1  0.217298  0.165082  0.329477  1
  Al  Al11  1  0.777164  0.840161  0.672232  1
  Al  Al12  1  0.440985  0.506143  0.672340  1
  Al  Al13  1  0.562836  0.493468  0.329392  1
  Al  Al14  1  0.109888  0.153880  0.671463  1
  Al  Al15  1  0.890040  0.840253  0.330583  1
  Al  Al16  1  0.352766  0.498941  0.945432  1
  Al  Al17  1  0.647446  0.500455  0.055779  1
  Al  Al18  1  0.015634  0.167010  0.954315  1
  Al  Al19  1  0.984381  0.832633  0.046981  1
  Al  Al20  1  0.188101  0.499186  0.437114  1
  Al  Al21  1  0.806605  0.500594  0.557251  1
  Al  Al22  1  0.734669  0.163954  0.183593  1
  Al  Al23  1  0.266623  0.834860  0.816619  1
  Al  Al24  1  0.059208  0.634836  0.818296  1
  Al  Al25  1  0.938662  0.368609  0.184937  1
  Al  Al26  1  0.855363  0.042484  0.816239  1
  Al  Al27  1  0.144414  0.958436  0.183961  1
  Pt  Pt28  1  0.880078  0.507909  0.361497  1
  Pt  Pt29  1  0.657547  0.171255  0.000345  1
  Pt  Pt30  1  0.342339  0.828165  0.000423  1
  Pt  Pt31  1  0.537770  0.166979  0.361455  1
  Pt  Pt32  1  0.462138  0.833084  0.637424  1
  Pt  Pt33  1  0.780096  0.174737  0.635864  1
  Pt  Pt34  1  0.220952  0.824832  0.362748  1
  Pt  Pt35  1  0.999352  0.500334  0.001025  1
  Au  Au36  1  0.120613  0.490896  0.637807  1
