# generated using pymatgen
data_FeNi3(BrO3)8
_symmetry_space_group_name_H-M   'P 1'
_cell_length_a   5.68223533
_cell_length_b   10.46904891
_cell_length_c   10.46206303
_cell_angle_alpha   119.13618890
_cell_angle_beta   90.02179392
_cell_angle_gamma   89.86600165
_symmetry_Int_Tables_number   1
_chemical_formula_structural   FeNi3(BrO3)8
_chemical_formula_sum   'Fe1 Ni3 Br8 O24'
_cell_volume   543.61054093
_cell_formula_units_Z   1
loop_
 _symmetry_equiv_pos_site_id
 _symmetry_equiv_pos_as_xyz
  1  'x, y, z'
loop_
 _atom_site_type_symbol
 _atom_site_label
 _atom_site_symmetry_multiplicity
 _atom_site_fract_x
 _atom_site_fract_y
 _atom_site_fract_z
 _atom_site_occupancy
  Fe  Fe0  1  0.137379  0.762825  0.508051  1
  Ni  Ni1  1  0.639873  0.237948  0.493220  1
  Ni  Ni2  1  0.138382  0.261022  0.005575  1
  Ni  Ni3  1  0.639943  0.738798  0.993702  1
  Br  Br4  1  0.262037  0.411671  0.346699  1
  Br  Br5  1  0.756407  0.581443  0.651022  1
  Br  Br6  1  0.260117  0.915978  0.851524  1
  Br  Br7  1  0.760150  0.084529  0.150812  1
  Br  Br8  1  0.783399  0.091997  0.692283  1
  Br  Br9  1  0.291331  0.916641  0.310198  1
  Br  Br10  1  0.286249  0.413407  0.811760  1
  Br  Br11  1  0.783966  0.584766  0.185127  1
  O  O12  1  0.428516  0.888266  0.968714  1
  O  O13  1  0.931794  0.112990  0.035151  1
  O  O14  1  0.373796  0.802201  0.683043  1
  O  O15  1  0.869395  0.198461  0.319958  1
  O  O16  1  0.367611  0.295305  0.177030  1
  O  O17  1  0.864207  0.697951  0.819802  1
  O  O18  1  0.932420  0.233129  0.828651  1
  O  O19  1  0.435728  0.772541  0.173461  1
  O  O20  1  0.921874  0.937038  0.664528  1
  O  O21  1  0.432324  0.069862  0.335773  1
  O  O22  1  0.353642  0.082179  0.881014  1
  O  O23  1  0.855479  0.917395  0.119105  1
  O  O24  1  0.431249  0.271713  0.673077  1
  O  O25  1  0.923729  0.726954  0.325571  1
  O  O26  1  0.354117  0.393919  0.959436  1
  O  O27  1  0.853780  0.603845  0.037596  1
  O  O28  1  0.427808  0.567589  0.841069  1
  O  O29  1  0.929276  0.432297  0.158299  1
  O  O30  1  0.357015  0.576918  0.375059  1
  O  O31  1  0.852911  0.415640  0.622300  1
  O  O32  1  0.433750  0.384487  0.463239  1
  O  O33  1  0.930763  0.609081  0.535951  1
  O  O34  1  0.852092  0.106558  0.541958  1
  O  O35  1  0.357092  0.902658  0.460240  1
