# generated using pymatgen
data_Li4LuP12Ir19
_symmetry_space_group_name_H-M   'P 1'
_cell_length_a   12.58837593
_cell_length_b   12.58837556
_cell_length_c   3.91236700
_cell_angle_alpha   90.00000000
_cell_angle_beta   90.00000000
_cell_angle_gamma   120.13596764
_symmetry_Int_Tables_number   1
_chemical_formula_structural   Li4LuP12Ir19
_chemical_formula_sum   'Li4 Lu1 P12 Ir19'
_cell_volume   536.18289443
_cell_formula_units_Z   1
loop_
 _symmetry_equiv_pos_site_id
 _symmetry_equiv_pos_as_xyz
  1  'x, y, z'
loop_
 _atom_site_type_symbol
 _atom_site_label
 _atom_site_symmetry_multiplicity
 _atom_site_fract_x
 _atom_site_fract_y
 _atom_site_fract_z
 _atom_site_occupancy
  Li  Li0  1  0.334202  0.666644  0.000000  1
  Li  Li1  1  0.666644  0.334202  0.000000  1
  Li  Li2  1  0.822118  0.999003  0.500000  1
  Li  Li3  1  0.999003  0.822118  0.500000  1
  Lu  Lu4  1  0.175013  0.175013  0.500000  1
  P  P5  1  0.175744  0.993598  0.000000  1
  P  P6  1  0.993598  0.175744  0.000000  1
  P  P7  1  0.820995  0.820995  0.000000  1
  P  P8  1  0.176162  0.489256  0.500000  1
  P  P9  1  0.512476  0.688810  0.500000  1
  P  P10  1  0.313030  0.824374  0.500000  1
  P  P11  1  0.688810  0.512476  0.500000  1
  P  P12  1  0.824374  0.313030  0.500000  1
  P  P13  1  0.489256  0.176162  0.500000  1
  P  P14  1  0.641442  0.000197  0.000000  1
  P  P15  1  0.000197  0.641442  0.000000  1
  P  P16  1  0.359161  0.359161  0.000000  1
  Ir  Ir17  1  0.459950  0.004029  0.000000  1
  Ir  Ir18  1  0.004029  0.459950  0.000000  1
  Ir  Ir19  1  0.541440  0.541440  0.000000  1
  Ir  Ir20  1  0.359245  0.491457  0.500000  1
  Ir  Ir21  1  0.510056  0.870683  0.500000  1
  Ir  Ir22  1  0.132112  0.640715  0.500000  1
  Ir  Ir23  1  0.870683  0.510056  0.500000  1
  Ir  Ir24  1  0.640715  0.132112  0.500000  1
  Ir  Ir25  1  0.491457  0.359245  0.500000  1
  Ir  Ir26  1  0.180111  0.371063  0.000000  1
  Ir  Ir27  1  0.623919  0.806235  0.000000  1
  Ir  Ir28  1  0.195375  0.817526  0.000000  1
  Ir  Ir29  1  0.806235  0.623919  0.000000  1
  Ir  Ir30  1  0.817526  0.195375  0.000000  1
  Ir  Ir31  1  0.371063  0.180111  0.000000  1
  Ir  Ir32  1  0.290724  0.001244  0.500000  1
  Ir  Ir33  1  0.001244  0.290724  0.500000  1
  Ir  Ir34  1  0.709955  0.709955  0.500000  1
  Ir  Ir35  1  0.001940  0.001940  0.000000  1
