# generated using pymatgen
data_Ho6Pd7Rh
_symmetry_space_group_name_H-M   'P 1'
_cell_length_a   7.79281421
_cell_length_b   7.79281428
_cell_length_c   7.79281451
_cell_angle_alpha   114.12411623
_cell_angle_beta   114.12411255
_cell_angle_gamma   114.12411011
_symmetry_Int_Tables_number   1
_chemical_formula_structural   Ho6Pd7Rh
_chemical_formula_sum   'Ho6 Pd7 Rh1'
_cell_volume   284.85357918
_cell_formula_units_Z   1
loop_
 _symmetry_equiv_pos_site_id
 _symmetry_equiv_pos_as_xyz
  1  'x, y, z'
loop_
 _atom_site_type_symbol
 _atom_site_label
 _atom_site_symmetry_multiplicity
 _atom_site_fract_x
 _atom_site_fract_y
 _atom_site_fract_z
 _atom_site_occupancy
  Ho  Ho0  1  0.271551  0.398425  0.022636  1
  Ho  Ho1  1  0.398425  0.022636  0.271550  1
  Ho  Ho2  1  0.022637  0.271550  0.398425  1
  Ho  Ho3  1  0.977363  0.728450  0.601576  1
  Ho  Ho4  1  0.601575  0.977364  0.728450  1
  Ho  Ho5  1  0.728449  0.601575  0.977364  1
  Pd  Pd6  1  0.550183  0.230584  0.065610  1
  Pd  Pd7  1  0.065610  0.550183  0.230584  1
  Pd  Pd8  1  0.769416  0.934390  0.449817  1
  Pd  Pd9  1  0.499999  0.499999  0.499999  1
  Pd  Pd10  1  0.230584  0.065610  0.550183  1
  Pd  Pd11  1  0.934390  0.449817  0.769416  1
  Pd  Pd12  1  0.449817  0.769416  0.934390  1
  Rh  Rh13  1  0.000000  0.000000  0.000000  1
