# generated using pymatgen
data_Yb2SmLu(Pt2O7)2
_symmetry_space_group_name_H-M   'P 1'
_cell_length_a   7.27171215
_cell_length_b   7.26281519
_cell_length_c   7.24661859
_cell_angle_alpha   59.92603039
_cell_angle_beta   59.93606100
_cell_angle_gamma   60.04044973
_symmetry_Int_Tables_number   1
_chemical_formula_structural   Yb2SmLu(Pt2O7)2
_chemical_formula_sum   'Yb2 Sm1 Lu1 Pt4 O14'
_cell_volume   270.42133521
_cell_formula_units_Z   1
loop_
 _symmetry_equiv_pos_site_id
 _symmetry_equiv_pos_as_xyz
  1  'x, y, z'
loop_
 _atom_site_type_symbol
 _atom_site_label
 _atom_site_symmetry_multiplicity
 _atom_site_fract_x
 _atom_site_fract_y
 _atom_site_fract_z
 _atom_site_occupancy
  Yb  Yb0  1  0.625000  0.625000  0.625000  1
  Yb  Yb1  1  0.625000  0.125000  0.625000  1
  Sm  Sm2  1  0.125000  0.625000  0.625000  1
  Lu  Lu3  1  0.625000  0.625000  0.125000  1
  Pt  Pt4  1  0.125000  0.125000  0.125000  1
  Pt  Pt5  1  0.625000  0.125000  0.125000  1
  Pt  Pt6  1  0.125000  0.125000  0.625000  1
  Pt  Pt7  1  0.125000  0.625000  0.125000  1
  O  O8  1  0.039552  0.461381  0.459750  1
  O  O9  1  0.789729  0.789046  0.200835  1
  O  O10  1  0.789729  0.220391  0.200835  1
  O  O11  1  0.459863  0.040891  0.458355  1
  O  O12  1  0.745866  0.745009  0.764116  1
  O  O13  1  0.029689  0.462063  0.046185  1
  O  O14  1  0.039552  0.039317  0.459750  1
  O  O15  1  0.220311  0.787937  0.203815  1
  O  O16  1  0.210448  0.210683  0.790250  1
  O  O17  1  0.790137  0.209109  0.791645  1
  O  O18  1  0.504134  0.504991  0.485884  1
  O  O19  1  0.460271  0.029609  0.049165  1
  O  O20  1  0.460271  0.460954  0.049165  1
  O  O21  1  0.210448  0.788619  0.790250  1
