# generated using pymatgen
data_Be2Nb6AsP
_symmetry_space_group_name_H-M   'P 1'
_cell_length_a   6.62990715
_cell_length_b   6.61709623
_cell_length_c   3.46267100
_cell_angle_alpha   90.00000000
_cell_angle_beta   90.00000000
_cell_angle_gamma   90.09085199
_symmetry_Int_Tables_number   1
_chemical_formula_structural   Be2Nb6AsP
_chemical_formula_sum   'Be2 Nb6 As1 P1'
_cell_volume   151.90972617
_cell_formula_units_Z   1
loop_
 _symmetry_equiv_pos_site_id
 _symmetry_equiv_pos_as_xyz
  1  'x, y, z'
loop_
 _atom_site_type_symbol
 _atom_site_label
 _atom_site_symmetry_multiplicity
 _atom_site_fract_x
 _atom_site_fract_y
 _atom_site_fract_z
 _atom_site_occupancy
  Be  Be0  1  0.617342  0.877641  0.000000  1
  Be  Be1  1  0.124012  0.626101  0.000000  1
  Nb  Nb2  1  0.997810  0.993334  0.000000  1
  Nb  Nb3  1  0.494120  0.503982  0.000000  1
  Nb  Nb4  1  0.669928  0.165785  0.500000  1
  Nb  Nb5  1  0.188052  0.326476  0.500000  1
  Nb  Nb6  1  0.822586  0.689416  0.500000  1
  Nb  Nb7  1  0.323379  0.820692  0.500000  1
  As  As8  1  0.881506  0.385776  0.000000  1
  P  P9  1  0.381265  0.110794  0.000000  1
