# generated using pymatgen
data_Tb7LuSc12Si15Sn
_symmetry_space_group_name_H-M   'P 1'
_cell_length_a   7.14032634
_cell_length_b   7.42117977
_cell_length_c   14.08929063
_cell_angle_alpha   89.92598845
_cell_angle_beta   89.54297117
_cell_angle_gamma   89.97831479
_symmetry_Int_Tables_number   1
_chemical_formula_structural   Tb7LuSc12Si15Sn
_chemical_formula_sum   'Tb7 Lu1 Sc12 Si15 Sn1'
_cell_volume   746.56208930
_cell_formula_units_Z   1
loop_
 _symmetry_equiv_pos_site_id
 _symmetry_equiv_pos_as_xyz
  1  'x, y, z'
loop_
 _atom_site_type_symbol
 _atom_site_label
 _atom_site_symmetry_multiplicity
 _atom_site_fract_x
 _atom_site_fract_y
 _atom_site_fract_z
 _atom_site_occupancy
  Tb  Tb0  1  0.988654  0.825273  0.905267  1
  Tb  Tb1  1  0.488384  0.674946  0.904984  1
  Tb  Tb2  1  0.989364  0.830856  0.598596  1
  Tb  Tb3  1  0.510517  0.323910  0.096915  1
  Tb  Tb4  1  0.005724  0.169144  0.399160  1
  Tb  Tb5  1  0.512877  0.321401  0.398188  1
  Tb  Tb6  1  0.501340  0.683538  0.600304  1
  Lu  Lu7  1  0.011392  0.176981  0.097775  1
  Sc  Sc8  1  0.163384  0.501929  0.755450  1
  Sc  Sc9  1  0.837143  0.498519  0.248372  1
  Sc  Sc10  1  0.336829  0.002707  0.248682  1
  Sc  Sc11  1  0.664660  0.997694  0.752068  1
  Sc  Sc12  1  0.343959  0.162784  0.630744  1
  Sc  Sc13  1  0.663811  0.825093  0.371830  1
  Sc  Sc14  1  0.163330  0.683240  0.368500  1
  Sc  Sc15  1  0.668311  0.824374  0.123621  1
  Sc  Sc16  1  0.823341  0.323946  0.626666  1
  Sc  Sc17  1  0.330036  0.175459  0.876147  1
  Sc  Sc18  1  0.832612  0.322005  0.876318  1
  Sc  Sc19  1  0.167308  0.677291  0.125024  1
  Si  Si20  1  0.035923  0.119676  0.751467  1
  Si  Si21  1  0.962856  0.885869  0.246214  1
  Si  Si22  1  0.464608  0.617368  0.247765  1
  Si  Si23  1  0.534445  0.383400  0.752859  1
  Si  Si24  1  0.287355  0.871331  0.752733  1
  Si  Si25  1  0.713249  0.126212  0.246190  1
  Si  Si26  1  0.210039  0.372848  0.247931  1
  Si  Si27  1  0.790355  0.626160  0.752130  1
  Si  Si28  1  0.830768  0.539784  0.458468  1
  Si  Si29  1  0.339844  0.963426  0.459927  1
  Si  Si30  1  0.843576  0.532636  0.040407  1
  Si  Si31  1  0.661666  0.037961  0.537502  1
  Si  Si32  1  0.155761  0.462185  0.962743  1
  Si  Si33  1  0.656220  0.035488  0.960969  1
  Si  Si34  1  0.338605  0.966275  0.040193  1
  Sn  Sn35  1  0.171753  0.458290  0.537892  1
