# generated using pymatgen
data_TbDy5(AuO7)2
_symmetry_space_group_name_H-M   'P 1'
_cell_length_a   6.49665585
_cell_length_b   6.49665695
_cell_length_c   7.45307604
_cell_angle_alpha   90.00960287
_cell_angle_beta   89.99039474
_cell_angle_gamma   108.90799559
_symmetry_Int_Tables_number   1
_chemical_formula_structural   TbDy5(AuO7)2
_chemical_formula_sum   'Tb1 Dy5 Au2 O14'
_cell_volume   297.59450379
_cell_formula_units_Z   1
loop_
 _symmetry_equiv_pos_site_id
 _symmetry_equiv_pos_as_xyz
  1  'x, y, z'
loop_
 _atom_site_type_symbol
 _atom_site_label
 _atom_site_symmetry_multiplicity
 _atom_site_fract_x
 _atom_site_fract_y
 _atom_site_fract_z
 _atom_site_occupancy
  Tb  Tb0  1  0.500000  0.500000  0.000000  1
  Dy  Dy1  1  0.500000  0.500000  0.500000  1
  Dy  Dy2  1  0.529137  0.997731  0.749871  1
  Dy  Dy3  1  0.997731  0.529137  0.250129  1
  Dy  Dy4  1  0.470863  0.002269  0.250129  1
  Dy  Dy5  1  0.002269  0.470863  0.749871  1
  Au  Au6  1  0.000000  0.000000  0.500000  1
  Au  Au7  1  0.000000  0.000000  0.000000  1
  O  O8  1  0.670215  0.918762  0.475226  1
  O  O9  1  0.918762  0.670215  0.524774  1
  O  O10  1  0.670294  0.919170  0.024783  1
  O  O11  1  0.919170  0.670294  0.975217  1
  O  O12  1  0.329785  0.081238  0.524774  1
  O  O13  1  0.081238  0.329785  0.475226  1
  O  O14  1  0.329706  0.080830  0.975217  1
  O  O15  1  0.080830  0.329706  0.024783  1
  O  O16  1  0.920660  0.079340  0.749999  1
  O  O17  1  0.079340  0.920660  0.250001  1
  O  O18  1  0.368069  0.631931  0.749253  1
  O  O19  1  0.631931  0.368069  0.250747  1
  O  O20  1  0.638832  0.361168  0.749384  1
  O  O21  1  0.361168  0.638832  0.250616  1
