# generated using pymatgen
data_CeTh3(NiP2)2
_symmetry_space_group_name_H-M   'P 1'
_cell_length_a   4.03512100
_cell_length_b   4.03512150
_cell_length_c   14.64826500
_cell_angle_alpha   90.00000000
_cell_angle_beta   90.00000000
_cell_angle_gamma   120.00002053
_symmetry_Int_Tables_number   1
_chemical_formula_structural   CeTh3(NiP2)2
_chemical_formula_sum   'Ce1 Th3 Ni2 P4'
_cell_volume   206.55223946
_cell_formula_units_Z   1
loop_
 _symmetry_equiv_pos_site_id
 _symmetry_equiv_pos_as_xyz
  1  'x, y, z'
loop_
 _atom_site_type_symbol
 _atom_site_label
 _atom_site_symmetry_multiplicity
 _atom_site_fract_x
 _atom_site_fract_y
 _atom_site_fract_z
 _atom_site_occupancy
  Ce  Ce0  1  0.333333  0.666667  0.384570  1
  Th  Th1  1  0.666667  0.333333  0.613677  1
  Th  Th2  1  0.666667  0.333333  0.884999  1
  Th  Th3  1  0.333333  0.666667  0.116367  1
  Ni  Ni4  1  0.000000  0.000000  0.251022  1
  Ni  Ni5  1  0.000000  0.000000  0.750052  1
  P  P6  1  0.000000  0.000000  0.496975  1
  P  P7  1  0.000000  0.000000  0.000691  1
  P  P8  1  0.333333  0.666667  0.749451  1
  P  P9  1  0.666667  0.333333  0.252197  1
