# generated using pymatgen
data_Y12Er4MgIn3Pd4
_symmetry_space_group_name_H-M   'P 1'
_cell_length_a   9.75133154
_cell_length_b   9.72587170
_cell_length_c   9.72587100
_cell_angle_alpha   59.99999899
_cell_angle_beta   60.08632966
_cell_angle_gamma   60.08633310
_symmetry_Int_Tables_number   1
_chemical_formula_structural   Y12Er4MgIn3Pd4
_chemical_formula_sum   'Y12 Er4 Mg1 In3 Pd4'
_cell_volume   653.08760624
_cell_formula_units_Z   1
loop_
 _symmetry_equiv_pos_site_id
 _symmetry_equiv_pos_as_xyz
  1  'x, y, z'
loop_
 _atom_site_type_symbol
 _atom_site_label
 _atom_site_symmetry_multiplicity
 _atom_site_fract_x
 _atom_site_fract_y
 _atom_site_fract_z
 _atom_site_occupancy
  Y  Y0  1  0.808911  0.190644  0.190644  1
  Y  Y1  1  0.187756  0.811771  0.811771  1
  Y  Y2  1  0.187756  0.811771  0.188702  1
  Y  Y3  1  0.808911  0.190644  0.809802  1
  Y  Y4  1  0.187756  0.188702  0.811771  1
  Y  Y5  1  0.808911  0.809802  0.190644  1
  Y  Y6  1  0.935765  0.564410  0.564410  1
  Y  Y7  1  0.564035  0.936275  0.936275  1
  Y  Y8  1  0.564035  0.936275  0.563415  1
  Y  Y9  1  0.935765  0.564410  0.935414  1
  Y  Y10  1  0.564035  0.563415  0.936275  1
  Y  Y11  1  0.935765  0.935414  0.564410  1
  Er  Er12  1  0.351262  0.350319  0.350319  1
  Er  Er13  1  0.351262  0.350319  0.948101  1
  Er  Er14  1  0.351262  0.948101  0.350319  1
  Er  Er15  1  0.945377  0.351541  0.351541  1
  Mg  Mg16  1  0.266073  0.577975  0.577975  1
  In  In17  1  0.582154  0.583440  0.583440  1
  In  In18  1  0.582154  0.583440  0.250964  1
  In  In19  1  0.582154  0.250964  0.583440  1
  Pd  Pd20  1  0.144638  0.145354  0.145354  1
  Pd  Pd21  1  0.144638  0.145354  0.564654  1
  Pd  Pd22  1  0.144638  0.564654  0.145354  1
  Pd  Pd23  1  0.564985  0.145005  0.145005  1
