# generated using pymatgen
data_Li4Tm3HfPt4
_symmetry_space_group_name_H-M   'P 1'
_cell_length_a   3.87911600
_cell_length_b   6.93318260
_cell_length_c   8.43305100
_cell_angle_alpha   90.34488334
_cell_angle_beta   90.00000000
_cell_angle_gamma   90.00000000
_symmetry_Int_Tables_number   1
_chemical_formula_structural   Li4Tm3HfPt4
_chemical_formula_sum   'Li4 Tm3 Hf1 Pt4'
_cell_volume   226.79958960
_cell_formula_units_Z   1
loop_
 _symmetry_equiv_pos_site_id
 _symmetry_equiv_pos_as_xyz
  1  'x, y, z'
loop_
 _atom_site_type_symbol
 _atom_site_label
 _atom_site_symmetry_multiplicity
 _atom_site_fract_x
 _atom_site_fract_y
 _atom_site_fract_z
 _atom_site_occupancy
  Li  Li0  1  0.250000  0.884427  0.944969  1
  Li  Li1  1  0.250000  0.374987  0.554763  1
  Li  Li2  1  0.750000  0.123375  0.057682  1
  Li  Li3  1  0.750000  0.620392  0.441636  1
  Tm  Tm4  1  0.250000  0.449771  0.182899  1
  Tm  Tm5  1  0.750000  0.052591  0.674203  1
  Tm  Tm6  1  0.750000  0.557619  0.823600  1
  Hf  Hf7  1  0.250000  0.938539  0.324600  1
  Pt  Pt8  1  0.250000  0.263256  0.872398  1
  Pt  Pt9  1  0.250000  0.762692  0.617293  1
  Pt  Pt10  1  0.750000  0.756357  0.138732  1
  Pt  Pt11  1  0.750000  0.215992  0.367224  1
