# generated using pymatgen
data_CeLu(ZnSi)2
_symmetry_space_group_name_H-M   'P 1'
_cell_length_a   4.20930900
_cell_length_b   4.20930879
_cell_length_c   15.52935300
_cell_angle_alpha   90.00000000
_cell_angle_beta   90.00000000
_cell_angle_gamma   120.00000948
_symmetry_Int_Tables_number   1
_chemical_formula_structural   CeLu(ZnSi)2
_chemical_formula_sum   'Ce2 Lu2 Zn4 Si4'
_cell_volume   238.28985166
_cell_formula_units_Z   2
loop_
 _symmetry_equiv_pos_site_id
 _symmetry_equiv_pos_as_xyz
  1  'x, y, z'
loop_
 _atom_site_type_symbol
 _atom_site_label
 _atom_site_symmetry_multiplicity
 _atom_site_fract_x
 _atom_site_fract_y
 _atom_site_fract_z
 _atom_site_occupancy
  Ce  Ce0  1  0.000000  0.000000  0.500000  1
  Ce  Ce1  1  0.000000  0.000000  0.000000  1
  Lu  Lu2  1  0.000000  0.000000  0.750000  1
  Lu  Lu3  1  0.000000  0.000000  0.250000  1
  Zn  Zn4  1  0.666667  0.333333  0.848464  1
  Zn  Zn5  1  0.666667  0.333333  0.651536  1
  Zn  Zn6  1  0.333333  0.666667  0.151536  1
  Zn  Zn7  1  0.333333  0.666667  0.348464  1
  Si  Si8  1  0.666667  0.333333  0.121256  1
  Si  Si9  1  0.666667  0.333333  0.378744  1
  Si  Si10  1  0.333333  0.666667  0.878744  1
  Si  Si11  1  0.333333  0.666667  0.621256  1
