# generated using pymatgen
data_Tb10BiPb5S2
_symmetry_space_group_name_H-M   'P 1'
_cell_length_a   9.19582000
_cell_length_b   9.21627206
_cell_length_c   6.70925900
_cell_angle_alpha   90.00000000
_cell_angle_beta   90.00000000
_cell_angle_gamma   119.92661906
_symmetry_Int_Tables_number   1
_chemical_formula_structural   Tb10BiPb5S2
_chemical_formula_sum   'Tb10 Bi1 Pb5 S2'
_cell_volume   492.80101648
_cell_formula_units_Z   1
loop_
 _symmetry_equiv_pos_site_id
 _symmetry_equiv_pos_as_xyz
  1  'x, y, z'
loop_
 _atom_site_type_symbol
 _atom_site_label
 _atom_site_symmetry_multiplicity
 _atom_site_fract_x
 _atom_site_fract_y
 _atom_site_fract_z
 _atom_site_occupancy
  Tb  Tb0  1  0.243453  0.243343  0.750000  1
  Tb  Tb1  1  0.000110  0.756657  0.750000  1
  Tb  Tb2  1  0.241889  0.000000  0.250000  1
  Tb  Tb3  1  0.757560  0.000000  0.750000  1
  Tb  Tb4  1  0.332229  0.665141  0.500594  1
  Tb  Tb5  1  0.667088  0.334859  0.500594  1
  Tb  Tb6  1  0.758006  0.755589  0.250000  1
  Tb  Tb7  1  0.002417  0.244411  0.250000  1
  Tb  Tb8  1  0.332229  0.665141  0.999406  1
  Tb  Tb9  1  0.667088  0.334859  0.999406  1
  Bi  Bi10  1  0.602960  0.000000  0.250000  1
  Pb  Pb11  1  0.999856  0.602564  0.250000  1
  Pb  Pb12  1  0.602815  0.603130  0.750000  1
  Pb  Pb13  1  0.397292  0.397436  0.250000  1
  Pb  Pb14  1  0.999685  0.396870  0.750000  1
  Pb  Pb15  1  0.396638  0.000000  0.750000  1
  S  S16  1  0.999343  0.000000  0.000170  1
  S  S17  1  0.999343  0.000000  0.499830  1
