# generated using pymatgen
data_Y3TmGa18(PtRh2)2
_symmetry_space_group_name_H-M   'P 1'
_cell_length_a   7.60749325
_cell_length_b   7.60783245
_cell_length_c   9.48211100
_cell_angle_alpha   90.00000000
_cell_angle_beta   90.00000000
_cell_angle_gamma   119.95424313
_symmetry_Int_Tables_number   1
_chemical_formula_structural   Y3TmGa18(PtRh2)2
_chemical_formula_sum   'Y3 Tm1 Ga18 Pt2 Rh4'
_cell_volume   475.48655412
_cell_formula_units_Z   1
loop_
 _symmetry_equiv_pos_site_id
 _symmetry_equiv_pos_as_xyz
  1  'x, y, z'
loop_
 _atom_site_type_symbol
 _atom_site_label
 _atom_site_symmetry_multiplicity
 _atom_site_fract_x
 _atom_site_fract_y
 _atom_site_fract_z
 _atom_site_occupancy
  Y  Y0  1  0.996442  0.671143  0.250000  1
  Y  Y1  1  0.003573  0.328858  0.750000  1
  Y  Y2  1  0.670932  0.996345  0.250000  1
  Tm  Tm3  1  0.329028  0.003602  0.750000  1
  Ga  Ga4  1  0.133846  0.133751  0.250000  1
  Ga  Ga5  1  0.866837  0.866322  0.750000  1
  Ga  Ga6  1  0.998456  0.338422  0.080809  1
  Ga  Ga7  1  0.002395  0.662430  0.918507  1
  Ga  Ga8  1  0.002395  0.662430  0.581493  1
  Ga  Ga9  1  0.338376  0.998448  0.419773  1
  Ga  Ga10  1  0.998456  0.338422  0.419191  1
  Ga  Ga11  1  0.660750  0.001549  0.581518  1
  Ga  Ga12  1  0.660750  0.001549  0.918482  1
  Ga  Ga13  1  0.338376  0.998448  0.080227  1
  Ga  Ga14  1  0.336988  0.336280  0.568542  1
  Ga  Ga15  1  0.662947  0.662973  0.432189  1
  Ga  Ga16  1  0.662947  0.662973  0.067811  1
  Ga  Ga17  1  0.336988  0.336280  0.931458  1
  Ga  Ga18  1  0.336303  0.547885  0.250000  1
  Ga  Ga19  1  0.662996  0.451323  0.750000  1
  Ga  Ga20  1  0.547813  0.336223  0.250000  1
  Ga  Ga21  1  0.452055  0.664093  0.750000  1
  Pt  Pt22  1  0.000213  0.000067  0.999727  1
  Pt  Pt23  1  0.000213  0.000067  0.500273  1
  Rh  Rh24  1  0.670888  0.328995  0.999788  1
  Rh  Rh25  1  0.329075  0.671062  0.999780  1
  Rh  Rh26  1  0.329075  0.671062  0.500220  1
  Rh  Rh27  1  0.670888  0.328995  0.500212  1
