# generated using pymatgen
data_BaSr11(ScAs3)4
_symmetry_space_group_name_H-M   'P 1'
_cell_length_a   4.55485300
_cell_length_b   12.97591382
_cell_length_c   14.56608430
_cell_angle_alpha   90.20041078
_cell_angle_beta   90.00000000
_cell_angle_gamma   90.00000000
_symmetry_Int_Tables_number   1
_chemical_formula_structural   BaSr11(ScAs3)4
_chemical_formula_sum   'Ba1 Sr11 Sc4 As12'
_cell_volume   860.89954913
_cell_formula_units_Z   1
loop_
 _symmetry_equiv_pos_site_id
 _symmetry_equiv_pos_as_xyz
  1  'x, y, z'
loop_
 _atom_site_type_symbol
 _atom_site_label
 _atom_site_symmetry_multiplicity
 _atom_site_fract_x
 _atom_site_fract_y
 _atom_site_fract_z
 _atom_site_occupancy
  Ba  Ba0  1  0.250000  0.846001  0.496273  1
  Sr  Sr1  1  0.250000  0.350309  0.999253  1
  Sr  Sr2  1  0.750000  0.150632  0.499363  1
  Sr  Sr3  1  0.750000  0.231360  0.209537  1
  Sr  Sr4  1  0.750000  0.429610  0.399944  1
  Sr  Sr5  1  0.250000  0.568441  0.602136  1
  Sr  Sr6  1  0.750000  0.930924  0.100294  1
  Sr  Sr7  1  0.250000  0.071259  0.899631  1
  Sr  Sr8  1  0.250000  0.269748  0.711145  1
  Sr  Sr9  1  0.750000  0.729586  0.285909  1
  Sr  Sr10  1  0.250000  0.768902  0.793556  1
  Sr  Sr11  1  0.750000  0.648748  0.000690  1
  Sc  Sc12  1  0.750000  0.948983  0.706673  1
  Sc  Sc13  1  0.250000  0.054017  0.293267  1
  Sc  Sc14  1  0.250000  0.549649  0.203326  1
  Sc  Sc15  1  0.750000  0.449390  0.796676  1
  As  As16  1  0.750000  0.460651  0.144826  1
  As  As17  1  0.250000  0.538743  0.855647  1
  As  As18  1  0.750000  0.963645  0.347552  1
  As  As19  1  0.250000  0.039944  0.648429  1
  As  As20  1  0.750000  0.399007  0.617689  1
  As  As21  1  0.250000  0.598771  0.381652  1
  As  As22  1  0.750000  0.900782  0.884544  1
  As  As23  1  0.250000  0.102436  0.115537  1
  As  As24  1  0.750000  0.260829  0.869977  1
  As  As25  1  0.250000  0.739100  0.129507  1
  As  As26  1  0.750000  0.757133  0.636932  1
  As  As27  1  0.250000  0.241399  0.370033  1
