# generated using pymatgen
data_YPa(Si2Ni)2
_symmetry_space_group_name_H-M   'P 1'
_cell_length_a   8.44004130
_cell_length_b   8.44004167
_cell_length_c   3.98322800
_cell_angle_alpha   90.00000000
_cell_angle_beta   90.00000000
_cell_angle_gamma   152.60969180
_symmetry_Int_Tables_number   1
_chemical_formula_structural   YPa(Si2Ni)2
_chemical_formula_sum   'Y1 Pa1 Si4 Ni2'
_cell_volume   130.53560525
_cell_formula_units_Z   1
loop_
 _symmetry_equiv_pos_site_id
 _symmetry_equiv_pos_as_xyz
  1  'x, y, z'
loop_
 _atom_site_type_symbol
 _atom_site_label
 _atom_site_symmetry_multiplicity
 _atom_site_fract_x
 _atom_site_fract_y
 _atom_site_fract_z
 _atom_site_occupancy
  Y  Y0  1  0.396300  0.603700  0.250000  1
  Pa  Pa1  1  0.605657  0.394343  0.750000  1
  Si  Si2  1  0.960159  0.039841  0.750000  1
  Si  Si3  1  0.039157  0.960843  0.250000  1
  Si  Si4  1  0.250310  0.749690  0.750000  1
  Si  Si5  1  0.750291  0.249709  0.250000  1
  Ni  Ni6  1  0.821530  0.178470  0.750000  1
  Ni  Ni7  1  0.176596  0.823404  0.250000  1
