# generated using pymatgen
data_Pr6WO12
_symmetry_space_group_name_H-M   'P 1'
_cell_length_a   6.79374990
_cell_length_b   6.79375015
_cell_length_c   6.79374905
_cell_angle_alpha   98.52332294
_cell_angle_beta   98.52332376
_cell_angle_gamma   98.52333230
_symmetry_Int_Tables_number   1
_chemical_formula_structural   Pr6WO12
_chemical_formula_sum   'Pr6 W1 O12'
_cell_volume   301.99948685
_cell_formula_units_Z   1
loop_
 _symmetry_equiv_pos_site_id
 _symmetry_equiv_pos_as_xyz
  1  'x, y, z'
loop_
 _atom_site_type_symbol
 _atom_site_label
 _atom_site_symmetry_multiplicity
 _atom_site_fract_x
 _atom_site_fract_y
 _atom_site_fract_z
 _atom_site_occupancy
  Pr  Pr0  1  0.144231  0.308881  0.610122  1
  Pr  Pr1  1  0.389878  0.855769  0.691119  1
  Pr  Pr2  1  0.691119  0.389878  0.855769  1
  Pr  Pr3  1  0.308881  0.610122  0.144231  1
  Pr  Pr4  1  0.610122  0.144231  0.308881  1
  Pr  Pr5  1  0.855769  0.691119  0.389878  1
  W  W6  1  0.000000  0.000000  0.000000  1
  O  O7  1  0.069547  0.286318  0.969062  1
  O  O8  1  0.030938  0.930453  0.713682  1
  O  O9  1  0.407149  0.559946  0.822599  1
  O  O10  1  0.177401  0.592851  0.440054  1
  O  O11  1  0.713682  0.030938  0.930453  1
  O  O12  1  0.440054  0.177401  0.592851  1
  O  O13  1  0.559946  0.822599  0.407149  1
  O  O14  1  0.286318  0.969062  0.069547  1
  O  O15  1  0.822599  0.407149  0.559946  1
  O  O16  1  0.592851  0.440054  0.177401  1
  O  O17  1  0.969062  0.069547  0.286318  1
  O  O18  1  0.930453  0.713682  0.030938  1
