# generated using pymatgen
data_Dy2HoEr2Sn3
_symmetry_space_group_name_H-M   'P 1'
_cell_length_a   8.93549912
_cell_length_b   8.93300899
_cell_length_c   6.50340300
_cell_angle_alpha   90.00000000
_cell_angle_beta   90.00000000
_cell_angle_gamma   119.99077567
_symmetry_Int_Tables_number   1
_chemical_formula_structural   Dy2HoEr2Sn3
_chemical_formula_sum   'Dy4 Ho2 Er4 Sn6'
_cell_volume   449.60201210
_cell_formula_units_Z   2
loop_
 _symmetry_equiv_pos_site_id
 _symmetry_equiv_pos_as_xyz
  1  'x, y, z'
loop_
 _atom_site_type_symbol
 _atom_site_label
 _atom_site_symmetry_multiplicity
 _atom_site_fract_x
 _atom_site_fract_y
 _atom_site_fract_z
 _atom_site_occupancy
  Dy  Dy0  1  0.000085  0.761489  0.750000  1
  Dy  Dy1  1  0.000085  0.238596  0.250000  1
  Dy  Dy2  1  0.761340  0.761322  0.250000  1
  Dy  Dy3  1  0.761340  0.000019  0.750000  1
  Ho  Ho4  1  0.238640  0.238563  0.750000  1
  Ho  Ho5  1  0.238640  0.000077  0.250000  1
  Er  Er6  1  0.333333  0.666667  0.500000  1
  Er  Er7  1  0.666577  0.333288  0.000000  1
  Er  Er8  1  0.666577  0.333288  0.500000  1
  Er  Er9  1  0.333333  0.666667  0.000000  1
  Sn  Sn10  1  0.395505  0.000143  0.750000  1
  Sn  Sn11  1  0.395505  0.395361  0.250000  1
  Sn  Sn12  1  0.000164  0.604661  0.250000  1
  Sn  Sn13  1  0.000164  0.395503  0.750000  1
  Sn  Sn14  1  0.604356  0.604317  0.750000  1
  Sn  Sn15  1  0.604356  0.000039  0.250000  1
