# generated using pymatgen
data_La8Yb2ZnSn7
_symmetry_space_group_name_H-M   'P 1'
_cell_length_a   8.15829600
_cell_length_b   8.73040100
_cell_length_c   16.26856700
_cell_angle_alpha   90.00000000
_cell_angle_beta   90.00000000
_cell_angle_gamma   90.00000000
_symmetry_Int_Tables_number   1
_chemical_formula_structural   La8Yb2ZnSn7
_chemical_formula_sum   'La16 Yb4 Zn2 Sn14'
_cell_volume   1158.73186600
_cell_formula_units_Z   2
loop_
 _symmetry_equiv_pos_site_id
 _symmetry_equiv_pos_as_xyz
  1  'x, y, z'
loop_
 _atom_site_type_symbol
 _atom_site_label
 _atom_site_symmetry_multiplicity
 _atom_site_fract_x
 _atom_site_fract_y
 _atom_site_fract_z
 _atom_site_occupancy
  La  La0  1  0.659196  0.171790  0.629849  1
  La  La1  1  0.159196  0.328210  0.870151  1
  La  La2  1  0.344150  0.827963  0.122509  1
  La  La3  1  0.844150  0.672037  0.377491  1
  La  La4  1  0.344150  0.827963  0.377491  1
  La  La5  1  0.844150  0.672037  0.122509  1
  La  La6  1  0.659196  0.171790  0.870151  1
  La  La7  1  0.159196  0.328210  0.629849  1
  La  La8  1  0.499988  0.688484  0.596874  1
  La  La9  1  0.999988  0.811516  0.903126  1
  La  La10  1  0.501176  0.313987  0.093200  1
  La  La11  1  0.001176  0.186013  0.406800  1
  La  La12  1  0.501176  0.313987  0.406800  1
  La  La13  1  0.001176  0.186013  0.093200  1
  La  La14  1  0.499988  0.688484  0.903126  1
  La  La15  1  0.999988  0.811516  0.596874  1
  Yb  Yb16  1  0.815737  0.510080  0.750000  1
  Yb  Yb17  1  0.315737  0.989920  0.750000  1
  Yb  Yb18  1  0.176790  0.492043  0.250000  1
  Yb  Yb19  1  0.676790  0.007957  0.250000  1
  Zn  Zn20  1  0.455541  0.401797  0.750000  1
  Zn  Zn21  1  0.955541  0.098203  0.750000  1
  Sn  Sn22  1  0.682159  0.967784  0.463257  1
  Sn  Sn23  1  0.182159  0.532216  0.036743  1
  Sn  Sn24  1  0.313422  0.035085  0.958980  1
  Sn  Sn25  1  0.813422  0.464915  0.541020  1
  Sn  Sn26  1  0.313422  0.035085  0.541020  1
  Sn  Sn27  1  0.813422  0.464915  0.958980  1
  Sn  Sn28  1  0.682159  0.967784  0.036743  1
  Sn  Sn29  1  0.182159  0.532216  0.463257  1
  Sn  Sn30  1  0.543591  0.600497  0.250000  1
  Sn  Sn31  1  0.043591  0.899503  0.250000  1
  Sn  Sn32  1  0.706053  0.865503  0.750000  1
  Sn  Sn33  1  0.206053  0.634497  0.750000  1
  Sn  Sn34  1  0.302105  0.139335  0.250000  1
  Sn  Sn35  1  0.802105  0.360665  0.250000  1
