# generated using pymatgen
data_Er3ZnRuAu
_symmetry_space_group_name_H-M   'P 1'
_cell_length_a   3.50940800
_cell_length_b   3.50940800
_cell_length_c   10.42498100
_cell_angle_alpha   90.00000000
_cell_angle_beta   90.00000000
_cell_angle_gamma   90.00000000
_symmetry_Int_Tables_number   1
_chemical_formula_structural   Er3ZnRuAu
_chemical_formula_sum   'Er3 Zn1 Ru1 Au1'
_cell_volume   128.39348752
_cell_formula_units_Z   1
loop_
 _symmetry_equiv_pos_site_id
 _symmetry_equiv_pos_as_xyz
  1  'x, y, z'
loop_
 _atom_site_type_symbol
 _atom_site_label
 _atom_site_symmetry_multiplicity
 _atom_site_fract_x
 _atom_site_fract_y
 _atom_site_fract_z
 _atom_site_occupancy
  Er  Er0  1  0.500000  0.500000  0.986597  1
  Er  Er1  1  0.500000  0.500000  0.333273  1
  Er  Er2  1  0.500000  0.500000  0.677487  1
  Zn  Zn3  1  0.000000  0.000000  0.504814  1
  Ru  Ru4  1  0.000000  0.000000  0.834009  1
  Au  Au5  1  0.000000  0.000000  0.163821  1
