# generated using pymatgen
data_Pr3Dy(NbN2)4
_symmetry_space_group_name_H-M   'P 1'
_cell_length_a   3.39161700
_cell_length_b   5.81693217
_cell_length_c   11.10681728
_cell_angle_alpha   89.90018326
_cell_angle_beta   90.00000000
_cell_angle_gamma   90.00000000
_symmetry_Int_Tables_number   1
_chemical_formula_structural   Pr3Dy(NbN2)4
_chemical_formula_sum   'Pr3 Dy1 Nb4 N8'
_cell_volume   219.12391136
_cell_formula_units_Z   1
loop_
 _symmetry_equiv_pos_site_id
 _symmetry_equiv_pos_as_xyz
  1  'x, y, z'
loop_
 _atom_site_type_symbol
 _atom_site_label
 _atom_site_symmetry_multiplicity
 _atom_site_fract_x
 _atom_site_fract_y
 _atom_site_fract_z
 _atom_site_occupancy
  Pr  Pr0  1  0.250000  0.587455  0.859914  1
  Pr  Pr1  1  0.750000  0.413992  0.139200  1
  Pr  Pr2  1  0.750000  0.913322  0.362978  1
  Dy  Dy3  1  0.250000  0.085519  0.639013  1
  Nb  Nb4  1  0.250000  0.918354  0.108788  1
  Nb  Nb5  1  0.750000  0.083632  0.888594  1
  Nb  Nb6  1  0.750000  0.583041  0.606926  1
  Nb  Nb7  1  0.250000  0.415832  0.394588  1
  N  N8  1  0.250000  0.661303  0.248063  1
  N  N9  1  0.750000  0.334751  0.749376  1
  N  N10  1  0.750000  0.846346  0.741695  1
  N  N11  1  0.250000  0.161863  0.253888  1
  N  N12  1  0.250000  0.732907  0.516496  1
  N  N13  1  0.750000  0.262385  0.493906  1
  N  N14  1  0.750000  0.774498  0.011138  1
  N  N15  1  0.250000  0.224802  0.985437  1
