# generated using pymatgen
data_Lu2B6Ir
_symmetry_space_group_name_H-M   'P 1'
_cell_length_a   3.58373600
_cell_length_b   9.06638400
_cell_length_c   11.40103300
_cell_angle_alpha   90.00000000
_cell_angle_beta   90.00000000
_cell_angle_gamma   90.00000000
_symmetry_Int_Tables_number   1
_chemical_formula_structural   Lu2B6Ir
_chemical_formula_sum   'Lu8 B24 Ir4'
_cell_volume   370.43696848
_cell_formula_units_Z   4
loop_
 _symmetry_equiv_pos_site_id
 _symmetry_equiv_pos_as_xyz
  1  'x, y, z'
loop_
 _atom_site_type_symbol
 _atom_site_label
 _atom_site_symmetry_multiplicity
 _atom_site_fract_x
 _atom_site_fract_y
 _atom_site_fract_z
 _atom_site_occupancy
  Lu  Lu0  1  0.000000  0.320400  0.413549  1
  Lu  Lu1  1  0.000000  0.679600  0.586451  1
  Lu  Lu2  1  0.000000  0.820400  0.086451  1
  Lu  Lu3  1  0.000000  0.179600  0.913549  1
  Lu  Lu4  1  0.000000  0.944328  0.374833  1
  Lu  Lu5  1  0.000000  0.055672  0.625167  1
  Lu  Lu6  1  0.000000  0.444328  0.125167  1
  Lu  Lu7  1  0.000000  0.555672  0.874833  1
  B  B8  1  0.500000  0.552349  0.434808  1
  B  B9  1  0.500000  0.447651  0.565192  1
  B  B10  1  0.500000  0.052349  0.065192  1
  B  B11  1  0.500000  0.947651  0.934808  1
  B  B12  1  0.500000  0.750386  0.421386  1
  B  B13  1  0.500000  0.249614  0.578614  1
  B  B14  1  0.500000  0.250386  0.078614  1
  B  B15  1  0.500000  0.749614  0.921386  1
  B  B16  1  0.500000  0.793966  0.264829  1
  B  B17  1  0.500000  0.206034  0.735171  1
  B  B18  1  0.500000  0.293966  0.235171  1
  B  B19  1  0.500000  0.706034  0.764829  1
  B  B20  1  0.500000  0.631844  0.183526  1
  B  B21  1  0.500000  0.368156  0.816474  1
  B  B22  1  0.500000  0.131844  0.316474  1
  B  B23  1  0.500000  0.868156  0.683526  1
  B  B24  1  0.500000  0.980410  0.213019  1
  B  B25  1  0.500000  0.019590  0.786981  1
  B  B26  1  0.500000  0.480410  0.286981  1
  B  B27  1  0.500000  0.519590  0.713019  1
  B  B28  1  0.500000  0.608516  0.029946  1
  B  B29  1  0.500000  0.391484  0.970054  1
  B  B30  1  0.500000  0.108516  0.470054  1
  B  B31  1  0.500000  0.891484  0.529946  1
  Ir  Ir32  1  0.000000  0.638650  0.321404  1
  Ir  Ir33  1  0.000000  0.361350  0.678596  1
  Ir  Ir34  1  0.000000  0.138650  0.178596  1
  Ir  Ir35  1  0.000000  0.861350  0.821404  1
