# generated using pymatgen
data_LiYb3(YHg2)4
_symmetry_space_group_name_H-M   'P 1'
_cell_length_a   7.41859104
_cell_length_b   7.41441200
_cell_length_c   7.38340904
_cell_angle_alpha   90.00000000
_cell_angle_beta   89.98790045
_cell_angle_gamma   90.00000000
_symmetry_Int_Tables_number   1
_chemical_formula_structural   LiYb3(YHg2)4
_chemical_formula_sum   'Li1 Yb3 Y4 Hg8'
_cell_volume   406.12064297
_cell_formula_units_Z   1
loop_
 _symmetry_equiv_pos_site_id
 _symmetry_equiv_pos_as_xyz
  1  'x, y, z'
loop_
 _atom_site_type_symbol
 _atom_site_label
 _atom_site_symmetry_multiplicity
 _atom_site_fract_x
 _atom_site_fract_y
 _atom_site_fract_z
 _atom_site_occupancy
  Li  Li0  1  0.750005  0.250000  0.999070  1
  Yb  Yb1  1  0.249998  0.750000  0.000134  1
  Yb  Yb2  1  0.749995  0.250000  0.499800  1
  Yb  Yb3  1  0.250004  0.750000  0.500310  1
  Y  Y4  1  0.249985  0.250000  0.000044  1
  Y  Y5  1  0.750011  0.750000  0.000042  1
  Y  Y6  1  0.749987  0.750000  0.500039  1
  Y  Y7  1  0.250015  0.250000  0.500033  1
  Hg  Hg8  1  0.503270  0.003241  0.245186  1
  Hg  Hg9  1  0.503270  0.496759  0.245186  1
  Hg  Hg10  1  0.996896  0.496861  0.245265  1
  Hg  Hg11  1  0.996896  0.003139  0.245265  1
  Hg  Hg12  1  0.996611  0.003362  0.754906  1
  Hg  Hg13  1  0.996611  0.496638  0.754906  1
  Hg  Hg14  1  0.503222  0.496732  0.754909  1
  Hg  Hg15  1  0.503222  0.003268  0.754909  1
