# generated using pymatgen
data_TbY7Ta10(TiSi8)2
_symmetry_space_group_name_H-M   'P 1'
_cell_length_a   7.05639408
_cell_length_b   7.04972828
_cell_length_c   12.99205604
_cell_angle_alpha   89.98743198
_cell_angle_beta   90.00063501
_cell_angle_gamma   89.97750341
_symmetry_Int_Tables_number   1
_chemical_formula_structural   TbY7Ta10(TiSi8)2
_chemical_formula_sum   'Tb1 Y7 Ta10 Ti2 Si16'
_cell_volume   646.29834902
_cell_formula_units_Z   1
loop_
 _symmetry_equiv_pos_site_id
 _symmetry_equiv_pos_as_xyz
  1  'x, y, z'
loop_
 _atom_site_type_symbol
 _atom_site_label
 _atom_site_symmetry_multiplicity
 _atom_site_fract_x
 _atom_site_fract_y
 _atom_site_fract_z
 _atom_site_occupancy
  Tb  Tb0  1  0.997137  0.659853  0.031934  1
  Y  Y1  1  0.341376  0.002413  0.467762  1
  Y  Y2  1  0.498455  0.841477  0.717928  1
  Y  Y3  1  0.501513  0.158578  0.217982  1
  Y  Y4  1  0.841500  0.498138  0.282420  1
  Y  Y5  1  0.158567  0.501740  0.782306  1
  Y  Y6  1  0.658694  0.997527  0.967821  1
  Y  Y7  1  0.002635  0.340357  0.531927  1
  Ta  Ta8  1  0.329457  0.329728  0.999590  1
  Ta  Ta9  1  0.172719  0.826652  0.250135  1
  Ta  Ta10  1  0.827239  0.173345  0.750038  1
  Ta  Ta11  1  0.670497  0.670290  0.499585  1
  Ta  Ta12  1  0.153354  0.007848  0.874146  1
  Ta  Ta13  1  0.492312  0.652969  0.124503  1
  Ta  Ta14  1  0.507699  0.347050  0.624355  1
  Ta  Ta15  1  0.652665  0.491287  0.875789  1
  Ta  Ta16  1  0.347401  0.508618  0.375861  1
  Ta  Ta17  1  0.846656  0.992056  0.374278  1
  Ti  Ti18  1  0.008648  0.154019  0.125762  1
  Ti  Ti19  1  0.991426  0.846127  0.625711  1
  Si  Si20  1  0.201596  0.131360  0.682265  1
  Si  Si21  1  0.366687  0.704530  0.932234  1
  Si  Si22  1  0.633543  0.295418  0.432275  1
  Si  Si23  1  0.704164  0.365176  0.068088  1
  Si  Si24  1  0.295787  0.634754  0.568104  1
  Si  Si25  1  0.798282  0.868930  0.182447  1
  Si  Si26  1  0.133404  0.202215  0.317179  1
  Si  Si27  1  0.866623  0.797718  0.817115  1
  Si  Si28  1  0.292029  0.955330  0.064460  1
  Si  Si29  1  0.546089  0.794259  0.313647  1
  Si  Si30  1  0.453831  0.205835  0.813612  1
  Si  Si31  1  0.795674  0.547134  0.685214  1
  Si  Si32  1  0.204289  0.452730  0.185320  1
  Si  Si33  1  0.707955  0.044843  0.564458  1
  Si  Si34  1  0.954601  0.293349  0.936856  1
  Si  Si35  1  0.045498  0.706346  0.436896  1
