# generated using pymatgen
data_Tb9YCd3Os
_symmetry_space_group_name_H-M   'P 1'
_cell_length_a   9.64756113
_cell_length_b   9.64756145
_cell_length_c   9.92797900
_cell_angle_alpha   90.00000000
_cell_angle_beta   90.00000000
_cell_angle_gamma   120.01914911
_symmetry_Int_Tables_number   1
_chemical_formula_structural   Tb9YCd3Os
_chemical_formula_sum   'Tb18 Y2 Cd6 Os2'
_cell_volume   800.09718184
_cell_formula_units_Z   2
loop_
 _symmetry_equiv_pos_site_id
 _symmetry_equiv_pos_as_xyz
  1  'x, y, z'
loop_
 _atom_site_type_symbol
 _atom_site_label
 _atom_site_symmetry_multiplicity
 _atom_site_fract_x
 _atom_site_fract_y
 _atom_site_fract_z
 _atom_site_occupancy
  Tb  Tb0  1  0.999988  0.000012  0.500033  1
  Tb  Tb1  1  0.999988  0.000012  0.999967  1
  Tb  Tb2  1  0.209630  0.790370  0.440150  1
  Tb  Tb3  1  0.209739  0.419400  0.440250  1
  Tb  Tb4  1  0.580600  0.790261  0.440250  1
  Tb  Tb5  1  0.790364  0.209636  0.559815  1
  Tb  Tb6  1  0.790285  0.580625  0.559772  1
  Tb  Tb7  1  0.419375  0.209715  0.559772  1
  Tb  Tb8  1  0.790364  0.209636  0.940185  1
  Tb  Tb9  1  0.790285  0.580625  0.940228  1
  Tb  Tb10  1  0.419375  0.209715  0.940228  1
  Tb  Tb11  1  0.209630  0.790370  0.059850  1
  Tb  Tb12  1  0.209739  0.419400  0.059750  1
  Tb  Tb13  1  0.580600  0.790261  0.059750  1
  Tb  Tb14  1  0.540279  0.459721  0.250000  1
  Tb  Tb15  1  0.540280  0.080650  0.250000  1
  Tb  Tb16  1  0.919350  0.459720  0.250000  1
  Tb  Tb17  1  0.459708  0.540292  0.750000  1
  Y  Y18  1  0.459676  0.919285  0.750000  1
  Y  Y19  1  0.080715  0.540324  0.750000  1
  Cd  Cd20  1  0.885469  0.114531  0.250000  1
  Cd  Cd21  1  0.885581  0.770963  0.250000  1
  Cd  Cd22  1  0.229037  0.114419  0.250000  1
  Cd  Cd23  1  0.114568  0.885432  0.750000  1
  Cd  Cd24  1  0.114456  0.229074  0.750000  1
  Cd  Cd25  1  0.770926  0.885544  0.750000  1
  Os  Os26  1  0.333406  0.666594  0.250000  1
  Os  Os27  1  0.666587  0.333413  0.750000  1
