# generated using pymatgen
data_IrRhPb2O7
_symmetry_space_group_name_H-M   'P 1'
_cell_length_a   7.33708852
_cell_length_b   7.34279383
_cell_length_c   7.33708953
_cell_angle_alpha   59.97427347
_cell_angle_beta   59.90735438
_cell_angle_gamma   59.97427459
_symmetry_Int_Tables_number   1
_chemical_formula_structural   IrRhPb2O7
_chemical_formula_sum   'Ir2 Rh2 Pb4 O14'
_cell_volume   279.20305332
_cell_formula_units_Z   2
loop_
 _symmetry_equiv_pos_site_id
 _symmetry_equiv_pos_as_xyz
  1  'x, y, z'
loop_
 _atom_site_type_symbol
 _atom_site_label
 _atom_site_symmetry_multiplicity
 _atom_site_fract_x
 _atom_site_fract_y
 _atom_site_fract_z
 _atom_site_occupancy
  Ir  Ir0  1  0.125000  0.625000  0.625000  1
  Ir  Ir1  1  0.625000  0.625000  0.125000  1
  Rh  Rh2  1  0.625000  0.125000  0.625000  1
  Rh  Rh3  1  0.625000  0.625000  0.625000  1
  Pb  Pb4  1  0.625000  0.125000  0.125000  1
  Pb  Pb5  1  0.125000  0.625000  0.125000  1
  Pb  Pb6  1  0.125000  0.125000  0.625000  1
  Pb  Pb7  1  0.125000  0.125000  0.125000  1
  O  O8  1  0.705982  0.704093  0.292227  1
  O  O9  1  0.292227  0.297698  0.705982  1
  O  O10  1  0.706711  0.293289  0.706711  1
  O  O11  1  0.296495  0.703505  0.296495  1
  O  O12  1  0.292227  0.704093  0.705982  1
  O  O13  1  0.705982  0.297698  0.292227  1
  O  O14  1  0.544018  0.545907  0.957773  1
  O  O15  1  0.957773  0.952302  0.544018  1
  O  O16  1  0.543289  0.956711  0.543289  1
  O  O17  1  0.953505  0.546495  0.953505  1
  O  O18  1  0.957773  0.545907  0.544018  1
  O  O19  1  0.544018  0.952302  0.957773  1
  O  O20  1  0.250099  0.249901  0.250099  1
  O  O21  1  0.999901  0.000099  0.999901  1
