# generated using pymatgen
data_Nd4SmEr3(Si3Rh)4
_symmetry_space_group_name_H-M   'P 1'
_cell_length_a   8.23202106
_cell_length_b   8.23036237
_cell_length_c   8.13046800
_cell_angle_alpha   90.00000000
_cell_angle_beta   90.00000000
_cell_angle_gamma   119.99333073
_symmetry_Int_Tables_number   1
_chemical_formula_structural   Nd4SmEr3(Si3Rh)4
_chemical_formula_sum   'Nd4 Sm1 Er3 Si12 Rh4'
_cell_volume   477.09052151
_cell_formula_units_Z   1
loop_
 _symmetry_equiv_pos_site_id
 _symmetry_equiv_pos_as_xyz
  1  'x, y, z'
loop_
 _atom_site_type_symbol
 _atom_site_label
 _atom_site_symmetry_multiplicity
 _atom_site_fract_x
 _atom_site_fract_y
 _atom_site_fract_z
 _atom_site_occupancy
  Nd  Nd0  1  0.000196  0.000098  0.250000  1
  Nd  Nd1  1  0.999879  0.999939  0.750000  1
  Nd  Nd2  1  0.495267  0.504530  0.250000  1
  Nd  Nd3  1  0.495267  0.990737  0.250000  1
  Sm  Sm4  1  0.008859  0.504429  0.250000  1
  Er  Er5  1  0.507038  0.492977  0.750000  1
  Er  Er6  1  0.985890  0.492945  0.750000  1
  Er  Er7  1  0.507038  0.014061  0.750000  1
  Si  Si8  1  0.833495  0.167218  0.505292  1
  Si  Si9  1  0.833495  0.666278  0.505292  1
  Si  Si10  1  0.333576  0.166789  0.505727  1
  Si  Si11  1  0.833495  0.167218  0.994708  1
  Si  Si12  1  0.833495  0.666278  0.994708  1
  Si  Si13  1  0.333576  0.166789  0.994273  1
  Si  Si14  1  0.167900  0.831181  0.996515  1
  Si  Si15  1  0.663608  0.831804  0.995842  1
  Si  Si16  1  0.167900  0.336720  0.996515  1
  Si  Si17  1  0.167900  0.831181  0.503485  1
  Si  Si18  1  0.663608  0.831804  0.504158  1
  Si  Si19  1  0.167900  0.336720  0.503485  1
  Rh  Rh20  1  0.667376  0.333687  0.493649  1
  Rh  Rh21  1  0.667376  0.333687  0.006351  1
  Rh  Rh22  1  0.332932  0.666467  0.957301  1
  Rh  Rh23  1  0.332932  0.666467  0.542699  1
