# generated using pymatgen
data_La4CeAl2Os3
_symmetry_space_group_name_H-M   'P 1'
_cell_length_a   8.70264294
_cell_length_b   8.62946849
_cell_length_c   8.60184900
_cell_angle_alpha   110.00380102
_cell_angle_beta   109.27350304
_cell_angle_gamma   110.14195849
_symmetry_Int_Tables_number   1
_chemical_formula_structural   La4CeAl2Os3
_chemical_formula_sum   'La8 Ce2 Al4 Os6'
_cell_volume   490.99200639
_cell_formula_units_Z   2
loop_
 _symmetry_equiv_pos_site_id
 _symmetry_equiv_pos_as_xyz
  1  'x, y, z'
loop_
 _atom_site_type_symbol
 _atom_site_label
 _atom_site_symmetry_multiplicity
 _atom_site_fract_x
 _atom_site_fract_y
 _atom_site_fract_z
 _atom_site_occupancy
  La  La0  1  0.786940  0.790413  0.785701  1
  La  La1  1  0.314613  0.564002  0.752831  1
  La  La2  1  0.751818  0.313670  0.564731  1
  La  La3  1  0.562100  0.749219  0.309987  1
  La  La4  1  0.720907  0.503786  0.000141  1
  La  La5  1  0.999815  0.715857  0.503570  1
  La  La6  1  0.500859  0.993797  0.713482  1
  La  La7  1  0.251854  0.189706  0.935764  1
  Ce  Ce8  1  0.941297  0.251125  0.192224  1
  Ce  Ce9  1  0.191975  0.939454  0.250326  1
  Al  Al10  1  0.403998  0.400740  0.402724  1
  Al  Al11  1  0.091106  0.496081  0.002555  1
  Al  Al12  1  0.999271  0.091420  0.495130  1
  Al  Al13  1  0.502291  0.008941  0.097352  1
  Os  Os14  1  0.881156  0.128655  0.745310  1
  Os  Os15  1  0.753854  0.904607  0.128566  1
  Os  Os16  1  0.135190  0.759413  0.910229  1
  Os  Os17  1  0.232198  0.594572  0.360287  1
  Os  Os18  1  0.356369  0.227667  0.596314  1
  Os  Os19  1  0.622389  0.376877  0.252771  1
