# generated using pymatgen
data_Li2Lu3AgSn3
_symmetry_space_group_name_H-M   'P 1'
_cell_length_a   7.19563105
_cell_length_b   7.18086121
_cell_length_c   4.53916200
_cell_angle_alpha   90.00000000
_cell_angle_beta   90.00000000
_cell_angle_gamma   119.93213060
_symmetry_Int_Tables_number   1
_chemical_formula_structural   Li2Lu3AgSn3
_chemical_formula_sum   'Li2 Lu3 Ag1 Sn3'
_cell_volume   203.25832436
_cell_formula_units_Z   1
loop_
 _symmetry_equiv_pos_site_id
 _symmetry_equiv_pos_as_xyz
  1  'x, y, z'
loop_
 _atom_site_type_symbol
 _atom_site_label
 _atom_site_symmetry_multiplicity
 _atom_site_fract_x
 _atom_site_fract_y
 _atom_site_fract_z
 _atom_site_occupancy
  Li  Li0  1  0.233252  0.229753  0.500000  1
  Li  Li1  1  0.766748  0.996501  0.500000  1
  Lu  Lu2  1  0.000000  0.446962  0.000000  1
  Lu  Lu3  1  0.566061  0.564516  0.000000  1
  Lu  Lu4  1  0.433939  0.998455  0.000000  1
  Ag  Ag5  1  0.000000  0.763168  0.500000  1
  Sn  Sn6  1  0.339991  0.665354  0.500000  1
  Sn  Sn7  1  0.000000  0.009931  0.000000  1
  Sn  Sn8  1  0.660009  0.325362  0.500000  1
