# generated using pymatgen
data_NaNp4(NCl)4
_symmetry_space_group_name_H-M   'P 1'
_cell_length_a   3.81645400
_cell_length_b   6.57420252
_cell_length_c   10.69516302
_cell_angle_alpha   78.00450147
_cell_angle_beta   90.00000000
_cell_angle_gamma   90.00000000
_symmetry_Int_Tables_number   1
_chemical_formula_structural   NaNp4(NCl)4
_chemical_formula_sum   'Na1 Np4 N4 Cl4'
_cell_volume   262.48359404
_cell_formula_units_Z   1
loop_
 _symmetry_equiv_pos_site_id
 _symmetry_equiv_pos_as_xyz
  1  'x, y, z'
loop_
 _atom_site_type_symbol
 _atom_site_label
 _atom_site_symmetry_multiplicity
 _atom_site_fract_x
 _atom_site_fract_y
 _atom_site_fract_z
 _atom_site_occupancy
  Na  Na0  1  0.000000  0.000000  0.000000  1
  Np  Np1  1  0.500000  0.710739  0.366331  1
  Np  Np2  1  0.000000  0.212681  0.367332  1
  Np  Np3  1  0.500000  0.289261  0.633669  1
  Np  Np4  1  0.000000  0.787319  0.632668  1
  N  N5  1  0.500000  0.639861  0.582327  1
  N  N6  1  0.000000  0.138999  0.581855  1
  N  N7  1  0.500000  0.360139  0.417673  1
  N  N8  1  0.000000  0.861001  0.418145  1
  Cl  Cl9  1  0.000000  0.387354  0.821048  1
  Cl  Cl10  1  0.500000  0.893668  0.828703  1
  Cl  Cl11  1  0.000000  0.612646  0.178952  1
  Cl  Cl12  1  0.500000  0.106332  0.171297  1
