# generated using pymatgen
data_Ti6Si6Os11Ru
_symmetry_space_group_name_H-M   'P 1'
_cell_length_a   4.27110100
_cell_length_b   6.04194000
_cell_length_c   12.80730800
_cell_angle_alpha   90.00060319
_cell_angle_beta   90.00013865
_cell_angle_gamma   90.00043274
_symmetry_Int_Tables_number   1
_chemical_formula_structural   Ti6Si6Os11Ru
_chemical_formula_sum   'Ti6 Si6 Os11 Ru1'
_cell_volume   330.50200880
_cell_formula_units_Z   1
loop_
 _symmetry_equiv_pos_site_id
 _symmetry_equiv_pos_as_xyz
  1  'x, y, z'
loop_
 _atom_site_type_symbol
 _atom_site_label
 _atom_site_symmetry_multiplicity
 _atom_site_fract_x
 _atom_site_fract_y
 _atom_site_fract_z
 _atom_site_occupancy
  Ti  Ti0  1  0.000000  0.500745  0.999427  1
  Ti  Ti1  1  0.499776  0.999980  0.166578  1
  Ti  Ti2  1  0.999777  0.500027  0.333335  1
  Ti  Ti3  1  0.499998  0.999979  0.500088  1
  Ti  Ti4  1  0.000231  0.500748  0.667238  1
  Ti  Ti5  1  0.500242  0.998634  0.833334  1
  Si  Si6  1  0.000000  0.999914  0.000007  1
  Si  Si7  1  0.499736  0.500019  0.166654  1
  Si  Si8  1  0.999737  0.999910  0.333333  1
  Si  Si9  1  0.499998  0.500019  0.500014  1
  Si  Si10  1  0.000259  0.999911  0.666660  1
  Si  Si11  1  0.500258  0.500227  0.833333  1
  Os  Os12  1  0.499996  0.250157  0.999997  1
  Os  Os13  1  0.499998  0.749815  0.999886  1
  Os  Os14  1  0.999800  0.249980  0.166437  1
  Os  Os15  1  0.999797  0.750001  0.166717  1
  Os  Os16  1  0.499797  0.250293  0.333333  1
  Os  Os17  1  0.499802  0.749906  0.333332  1
  Os  Os18  1  0.000001  0.249983  0.500230  1
  Os  Os19  1  0.999996  0.749997  0.499950  1
  Os  Os20  1  0.500196  0.250159  0.666672  1
  Os  Os21  1  0.500200  0.749813  0.666781  1
  Os  Os22  1  0.000199  0.249398  0.833333  1
  Ru  Ru23  1  0.000207  0.750386  0.833333  1
