# generated using pymatgen
data_Cs2Zr7CrBr18
_symmetry_space_group_name_H-M   'P 1'
_cell_length_a   11.31775270
_cell_length_b   11.31775230
_cell_length_c   11.31775207
_cell_angle_alpha   55.65518884
_cell_angle_beta   55.65519253
_cell_angle_gamma   55.65519598
_symmetry_Int_Tables_number   1
_chemical_formula_structural   Cs2Zr7CrBr18
_chemical_formula_sum   'Cs2 Zr7 Cr1 Br18'
_cell_volume   921.75746995
_cell_formula_units_Z   1
loop_
 _symmetry_equiv_pos_site_id
 _symmetry_equiv_pos_as_xyz
  1  'x, y, z'
loop_
 _atom_site_type_symbol
 _atom_site_label
 _atom_site_symmetry_multiplicity
 _atom_site_fract_x
 _atom_site_fract_y
 _atom_site_fract_z
 _atom_site_occupancy
  Cs  Cs0  1  0.775502  0.775502  0.775502  1
  Cs  Cs1  1  0.224498  0.224498  0.224498  1
  Zr  Zr2  1  0.162213  0.898199  0.791649  1
  Zr  Zr3  1  0.837787  0.101801  0.208351  1
  Zr  Zr4  1  0.101801  0.208351  0.837787  1
  Zr  Zr5  1  0.208351  0.837787  0.101801  1
  Zr  Zr6  1  0.898199  0.791649  0.162213  1
  Zr  Zr7  1  0.791649  0.162213  0.898199  1
  Zr  Zr8  1  0.500000  0.500000  0.500000  1
  Cr  Cr9  1  0.000000  0.000000  0.000000  1
  Br  Br10  1  0.228446  0.470619  0.640093  1
  Br  Br11  1  0.771554  0.529381  0.359907  1
  Br  Br12  1  0.345258  0.052511  0.934204  1
  Br  Br13  1  0.654742  0.947489  0.065796  1
  Br  Br14  1  0.934204  0.345258  0.052511  1
  Br  Br15  1  0.711999  0.878389  0.412732  1
  Br  Br16  1  0.359907  0.771554  0.529381  1
  Br  Br17  1  0.587268  0.288001  0.121611  1
  Br  Br18  1  0.288001  0.121611  0.587268  1
  Br  Br19  1  0.121611  0.587268  0.288001  1
  Br  Br20  1  0.947489  0.065796  0.654742  1
  Br  Br21  1  0.412732  0.711999  0.878389  1
  Br  Br22  1  0.878389  0.412732  0.711999  1
  Br  Br23  1  0.065796  0.654742  0.947489  1
  Br  Br24  1  0.470619  0.640093  0.228446  1
  Br  Br25  1  0.640093  0.228446  0.470619  1
  Br  Br26  1  0.529381  0.359907  0.771554  1
  Br  Br27  1  0.052511  0.934204  0.345258  1
