# generated using pymatgen
data_Fe4Si3PW4
_symmetry_space_group_name_H-M   'P 1'
_cell_length_a   6.07132184
_cell_length_b   3.60090600
_cell_length_c   6.89350335
_cell_angle_alpha   90.00000000
_cell_angle_beta   89.95638834
_cell_angle_gamma   90.00000000
_symmetry_Int_Tables_number   1
_chemical_formula_structural   Fe4Si3PW4
_chemical_formula_sum   'Fe4 Si3 P1 W4'
_cell_volume   150.70751356
_cell_formula_units_Z   1
loop_
 _symmetry_equiv_pos_site_id
 _symmetry_equiv_pos_as_xyz
  1  'x, y, z'
loop_
 _atom_site_type_symbol
 _atom_site_label
 _atom_site_symmetry_multiplicity
 _atom_site_fract_x
 _atom_site_fract_y
 _atom_site_fract_z
 _atom_site_occupancy
  Fe  Fe0  1  0.138958  0.250000  0.436659  1
  Fe  Fe1  1  0.648508  0.250000  0.070042  1
  Fe  Fe2  1  0.850995  0.750000  0.554227  1
  Fe  Fe3  1  0.357168  0.750000  0.937845  1
  Si  Si4  1  0.276082  0.250000  0.122426  1
  Si  Si5  1  0.223308  0.750000  0.621374  1
  Si  Si6  1  0.725685  0.750000  0.877297  1
  P  P7  1  0.775615  0.250000  0.379414  1
  W  W8  1  0.024157  0.250000  0.826440  1
  W  W9  1  0.523412  0.250000  0.674800  1
  W  W10  1  0.978116  0.750000  0.174771  1
  W  W11  1  0.477998  0.750000  0.324708  1
