# generated using pymatgen
data_Gd3Al3ZnCu2
_symmetry_space_group_name_H-M   'P 1'
_cell_length_a   7.05005500
_cell_length_b   7.05005462
_cell_length_c   4.09954100
_cell_angle_alpha   90.00000000
_cell_angle_beta   90.00000000
_cell_angle_gamma   120.00000648
_symmetry_Int_Tables_number   1
_chemical_formula_structural   Gd3Al3ZnCu2
_chemical_formula_sum   'Gd3 Al3 Zn1 Cu2'
_cell_volume   176.46184850
_cell_formula_units_Z   1
loop_
 _symmetry_equiv_pos_site_id
 _symmetry_equiv_pos_as_xyz
  1  'x, y, z'
loop_
 _atom_site_type_symbol
 _atom_site_label
 _atom_site_symmetry_multiplicity
 _atom_site_fract_x
 _atom_site_fract_y
 _atom_site_fract_z
 _atom_site_occupancy
  Gd  Gd0  1  0.411389  0.417791  0.000000  1
  Gd  Gd1  1  0.582209  0.993598  0.000000  1
  Gd  Gd2  1  0.006402  0.588611  0.000000  1
  Al  Al3  1  0.765499  0.768851  0.500000  1
  Al  Al4  1  0.231149  0.996648  0.500000  1
  Al  Al5  1  0.003352  0.234501  0.500000  1
  Zn  Zn6  1  0.666667  0.333333  0.500000  1
  Cu  Cu7  1  0.333333  0.666667  0.500000  1
  Cu  Cu8  1  0.000000  0.000000  0.000000  1
