# generated using pymatgen
data_Ni17(SnSe)4
_symmetry_space_group_name_H-M   'P 1'
_cell_length_a   3.73426500
_cell_length_b   3.73426500
_cell_length_c   26.32385600
_cell_angle_alpha   90.00000000
_cell_angle_beta   90.00000000
_cell_angle_gamma   90.00000000
_symmetry_Int_Tables_number   1
_chemical_formula_structural   Ni17(SnSe)4
_chemical_formula_sum   'Ni17 Sn4 Se4'
_cell_volume   367.07919847
_cell_formula_units_Z   1
loop_
 _symmetry_equiv_pos_site_id
 _symmetry_equiv_pos_as_xyz
  1  'x, y, z'
loop_
 _atom_site_type_symbol
 _atom_site_label
 _atom_site_symmetry_multiplicity
 _atom_site_fract_x
 _atom_site_fract_y
 _atom_site_fract_z
 _atom_site_occupancy
  Ni  Ni0  1  0.000000  0.500000  0.500615  1
  Ni  Ni1  1  0.500000  0.000000  0.999971  1
  Ni  Ni2  1  0.500000  0.000000  0.500615  1
  Ni  Ni3  1  0.000000  0.500000  0.999971  1
  Ni  Ni4  1  0.000000  0.500000  0.357000  1
  Ni  Ni5  1  0.500000  0.000000  0.857971  1
  Ni  Ni6  1  0.500000  0.000000  0.357000  1
  Ni  Ni7  1  0.000000  0.500000  0.857971  1
  Ni  Ni8  1  0.500000  0.000000  0.143180  1
  Ni  Ni9  1  0.000000  0.500000  0.642591  1
  Ni  Ni10  1  0.000000  0.500000  0.143180  1
  Ni  Ni11  1  0.500000  0.000000  0.642591  1
  Ni  Ni12  1  0.000000  0.000000  0.431487  1
  Ni  Ni13  1  0.500000  0.500000  0.930356  1
  Ni  Ni14  1  0.500000  0.500000  0.069541  1
  Ni  Ni15  1  0.000000  0.000000  0.570439  1
  Ni  Ni16  1  0.500000  0.500000  0.285221  1
  Sn  Sn17  1  0.500000  0.500000  0.428006  1
  Sn  Sn18  1  0.000000  0.000000  0.928523  1
  Sn  Sn19  1  0.000000  0.000000  0.072017  1
  Sn  Sn20  1  0.500000  0.500000  0.571668  1
  Se  Se21  1  0.000000  0.000000  0.298740  1
  Se  Se22  1  0.500000  0.500000  0.804815  1
  Se  Se23  1  0.500000  0.500000  0.197290  1
  Se  Se24  1  0.000000  0.000000  0.695838  1
