# generated using pymatgen
data_Zr3Nb5Fe8(Co2P3)4
_symmetry_space_group_name_H-M   'P 1'
_cell_length_a   11.94672082
_cell_length_b   11.97138987
_cell_length_c   3.63892400
_cell_angle_alpha   90.00000000
_cell_angle_beta   90.00000000
_cell_angle_gamma   120.04413400
_symmetry_Int_Tables_number   1
_chemical_formula_structural   Zr3Nb5Fe8(Co2P3)4
_chemical_formula_sum   'Zr3 Nb5 Fe8 Co8 P12'
_cell_volume   450.50912701
_cell_formula_units_Z   1
loop_
 _symmetry_equiv_pos_site_id
 _symmetry_equiv_pos_as_xyz
  1  'x, y, z'
loop_
 _atom_site_type_symbol
 _atom_site_label
 _atom_site_symmetry_multiplicity
 _atom_site_fract_x
 _atom_site_fract_y
 _atom_site_fract_z
 _atom_site_occupancy
  Zr  Zr0  1  0.822087  0.999087  0.500000  1
  Zr  Zr1  1  0.333331  0.667177  0.000000  1
  Zr  Zr2  1  0.665942  0.334025  0.000000  1
  Nb  Nb3  1  0.999255  0.817243  0.500000  1
  Nb  Nb4  1  0.182309  0.182403  0.500000  1
  Nb  Nb5  1  0.441254  0.000604  0.000000  1
  Nb  Nb6  1  0.000610  0.443207  0.000000  1
  Nb  Nb7  1  0.557921  0.557732  0.000000  1
  Fe  Fe8  1  0.274996  0.000146  0.500000  1
  Fe  Fe9  1  0.999540  0.276540  0.500000  1
  Fe  Fe10  1  0.724317  0.721801  0.500000  1
  Fe  Fe11  1  0.625955  0.805267  0.000000  1
  Fe  Fe12  1  0.192316  0.820936  0.000000  1
  Fe  Fe13  1  0.178744  0.371255  0.000000  1
  Fe  Fe14  1  0.371087  0.179508  0.000000  1
  Fe  Fe15  1  0.808039  0.627577  0.000000  1
  Co  Co16  1  0.819572  0.192732  0.000000  1
  Co  Co17  1  0.516028  0.874975  0.500000  1
  Co  Co18  1  0.126326  0.642665  0.500000  1
  Co  Co19  1  0.357478  0.483864  0.500000  1
  Co  Co20  1  0.483120  0.357308  0.500000  1
  Co  Co21  1  0.873985  0.516339  0.500000  1
  Co  Co22  1  0.642767  0.128096  0.500000  1
  Co  Co23  1  0.001615  0.999525  0.000000  1
  P  P24  1  0.176104  0.999630  0.000000  1
  P  P25  1  0.003050  0.176655  0.000000  1
  P  P26  1  0.824331  0.822320  0.000000  1
  P  P27  1  0.522599  0.693393  0.500000  1
  P  P28  1  0.306745  0.829342  0.500000  1
  P  P29  1  0.171391  0.478277  0.500000  1
  P  P30  1  0.477107  0.171299  0.500000  1
  P  P31  1  0.692844  0.521529  0.500000  1
  P  P32  1  0.829595  0.309031  0.500000  1
  P  P33  1  0.648076  0.998016  0.000000  1
  P  P34  1  0.000158  0.650712  0.000000  1
  P  P35  1  0.349407  0.349786  0.000000  1
