# generated using pymatgen
data_ZrNb(PO4)3
_symmetry_space_group_name_H-M   'P 1'
_cell_length_a   8.88377907
_cell_length_b   8.88317144
_cell_length_c   9.18443920
_cell_angle_alpha   90.12515896
_cell_angle_beta   118.76620549
_cell_angle_gamma   119.99449837
_symmetry_Int_Tables_number   1
_chemical_formula_structural   ZrNb(PO4)3
_chemical_formula_sum   'Zr2 Nb2 P6 O24'
_cell_volume   521.37214514
_cell_formula_units_Z   2
loop_
 _symmetry_equiv_pos_site_id
 _symmetry_equiv_pos_as_xyz
  1  'x, y, z'
loop_
 _atom_site_type_symbol
 _atom_site_label
 _atom_site_symmetry_multiplicity
 _atom_site_fract_x
 _atom_site_fract_y
 _atom_site_fract_z
 _atom_site_occupancy
  Zr  Zr0  1  0.216709  0.859653  0.075897  1
  Zr  Zr1  1  0.784190  0.640919  0.425689  1
  Nb  Nb2  1  0.214055  0.358060  0.571424  1
  Nb  Nb3  1  0.784618  0.141156  0.926362  1
  P  P4  1  0.997508  0.969953  0.248220  1
  P  P5  1  0.278152  0.528337  0.250901  1
  P  P6  1  0.285024  0.751326  0.747471  1
  P  P7  1  0.721464  0.249212  0.252160  1
  P  P8  1  0.715954  0.464952  0.749087  1
  P  P9  1  0.001851  0.036144  0.752201  1
  O  O10  1  0.285601  0.700632  0.222975  1
  O  O11  1  0.866607  0.999559  0.078632  1
  O  O12  1  0.856184  0.862575  0.595518  1
  O  O13  1  0.847214  0.807764  0.276559  1
  O  O14  1  0.141603  0.936685  0.230434  1
  O  O15  1  0.470658  0.543417  0.280780  1
  O  O16  1  0.103231  0.736235  0.584234  1
  O  O17  1  0.899647  0.633288  0.910964  1
  O  O18  1  0.280264  0.775137  0.909281  1
  O  O19  1  0.494658  0.917674  0.780687  1
  O  O20  1  0.728660  0.483352  0.589570  1
  O  O21  1  0.729622  0.424604  0.272308  1
  O  O22  1  0.282959  0.576736  0.716728  1
  O  O23  1  0.266736  0.500950  0.413090  1
  O  O24  1  0.525135  0.084558  0.230195  1
  O  O25  1  0.723469  0.210915  0.088232  1
  O  O26  1  0.080048  0.360415  0.086512  1
  O  O27  1  0.915334  0.275109  0.417585  1
  O  O28  1  0.507607  0.432429  0.708627  1
  O  O29  1  0.866138  0.079911  0.780642  1
  O  O30  1  0.139693  0.203712  0.712898  1
  O  O31  1  0.135790  0.145166  0.406963  1
  O  O32  1  0.145696  0.018777  0.919408  1
  O  O33  1  0.707921  0.290688  0.787764  1
