# generated using pymatgen
data_Tm(Mn2Si)2
_symmetry_space_group_name_H-M   'P 1'
_cell_length_a   6.56951700
_cell_length_b   7.39490500
_cell_length_c   3.89955200
_cell_angle_alpha   90.00000000
_cell_angle_beta   90.00000000
_cell_angle_gamma   90.00000000
_symmetry_Int_Tables_number   1
_chemical_formula_structural   Tm(Mn2Si)2
_chemical_formula_sum   'Tm2 Mn8 Si4'
_cell_volume   189.44395677
_cell_formula_units_Z   2
loop_
 _symmetry_equiv_pos_site_id
 _symmetry_equiv_pos_as_xyz
  1  'x, y, z'
loop_
 _atom_site_type_symbol
 _atom_site_label
 _atom_site_symmetry_multiplicity
 _atom_site_fract_x
 _atom_site_fract_y
 _atom_site_fract_z
 _atom_site_occupancy
  Tm  Tm0  1  0.500000  0.500000  0.000000  1
  Tm  Tm1  1  0.000000  0.000000  0.500000  1
  Mn  Mn2  1  0.856167  0.386531  0.500000  1
  Mn  Mn3  1  0.143833  0.613469  0.500000  1
  Mn  Mn4  1  0.643833  0.886531  0.000000  1
  Mn  Mn5  1  0.356167  0.113469  0.000000  1
  Mn  Mn6  1  0.565938  0.151396  0.500000  1
  Mn  Mn7  1  0.434062  0.848604  0.500000  1
  Mn  Mn8  1  0.934062  0.651396  0.000000  1
  Mn  Mn9  1  0.065938  0.348604  0.000000  1
  Si  Si10  1  0.260273  0.310439  0.500000  1
  Si  Si11  1  0.739727  0.689561  0.500000  1
  Si  Si12  1  0.239727  0.810439  0.000000  1
  Si  Si13  1  0.760273  0.189561  0.000000  1
