# generated using pymatgen
data_Tb2ThSc2AlRh3
_symmetry_space_group_name_H-M   'P 1'
_cell_length_a   7.29328900
_cell_length_b   7.18333730
_cell_length_c   4.29471800
_cell_angle_alpha   90.00000000
_cell_angle_beta   90.00000000
_cell_angle_gamma   120.50763508
_symmetry_Int_Tables_number   1
_chemical_formula_structural   Tb2ThSc2AlRh3
_chemical_formula_sum   'Tb2 Th1 Sc2 Al1 Rh3'
_cell_volume   193.85215292
_cell_formula_units_Z   1
loop_
 _symmetry_equiv_pos_site_id
 _symmetry_equiv_pos_as_xyz
  1  'x, y, z'
loop_
 _atom_site_type_symbol
 _atom_site_label
 _atom_site_symmetry_multiplicity
 _atom_site_fract_x
 _atom_site_fract_y
 _atom_site_fract_z
 _atom_site_occupancy
  Tb  Tb0  1  0.983047  0.395459  0.500000  1
  Tb  Tb1  1  0.587588  0.604541  0.500000  1
  Th  Th2  1  0.427533  0.000000  0.500000  1
  Sc  Sc3  1  0.981001  0.740436  0.000000  1
  Sc  Sc4  1  0.240565  0.259564  0.000000  1
  Al  Al5  1  0.768124  0.000000  0.000000  1
  Rh  Rh6  1  0.344698  0.694827  0.000000  1
  Rh  Rh7  1  0.649873  0.305173  0.000000  1
  Rh  Rh8  1  0.017571  0.000000  0.500000  1
