# generated using pymatgen
data_Hf4NbFe2B4AsRu8
_symmetry_space_group_name_H-M   'P 1'
_cell_length_a   9.33383300
_cell_length_b   9.33383300
_cell_length_c   3.09503200
_cell_angle_alpha   90.00000000
_cell_angle_beta   90.00000000
_cell_angle_gamma   90.00000000
_symmetry_Int_Tables_number   1
_chemical_formula_structural   Hf4NbFe2B4AsRu8
_chemical_formula_sum   'Hf4 Nb1 Fe2 B4 As1 Ru8'
_cell_volume   269.64054492
_cell_formula_units_Z   1
loop_
 _symmetry_equiv_pos_site_id
 _symmetry_equiv_pos_as_xyz
  1  'x, y, z'
loop_
 _atom_site_type_symbol
 _atom_site_label
 _atom_site_symmetry_multiplicity
 _atom_site_fract_x
 _atom_site_fract_y
 _atom_site_fract_z
 _atom_site_occupancy
  Hf  Hf0  1  0.826044  0.673996  0.000000  1
  Hf  Hf1  1  0.173956  0.326004  0.000000  1
  Hf  Hf2  1  0.326004  0.826044  0.000000  1
  Hf  Hf3  1  0.673996  0.173956  0.000000  1
  Nb  Nb4  1  0.000000  0.000000  0.000000  1
  Fe  Fe5  1  0.500000  0.000000  0.500000  1
  Fe  Fe6  1  0.000000  0.500000  0.500000  1
  B  B7  1  0.611035  0.883273  0.000000  1
  B  B8  1  0.388965  0.116727  0.000000  1
  B  B9  1  0.116727  0.611035  0.000000  1
  B  B10  1  0.883273  0.388965  0.000000  1
  As  As11  1  0.500000  0.500000  0.000000  1
  Ru  Ru12  1  0.563441  0.717790  0.500000  1
  Ru  Ru13  1  0.436559  0.282210  0.500000  1
  Ru  Ru14  1  0.067633  0.775133  0.500000  1
  Ru  Ru15  1  0.932367  0.224867  0.500000  1
  Ru  Ru16  1  0.282210  0.563441  0.500000  1
  Ru  Ru17  1  0.717790  0.436559  0.500000  1
  Ru  Ru18  1  0.224867  0.067633  0.500000  1
  Ru  Ru19  1  0.775133  0.932367  0.500000  1
