# generated using pymatgen
data_Ac7Tb12PrSn16
_symmetry_space_group_name_H-M   'P 1'
_cell_length_a   8.36430704
_cell_length_b   8.43106820
_cell_length_c   16.09081700
_cell_angle_alpha   90.06835888
_cell_angle_beta   90.11222416
_cell_angle_gamma   90.18327768
_symmetry_Int_Tables_number   1
_chemical_formula_structural   Ac7Tb12PrSn16
_chemical_formula_sum   'Ac7 Tb12 Pr1 Sn16'
_cell_volume   1134.71631058
_cell_formula_units_Z   1
loop_
 _symmetry_equiv_pos_site_id
 _symmetry_equiv_pos_as_xyz
  1  'x, y, z'
loop_
 _atom_site_type_symbol
 _atom_site_label
 _atom_site_symmetry_multiplicity
 _atom_site_fract_x
 _atom_site_fract_y
 _atom_site_fract_z
 _atom_site_occupancy
  Ac  Ac0  1  0.514468  0.321525  0.903781  1
  Ac  Ac1  1  0.013652  0.176951  0.596128  1
  Ac  Ac2  1  0.485975  0.677163  0.404278  1
  Ac  Ac3  1  0.985312  0.823449  0.094729  1
  Ac  Ac4  1  0.487090  0.677798  0.094415  1
  Ac  Ac5  1  0.986078  0.822475  0.404544  1
  Ac  Ac6  1  0.514752  0.322660  0.597644  1
  Tb  Tb7  1  0.359238  0.838578  0.878140  1
  Tb  Tb8  1  0.858794  0.662021  0.625823  1
  Tb  Tb9  1  0.640491  0.162128  0.376810  1
  Tb  Tb10  1  0.139679  0.337246  0.123242  1
  Tb  Tb11  1  0.639200  0.160526  0.121617  1
  Tb  Tb12  1  0.141958  0.338456  0.375957  1
  Tb  Tb13  1  0.358406  0.838354  0.624213  1
  Tb  Tb14  1  0.858912  0.662663  0.876283  1
  Tb  Tb15  1  0.194050  0.503773  0.751107  1
  Tb  Tb16  1  0.694983  0.996481  0.751018  1
  Tb  Tb17  1  0.805175  0.494912  0.249810  1
  Tb  Tb18  1  0.304115  0.003920  0.249163  1
  Pr  Pr19  1  0.016931  0.178357  0.901642  1
  Sn  Sn20  1  0.302049  0.047340  0.041003  1
  Sn  Sn21  1  0.809411  0.456021  0.456598  1
  Sn  Sn22  1  0.690714  0.954524  0.544556  1
  Sn  Sn23  1  0.188114  0.538811  0.955341  1
  Sn  Sn24  1  0.699538  0.961424  0.953916  1
  Sn  Sn25  1  0.190250  0.544660  0.544557  1
  Sn  Sn26  1  0.308998  0.045236  0.456066  1
  Sn  Sn27  1  0.811542  0.452994  0.042000  1
  Sn  Sn28  1  0.557282  0.631023  0.750940  1
  Sn  Sn29  1  0.058509  0.872143  0.752259  1
  Sn  Sn30  1  0.442187  0.367936  0.248882  1
  Sn  Sn31  1  0.940819  0.131389  0.249882  1
  Sn  Sn32  1  0.317531  0.135447  0.751542  1
  Sn  Sn33  1  0.826407  0.360312  0.753015  1
  Sn  Sn34  1  0.678631  0.865228  0.249584  1
  Sn  Sn35  1  0.178759  0.636075  0.249512  1
