# generated using pymatgen
data_Dy3Ho3VFeB14
_symmetry_space_group_name_H-M   'P 1'
_cell_length_a   8.08602704
_cell_length_b   8.08602832
_cell_length_c   9.31677066
_cell_angle_alpha   90.04203191
_cell_angle_beta   89.95796776
_cell_angle_gamma   155.54976572
_symmetry_Int_Tables_number   1
_chemical_formula_structural   Dy3Ho3VFeB14
_chemical_formula_sum   'Dy3 Ho3 V1 Fe1 B14'
_cell_volume   252.13550521
_cell_formula_units_Z   1
loop_
 _symmetry_equiv_pos_site_id
 _symmetry_equiv_pos_as_xyz
  1  'x, y, z'
loop_
 _atom_site_type_symbol
 _atom_site_label
 _atom_site_symmetry_multiplicity
 _atom_site_fract_x
 _atom_site_fract_y
 _atom_site_fract_z
 _atom_site_occupancy
  Dy  Dy0  1  0.105294  0.894706  0.563777  1
  Dy  Dy1  1  0.893585  0.106415  0.059148  1
  Dy  Dy2  1  0.105038  0.894962  0.936225  1
  Ho  Ho3  1  0.894001  0.105999  0.441513  1
  Ho  Ho4  1  0.243166  0.756834  0.249798  1
  Ho  Ho5  1  0.759324  0.240676  0.749793  1
  V  V6  1  0.052572  0.947428  0.250100  1
  Fe  Fe7  1  0.945448  0.054552  0.750431  1
  B  B8  1  0.728558  0.271442  0.468325  1
  B  B9  1  0.273529  0.726471  0.534447  1
  B  B10  1  0.728005  0.271995  0.031136  1
  B  B11  1  0.273042  0.726958  0.964867  1
  B  B12  1  0.632899  0.367101  0.148876  1
  B  B13  1  0.370457  0.629543  0.846850  1
  B  B14  1  0.633063  0.366937  0.351130  1
  B  B15  1  0.370570  0.629430  0.652550  1
  B  B16  1  0.520478  0.479522  0.093610  1
  B  B17  1  0.477738  0.522262  0.902694  1
  B  B18  1  0.520520  0.479480  0.407119  1
  B  B19  1  0.477885  0.522115  0.597098  1
  B  B20  1  0.457620  0.542380  0.250576  1
  B  B21  1  0.537211  0.462789  0.749935  1
