# generated using pymatgen
data_Lu6BeB3Ir10
_symmetry_space_group_name_H-M   'P 1'
_cell_length_a   9.78195696
_cell_length_b   9.78195696
_cell_length_c   3.21496800
_cell_angle_alpha   90.00000000
_cell_angle_beta   90.00000000
_cell_angle_gamma   89.91091058
_symmetry_Int_Tables_number   1
_chemical_formula_structural   Lu6BeB3Ir10
_chemical_formula_sum   'Lu6 Be1 B3 Ir10'
_cell_volume   307.62924843
_cell_formula_units_Z   1
loop_
 _symmetry_equiv_pos_site_id
 _symmetry_equiv_pos_as_xyz
  1  'x, y, z'
loop_
 _atom_site_type_symbol
 _atom_site_label
 _atom_site_symmetry_multiplicity
 _atom_site_fract_x
 _atom_site_fract_y
 _atom_site_fract_z
 _atom_site_occupancy
  Lu  Lu0  1  0.177049  0.677049  0.000000  1
  Lu  Lu1  1  0.322944  0.175295  0.000000  1
  Lu  Lu2  1  0.823872  0.323872  0.000000  1
  Lu  Lu3  1  0.499590  0.501363  0.000000  1
  Lu  Lu4  1  0.675295  0.822944  0.000000  1
  Lu  Lu5  1  0.001363  0.999590  0.000000  1
  Be  Be6  1  0.379134  0.879134  0.000000  1
  B  B7  1  0.119581  0.380576  0.000000  1
  B  B8  1  0.880576  0.619581  0.000000  1
  B  B9  1  0.619855  0.119855  0.000000  1
  Ir  Ir10  1  0.222263  0.931440  0.500000  1
  Ir  Ir11  1  0.928554  0.771539  0.500000  1
  Ir  Ir12  1  0.431440  0.722263  0.500000  1
  Ir  Ir13  1  0.571724  0.273300  0.500000  1
  Ir  Ir14  1  0.728837  0.569972  0.500000  1
  Ir  Ir15  1  0.271539  0.428554  0.500000  1
  Ir  Ir16  1  0.069972  0.228837  0.500000  1
  Ir  Ir17  1  0.000241  0.500241  0.500000  1
  Ir  Ir18  1  0.502870  0.002870  0.500000  1
  Ir  Ir19  1  0.773300  0.071724  0.500000  1
