# generated using pymatgen
data_PrEr6Sn23Ru6
_symmetry_space_group_name_H-M   'P 1'
_cell_length_a   9.84946900
_cell_length_b   9.84946893
_cell_length_c   10.07602100
_cell_angle_alpha   90.00000000
_cell_angle_beta   90.00000000
_cell_angle_gamma   120.00000359
_symmetry_Int_Tables_number   1
_chemical_formula_structural   PrEr6Sn23Ru6
_chemical_formula_sum   'Pr1 Er6 Sn23 Ru6'
_cell_volume   846.53576702
_cell_formula_units_Z   1
loop_
 _symmetry_equiv_pos_site_id
 _symmetry_equiv_pos_as_xyz
  1  'x, y, z'
loop_
 _atom_site_type_symbol
 _atom_site_label
 _atom_site_symmetry_multiplicity
 _atom_site_fract_x
 _atom_site_fract_y
 _atom_site_fract_z
 _atom_site_occupancy
  Pr  Pr0  1  0.000000  0.000000  0.000000  1
  Er  Er1  1  0.485099  0.514901  0.302630  1
  Er  Er2  1  0.514901  0.485099  0.697370  1
  Er  Er3  1  0.485099  0.970200  0.302630  1
  Er  Er4  1  0.514901  0.029800  0.697370  1
  Er  Er5  1  0.029800  0.514901  0.302630  1
  Er  Er6  1  0.970200  0.485099  0.697370  1
  Sn  Sn7  1  0.119146  0.880854  0.275268  1
  Sn  Sn8  1  0.880854  0.119146  0.724732  1
  Sn  Sn9  1  0.119146  0.238292  0.275268  1
  Sn  Sn10  1  0.880854  0.761708  0.724732  1
  Sn  Sn11  1  0.761708  0.880854  0.275268  1
  Sn  Sn12  1  0.238292  0.119146  0.724732  1
  Sn  Sn13  1  0.779699  0.220301  0.462717  1
  Sn  Sn14  1  0.220301  0.779699  0.537283  1
  Sn  Sn15  1  0.779699  0.559399  0.462717  1
  Sn  Sn16  1  0.220301  0.440601  0.537283  1
  Sn  Sn17  1  0.440601  0.220301  0.462717  1
  Sn  Sn18  1  0.559399  0.779699  0.537283  1
  Sn  Sn19  1  0.350118  0.000000  0.000000  1
  Sn  Sn20  1  0.649882  0.000000  0.000000  1
  Sn  Sn21  1  0.000000  0.350118  0.000000  1
  Sn  Sn22  1  0.000000  0.649882  0.000000  1
  Sn  Sn23  1  0.649882  0.649882  0.000000  1
  Sn  Sn24  1  0.350118  0.350118  0.000000  1
  Sn  Sn25  1  0.333333  0.666667  0.129353  1
  Sn  Sn26  1  0.666667  0.333333  0.870647  1
  Sn  Sn27  1  0.333333  0.666667  0.822788  1
  Sn  Sn28  1  0.666667  0.333333  0.177212  1
  Sn  Sn29  1  0.000000  0.000000  0.500000  1
  Ru  Ru30  1  0.829210  0.170790  0.203072  1
  Ru  Ru31  1  0.170790  0.829210  0.796928  1
  Ru  Ru32  1  0.829210  0.658422  0.203072  1
  Ru  Ru33  1  0.170790  0.341578  0.796928  1
  Ru  Ru34  1  0.341578  0.170790  0.203072  1
  Ru  Ru35  1  0.658422  0.829210  0.796928  1
