# generated using pymatgen
data_Sc5Tl3Cl
_symmetry_space_group_name_H-M   'P 1'
_cell_length_a   8.64366800
_cell_length_b   8.64366744
_cell_length_c   6.27943300
_cell_angle_alpha   90.00000000
_cell_angle_beta   90.00000000
_cell_angle_gamma   119.99999449
_symmetry_Int_Tables_number   1
_chemical_formula_structural   Sc5Tl3Cl
_chemical_formula_sum   'Sc10 Tl6 Cl2'
_cell_volume   406.30036598
_cell_formula_units_Z   2
loop_
 _symmetry_equiv_pos_site_id
 _symmetry_equiv_pos_as_xyz
  1  'x, y, z'
loop_
 _atom_site_type_symbol
 _atom_site_label
 _atom_site_symmetry_multiplicity
 _atom_site_fract_x
 _atom_site_fract_y
 _atom_site_fract_z
 _atom_site_occupancy
  Sc  Sc0  1  0.666667  0.333333  0.000000  1
  Sc  Sc1  1  0.333333  0.666667  0.500000  1
  Sc  Sc2  1  0.666667  0.333333  0.500000  1
  Sc  Sc3  1  0.333333  0.666667  0.000000  1
  Sc  Sc4  1  0.742193  0.000000  0.750000  1
  Sc  Sc5  1  0.742193  0.742193  0.250000  1
  Sc  Sc6  1  0.000000  0.257807  0.250000  1
  Sc  Sc7  1  0.000000  0.742193  0.750000  1
  Sc  Sc8  1  0.257807  0.257807  0.750000  1
  Sc  Sc9  1  0.257807  0.000000  0.250000  1
  Tl  Tl10  1  0.605404  0.605404  0.750000  1
  Tl  Tl11  1  0.000000  0.605404  0.250000  1
  Tl  Tl12  1  0.605404  0.000000  0.250000  1
  Tl  Tl13  1  0.394596  0.000000  0.750000  1
  Tl  Tl14  1  0.000000  0.394596  0.750000  1
  Tl  Tl15  1  0.394596  0.394596  0.250000  1
  Cl  Cl16  1  0.000000  0.000000  0.500000  1
  Cl  Cl17  1  0.000000  0.000000  0.000000  1
