# generated using pymatgen
data_CaTb2Dy3(Si3Ru)8
_symmetry_space_group_name_H-M   'P 1'
_cell_length_a   10.12862421
_cell_length_b   10.12862412
_cell_length_c   8.14247370
_cell_angle_alpha   89.92100760
_cell_angle_beta   90.07899352
_cell_angle_gamma   132.59612775
_symmetry_Int_Tables_number   1
_chemical_formula_structural   CaTb2Dy3(Si3Ru)8
_chemical_formula_sum   'Ca1 Tb2 Dy3 Si24 Ru8'
_cell_volume   614.92035917
_cell_formula_units_Z   1
loop_
 _symmetry_equiv_pos_site_id
 _symmetry_equiv_pos_as_xyz
  1  'x, y, z'
loop_
 _atom_site_type_symbol
 _atom_site_label
 _atom_site_symmetry_multiplicity
 _atom_site_fract_x
 _atom_site_fract_y
 _atom_site_fract_z
 _atom_site_occupancy
  Ca  Ca0  1  0.501584  0.001584  0.750000  1
  Tb  Tb1  1  0.998408  0.498408  0.250000  1
  Tb  Tb2  1  0.497186  0.997186  0.250000  1
  Dy  Dy3  1  0.500308  0.500401  0.500714  1
  Dy  Dy4  1  0.000401  0.000308  0.999286  1
  Dy  Dy5  1  0.002592  0.502592  0.750000  1
  Si  Si6  1  0.793738  0.204458  0.500663  1
  Si  Si7  1  0.295155  0.706137  0.998579  1
  Si  Si8  1  0.206137  0.795155  0.501421  1
  Si  Si9  1  0.704458  0.293738  0.999337  1
  Si  Si10  1  0.332811  0.333882  0.833037  1
  Si  Si11  1  0.666920  0.668490  0.167092  1
  Si  Si12  1  0.168490  0.166920  0.332908  1
  Si  Si13  1  0.833882  0.832811  0.666963  1
  Si  Si14  1  0.119971  0.886007  0.727998  1
  Si  Si15  1  0.111636  0.878310  0.272312  1
  Si  Si16  1  0.611876  0.378480  0.228423  1
  Si  Si17  1  0.623224  0.389741  0.771925  1
  Si  Si18  1  0.878480  0.111876  0.271577  1
  Si  Si19  1  0.889741  0.123224  0.728075  1
  Si  Si20  1  0.386007  0.619971  0.772002  1
  Si  Si21  1  0.378310  0.611636  0.227688  1
  Si  Si22  1  0.344735  0.111507  0.502418  1
  Si  Si23  1  0.888520  0.655615  0.495153  1
  Si  Si24  1  0.387988  0.154527  0.006119  1
  Si  Si25  1  0.844046  0.611511  0.995358  1
  Si  Si26  1  0.654527  0.887988  0.493881  1
  Si  Si27  1  0.111511  0.344046  0.504642  1
  Si  Si28  1  0.611507  0.844735  0.997582  1
  Si  Si29  1  0.155615  0.388520  0.004847  1
  Ru  Ru30  1  0.670676  0.331973  0.499877  1
  Ru  Ru31  1  0.167023  0.828914  0.001328  1
  Ru  Ru32  1  0.328914  0.667023  0.498672  1
  Ru  Ru33  1  0.831973  0.170676  0.000123  1
  Ru  Ru34  1  0.127049  0.126722  0.626722  1
  Ru  Ru35  1  0.873673  0.874206  0.373300  1
  Ru  Ru36  1  0.374206  0.373673  0.126700  1
  Ru  Ru37  1  0.626722  0.627049  0.873278  1
