# generated using pymatgen
data_La2PrNd(ZnSn)4
_symmetry_space_group_name_H-M   'P 1'
_cell_length_a   4.61080300
_cell_length_b   4.61080416
_cell_length_c   16.89326100
_cell_angle_alpha   90.00000000
_cell_angle_beta   90.00000000
_cell_angle_gamma   120.00001322
_symmetry_Int_Tables_number   1
_chemical_formula_structural   La2PrNd(ZnSn)4
_chemical_formula_sum   'La2 Pr1 Nd1 Zn4 Sn4'
_cell_volume   311.02643958
_cell_formula_units_Z   1
loop_
 _symmetry_equiv_pos_site_id
 _symmetry_equiv_pos_as_xyz
  1  'x, y, z'
loop_
 _atom_site_type_symbol
 _atom_site_label
 _atom_site_symmetry_multiplicity
 _atom_site_fract_x
 _atom_site_fract_y
 _atom_site_fract_z
 _atom_site_occupancy
  La  La0  1  0.000000  0.000000  0.500044  1
  La  La1  1  0.000000  0.000000  0.999956  1
  Pr  Pr2  1  0.000000  0.000000  0.250000  1
  Nd  Nd3  1  0.000000  0.000000  0.750000  1
  Zn  Zn4  1  0.333333  0.666667  0.340952  1
  Zn  Zn5  1  0.666667  0.333333  0.659178  1
  Zn  Zn6  1  0.666667  0.333333  0.840822  1
  Zn  Zn7  1  0.333333  0.666667  0.159048  1
  Sn  Sn8  1  0.333333  0.666667  0.882707  1
  Sn  Sn9  1  0.666667  0.333333  0.117212  1
  Sn  Sn10  1  0.666667  0.333333  0.382788  1
  Sn  Sn11  1  0.333333  0.666667  0.617293  1
