# generated using pymatgen
data_LaTh3(SiPd14)2
_symmetry_space_group_name_H-M   'P 1'
_cell_length_a   9.04973000
_cell_length_b   9.04973000
_cell_length_c   7.08471000
_cell_angle_alpha   90.00000000
_cell_angle_beta   90.00000000
_cell_angle_gamma   90.00000000
_symmetry_Int_Tables_number   1
_chemical_formula_structural   LaTh3(SiPd14)2
_chemical_formula_sum   'La1 Th3 Si2 Pd28'
_cell_volume   580.22083831
_cell_formula_units_Z   1
loop_
 _symmetry_equiv_pos_site_id
 _symmetry_equiv_pos_as_xyz
  1  'x, y, z'
loop_
 _atom_site_type_symbol
 _atom_site_label
 _atom_site_symmetry_multiplicity
 _atom_site_fract_x
 _atom_site_fract_y
 _atom_site_fract_z
 _atom_site_occupancy
  La  La0  1  0.500000  0.000000  0.935629  1
  Th  Th1  1  0.000000  0.500000  0.068365  1
  Th  Th2  1  0.000000  0.000000  0.500389  1
  Th  Th3  1  0.500000  0.500000  0.500389  1
  Si  Si4  1  0.500000  0.000000  0.447786  1
  Si  Si5  1  0.000000  0.500000  0.553783  1
  Pd  Pd6  1  0.334602  0.834602  0.611836  1
  Pd  Pd7  1  0.334602  0.165398  0.611836  1
  Pd  Pd8  1  0.665398  0.834602  0.611836  1
  Pd  Pd9  1  0.665398  0.165398  0.611836  1
  Pd  Pd10  1  0.163866  0.663866  0.385295  1
  Pd  Pd11  1  0.163866  0.336134  0.385295  1
  Pd  Pd12  1  0.836134  0.663866  0.385295  1
  Pd  Pd13  1  0.836134  0.336134  0.385295  1
  Pd  Pd14  1  0.500000  0.768159  0.259701  1
  Pd  Pd15  1  0.500000  0.231841  0.259701  1
  Pd  Pd16  1  0.268159  0.000000  0.259701  1
  Pd  Pd17  1  0.731841  0.000000  0.259701  1
  Pd  Pd18  1  0.000000  0.728947  0.743544  1
  Pd  Pd19  1  0.000000  0.271053  0.743544  1
  Pd  Pd20  1  0.228947  0.500000  0.743544  1
  Pd  Pd21  1  0.771053  0.500000  0.743544  1
  Pd  Pd22  1  0.500000  0.350004  0.850978  1
  Pd  Pd23  1  0.500000  0.649996  0.850978  1
  Pd  Pd24  1  0.850004  0.000000  0.850978  1
  Pd  Pd25  1  0.149996  0.000000  0.850978  1
  Pd  Pd26  1  0.000000  0.150621  0.147533  1
  Pd  Pd27  1  0.000000  0.849379  0.147533  1
  Pd  Pd28  1  0.650621  0.500000  0.147533  1
  Pd  Pd29  1  0.349379  0.500000  0.147533  1
  Pd  Pd30  1  0.248214  0.748214  0.999526  1
  Pd  Pd31  1  0.248214  0.251786  0.999526  1
  Pd  Pd32  1  0.751786  0.748214  0.999526  1
  Pd  Pd33  1  0.751786  0.251786  0.999526  1
