# generated using pymatgen
data_Tm9LuCuSiPb6
_symmetry_space_group_name_H-M   'P 1'
_cell_length_a   9.08916300
_cell_length_b   9.08916320
_cell_length_c   6.65250700
_cell_angle_alpha   90.00000000
_cell_angle_beta   90.00000000
_cell_angle_gamma   120.00000291
_symmetry_Int_Tables_number   1
_chemical_formula_structural   Tm9LuCuSiPb6
_chemical_formula_sum   'Tm9 Lu1 Cu1 Si1 Pb6'
_cell_volume   475.95265362
_cell_formula_units_Z   1
loop_
 _symmetry_equiv_pos_site_id
 _symmetry_equiv_pos_as_xyz
  1  'x, y, z'
loop_
 _atom_site_type_symbol
 _atom_site_label
 _atom_site_symmetry_multiplicity
 _atom_site_fract_x
 _atom_site_fract_y
 _atom_site_fract_z
 _atom_site_occupancy
  Tm  Tm0  1  0.248480  0.999949  0.740589  1
  Tm  Tm1  1  0.751469  0.999949  0.259411  1
  Tm  Tm2  1  0.000051  0.248531  0.740589  1
  Tm  Tm3  1  0.000051  0.751520  0.259411  1
  Tm  Tm4  1  0.751469  0.751520  0.740589  1
  Tm  Tm5  1  0.248480  0.248531  0.259411  1
  Tm  Tm6  1  0.333333  0.666667  0.500000  1
  Tm  Tm7  1  0.666667  0.333333  0.500000  1
  Tm  Tm8  1  0.666667  0.333333  0.000000  1
  Lu  Lu9  1  0.333333  0.666667  0.000000  1
  Cu  Cu10  1  0.000000  0.000000  0.000000  1
  Si  Si11  1  0.000000  0.000000  0.500000  1
  Pb  Pb12  1  0.605473  0.999371  0.750533  1
  Pb  Pb13  1  0.393898  0.999371  0.249467  1
  Pb  Pb14  1  0.000629  0.606102  0.750533  1
  Pb  Pb15  1  0.000629  0.394527  0.249467  1
  Pb  Pb16  1  0.393898  0.394527  0.750533  1
  Pb  Pb17  1  0.605473  0.606102  0.249467  1
