# generated using pymatgen
data_Ca2Sn4RuRh
_symmetry_space_group_name_H-M   'P 1'
_cell_length_a   5.89480022
_cell_length_b   5.89480026
_cell_length_c   7.60376300
_cell_angle_alpha   90.00000000
_cell_angle_beta   90.00000000
_cell_angle_gamma   136.47388669
_symmetry_Int_Tables_number   1
_chemical_formula_structural   Ca2Sn4RuRh
_chemical_formula_sum   'Ca2 Sn4 Ru1 Rh1'
_cell_volume   181.96482570
_cell_formula_units_Z   1
loop_
 _symmetry_equiv_pos_site_id
 _symmetry_equiv_pos_as_xyz
  1  'x, y, z'
loop_
 _atom_site_type_symbol
 _atom_site_label
 _atom_site_symmetry_multiplicity
 _atom_site_fract_x
 _atom_site_fract_y
 _atom_site_fract_z
 _atom_site_occupancy
  Ca  Ca0  1  0.933228  0.066772  0.750000  1
  Ca  Ca1  1  0.066865  0.933135  0.250000  1
  Sn  Sn2  1  0.645353  0.354647  0.952603  1
  Sn  Sn3  1  0.354991  0.645009  0.046797  1
  Sn  Sn4  1  0.354991  0.645009  0.453203  1
  Sn  Sn5  1  0.645353  0.354647  0.547397  1
  Ru  Ru6  1  0.210093  0.789907  0.750000  1
  Rh  Rh7  1  0.789126  0.210874  0.250000  1
