# generated using pymatgen
data_Nd2LuGa6(CuNi2)3
_symmetry_space_group_name_H-M   'P 1'
_cell_length_a   8.86551700
_cell_length_b   8.86551717
_cell_length_c   4.13777700
_cell_angle_alpha   90.00000000
_cell_angle_beta   90.00000000
_cell_angle_gamma   119.99998818
_symmetry_Int_Tables_number   1
_chemical_formula_structural   Nd2LuGa6(CuNi2)3
_chemical_formula_sum   'Nd2 Lu1 Ga6 Cu3 Ni6'
_cell_volume   281.64750396
_cell_formula_units_Z   1
loop_
 _symmetry_equiv_pos_site_id
 _symmetry_equiv_pos_as_xyz
  1  'x, y, z'
loop_
 _atom_site_type_symbol
 _atom_site_label
 _atom_site_symmetry_multiplicity
 _atom_site_fract_x
 _atom_site_fract_y
 _atom_site_fract_z
 _atom_site_occupancy
  Nd  Nd0  1  0.666667  0.333333  0.500000  1
  Nd  Nd1  1  0.333333  0.666667  0.500000  1
  Lu  Lu2  1  0.000000  0.000000  0.000000  1
  Ga  Ga3  1  0.484656  0.484656  0.000000  1
  Ga  Ga4  1  0.515344  0.000000  0.000000  1
  Ga  Ga5  1  0.000000  0.515344  0.000000  1
  Ga  Ga6  1  0.724464  0.724464  0.500000  1
  Ga  Ga7  1  0.275536  0.000000  0.500000  1
  Ga  Ga8  1  0.000000  0.275536  0.500000  1
  Cu  Cu9  1  0.288735  0.288735  0.500000  1
  Cu  Cu10  1  0.711265  0.000000  0.500000  1
  Cu  Cu11  1  0.000000  0.711265  0.500000  1
  Ni  Ni12  1  0.827966  0.192130  0.000000  1
  Ni  Ni13  1  0.807870  0.635837  0.000000  1
  Ni  Ni14  1  0.364163  0.172034  0.000000  1
  Ni  Ni15  1  0.192130  0.827966  0.000000  1
  Ni  Ni16  1  0.635837  0.807870  0.000000  1
  Ni  Ni17  1  0.172034  0.364163  0.000000  1
