# generated using pymatgen
data_Ti3Nb2AlRh10
_symmetry_space_group_name_H-M   'P 1'
_cell_length_a   4.08464300
_cell_length_b   5.46688866
_cell_length_c   10.68623021
_cell_angle_alpha   90.82740530
_cell_angle_beta   90.00000000
_cell_angle_gamma   90.00000000
_symmetry_Int_Tables_number   1
_chemical_formula_structural   Ti3Nb2AlRh10
_chemical_formula_sum   'Ti3 Nb2 Al1 Rh10'
_cell_volume   238.60172231
_cell_formula_units_Z   1
loop_
 _symmetry_equiv_pos_site_id
 _symmetry_equiv_pos_as_xyz
  1  'x, y, z'
loop_
 _atom_site_type_symbol
 _atom_site_label
 _atom_site_symmetry_multiplicity
 _atom_site_fract_x
 _atom_site_fract_y
 _atom_site_fract_z
 _atom_site_occupancy
  Ti  Ti0  1  0.000000  0.500000  0.500000  1
  Ti  Ti1  1  0.500000  0.837547  0.357941  1
  Ti  Ti2  1  0.500000  0.162453  0.642059  1
  Nb  Nb3  1  0.500000  0.325873  0.142601  1
  Nb  Nb4  1  0.500000  0.674127  0.857399  1
  Al  Al5  1  0.000000  0.000000  0.000000  1
  Rh  Rh6  1  0.000000  0.000000  0.500000  1
  Rh  Rh7  1  0.000000  0.500000  0.000000  1
  Rh  Rh8  1  0.000000  0.085457  0.241845  1
  Rh  Rh9  1  0.000000  0.914543  0.758155  1
  Rh  Rh10  1  0.000000  0.590684  0.260265  1
  Rh  Rh11  1  0.000000  0.409316  0.739735  1
  Rh  Rh12  1  0.500000  0.313486  0.393819  1
  Rh  Rh13  1  0.500000  0.686514  0.606181  1
  Rh  Rh14  1  0.500000  0.810610  0.109683  1
  Rh  Rh15  1  0.500000  0.189390  0.890317  1
