# generated using pymatgen
data_ErTmB6Ir8Rh
_symmetry_space_group_name_H-M   'P 1'
_cell_length_a   5.62328400
_cell_length_b   5.62328247
_cell_length_c   8.64734100
_cell_angle_alpha   90.00000000
_cell_angle_beta   90.00000000
_cell_angle_gamma   119.89531782
_symmetry_Int_Tables_number   1
_chemical_formula_structural   ErTmB6Ir8Rh
_chemical_formula_sum   'Er1 Tm1 B6 Ir8 Rh1'
_cell_volume   237.05563509
_cell_formula_units_Z   1
loop_
 _symmetry_equiv_pos_site_id
 _symmetry_equiv_pos_as_xyz
  1  'x, y, z'
loop_
 _atom_site_type_symbol
 _atom_site_label
 _atom_site_symmetry_multiplicity
 _atom_site_fract_x
 _atom_site_fract_y
 _atom_site_fract_z
 _atom_site_occupancy
  Er  Er0  1  0.000000  0.000000  0.299873  1
  Tm  Tm1  1  0.000000  0.000000  0.701708  1
  B  B2  1  0.666927  0.333073  0.999704  1
  B  B3  1  0.333073  0.666927  0.999704  1
  B  B4  1  0.666685  0.333315  0.667680  1
  B  B5  1  0.333315  0.666685  0.667680  1
  B  B6  1  0.333140  0.666860  0.332085  1
  B  B7  1  0.666860  0.333140  0.332085  1
  Ir  Ir8  1  0.500000  0.500000  0.835842  1
  Ir  Ir9  1  0.500000  0.000000  0.835707  1
  Ir  Ir10  1  0.000000  0.500000  0.835707  1
  Ir  Ir11  1  0.500000  0.000000  0.164327  1
  Ir  Ir12  1  0.000000  0.500000  0.164327  1
  Ir  Ir13  1  0.500000  0.500000  0.499119  1
  Ir  Ir14  1  0.500000  0.000000  0.500005  1
  Ir  Ir15  1  0.000000  0.500000  0.500005  1
  Rh  Rh16  1  0.500000  0.500000  0.164441  1
