# generated using pymatgen
data_Lu6Co17P12Rh
_symmetry_space_group_name_H-M   'P 1'
_cell_length_a   3.66242400
_cell_length_b   10.46525200
_cell_length_c   12.12539300
_cell_angle_alpha   90.00000000
_cell_angle_beta   90.00000000
_cell_angle_gamma   90.00000000
_symmetry_Int_Tables_number   1
_chemical_formula_structural   Lu6Co17P12Rh
_chemical_formula_sum   'Lu6 Co17 P12 Rh1'
_cell_volume   464.74436783
_cell_formula_units_Z   1
loop_
 _symmetry_equiv_pos_site_id
 _symmetry_equiv_pos_as_xyz
  1  'x, y, z'
loop_
 _atom_site_type_symbol
 _atom_site_label
 _atom_site_symmetry_multiplicity
 _atom_site_fract_x
 _atom_site_fract_y
 _atom_site_fract_z
 _atom_site_occupancy
  Lu  Lu0  1  0.000000  0.500000  0.525614  1
  Lu  Lu1  1  0.500000  0.000000  0.477572  1
  Lu  Lu2  1  0.500000  0.819503  0.207238  1
  Lu  Lu3  1  0.500000  0.180497  0.207238  1
  Lu  Lu4  1  0.000000  0.681982  0.792889  1
  Lu  Lu5  1  0.000000  0.318018  0.792889  1
  Co  Co6  1  0.000000  0.000000  0.838848  1
  Co  Co7  1  0.500000  0.500000  0.703886  1
  Co  Co8  1  0.000000  0.000000  0.295796  1
  Co  Co9  1  0.000000  0.500000  0.986116  1
  Co  Co10  1  0.500000  0.000000  0.013420  1
  Co  Co11  1  0.500000  0.331633  0.991434  1
  Co  Co12  1  0.500000  0.668367  0.991434  1
  Co  Co13  1  0.000000  0.165514  0.004471  1
  Co  Co14  1  0.000000  0.834486  0.004471  1
  Co  Co15  1  0.500000  0.297653  0.431291  1
  Co  Co16  1  0.500000  0.702347  0.431291  1
  Co  Co17  1  0.000000  0.201930  0.568947  1
  Co  Co18  1  0.000000  0.798070  0.568947  1
  Co  Co19  1  0.500000  0.878552  0.708546  1
  Co  Co20  1  0.500000  0.121448  0.708546  1
  Co  Co21  1  0.000000  0.622968  0.292322  1
  Co  Co22  1  0.000000  0.377032  0.292322  1
  P  P23  1  0.500000  0.500000  0.881411  1
  P  P24  1  0.000000  0.000000  0.117815  1
  P  P25  1  0.500000  0.500000  0.354604  1
  P  P26  1  0.000000  0.000000  0.653361  1
  P  P27  1  0.500000  0.312225  0.617134  1
  P  P28  1  0.500000  0.687775  0.617134  1
  P  P29  1  0.000000  0.186458  0.383653  1
  P  P30  1  0.000000  0.813542  0.383653  1
  P  P31  1  0.500000  0.847683  0.890425  1
  P  P32  1  0.500000  0.152317  0.890425  1
  P  P33  1  0.000000  0.657783  0.106106  1
  P  P34  1  0.000000  0.342217  0.106106  1
  Rh  Rh35  1  0.500000  0.500000  0.162646  1
