# generated using pymatgen
data_Tb13Ho3In4OsRh3
_symmetry_space_group_name_H-M   'P 1'
_cell_length_a   9.67710059
_cell_length_b   9.72122327
_cell_length_c   9.67291655
_cell_angle_alpha   60.16571804
_cell_angle_beta   59.89899680
_cell_angle_gamma   60.06806492
_symmetry_Int_Tables_number   1
_chemical_formula_structural   Tb13Ho3In4OsRh3
_chemical_formula_sum   'Tb13 Ho3 In4 Os1 Rh3'
_cell_volume   644.07920151
_cell_formula_units_Z   1
loop_
 _symmetry_equiv_pos_site_id
 _symmetry_equiv_pos_as_xyz
  1  'x, y, z'
loop_
 _atom_site_type_symbol
 _atom_site_label
 _atom_site_symmetry_multiplicity
 _atom_site_fract_x
 _atom_site_fract_y
 _atom_site_fract_z
 _atom_site_occupancy
  Tb  Tb0  1  0.648394  0.050587  0.648533  1
  Tb  Tb1  1  0.061643  0.060606  0.439197  1
  Tb  Tb2  1  0.443117  0.435816  0.060279  1
  Tb  Tb3  1  0.651891  0.651531  0.652190  1
  Tb  Tb4  1  0.812873  0.191705  0.187418  1
  Tb  Tb5  1  0.190094  0.810009  0.811739  1
  Tb  Tb6  1  0.047848  0.648920  0.650152  1
  Tb  Tb7  1  0.439635  0.060306  0.061222  1
  Tb  Tb8  1  0.436851  0.061574  0.437289  1
  Tb  Tb9  1  0.058659  0.436839  0.058690  1
  Tb  Tb10  1  0.650037  0.649015  0.047818  1
  Tb  Tb11  1  0.190879  0.811059  0.190723  1
  Tb  Tb12  1  0.059905  0.435771  0.444126  1
  Ho  Ho13  1  0.811026  0.808938  0.190889  1
  Ho  Ho14  1  0.810124  0.192338  0.809621  1
  Ho  Ho15  1  0.188387  0.192443  0.811849  1
  In  In16  1  0.417984  0.416781  0.417687  1
  In  In17  1  0.417723  0.417397  0.747623  1
  In  In18  1  0.418392  0.746620  0.418444  1
  In  In19  1  0.747468  0.417653  0.417807  1
  Os  Os20  1  0.858553  0.424427  0.857116  1
  Rh  Rh21  1  0.856990  0.860434  0.858203  1
  Rh  Rh22  1  0.857643  0.858998  0.423838  1
  Rh  Rh23  1  0.423887  0.860228  0.857549  1
