# generated using pymatgen
data_Ho4Al18NiIr4Pt
_symmetry_space_group_name_H-M   'P 1'
_cell_length_a   7.55237223
_cell_length_b   7.55238274
_cell_length_c   9.41850412
_cell_angle_alpha   90.16666987
_cell_angle_beta   90.16703613
_cell_angle_gamma   119.89505499
_symmetry_Int_Tables_number   1
_chemical_formula_structural   Ho4Al18NiIr4Pt
_chemical_formula_sum   'Ho4 Al18 Ni1 Ir4 Pt1'
_cell_volume   465.72643777
_cell_formula_units_Z   1
loop_
 _symmetry_equiv_pos_site_id
 _symmetry_equiv_pos_as_xyz
  1  'x, y, z'
loop_
 _atom_site_type_symbol
 _atom_site_label
 _atom_site_symmetry_multiplicity
 _atom_site_fract_x
 _atom_site_fract_y
 _atom_site_fract_z
 _atom_site_occupancy
  Ho  Ho0  1  0.995143  0.667838  0.249383  1
  Ho  Ho1  1  0.004857  0.332162  0.750617  1
  Ho  Ho2  1  0.667837  0.995145  0.249382  1
  Ho  Ho3  1  0.332163  0.004855  0.750618  1
  Al  Al4  1  0.124194  0.124194  0.244204  1
  Al  Al5  1  0.875806  0.875806  0.755796  1
  Al  Al6  1  0.999565  0.332135  0.074780  1
  Al  Al7  1  0.000435  0.667865  0.925220  1
  Al  Al8  1  0.999632  0.663459  0.576570  1
  Al  Al9  1  0.336539  0.000367  0.423431  1
  Al  Al10  1  0.000368  0.336541  0.423430  1
  Al  Al11  1  0.663461  0.999633  0.576569  1
  Al  Al12  1  0.667864  0.000436  0.925219  1
  Al  Al13  1  0.332136  0.999564  0.074781  1
  Al  Al14  1  0.336150  0.336149  0.553786  1
  Al  Al15  1  0.663850  0.663851  0.446214  1
  Al  Al16  1  0.669196  0.669196  0.051964  1
  Al  Al17  1  0.330804  0.330804  0.948036  1
  Al  Al18  1  0.338494  0.546707  0.249396  1
  Al  Al19  1  0.661506  0.453293  0.750604  1
  Al  Al20  1  0.546705  0.338493  0.249397  1
  Al  Al21  1  0.453295  0.661507  0.750603  1
  Ni  Ni22  1  0.000000  0.000000  0.000000  1
  Ir  Ir23  1  0.672023  0.327976  0.000000  1
  Ir  Ir24  1  0.327977  0.672024  0.000000  1
  Ir  Ir25  1  0.328050  0.671954  0.500001  1
  Ir  Ir26  1  0.671950  0.328046  0.499999  1
  Pt  Pt27  1  0.000000  0.000000  0.500000  1
