# generated using pymatgen
data_Tb3YMnTc7
_symmetry_space_group_name_H-M   'P 1'
_cell_length_a   5.34334600
_cell_length_b   5.34334704
_cell_length_c   8.98302900
_cell_angle_alpha   90.00000000
_cell_angle_beta   90.00000000
_cell_angle_gamma   120.00000595
_symmetry_Int_Tables_number   1
_chemical_formula_structural   Tb3YMnTc7
_chemical_formula_sum   'Tb3 Y1 Mn1 Tc7'
_cell_volume   222.11612394
_cell_formula_units_Z   1
loop_
 _symmetry_equiv_pos_site_id
 _symmetry_equiv_pos_as_xyz
  1  'x, y, z'
loop_
 _atom_site_type_symbol
 _atom_site_label
 _atom_site_symmetry_multiplicity
 _atom_site_fract_x
 _atom_site_fract_y
 _atom_site_fract_z
 _atom_site_occupancy
  Tb  Tb0  1  0.333333  0.666667  0.436157  1
  Tb  Tb1  1  0.666667  0.333333  0.563828  1
  Tb  Tb2  1  0.666667  0.333333  0.935345  1
  Y  Y3  1  0.333333  0.666667  0.064645  1
  Mn  Mn4  1  0.000000  0.000000  0.500000  1
  Tc  Tc5  1  0.000000  0.000000  0.999968  1
  Tc  Tc6  1  0.829807  0.170193  0.251519  1
  Tc  Tc7  1  0.829807  0.659615  0.251519  1
  Tc  Tc8  1  0.340385  0.170193  0.251519  1
  Tc  Tc9  1  0.170175  0.829825  0.748500  1
  Tc  Tc10  1  0.170175  0.340349  0.748500  1
  Tc  Tc11  1  0.659651  0.829825  0.748500  1
