# generated using pymatgen
data_YTm3IrRh3O14
_symmetry_space_group_name_H-M   'P 1'
_cell_length_a   7.19752463
_cell_length_b   7.19752558
_cell_length_c   7.19752509
_cell_angle_alpha   59.89803016
_cell_angle_beta   59.89803036
_cell_angle_gamma   59.89802574
_symmetry_Int_Tables_number   1
_chemical_formula_structural   YTm3IrRh3O14
_chemical_formula_sum   'Y1 Tm3 Ir1 Rh3 O14'
_cell_volume   263.04417906
_cell_formula_units_Z   1
loop_
 _symmetry_equiv_pos_site_id
 _symmetry_equiv_pos_as_xyz
  1  'x, y, z'
loop_
 _atom_site_type_symbol
 _atom_site_label
 _atom_site_symmetry_multiplicity
 _atom_site_fract_x
 _atom_site_fract_y
 _atom_site_fract_z
 _atom_site_occupancy
  Y  Y0  1  0.125000  0.125000  0.125000  1
  Tm  Tm1  1  0.625000  0.125000  0.125000  1
  Tm  Tm2  1  0.125000  0.625000  0.125000  1
  Tm  Tm3  1  0.125000  0.125000  0.625000  1
  Ir  Ir4  1  0.625000  0.625000  0.625000  1
  Rh  Rh5  1  0.125000  0.625000  0.625000  1
  Rh  Rh6  1  0.625000  0.125000  0.625000  1
  Rh  Rh7  1  0.625000  0.625000  0.125000  1
  O  O8  1  0.711813  0.711813  0.290698  1
  O  O9  1  0.284467  0.284467  0.709561  1
  O  O10  1  0.711813  0.290698  0.711813  1
  O  O11  1  0.284467  0.709561  0.284467  1
  O  O12  1  0.290698  0.711813  0.711813  1
  O  O13  1  0.709561  0.284467  0.284467  1
  O  O14  1  0.538187  0.538187  0.959302  1
  O  O15  1  0.965533  0.965533  0.540439  1
  O  O16  1  0.538187  0.959302  0.538187  1
  O  O17  1  0.965533  0.540439  0.965533  1
  O  O18  1  0.959302  0.538187  0.538187  1
  O  O19  1  0.540439  0.965533  0.965533  1
  O  O20  1  0.252167  0.252167  0.252167  1
  O  O21  1  0.997833  0.997833  0.997833  1
