# generated using pymatgen
data_Li13Tl5
_symmetry_space_group_name_H-M   'P 1'
_cell_length_a   4.73324300
_cell_length_b   4.73331963
_cell_length_c   17.28097100
_cell_angle_alpha   90.00000000
_cell_angle_beta   89.99972159
_cell_angle_gamma   120.00053371
_symmetry_Int_Tables_number   1
_chemical_formula_structural   Li13Tl5
_chemical_formula_sum   'Li13 Tl5'
_cell_volume   335.29036318
_cell_formula_units_Z   1
loop_
 _symmetry_equiv_pos_site_id
 _symmetry_equiv_pos_as_xyz
  1  'x, y, z'
loop_
 _atom_site_type_symbol
 _atom_site_label
 _atom_site_symmetry_multiplicity
 _atom_site_fract_x
 _atom_site_fract_y
 _atom_site_fract_z
 _atom_site_occupancy
  Li  Li0  1  0.666664  0.333332  0.053154  1
  Li  Li1  1  0.333331  0.666667  0.111931  1
  Li  Li2  1  0.000007  0.000004  0.163642  1
  Li  Li3  1  0.333328  0.666665  0.283824  1
  Li  Li4  1  0.000006  0.000003  0.327599  1
  Li  Li5  1  0.333336  0.666668  0.446083  1
  Li  Li6  1  0.999999  0.999999  0.500000  1
  Li  Li7  1  0.666664  0.333333  0.553917  1
  Li  Li8  1  0.999993  0.999996  0.672400  1
  Li  Li9  1  0.666672  0.333337  0.716176  1
  Li  Li10  1  0.999992  0.999995  0.836358  1
  Li  Li11  1  0.666669  0.333335  0.888069  1
  Li  Li12  1  0.333335  0.666667  0.946846  1
  Tl  Tl13  1  0.000000  0.000000  0.000000  1
  Tl  Tl14  1  0.666650  0.333325  0.218271  1
  Tl  Tl15  1  0.666638  0.333319  0.394464  1
  Tl  Tl16  1  0.333362  0.666682  0.605535  1
  Tl  Tl17  1  0.333350  0.666676  0.781729  1
