# generated using pymatgen
data_Gd4NiB16Rh3
_symmetry_space_group_name_H-M   'P 1'
_cell_length_a   6.98344921
_cell_length_b   6.98344884
_cell_length_c   6.98344909
_cell_angle_alpha   112.55293239
_cell_angle_beta   111.36129799
_cell_angle_gamma   104.60865027
_symmetry_Int_Tables_number   1
_chemical_formula_structural   Gd4NiB16Rh3
_chemical_formula_sum   'Gd4 Ni1 B16 Rh3'
_cell_volume   260.74180408
_cell_formula_units_Z   1
loop_
 _symmetry_equiv_pos_site_id
 _symmetry_equiv_pos_as_xyz
  1  'x, y, z'
loop_
 _atom_site_type_symbol
 _atom_site_label
 _atom_site_symmetry_multiplicity
 _atom_site_fract_x
 _atom_site_fract_y
 _atom_site_fract_z
 _atom_site_occupancy
  Gd  Gd0  1  0.211215  0.209182  0.002034  1
  Gd  Gd1  1  0.792853  0.790819  0.002034  1
  Gd  Gd2  1  0.749231  0.248621  0.500609  1
  Gd  Gd3  1  0.251988  0.751379  0.500609  1
  Ni  Ni4  1  0.257084  0.500000  0.757084  1
  B  B5  1  0.108795  0.271154  0.379949  1
  B  B6  1  0.892976  0.734418  0.627391  1
  B  B7  1  0.892976  0.265584  0.158558  1
  B  B8  1  0.108795  0.728846  0.837640  1
  B  B9  1  0.730562  0.891047  0.621606  1
  B  B10  1  0.265659  0.109344  0.375003  1
  B  B11  1  0.730561  0.108956  0.839516  1
  B  B12  1  0.265660  0.890659  0.156317  1
  B  B13  1  0.412621  0.417795  0.529970  1
  B  B14  1  0.892310  0.891723  0.478046  1
  B  B15  1  0.586323  0.108277  0.000588  1
  B  B16  1  0.112175  0.582206  0.994827  1
  B  B17  1  0.586323  0.585735  0.478046  1
  B  B18  1  0.112176  0.117349  0.529970  1
  B  B19  1  0.892310  0.414264  0.000588  1
  B  B20  1  0.412619  0.882652  0.994827  1
  Rh  Rh21  1  0.497163  0.269225  0.766388  1
  Rh  Rh22  1  0.497164  0.730777  0.227939  1
  Rh  Rh23  1  0.740474  0.500001  0.240473  1
