# generated using pymatgen
data_Ho4ErIrRu
_symmetry_space_group_name_H-M   'P 1'
_cell_length_a   6.35317738
_cell_length_b   7.26955252
_cell_length_c   8.46554048
_cell_angle_alpha   96.78662088
_cell_angle_beta   112.03898144
_cell_angle_gamma   89.99999358
_symmetry_Int_Tables_number   1
_chemical_formula_structural   Ho4ErIrRu
_chemical_formula_sum   'Ho8 Er2 Ir2 Ru2'
_cell_volume   359.45240820
_cell_formula_units_Z   2
loop_
 _symmetry_equiv_pos_site_id
 _symmetry_equiv_pos_as_xyz
  1  'x, y, z'
loop_
 _atom_site_type_symbol
 _atom_site_label
 _atom_site_symmetry_multiplicity
 _atom_site_fract_x
 _atom_site_fract_y
 _atom_site_fract_z
 _atom_site_occupancy
  Ho  Ho0  1  0.793001  0.582850  0.813980  1
  Ho  Ho1  1  0.979021  0.917150  0.186020  1
  Ho  Ho2  1  0.208507  0.414599  0.184981  1
  Ho  Ho3  1  0.023526  0.085401  0.815019  1
  Ho  Ho4  1  0.207217  0.684079  0.565540  1
  Ho  Ho5  1  0.641678  0.815921  0.434460  1
  Ho  Ho6  1  0.792594  0.314187  0.435827  1
  Ho  Ho7  1  0.356766  0.185813  0.564173  1
  Er  Er8  1  0.422042  0.750000  0.000000  1
  Er  Er9  1  0.577214  0.250000  0.000000  1
  Ir  Ir10  1  0.602206  0.923077  0.779431  1
  Ir  Ir11  1  0.822773  0.576923  0.220569  1
  Ru  Ru12  1  0.396739  0.075175  0.220026  1
  Ru  Ru13  1  0.176715  0.424825  0.779974  1
