# generated using pymatgen
data_Ho2Sc2Al13Ga5Ir6
_symmetry_space_group_name_H-M   'P 1'
_cell_length_a   7.48639562
_cell_length_b   7.48893845
_cell_length_c   9.47319400
_cell_angle_alpha   90.00000000
_cell_angle_beta   90.00000000
_cell_angle_gamma   119.64003598
_symmetry_Int_Tables_number   1
_chemical_formula_structural   Ho2Sc2Al13Ga5Ir6
_chemical_formula_sum   'Ho2 Sc2 Al13 Ga5 Ir6'
_cell_volume   461.61933009
_cell_formula_units_Z   1
loop_
 _symmetry_equiv_pos_site_id
 _symmetry_equiv_pos_as_xyz
  1  'x, y, z'
loop_
 _atom_site_type_symbol
 _atom_site_label
 _atom_site_symmetry_multiplicity
 _atom_site_fract_x
 _atom_site_fract_y
 _atom_site_fract_z
 _atom_site_occupancy
  Ho  Ho0  1  0.994799  0.670280  0.250000  1
  Ho  Ho1  1  0.670758  0.996488  0.250000  1
  Sc  Sc2  1  0.999971  0.325494  0.750000  1
  Sc  Sc3  1  0.329333  0.005081  0.750000  1
  Al  Al4  1  0.003522  0.335016  0.068067  1
  Al  Al5  1  0.002287  0.665375  0.920578  1
  Al  Al6  1  0.002287  0.665375  0.579422  1
  Al  Al7  1  0.334916  0.002779  0.432095  1
  Al  Al8  1  0.003522  0.335016  0.431933  1
  Al  Al9  1  0.665084  0.001151  0.579401  1
  Al  Al10  1  0.665084  0.001151  0.920599  1
  Al  Al11  1  0.334916  0.002779  0.067905  1
  Al  Al12  1  0.330923  0.331184  0.566551  1
  Al  Al13  1  0.665119  0.665043  0.449199  1
  Al  Al14  1  0.665119  0.665043  0.050801  1
  Al  Al15  1  0.330923  0.331184  0.933449  1
  Al  Al16  1  0.444062  0.661335  0.750000  1
  Ga  Ga17  1  0.130777  0.130834  0.250000  1
  Ga  Ga18  1  0.874827  0.874248  0.750000  1
  Ga  Ga19  1  0.338823  0.547315  0.250000  1
  Ga  Ga20  1  0.660680  0.447760  0.750000  1
  Ga  Ga21  1  0.546561  0.339139  0.250000  1
  Ir  Ir22  1  0.673123  0.327943  0.999341  1
  Ir  Ir23  1  0.329263  0.672378  0.997024  1
  Ir  Ir24  1  0.329263  0.672378  0.502976  1
  Ir  Ir25  1  0.673123  0.327943  0.500659  1
  Ir  Ir26  1  0.000468  0.000143  0.999073  1
  Ir  Ir27  1  0.000468  0.000143  0.500927  1
