# generated using pymatgen
data_PPdRh
_symmetry_space_group_name_H-M   'P 1'
_cell_length_a   3.75913400
_cell_length_b   6.50064800
_cell_length_c   6.93840000
_cell_angle_alpha   90.00000000
_cell_angle_beta   90.00000000
_cell_angle_gamma   90.00000000
_symmetry_Int_Tables_number   1
_chemical_formula_structural   PPdRh
_chemical_formula_sum   'P4 Pd4 Rh4'
_cell_volume   169.55234113
_cell_formula_units_Z   4
loop_
 _symmetry_equiv_pos_site_id
 _symmetry_equiv_pos_as_xyz
  1  'x, y, z'
loop_
 _atom_site_type_symbol
 _atom_site_label
 _atom_site_symmetry_multiplicity
 _atom_site_fract_x
 _atom_site_fract_y
 _atom_site_fract_z
 _atom_site_occupancy
  P  P0  1  0.250000  0.772051  0.383641  1
  P  P1  1  0.250000  0.272051  0.116359  1
  P  P2  1  0.750000  0.227949  0.616359  1
  P  P3  1  0.750000  0.727949  0.883641  1
  Pd  Pd4  1  0.250000  0.035296  0.845604  1
  Pd  Pd5  1  0.250000  0.535296  0.654396  1
  Pd  Pd6  1  0.750000  0.964704  0.154396  1
  Pd  Pd7  1  0.750000  0.464704  0.345604  1
  Rh  Rh8  1  0.250000  0.140690  0.422661  1
  Rh  Rh9  1  0.250000  0.640690  0.077339  1
  Rh  Rh10  1  0.750000  0.859310  0.577339  1
  Rh  Rh11  1  0.750000  0.359310  0.922661  1
