# generated using pymatgen
data_La10In4Ru5Rh
_symmetry_space_group_name_H-M   'P 1'
_cell_length_a   8.79271215
_cell_length_b   8.80620630
_cell_length_c   8.80620700
_cell_angle_alpha   109.63575378
_cell_angle_beta   109.40332152
_cell_angle_gamma   109.43661421
_symmetry_Int_Tables_number   1
_chemical_formula_structural   La10In4Ru5Rh
_chemical_formula_sum   'La10 In4 Ru5 Rh1'
_cell_volume   524.49848967
_cell_formula_units_Z   1
loop_
 _symmetry_equiv_pos_site_id
 _symmetry_equiv_pos_as_xyz
  1  'x, y, z'
loop_
 _atom_site_type_symbol
 _atom_site_label
 _atom_site_symmetry_multiplicity
 _atom_site_fract_x
 _atom_site_fract_y
 _atom_site_fract_z
 _atom_site_occupancy
  La  La0  1  0.250000  0.683937  0.433937  1
  La  La1  1  0.750000  0.815033  0.065033  1
  La  La2  1  0.437335  0.251299  0.682445  1
  La  La3  1  0.686301  0.435176  0.251686  1
  La  La4  1  0.062665  0.745110  0.813964  1
  La  La5  1  0.813699  0.065384  0.748874  1
  La  La6  1  0.204407  0.206723  0.209204  1
  La  La7  1  0.500120  0.000619  0.294080  1
  La  La8  1  0.295593  0.504797  0.002315  1
  La  La9  1  0.999880  0.293960  0.500498  1
  In  In10  1  0.592384  0.593325  0.592297  1
  In  In11  1  0.499830  0.998236  0.906164  1
  In  In12  1  0.907616  0.499913  0.000941  1
  In  In13  1  0.000170  0.906334  0.498407  1
  Ru  Ru14  1  0.750000  0.366650  0.616650  1
  Ru  Ru15  1  0.883976  0.249772  0.134187  1
  Ru  Ru16  1  0.135305  0.886410  0.249641  1
  Ru  Ru17  1  0.616023  0.750210  0.365794  1
  Ru  Ru18  1  0.364695  0.614335  0.751105  1
  Rh  Rh19  1  0.250000  0.132780  0.882780  1
