# generated using pymatgen
data_Pr2ThScBi5
_symmetry_space_group_name_H-M   'P 1'
_cell_length_a   9.77136400
_cell_length_b   9.76999878
_cell_length_c   6.58348800
_cell_angle_alpha   90.00000000
_cell_angle_beta   90.00000000
_cell_angle_gamma   120.00462253
_symmetry_Int_Tables_number   1
_chemical_formula_structural   Pr2ThScBi5
_chemical_formula_sum   'Pr4 Th2 Sc2 Bi10'
_cell_volume   544.27219747
_cell_formula_units_Z   2
loop_
 _symmetry_equiv_pos_site_id
 _symmetry_equiv_pos_as_xyz
  1  'x, y, z'
loop_
 _atom_site_type_symbol
 _atom_site_label
 _atom_site_symmetry_multiplicity
 _atom_site_fract_x
 _atom_site_fract_y
 _atom_site_fract_z
 _atom_site_occupancy
  Pr  Pr0  1  0.382994  0.000000  0.750000  1
  Pr  Pr1  1  0.619719  0.620482  0.750000  1
  Pr  Pr2  1  0.621261  0.000000  0.250000  1
  Pr  Pr3  1  0.999237  0.379518  0.750000  1
  Th  Th4  1  0.999305  0.619375  0.250000  1
  Th  Th5  1  0.379930  0.380625  0.250000  1
  Sc  Sc6  1  0.999009  0.000000  0.998102  1
  Sc  Sc7  1  0.999009  0.000000  0.501898  1
  Bi  Bi8  1  0.001681  0.265646  0.250000  1
  Bi  Bi9  1  0.331183  0.664725  0.497923  1
  Bi  Bi10  1  0.666460  0.335275  0.002077  1
  Bi  Bi11  1  0.331183  0.664725  0.002077  1
  Bi  Bi12  1  0.266812  0.266453  0.750000  1
  Bi  Bi13  1  0.736359  0.000000  0.750000  1
  Bi  Bi14  1  0.000359  0.733547  0.750000  1
  Bi  Bi15  1  0.736035  0.734354  0.250000  1
  Bi  Bi16  1  0.262998  0.000000  0.250000  1
  Bi  Bi17  1  0.666460  0.335275  0.497923  1
