# generated using pymatgen
data_Ce2Ho14Tl2CdHgIr4
_symmetry_space_group_name_H-M   'P 1'
_cell_length_a   9.59779499
_cell_length_b   9.59779484
_cell_length_c   9.64813200
_cell_angle_alpha   59.97632195
_cell_angle_beta   59.97632936
_cell_angle_gamma   59.88588876
_symmetry_Int_Tables_number   1
_chemical_formula_structural   Ce2Ho14Tl2CdHgIr4
_chemical_formula_sum   'Ce2 Ho14 Tl2 Cd1 Hg1 Ir4'
_cell_volume   627.68247681
_cell_formula_units_Z   1
loop_
 _symmetry_equiv_pos_site_id
 _symmetry_equiv_pos_as_xyz
  1  'x, y, z'
loop_
 _atom_site_type_symbol
 _atom_site_label
 _atom_site_symmetry_multiplicity
 _atom_site_fract_x
 _atom_site_fract_y
 _atom_site_fract_z
 _atom_site_occupancy
  Ce  Ce0  1  0.594636  0.595411  0.598045  1
  Ce  Ce1  1  0.598004  0.598473  0.203150  1
  Ho  Ho2  1  0.604831  0.193165  0.602359  1
  Ho  Ho3  1  0.192651  0.605384  0.602837  1
  Ho  Ho4  1  0.060912  0.439576  0.439693  1
  Ho  Ho5  1  0.437477  0.062488  0.060798  1
  Ho  Ho6  1  0.438538  0.061792  0.439384  1
  Ho  Ho7  1  0.061559  0.438991  0.060294  1
  Ho  Ho8  1  0.436414  0.436605  0.063204  1
  Ho  Ho9  1  0.061622  0.061496  0.438344  1
  Ho  Ho10  1  0.189751  0.813307  0.813090  1
  Ho  Ho11  1  0.811596  0.189828  0.188733  1
  Ho  Ho12  1  0.814024  0.186360  0.812033  1
  Ho  Ho13  1  0.192121  0.811267  0.186182  1
  Ho  Ho14  1  0.813050  0.811951  0.185034  1
  Ho  Ho15  1  0.193495  0.189442  0.809214  1
  Tl  Tl16  1  0.831449  0.834792  0.496536  1
  Tl  Tl17  1  0.830243  0.497058  0.835924  1
  Cd  Cd18  1  0.501278  0.831494  0.833219  1
  Hg  Hg19  1  0.834275  0.837971  0.837898  1
  Ir  Ir20  1  0.393102  0.393279  0.393091  1
  Ir  Ir21  1  0.391908  0.392459  0.821485  1
  Ir  Ir22  1  0.395140  0.822129  0.389627  1
  Ir  Ir23  1  0.821924  0.395282  0.389825  1
