# generated using pymatgen
data_Y6Al39Cr8
_symmetry_space_group_name_H-M   'P 1'
_cell_length_a   10.91328200
_cell_length_b   10.91328298
_cell_length_c   17.33582300
_cell_angle_alpha   90.00000000
_cell_angle_beta   90.00000000
_cell_angle_gamma   120.00000310
_symmetry_Int_Tables_number   1
_chemical_formula_structural   Y6Al39Cr8
_chemical_formula_sum   'Y12 Al78 Cr16'
_cell_volume   1788.07559726
_cell_formula_units_Z   2
loop_
 _symmetry_equiv_pos_site_id
 _symmetry_equiv_pos_as_xyz
  1  'x, y, z'
loop_
 _atom_site_type_symbol
 _atom_site_label
 _atom_site_symmetry_multiplicity
 _atom_site_fract_x
 _atom_site_fract_y
 _atom_site_fract_z
 _atom_site_occupancy
  Y  Y0  1  0.533282  0.000000  0.597289  1
  Y  Y1  1  0.466718  0.000000  0.402711  1
  Y  Y2  1  0.000000  0.533282  0.597289  1
  Y  Y3  1  0.466718  0.000000  0.097289  1
  Y  Y4  1  0.000000  0.533282  0.902711  1
  Y  Y5  1  0.000000  0.466718  0.402711  1
  Y  Y6  1  0.533282  0.000000  0.902711  1
  Y  Y7  1  0.000000  0.466718  0.097289  1
  Y  Y8  1  0.466718  0.466718  0.597289  1
  Y  Y9  1  0.533282  0.533282  0.402711  1
  Y  Y10  1  0.533282  0.533282  0.097289  1
  Y  Y11  1  0.466718  0.466718  0.902711  1
  Al  Al12  1  0.152538  0.604560  0.750000  1
  Al  Al13  1  0.847462  0.395440  0.250000  1
  Al  Al14  1  0.395440  0.547978  0.750000  1
  Al  Al15  1  0.604560  0.152538  0.750000  1
  Al  Al16  1  0.604560  0.452022  0.250000  1
  Al  Al17  1  0.395440  0.847462  0.250000  1
  Al  Al18  1  0.452022  0.847462  0.750000  1
  Al  Al19  1  0.547978  0.395440  0.750000  1
  Al  Al20  1  0.547978  0.152538  0.250000  1
  Al  Al21  1  0.452022  0.604560  0.250000  1
  Al  Al22  1  0.847462  0.452022  0.750000  1
  Al  Al23  1  0.152538  0.547978  0.250000  1
  Al  Al24  1  0.154090  0.000000  0.115348  1
  Al  Al25  1  0.845910  0.000000  0.884652  1
  Al  Al26  1  0.000000  0.154090  0.115348  1
  Al  Al27  1  0.845910  0.000000  0.615348  1
  Al  Al28  1  0.000000  0.154090  0.384652  1
  Al  Al29  1  0.000000  0.845910  0.884652  1
  Al  Al30  1  0.154090  0.000000  0.384652  1
  Al  Al31  1  0.000000  0.845910  0.615348  1
  Al  Al32  1  0.845910  0.845910  0.115348  1
  Al  Al33  1  0.154090  0.154090  0.884652  1
  Al  Al34  1  0.154090  0.154090  0.615348  1
  Al  Al35  1  0.845910  0.845910  0.384652  1
  Al  Al36  1  0.249582  0.499165  0.500000  1
  Al  Al37  1  0.750418  0.500835  0.500000  1
  Al  Al38  1  0.500835  0.750418  0.500000  1
  Al  Al39  1  0.750418  0.500835  0.000000  1
  Al  Al40  1  0.499165  0.249582  0.000000  1
  Al  Al41  1  0.499165  0.249582  0.500000  1
  Al  Al42  1  0.249582  0.499165  0.000000  1
  Al  Al43  1  0.500835  0.750418  0.000000  1
  Al  Al44  1  0.249582  0.750418  0.500000  1
  Al  Al45  1  0.750418  0.249582  0.500000  1
  Al  Al46  1  0.750418  0.249582  0.000000  1
  Al  Al47  1  0.249582  0.750418  0.000000  1
  Al  Al48  1  0.152040  0.000000  0.750000  1
  Al  Al49  1  0.847960  0.000000  0.250000  1
  Al  Al50  1  0.000000  0.152040  0.750000  1
  Al  Al51  1  0.000000  0.847960  0.250000  1
  Al  Al52  1  0.847960  0.847960  0.750000  1
  Al  Al53  1  0.152040  0.152040  0.250000  1
  Al  Al54  1  0.250614  0.000000  0.528598  1
  Al  Al55  1  0.749386  0.000000  0.471402  1
  Al  Al56  1  0.000000  0.250614  0.528598  1
  Al  Al57  1  0.749386  0.000000  0.028598  1
  Al  Al58  1  0.000000  0.250614  0.971402  1
  Al  Al59  1  0.000000  0.749386  0.471402  1
  Al  Al60  1  0.250614  0.000000  0.971402  1
  Al  Al61  1  0.000000  0.749386  0.028598  1
  Al  Al62  1  0.749386  0.749386  0.528598  1
  Al  Al63  1  0.250614  0.250614  0.471402  1
  Al  Al64  1  0.250614  0.250614  0.028598  1
  Al  Al65  1  0.749386  0.749386  0.971402  1
  Al  Al66  1  0.165275  0.397360  0.660940  1
  Al  Al67  1  0.834725  0.602640  0.339060  1
  Al  Al68  1  0.602640  0.767914  0.660940  1
  Al  Al69  1  0.834725  0.602640  0.160940  1
  Al  Al70  1  0.397360  0.165275  0.839060  1
  Al  Al71  1  0.397360  0.232086  0.339060  1
  Al  Al72  1  0.165275  0.397360  0.839060  1
  Al  Al73  1  0.602640  0.834725  0.160940  1
  Al  Al74  1  0.232086  0.834725  0.660940  1
  Al  Al75  1  0.397360  0.232086  0.160940  1
  Al  Al76  1  0.767914  0.602640  0.839060  1
  Al  Al77  1  0.767914  0.165275  0.339060  1
  Al  Al78  1  0.602640  0.767914  0.839060  1
  Al  Al79  1  0.232086  0.397360  0.160940  1
  Al  Al80  1  0.602640  0.834725  0.339060  1
  Al  Al81  1  0.397360  0.165275  0.660940  1
  Al  Al82  1  0.767914  0.165275  0.160940  1
  Al  Al83  1  0.232086  0.397360  0.339060  1
  Al  Al84  1  0.232086  0.834725  0.839060  1
  Al  Al85  1  0.767914  0.602640  0.660940  1
  Al  Al86  1  0.834725  0.232086  0.839060  1
  Al  Al87  1  0.165275  0.767914  0.160940  1
  Al  Al88  1  0.165275  0.767914  0.339060  1
  Al  Al89  1  0.834725  0.232086  0.660940  1
  Cr  Cr90  1  0.333333  0.666667  0.632258  1
  Cr  Cr91  1  0.666667  0.333333  0.367742  1
  Cr  Cr92  1  0.666667  0.333333  0.132258  1
  Cr  Cr93  1  0.666667  0.333333  0.867742  1
  Cr  Cr94  1  0.333333  0.666667  0.867742  1
  Cr  Cr95  1  0.333333  0.666667  0.132258  1
  Cr  Cr96  1  0.333333  0.666667  0.367742  1
  Cr  Cr97  1  0.666667  0.333333  0.632258  1
  Cr  Cr98  1  0.000000  0.000000  0.500000  1
  Cr  Cr99  1  0.000000  0.000000  0.000000  1
  Cr  Cr100  1  0.741861  0.000000  0.750000  1
  Cr  Cr101  1  0.258139  0.000000  0.250000  1
  Cr  Cr102  1  0.000000  0.741861  0.750000  1
  Cr  Cr103  1  0.000000  0.258139  0.250000  1
  Cr  Cr104  1  0.258139  0.258139  0.750000  1
  Cr  Cr105  1  0.741861  0.741861  0.250000  1
