# generated using pymatgen
data_La2Pr4TaWO14
_symmetry_space_group_name_H-M   'P 1'
_cell_length_a   6.72598469
_cell_length_b   6.72598439
_cell_length_c   7.80171804
_cell_angle_alpha   90.03616547
_cell_angle_beta   90.03616651
_cell_angle_gamma   110.57079242
_symmetry_Int_Tables_number   1
_chemical_formula_structural   La2Pr4TaWO14
_chemical_formula_sum   'La2 Pr4 Ta1 W1 O14'
_cell_volume   330.43674505
_cell_formula_units_Z   1
loop_
 _symmetry_equiv_pos_site_id
 _symmetry_equiv_pos_as_xyz
  1  'x, y, z'
loop_
 _atom_site_type_symbol
 _atom_site_label
 _atom_site_symmetry_multiplicity
 _atom_site_fract_x
 _atom_site_fract_y
 _atom_site_fract_z
 _atom_site_occupancy
  La  La0  1  0.000000  0.000000  0.000000  1
  La  La1  1  0.000000  0.000000  0.500000  1
  Pr  Pr2  1  0.479093  0.931889  0.748686  1
  Pr  Pr3  1  0.520907  0.068111  0.251314  1
  Pr  Pr4  1  0.931889  0.479093  0.748686  1
  Pr  Pr5  1  0.068111  0.520907  0.251314  1
  Ta  Ta6  1  0.500000  0.500000  0.500000  1
  W  W7  1  0.500000  0.500000  0.000000  1
  O  O8  1  0.566069  0.566069  0.747889  1
  O  O9  1  0.433931  0.433931  0.252111  1
  O  O10  1  0.846519  0.109528  0.750169  1
  O  O11  1  0.153481  0.890472  0.249831  1
  O  O12  1  0.109528  0.846519  0.750169  1
  O  O13  1  0.890472  0.153481  0.249831  1
  O  O14  1  0.436849  0.187682  0.966941  1
  O  O15  1  0.560208  0.812441  0.466853  1
  O  O16  1  0.187682  0.436849  0.966941  1
  O  O17  1  0.812441  0.560208  0.466853  1
  O  O18  1  0.439792  0.187559  0.533147  1
  O  O19  1  0.563151  0.812318  0.033059  1
  O  O20  1  0.812318  0.563151  0.033059  1
  O  O21  1  0.187559  0.439792  0.533147  1
