# generated using pymatgen
data_Ho20Ir8Os3Rh
_symmetry_space_group_name_H-M   'P 1'
_cell_length_a   10.81265500
_cell_length_b   10.81265500
_cell_length_c   6.39043700
_cell_angle_alpha   90.00000000
_cell_angle_beta   90.00000000
_cell_angle_gamma   90.00000000
_symmetry_Int_Tables_number   1
_chemical_formula_structural   Ho20Ir8Os3Rh
_chemical_formula_sum   'Ho20 Ir8 Os3 Rh1'
_cell_volume   747.12840828
_cell_formula_units_Z   1
loop_
 _symmetry_equiv_pos_site_id
 _symmetry_equiv_pos_as_xyz
  1  'x, y, z'
loop_
 _atom_site_type_symbol
 _atom_site_label
 _atom_site_symmetry_multiplicity
 _atom_site_fract_x
 _atom_site_fract_y
 _atom_site_fract_z
 _atom_site_occupancy
  Ho  Ho0  1  0.291998  0.087037  0.380149  1
  Ho  Ho1  1  0.291659  0.912983  0.875084  1
  Ho  Ho2  1  0.708341  0.087017  0.875084  1
  Ho  Ho3  1  0.708002  0.912963  0.380149  1
  Ho  Ho4  1  0.587017  0.791659  0.875084  1
  Ho  Ho5  1  0.587037  0.208002  0.380149  1
  Ho  Ho6  1  0.412963  0.791998  0.380149  1
  Ho  Ho7  1  0.412983  0.208341  0.875084  1
  Ho  Ho8  1  0.206087  0.413851  0.623198  1
  Ho  Ho9  1  0.206059  0.586269  0.122896  1
  Ho  Ho10  1  0.793941  0.413731  0.122896  1
  Ho  Ho11  1  0.793913  0.586149  0.623198  1
  Ho  Ho12  1  0.913731  0.706059  0.122896  1
  Ho  Ho13  1  0.913851  0.293913  0.623198  1
  Ho  Ho14  1  0.086149  0.706087  0.623198  1
  Ho  Ho15  1  0.086269  0.293941  0.122896  1
  Ho  Ho16  1  0.000000  0.000000  0.500011  1
  Ho  Ho17  1  0.000000  0.000000  0.000180  1
  Ho  Ho18  1  0.500000  0.500000  0.000180  1
  Ho  Ho19  1  0.500000  0.500000  0.500011  1
  Ir  Ir20  1  0.846623  0.151702  0.249304  1
  Ir  Ir21  1  0.846766  0.848168  0.749805  1
  Ir  Ir22  1  0.153234  0.151832  0.749805  1
  Ir  Ir23  1  0.153377  0.848298  0.249304  1
  Ir  Ir24  1  0.651832  0.346766  0.749805  1
  Ir  Ir25  1  0.651702  0.653377  0.249304  1
  Ir  Ir26  1  0.348298  0.346623  0.249304  1
  Ir  Ir27  1  0.348168  0.653234  0.749805  1
  Os  Os28  1  0.500000  0.000000  0.622852  1
  Os  Os29  1  0.000000  0.500000  0.876904  1
  Os  Os30  1  0.000000  0.500000  0.376688  1
  Rh  Rh31  1  0.500000  0.000000  0.121433  1
