# generated using pymatgen
data_Sm2Th2Pd11Pt
_symmetry_space_group_name_H-M   'P 1'
_cell_length_a   5.93003200
_cell_length_b   5.92152739
_cell_length_c   9.73462030
_cell_angle_alpha   90.28572419
_cell_angle_beta   90.00000000
_cell_angle_gamma   120.04750993
_symmetry_Int_Tables_number   1
_chemical_formula_structural   Sm2Th2Pd11Pt
_chemical_formula_sum   'Sm2 Th2 Pd11 Pt1'
_cell_volume   295.88647012
_cell_formula_units_Z   1
loop_
 _symmetry_equiv_pos_site_id
 _symmetry_equiv_pos_as_xyz
  1  'x, y, z'
loop_
 _atom_site_type_symbol
 _atom_site_label
 _atom_site_symmetry_multiplicity
 _atom_site_fract_x
 _atom_site_fract_y
 _atom_site_fract_z
 _atom_site_occupancy
  Sm  Sm0  1  0.000000  0.000000  0.500000  1
  Sm  Sm1  1  0.000000  0.000000  0.000000  1
  Th  Th2  1  0.333983  0.667966  0.250405  1
  Th  Th3  1  0.666017  0.332034  0.749595  1
  Pd  Pd4  1  0.500000  0.500000  0.500000  1
  Pd  Pd5  1  0.000000  0.500000  0.500000  1
  Pd  Pd6  1  0.500000  0.500000  0.000000  1
  Pd  Pd7  1  0.500000  0.000000  0.000000  1
  Pd  Pd8  1  0.000000  0.500000  0.000000  1
  Pd  Pd9  1  0.825275  0.650550  0.248234  1
  Pd  Pd10  1  0.351194  0.176185  0.249566  1
  Pd  Pd11  1  0.824992  0.176185  0.249566  1
  Pd  Pd12  1  0.174725  0.349450  0.751766  1
  Pd  Pd13  1  0.648806  0.823815  0.750434  1
  Pd  Pd14  1  0.175008  0.823815  0.750434  1
  Pt  Pt15  1  0.500000  0.000000  0.500000  1
