# generated using pymatgen
data_Pa2Hg2F11
_symmetry_space_group_name_H-M   'P 1'
_cell_length_a   13.49365271
_cell_length_b   13.49365383
_cell_length_c   16.16193200
_cell_angle_alpha   55.27519446
_cell_angle_beta   55.27519117
_cell_angle_gamma   35.87843056
_symmetry_Int_Tables_number   1
_chemical_formula_structural   Pa2Hg2F11
_chemical_formula_sum   'Pa8 Hg8 F44'
_cell_volume   1381.33847502
_cell_formula_units_Z   4
loop_
 _symmetry_equiv_pos_site_id
 _symmetry_equiv_pos_as_xyz
  1  'x, y, z'
loop_
 _atom_site_type_symbol
 _atom_site_label
 _atom_site_symmetry_multiplicity
 _atom_site_fract_x
 _atom_site_fract_y
 _atom_site_fract_z
 _atom_site_occupancy
  Pa  Pa0  1  0.378977  0.930793  0.480308  1
  Pa  Pa1  1  0.090149  0.702750  0.629797  1
  Pa  Pa2  1  0.069207  0.621023  0.019692  1
  Pa  Pa3  1  0.297250  0.909851  0.870203  1
  Pa  Pa4  1  0.702750  0.090149  0.129797  1
  Pa  Pa5  1  0.621023  0.069207  0.519692  1
  Pa  Pa6  1  0.930793  0.378977  0.980308  1
  Pa  Pa7  1  0.909851  0.297250  0.370203  1
  Hg  Hg8  1  0.161523  0.483248  0.335892  1
  Hg  Hg9  1  0.483248  0.161523  0.835892  1
  Hg  Hg10  1  0.285489  0.834642  0.225232  1
  Hg  Hg11  1  0.834642  0.285489  0.725232  1
  Hg  Hg12  1  0.714511  0.165358  0.774768  1
  Hg  Hg13  1  0.838477  0.516752  0.664108  1
  Hg  Hg14  1  0.516752  0.838477  0.164108  1
  Hg  Hg15  1  0.165358  0.714511  0.274768  1
  F  F16  1  0.873067  0.456777  0.401336  1
  F  F17  1  0.192894  0.401850  0.992861  1
  F  F18  1  0.598150  0.807106  0.507139  1
  F  F19  1  0.421766  0.716068  0.569518  1
  F  F20  1  0.210714  0.040684  0.609307  1
  F  F21  1  0.543223  0.126933  0.098664  1
  F  F22  1  0.500677  0.846657  0.347048  1
  F  F23  1  0.807106  0.598150  0.007139  1
  F  F24  1  0.249865  0.702224  0.486030  1
  F  F25  1  0.283932  0.578234  0.930482  1
  F  F26  1  0.499237  0.711947  0.788726  1
  F  F27  1  0.846657  0.500677  0.847048  1
  F  F28  1  0.097685  0.990595  0.849315  1
  F  F29  1  0.906023  0.725359  0.762330  1
  F  F30  1  0.902315  0.009405  0.150685  1
  F  F31  1  0.789286  0.959316  0.390693  1
  F  F32  1  0.093977  0.274641  0.237670  1
  F  F33  1  0.040684  0.210714  0.109307  1
  F  F34  1  0.959316  0.789286  0.890693  1
  F  F35  1  0.750135  0.297776  0.513970  1
  F  F36  1  0.990595  0.097685  0.349315  1
  F  F37  1  0.009405  0.902315  0.650685  1
  F  F38  1  0.288053  0.500763  0.711274  1
  F  F39  1  0.133246  0.071518  0.455209  1
  F  F40  1  0.126933  0.543223  0.598664  1
  F  F41  1  0.071518  0.133246  0.955209  1
  F  F42  1  0.578234  0.283932  0.430482  1
  F  F43  1  0.500763  0.288053  0.211274  1
  F  F44  1  0.702224  0.249865  0.986030  1
  F  F45  1  0.499323  0.153343  0.652952  1
  F  F46  1  0.297776  0.750135  0.013970  1
  F  F47  1  0.456777  0.873067  0.901336  1
  F  F48  1  0.168983  0.301333  0.888585  1
  F  F49  1  0.711947  0.499237  0.288726  1
  F  F50  1  0.928482  0.866754  0.044791  1
  F  F51  1  0.274641  0.093977  0.737670  1
  F  F52  1  0.301333  0.168983  0.388585  1
  F  F53  1  0.153343  0.499323  0.152952  1
  F  F54  1  0.866754  0.928482  0.544791  1
  F  F55  1  0.725359  0.906023  0.262330  1
  F  F56  1  0.716068  0.421766  0.069518  1
  F  F57  1  0.401850  0.192894  0.492861  1
  F  F58  1  0.698667  0.831017  0.611415  1
  F  F59  1  0.831017  0.698667  0.111415  1
