# generated using pymatgen
data_HoTm11ZnGaCo4
_symmetry_space_group_name_H-M   'P 1'
_cell_length_a   8.12366005
_cell_length_b   8.12366069
_cell_length_c   8.12405518
_cell_angle_alpha   111.95793123
_cell_angle_beta   109.98615628
_cell_angle_gamma   106.51379991
_symmetry_Int_Tables_number   1
_chemical_formula_structural   HoTm11ZnGaCo4
_chemical_formula_sum   'Ho1 Tm11 Zn1 Ga1 Co4'
_cell_volume   411.78198183
_cell_formula_units_Z   1
loop_
 _symmetry_equiv_pos_site_id
 _symmetry_equiv_pos_as_xyz
  1  'x, y, z'
loop_
 _atom_site_type_symbol
 _atom_site_label
 _atom_site_symmetry_multiplicity
 _atom_site_fract_x
 _atom_site_fract_y
 _atom_site_fract_z
 _atom_site_occupancy
  Ho  Ho0  1  0.819546  0.219213  0.038759  1
  Tm  Tm1  1  0.957590  0.261925  0.694858  1
  Tm  Tm2  1  0.042690  0.738690  0.304659  1
  Tm  Tm3  1  0.673646  0.862709  0.189444  1
  Tm  Tm4  1  0.326735  0.515800  0.189444  1
  Tm  Tm5  1  0.325594  0.136890  0.810226  1
  Tm  Tm6  1  0.673336  0.484630  0.810226  1
  Tm  Tm7  1  0.565970  0.261969  0.304659  1
  Tm  Tm8  1  0.432934  0.737269  0.694858  1
  Tm  Tm9  1  0.180558  0.780352  0.960910  1
  Tm  Tm10  1  0.819276  0.779971  0.599249  1
  Tm  Tm11  1  0.181170  0.219886  0.401055  1
  Zn  Zn12  1  0.000178  0.500744  0.500923  1
  Ga  Ga13  1  0.500029  0.000139  0.500169  1
  Co  Co14  1  0.116819  0.115697  0.999984  1
  Co  Co15  1  0.884288  0.883165  0.999984  1
  Co  Co16  1  0.662256  0.500614  0.162870  1
  Co  Co17  1  0.337385  0.500337  0.837722  1
