# generated using pymatgen
data_Zr4Mn2(ReTc)3
_symmetry_space_group_name_H-M   'P 1'
_cell_length_a   5.26392319
_cell_length_b   5.18588353
_cell_length_c   8.61212600
_cell_angle_alpha   90.00000000
_cell_angle_beta   90.00000000
_cell_angle_gamma   119.66441244
_symmetry_Int_Tables_number   1
_chemical_formula_structural   Zr4Mn2(ReTc)3
_chemical_formula_sum   'Zr4 Mn2 Re3 Tc3'
_cell_volume   204.28289833
_cell_formula_units_Z   1
loop_
 _symmetry_equiv_pos_site_id
 _symmetry_equiv_pos_as_xyz
  1  'x, y, z'
loop_
 _atom_site_type_symbol
 _atom_site_label
 _atom_site_symmetry_multiplicity
 _atom_site_fract_x
 _atom_site_fract_y
 _atom_site_fract_z
 _atom_site_occupancy
  Zr  Zr0  1  0.331886  0.665609  0.439112  1
  Zr  Zr1  1  0.668232  0.334373  0.938292  1
  Zr  Zr2  1  0.668232  0.334373  0.561708  1
  Zr  Zr3  1  0.331886  0.665609  0.060888  1
  Mn  Mn4  1  0.658489  0.829684  0.750000  1
  Mn  Mn5  1  0.340806  0.171142  0.250000  1
  Re  Re6  1  0.170218  0.340194  0.750000  1
  Re  Re7  1  0.169551  0.829570  0.750000  1
  Re  Re8  1  0.830473  0.660116  0.250000  1
  Tc  Tc9  1  0.829548  0.172488  0.250000  1
  Tc  Tc10  1  0.000339  0.998421  0.499178  1
  Tc  Tc11  1  0.000339  0.998421  0.000822  1
