# generated using pymatgen
data_Sc3NiSn3RuPt
_symmetry_space_group_name_H-M   'P 1'
_cell_length_a   7.61020900
_cell_length_b   7.61020984
_cell_length_c   3.39191300
_cell_angle_alpha   90.00000000
_cell_angle_beta   90.00000000
_cell_angle_gamma   120.00000071
_symmetry_Int_Tables_number   1
_chemical_formula_structural   Sc3NiSn3RuPt
_chemical_formula_sum   'Sc3 Ni1 Sn3 Ru1 Pt1'
_cell_volume   170.12516084
_cell_formula_units_Z   1
loop_
 _symmetry_equiv_pos_site_id
 _symmetry_equiv_pos_as_xyz
  1  'x, y, z'
loop_
 _atom_site_type_symbol
 _atom_site_label
 _atom_site_symmetry_multiplicity
 _atom_site_fract_x
 _atom_site_fract_y
 _atom_site_fract_z
 _atom_site_occupancy
  Sc  Sc0  1  0.611800  0.013943  0.000000  1
  Sc  Sc1  1  0.986057  0.597857  0.000000  1
  Sc  Sc2  1  0.402143  0.388200  0.000000  1
  Ni  Ni3  1  0.000000  0.000000  0.000000  1
  Sn  Sn4  1  0.267935  0.000072  0.500000  1
  Sn  Sn5  1  0.999928  0.267862  0.500000  1
  Sn  Sn6  1  0.732138  0.732065  0.500000  1
  Ru  Ru7  1  0.666667  0.333333  0.500000  1
  Pt  Pt8  1  0.333333  0.666667  0.500000  1
