# generated using pymatgen
data_HfSc2(AsRu)3
_symmetry_space_group_name_H-M   'P 1'
_cell_length_a   7.69626298
_cell_length_b   7.69626249
_cell_length_c   7.69626339
_cell_angle_alpha   128.14994450
_cell_angle_beta   120.97055926
_cell_angle_gamma   82.39637331
_symmetry_Int_Tables_number   1
_chemical_formula_structural   HfSc2(AsRu)3
_chemical_formula_sum   'Hf2 Sc4 As6 Ru6'
_cell_volume   295.51529592
_cell_formula_units_Z   2
loop_
 _symmetry_equiv_pos_site_id
 _symmetry_equiv_pos_as_xyz
  1  'x, y, z'
loop_
 _atom_site_type_symbol
 _atom_site_label
 _atom_site_symmetry_multiplicity
 _atom_site_fract_x
 _atom_site_fract_y
 _atom_site_fract_z
 _atom_site_occupancy
  Hf  Hf0  1  0.050991  0.255423  0.704432  1
  Hf  Hf1  1  0.949009  0.653441  0.204432  1
  Sc  Sc2  1  0.469781  0.697538  0.727757  1
  Sc  Sc3  1  0.530219  0.257976  0.227757  1
  Sc  Sc4  1  0.749967  0.834745  0.584778  1
  Sc  Sc5  1  0.250033  0.834812  0.084778  1
  As  As6  1  0.277471  0.272220  0.494750  1
  As  As7  1  0.722529  0.217280  0.994750  1
  As  As8  1  0.332025  0.588558  0.252030  1
  As  As9  1  0.667975  0.920005  0.256533  1
  As  As10  1  0.163472  0.920005  0.752030  1
  As  As11  1  0.836528  0.588558  0.756533  1
  Ru  Ru12  1  0.500000  0.494750  0.994750  1
  Ru  Ru13  1  0.000000  0.494750  0.494750  1
  Ru  Ru14  1  0.091349  0.255073  0.101046  1
  Ru  Ru15  1  0.908651  0.009697  0.163724  1
  Ru  Ru16  1  0.345973  0.009697  0.601046  1
  Ru  Ru17  1  0.654027  0.255073  0.663724  1
