# generated using pymatgen
data_Y3Tm2P12Ir10Ru9
_symmetry_space_group_name_H-M   'P 1'
_cell_length_a   12.63468300
_cell_length_b   12.63468273
_cell_length_c   3.95107800
_cell_angle_alpha   90.00000000
_cell_angle_beta   90.00000000
_cell_angle_gamma   119.99999285
_symmetry_Int_Tables_number   1
_chemical_formula_structural   Y3Tm2P12Ir10Ru9
_chemical_formula_sum   'Y3 Tm2 P12 Ir10 Ru9'
_cell_volume   546.22925599
_cell_formula_units_Z   1
loop_
 _symmetry_equiv_pos_site_id
 _symmetry_equiv_pos_as_xyz
  1  'x, y, z'
loop_
 _atom_site_type_symbol
 _atom_site_label
 _atom_site_symmetry_multiplicity
 _atom_site_fract_x
 _atom_site_fract_y
 _atom_site_fract_z
 _atom_site_occupancy
  Y  Y0  1  0.187883  0.187883  0.000000  1
  Y  Y1  1  0.812117  0.000000  0.000000  1
  Y  Y2  1  0.000000  0.812117  0.000000  1
  Tm  Tm3  1  0.333333  0.666667  0.500000  1
  Tm  Tm4  1  0.666667  0.333333  0.500000  1
  P  P5  1  0.307998  0.826720  0.000000  1
  P  P6  1  0.173280  0.481278  0.000000  1
  P  P7  1  0.518722  0.692002  0.000000  1
  P  P8  1  0.826720  0.307998  0.000000  1
  P  P9  1  0.481278  0.173280  0.000000  1
  P  P10  1  0.692002  0.518722  0.000000  1
  P  P11  1  0.363563  0.363563  0.500000  1
  P  P12  1  0.636437  0.000000  0.500000  1
  P  P13  1  0.000000  0.636437  0.500000  1
  P  P14  1  0.818341  0.818341  0.500000  1
  P  P15  1  0.181659  0.000000  0.500000  1
  P  P16  1  0.000000  0.181659  0.500000  1
  Ir  Ir17  1  0.130698  0.636083  0.000000  1
  Ir  Ir18  1  0.363917  0.494614  0.000000  1
  Ir  Ir19  1  0.505386  0.869302  0.000000  1
  Ir  Ir20  1  0.636083  0.130698  0.000000  1
  Ir  Ir21  1  0.494614  0.363917  0.000000  1
  Ir  Ir22  1  0.869302  0.505386  0.000000  1
  Ir  Ir23  1  0.713216  0.713216  0.000000  1
  Ir  Ir24  1  0.286784  0.000000  0.000000  1
  Ir  Ir25  1  0.000000  0.286784  0.000000  1
  Ir  Ir26  1  0.000000  0.000000  0.500000  1
  Ru  Ru27  1  0.196987  0.817739  0.500000  1
  Ru  Ru28  1  0.182261  0.379247  0.500000  1
  Ru  Ru29  1  0.620753  0.803013  0.500000  1
  Ru  Ru30  1  0.817739  0.196987  0.500000  1
  Ru  Ru31  1  0.379247  0.182261  0.500000  1
  Ru  Ru32  1  0.803013  0.620753  0.500000  1
  Ru  Ru33  1  0.547065  0.547065  0.500000  1
  Ru  Ru34  1  0.452935  0.000000  0.500000  1
  Ru  Ru35  1  0.000000  0.452935  0.500000  1
