# generated using pymatgen
data_Li3Ac3YbMgPb4
_symmetry_space_group_name_H-M   'P 1'
_cell_length_a   4.99099800
_cell_length_b   8.19254921
_cell_length_c   8.70669461
_cell_angle_alpha   90.25012063
_cell_angle_beta   90.00000000
_cell_angle_gamma   90.00000000
_symmetry_Int_Tables_number   1
_chemical_formula_structural   Li3Ac3YbMgPb4
_chemical_formula_sum   'Li3 Ac3 Yb1 Mg1 Pb4'
_cell_volume   356.00461525
_cell_formula_units_Z   1
loop_
 _symmetry_equiv_pos_site_id
 _symmetry_equiv_pos_as_xyz
  1  'x, y, z'
loop_
 _atom_site_type_symbol
 _atom_site_label
 _atom_site_symmetry_multiplicity
 _atom_site_fract_x
 _atom_site_fract_y
 _atom_site_fract_z
 _atom_site_occupancy
  Li  Li0  1  0.250000  0.679137  0.071340  1
  Li  Li1  1  0.250000  0.151211  0.439116  1
  Li  Li2  1  0.750000  0.845490  0.580518  1
  Ac  Ac3  1  0.750000  0.994064  0.206843  1
  Ac  Ac4  1  0.750000  0.502707  0.290780  1
  Ac  Ac5  1  0.250000  0.508967  0.703912  1
  Yb  Yb6  1  0.250000  0.001355  0.790406  1
  Mg  Mg7  1  0.750000  0.324849  0.918379  1
  Pb  Pb8  1  0.250000  0.271635  0.099197  1
  Pb  Pb9  1  0.250000  0.780867  0.405063  1
  Pb  Pb10  1  0.750000  0.217123  0.591723  1
  Pb  Pb11  1  0.750000  0.722596  0.902724  1
