# generated using pymatgen
data_Pr5Nd5Si5Pb
_symmetry_space_group_name_H-M   'P 1'
_cell_length_a   7.81641563
_cell_length_b   7.81141063
_cell_length_c   9.23682900
_cell_angle_alpha   115.00259969
_cell_angle_beta   115.05302819
_cell_angle_gamma   90.03754173
_symmetry_Int_Tables_number   1
_chemical_formula_structural   Pr5Nd5Si5Pb
_chemical_formula_sum   'Pr5 Nd5 Si5 Pb1'
_cell_volume   451.81713266
_cell_formula_units_Z   1
loop_
 _symmetry_equiv_pos_site_id
 _symmetry_equiv_pos_as_xyz
  1  'x, y, z'
loop_
 _atom_site_type_symbol
 _atom_site_label
 _atom_site_symmetry_multiplicity
 _atom_site_fract_x
 _atom_site_fract_y
 _atom_site_fract_z
 _atom_site_occupancy
  Pr  Pr0  1  0.448412  0.976810  0.279299  1
  Pr  Pr1  1  0.049545  0.198889  0.720905  1
  Pr  Pr2  1  0.671575  0.522564  0.721135  1
  Pr  Pr3  1  0.198914  0.671213  0.721681  1
  Pr  Pr4  1  0.522947  0.051516  0.721597  1
  Nd  Nd5  1  0.524191  0.523163  0.048100  1
  Nd  Nd6  1  0.977564  0.976117  0.953286  1
  Nd  Nd7  1  0.976779  0.827896  0.277610  1
  Nd  Nd8  1  0.300233  0.449780  0.277946  1
  Nd  Nd9  1  0.829282  0.301118  0.277102  1
  Si  Si10  1  0.247218  0.249280  0.496678  1
  Si  Si11  1  0.616854  0.885254  0.001369  1
  Si  Si12  1  0.385226  0.116924  0.001199  1
  Si  Si13  1  0.884931  0.385548  0.002118  1
  Si  Si14  1  0.115644  0.616015  0.001145  1
  Pb  Pb15  1  0.750686  0.747913  0.498829  1
