# generated using pymatgen
data_NaNdH12Ir2Pb
_symmetry_space_group_name_H-M   'P 1'
_cell_length_a   5.03621900
_cell_length_b   5.03621774
_cell_length_c   8.37351000
_cell_angle_alpha   90.00000000
_cell_angle_beta   90.00000000
_cell_angle_gamma   119.99998859
_symmetry_Int_Tables_number   1
_chemical_formula_structural   NaNdH12Ir2Pb
_chemical_formula_sum   'Na1 Nd1 H12 Ir2 Pb1'
_cell_volume   183.92778054
_cell_formula_units_Z   1
loop_
 _symmetry_equiv_pos_site_id
 _symmetry_equiv_pos_as_xyz
  1  'x, y, z'
loop_
 _atom_site_type_symbol
 _atom_site_label
 _atom_site_symmetry_multiplicity
 _atom_site_fract_x
 _atom_site_fract_y
 _atom_site_fract_z
 _atom_site_occupancy
  Na  Na0  1  0.666667  0.333333  0.359748  1
  Nd  Nd1  1  0.333333  0.666667  0.627193  1
  H  H2  1  0.176217  0.823783  0.370057  1
  H  H3  1  0.647566  0.823783  0.370057  1
  H  H4  1  0.176217  0.352434  0.370057  1
  H  H5  1  0.829143  0.170857  0.623917  1
  H  H6  1  0.341715  0.170857  0.623917  1
  H  H7  1  0.829143  0.658285  0.623917  1
  H  H8  1  0.515369  0.030738  0.856809  1
  H  H9  1  0.515369  0.484631  0.856809  1
  H  H10  1  0.969262  0.484631  0.856809  1
  H  H11  1  0.489098  0.978196  0.135863  1
  H  H12  1  0.489098  0.510902  0.135863  1
  H  H13  1  0.021804  0.510902  0.135863  1
  Ir  Ir14  1  0.666667  0.333333  0.734568  1
  Ir  Ir15  1  0.333333  0.666667  0.253390  1
  Pb  Pb16  1  0.000000  0.000000  0.065160  1
