# generated using pymatgen
data_Lu3UGe6Ru7
_symmetry_space_group_name_H-M   'P 1'
_cell_length_a   7.16425628
_cell_length_b   7.16425601
_cell_length_c   7.16425644
_cell_angle_alpha   109.26413655
_cell_angle_beta   109.26413587
_cell_angle_gamma   109.26412571
_symmetry_Int_Tables_number   1
_chemical_formula_structural   Lu3UGe6Ru7
_chemical_formula_sum   'Lu3 U1 Ge6 Ru7'
_cell_volume   285.21813732
_cell_formula_units_Z   1
loop_
 _symmetry_equiv_pos_site_id
 _symmetry_equiv_pos_as_xyz
  1  'x, y, z'
loop_
 _atom_site_type_symbol
 _atom_site_label
 _atom_site_symmetry_multiplicity
 _atom_site_fract_x
 _atom_site_fract_y
 _atom_site_fract_z
 _atom_site_occupancy
  Lu  Lu0  1  0.000000  0.000000  0.500000  1
  Lu  Lu1  1  0.000000  0.500000  0.000000  1
  Lu  Lu2  1  0.500000  0.000000  0.000000  1
  U  U3  1  0.500000  0.500000  0.500000  1
  Ge  Ge4  1  0.691151  0.691151  0.005761  1
  Ge  Ge5  1  0.308849  0.994239  0.308849  1
  Ge  Ge6  1  0.994239  0.308849  0.308849  1
  Ge  Ge7  1  0.308849  0.308849  0.994239  1
  Ge  Ge8  1  0.691151  0.005761  0.691151  1
  Ge  Ge9  1  0.005761  0.691151  0.691151  1
  Ru  Ru10  1  0.743950  0.256050  0.500000  1
  Ru  Ru11  1  0.743950  0.500000  0.256050  1
  Ru  Ru12  1  0.500000  0.256050  0.743950  1
  Ru  Ru13  1  0.256050  0.500000  0.743950  1
  Ru  Ru14  1  0.256050  0.743950  0.500000  1
  Ru  Ru15  1  0.500000  0.743950  0.256050  1
  Ru  Ru16  1  0.000000  0.000000  0.000000  1
