# generated using pymatgen
data_PrTh2(SnRu)3
_symmetry_space_group_name_H-M   'P 1'
_cell_length_a   7.38228900
_cell_length_b   7.60905113
_cell_length_c   4.15948200
_cell_angle_alpha   90.00000000
_cell_angle_beta   90.00000000
_cell_angle_gamma   119.01897524
_symmetry_Int_Tables_number   1
_chemical_formula_structural   PrTh2(SnRu)3
_chemical_formula_sum   'Pr1 Th2 Sn3 Ru3'
_cell_volume   204.31502064
_cell_formula_units_Z   1
loop_
 _symmetry_equiv_pos_site_id
 _symmetry_equiv_pos_as_xyz
  1  'x, y, z'
loop_
 _atom_site_type_symbol
 _atom_site_label
 _atom_site_symmetry_multiplicity
 _atom_site_fract_x
 _atom_site_fract_y
 _atom_site_fract_z
 _atom_site_occupancy
  Pr  Pr0  1  0.586458  0.000000  0.000000  1
  Th  Th1  1  0.999666  0.586141  0.000000  1
  Th  Th2  1  0.413526  0.413859  0.000000  1
  Sn  Sn3  1  0.751129  0.762617  0.500000  1
  Sn  Sn4  1  0.988512  0.237383  0.500000  1
  Sn  Sn5  1  0.258909  0.000000  0.500000  1
  Ru  Ru6  1  0.309405  0.636247  0.500000  1
  Ru  Ru7  1  0.673159  0.363753  0.500000  1
  Ru  Ru8  1  0.019237  0.000000  0.000000  1
