# generated using pymatgen
data_Tm8V11Si16W
_symmetry_space_group_name_H-M   'P 1'
_cell_length_a   6.63313305
_cell_length_b   6.82130262
_cell_length_c   12.81942100
_cell_angle_alpha   90.00000000
_cell_angle_beta   90.00000000
_cell_angle_gamma   90.07376647
_symmetry_Int_Tables_number   1
_chemical_formula_structural   Tm8V11Si16W
_chemical_formula_sum   'Tm8 V11 Si16 W1'
_cell_volume   580.03483439
_cell_formula_units_Z   1
loop_
 _symmetry_equiv_pos_site_id
 _symmetry_equiv_pos_as_xyz
  1  'x, y, z'
loop_
 _atom_site_type_symbol
 _atom_site_label
 _atom_site_symmetry_multiplicity
 _atom_site_fract_x
 _atom_site_fract_y
 _atom_site_fract_z
 _atom_site_occupancy
  Tm  Tm0  1  0.499270  0.668691  0.595817  1
  Tm  Tm1  1  0.999381  0.830332  0.904108  1
  Tm  Tm2  1  0.501241  0.330543  0.094779  1
  Tm  Tm3  1  0.001053  0.169211  0.405271  1
  Tm  Tm4  1  0.501241  0.330543  0.405221  1
  Tm  Tm5  1  0.001053  0.169211  0.094729  1
  Tm  Tm6  1  0.499270  0.668691  0.904183  1
  Tm  Tm7  1  0.999381  0.830332  0.595892  1
  V  V8  1  0.663085  0.172517  0.626662  1
  V  V9  1  0.163067  0.327610  0.873604  1
  V  V10  1  0.336986  0.829630  0.126361  1
  V  V11  1  0.836981  0.671785  0.373496  1
  V  V12  1  0.336986  0.829630  0.373639  1
  V  V13  1  0.836981  0.671785  0.126504  1
  V  V14  1  0.663085  0.172517  0.873338  1
  V  V15  1  0.163067  0.327610  0.626396  1
  V  V16  1  0.835099  0.486766  0.750000  1
  V  V17  1  0.335013  0.013061  0.750000  1
  V  V18  1  0.164261  0.512910  0.250000  1
  Si  Si19  1  0.661695  0.956537  0.457778  1
  Si  Si20  1  0.161341  0.542946  0.043851  1
  Si  Si21  1  0.338175  0.042325  0.955532  1
  Si  Si22  1  0.838880  0.457523  0.544395  1
  Si  Si23  1  0.338175  0.042325  0.544468  1
  Si  Si24  1  0.838880  0.457523  0.955605  1
  Si  Si25  1  0.661695  0.956537  0.042222  1
  Si  Si26  1  0.161341  0.542946  0.456149  1
  Si  Si27  1  0.461017  0.367326  0.750000  1
  Si  Si28  1  0.961188  0.133078  0.750000  1
  Si  Si29  1  0.536548  0.629215  0.250000  1
  Si  Si30  1  0.041287  0.865938  0.250000  1
  Si  Si31  1  0.695923  0.880316  0.750000  1
  Si  Si32  1  0.196417  0.619451  0.750000  1
  Si  Si33  1  0.300831  0.124263  0.250000  1
  Si  Si34  1  0.804707  0.379165  0.250000  1
  W  W35  1  0.665396  0.989210  0.250000  1
