# generated using pymatgen
data_Yb10CdAgIr4
_symmetry_space_group_name_H-M   'P 1'
_cell_length_a   8.87583837
_cell_length_b   8.87583791
_cell_length_c   8.87583762
_cell_angle_alpha   128.53943085
_cell_angle_beta   128.53943229
_cell_angle_gamma   75.75278219
_symmetry_Int_Tables_number   1
_chemical_formula_structural   Yb10CdAgIr4
_chemical_formula_sum   'Yb10 Cd1 Ag1 Ir4'
_cell_volume   416.10297055
_cell_formula_units_Z   1
loop_
 _symmetry_equiv_pos_site_id
 _symmetry_equiv_pos_as_xyz
  1  'x, y, z'
loop_
 _atom_site_type_symbol
 _atom_site_label
 _atom_site_symmetry_multiplicity
 _atom_site_fract_x
 _atom_site_fract_y
 _atom_site_fract_z
 _atom_site_occupancy
  Yb  Yb0  1  0.502412  0.502412  0.000000  1
  Yb  Yb1  1  0.997588  0.997588  0.000000  1
  Yb  Yb2  1  0.532388  0.039252  0.830272  1
  Yb  Yb3  1  0.208981  0.702117  0.169728  1
  Yb  Yb4  1  0.039252  0.208981  0.506864  1
  Yb  Yb5  1  0.702117  0.532388  0.493136  1
  Yb  Yb6  1  0.460748  0.967612  0.169728  1
  Yb  Yb7  1  0.797883  0.291019  0.830272  1
  Yb  Yb8  1  0.967612  0.797883  0.506864  1
  Yb  Yb9  1  0.291019  0.460748  0.493136  1
  Cd  Cd10  1  0.750000  0.750000  0.000000  1
  Ag  Ag11  1  0.250000  0.250000  0.000000  1
  Ir  Ir12  1  0.128247  0.628247  0.756494  1
  Ir  Ir13  1  0.871753  0.371753  0.243506  1
  Ir  Ir14  1  0.628247  0.871753  0.500000  1
  Ir  Ir15  1  0.371753  0.128247  0.500000  1
