# generated using pymatgen
data_Ho5In4AgRh
_symmetry_space_group_name_H-M   'P 1'
_cell_length_a   8.18258077
_cell_length_b   18.40014076
_cell_length_c   3.60851000
_cell_angle_alpha   90.00000000
_cell_angle_beta   90.00000000
_cell_angle_gamma   90.16993956
_symmetry_Int_Tables_number   1
_chemical_formula_structural   Ho5In4AgRh
_chemical_formula_sum   'Ho10 In8 Ag2 Rh2'
_cell_volume   543.29717768
_cell_formula_units_Z   2
loop_
 _symmetry_equiv_pos_site_id
 _symmetry_equiv_pos_as_xyz
  1  'x, y, z'
loop_
 _atom_site_type_symbol
 _atom_site_label
 _atom_site_symmetry_multiplicity
 _atom_site_fract_x
 _atom_site_fract_y
 _atom_site_fract_z
 _atom_site_occupancy
  Ho  Ho0  1  0.500000  0.500000  0.000000  1
  Ho  Ho1  1  0.000000  0.000000  0.000000  1
  Ho  Ho2  1  0.773020  0.282884  0.000000  1
  Ho  Ho3  1  0.226980  0.717116  0.000000  1
  Ho  Ho4  1  0.773541  0.776698  0.000000  1
  Ho  Ho5  1  0.226459  0.223302  0.000000  1
  Ho  Ho6  1  0.626235  0.078034  0.000000  1
  Ho  Ho7  1  0.373765  0.921966  0.000000  1
  Ho  Ho8  1  0.877842  0.585039  0.000000  1
  Ho  Ho9  1  0.122158  0.414961  0.000000  1
  In  In10  1  0.705414  0.930181  0.500000  1
  In  In11  1  0.294586  0.069819  0.500000  1
  In  In12  1  0.796068  0.433087  0.500000  1
  In  In13  1  0.203932  0.566913  0.500000  1
  In  In14  1  0.569705  0.648914  0.500000  1
  In  In15  1  0.430295  0.351086  0.500000  1
  In  In16  1  0.927641  0.148118  0.500000  1
  In  In17  1  0.072359  0.851882  0.500000  1
  Ag  Ag18  1  0.531725  0.198879  0.500000  1
  Ag  Ag19  1  0.468275  0.801121  0.500000  1
  Rh  Rh20  1  0.968117  0.694234  0.500000  1
  Rh  Rh21  1  0.031883  0.305766  0.500000  1
