# generated using pymatgen
data_NaSr2As6(Ir2Ru)2
_symmetry_space_group_name_H-M   'P 1'
_cell_length_a   8.84184487
_cell_length_b   8.84184580
_cell_length_c   6.66123670
_cell_angle_alpha   71.40124253
_cell_angle_beta   71.40124134
_cell_angle_gamma   38.39448399
_symmetry_Int_Tables_number   1
_chemical_formula_structural   NaSr2As6(Ir2Ru)2
_chemical_formula_sum   'Na1 Sr2 As6 Ir4 Ru2'
_cell_volume   304.42936678
_cell_formula_units_Z   1
loop_
 _symmetry_equiv_pos_site_id
 _symmetry_equiv_pos_as_xyz
  1  'x, y, z'
loop_
 _atom_site_type_symbol
 _atom_site_label
 _atom_site_symmetry_multiplicity
 _atom_site_fract_x
 _atom_site_fract_y
 _atom_site_fract_z
 _atom_site_occupancy
  Na  Na0  1  0.000557  0.999443  0.000000  1
  Sr  Sr1  1  0.662875  0.664811  0.670789  1
  Sr  Sr2  1  0.335189  0.337125  0.329211  1
  As  As3  1  0.873047  0.880640  0.516789  1
  As  As4  1  0.211436  0.211836  0.850327  1
  As  As5  1  0.551872  0.543010  0.181051  1
  As  As6  1  0.456990  0.448128  0.818949  1
  As  As7  1  0.788164  0.788564  0.149673  1
  As  As8  1  0.119360  0.126953  0.483211  1
  Ir  Ir9  1  0.082783  0.583801  0.830780  1
  Ir  Ir10  1  0.416199  0.917217  0.169220  1
  Ir  Ir11  1  0.752061  0.247939  0.500000  1
  Ir  Ir12  1  0.248605  0.751395  0.500000  1
  Ru  Ru13  1  0.582517  0.081656  0.833451  1
  Ru  Ru14  1  0.918344  0.417483  0.166549  1
