# generated using pymatgen
data_Tb3Pa(Al3Co)6
_symmetry_space_group_name_H-M   'P 1'
_cell_length_a   7.43297355
_cell_length_b   7.43938937
_cell_length_c   9.32497700
_cell_angle_alpha   90.00000000
_cell_angle_beta   90.00000000
_cell_angle_gamma   119.26417672
_symmetry_Int_Tables_number   1
_chemical_formula_structural   Tb3Pa(Al3Co)6
_chemical_formula_sum   'Tb3 Pa1 Al18 Co6'
_cell_volume   449.83257121
_cell_formula_units_Z   1
loop_
 _symmetry_equiv_pos_site_id
 _symmetry_equiv_pos_as_xyz
  1  'x, y, z'
loop_
 _atom_site_type_symbol
 _atom_site_label
 _atom_site_symmetry_multiplicity
 _atom_site_fract_x
 _atom_site_fract_y
 _atom_site_fract_z
 _atom_site_occupancy
  Tb  Tb0  1  0.993678  0.672048  0.250000  1
  Tb  Tb1  1  0.006775  0.326686  0.750000  1
  Tb  Tb2  1  0.671852  0.993455  0.250000  1
  Pa  Pa3  1  0.327262  0.006130  0.750000  1
  Al  Al4  1  0.123932  0.124450  0.250000  1
  Al  Al5  1  0.872344  0.871442  0.750000  1
  Al  Al6  1  0.332655  0.334740  0.542119  1
  Al  Al7  1  0.667996  0.668056  0.043059  1
  Al  Al8  1  0.332655  0.334740  0.957881  1
  Al  Al9  1  0.667996  0.668056  0.456941  1
  Al  Al10  1  0.339506  0.554128  0.250000  1
  Al  Al11  1  0.659226  0.448646  0.750000  1
  Al  Al12  1  0.554469  0.339901  0.250000  1
  Al  Al13  1  0.447925  0.660990  0.750000  1
  Al  Al14  1  0.997509  0.334802  0.071857  1
  Al  Al15  1  0.999627  0.662192  0.571730  1
  Al  Al16  1  0.335283  0.998545  0.426396  1
  Al  Al17  1  0.666851  0.001730  0.928289  1
  Al  Al18  1  0.999627  0.662192  0.928270  1
  Al  Al19  1  0.997509  0.334802  0.428143  1
  Al  Al20  1  0.666851  0.001730  0.571711  1
  Al  Al21  1  0.335283  0.998545  0.073604  1
  Co  Co22  1  0.004468  0.000810  0.995471  1
  Co  Co23  1  0.004468  0.000810  0.504529  1
  Co  Co24  1  0.668012  0.326159  0.996848  1
  Co  Co25  1  0.329115  0.674027  0.503025  1
  Co  Co26  1  0.329115  0.674027  0.996975  1
  Co  Co27  1  0.668012  0.326159  0.503152  1
