# generated using pymatgen
data_BH3Br2
_symmetry_space_group_name_H-M   'P 1'
_cell_length_a   4.59560564
_cell_length_b   5.05158027
_cell_length_c   8.48728615
_cell_angle_alpha   67.58490421
_cell_angle_beta   93.15594439
_cell_angle_gamma   74.19564648
_symmetry_Int_Tables_number   1
_chemical_formula_structural   BH3Br2
_chemical_formula_sum   'B1 H3 Br2'
_cell_volume   172.44126184
_cell_formula_units_Z   1
loop_
 _symmetry_equiv_pos_site_id
 _symmetry_equiv_pos_as_xyz
  1  'x, y, z'
loop_
 _atom_site_type_symbol
 _atom_site_label
 _atom_site_symmetry_multiplicity
 _atom_site_fract_x
 _atom_site_fract_y
 _atom_site_fract_z
 _atom_site_occupancy
  B  B0  1  0.540673  0.358420  0.334656  1
  H  H1  1  0.768293  0.284993  0.280532  1
  H  H2  1  0.555244  0.463409  0.910871  1
  H  H3  1  0.531545  0.338451  0.889633  1
  Br  Br4  1  0.498320  0.105677  0.558627  1
  Br  Br5  1  0.225163  0.726597  0.194526  1
