# generated using pymatgen
data_Ho12Co2Ni2BiRh
_symmetry_space_group_name_H-M   'P 1'
_cell_length_a   8.31974484
_cell_length_b   8.31974025
_cell_length_c   8.31974507
_cell_angle_alpha   111.27954187
_cell_angle_beta   109.47507715
_cell_angle_gamma   107.67906003
_symmetry_Int_Tables_number   1
_chemical_formula_structural   Ho12Co2Ni2BiRh
_chemical_formula_sum   'Ho12 Co2 Ni2 Bi1 Rh1'
_cell_volume   442.87268139
_cell_formula_units_Z   1
loop_
 _symmetry_equiv_pos_site_id
 _symmetry_equiv_pos_as_xyz
  1  'x, y, z'
loop_
 _atom_site_type_symbol
 _atom_site_label
 _atom_site_symmetry_multiplicity
 _atom_site_fract_x
 _atom_site_fract_y
 _atom_site_fract_z
 _atom_site_occupancy
  Ho  Ho0  1  0.817676  0.709712  0.527383  1
  Ho  Ho1  1  0.182324  0.290288  0.472617  1
  Ho  Ho2  1  0.182331  0.709712  0.892037  1
  Ho  Ho3  1  0.817669  0.290288  0.107963  1
  Ho  Ho4  1  0.687153  0.377929  0.690776  1
  Ho  Ho5  1  0.312847  0.622071  0.309224  1
  Ho  Ho6  1  0.687151  0.996374  0.309224  1
  Ho  Ho7  1  0.312849  0.003626  0.690776  1
  Ho  Ho8  1  0.595037  0.790224  0.804809  1
  Ho  Ho9  1  0.404963  0.209776  0.195191  1
  Ho  Ho10  1  0.985416  0.790224  0.195188  1
  Ho  Ho11  1  0.014584  0.209776  0.804812  1
  Co  Co12  1  0.113272  0.613271  0.500000  1
  Co  Co13  1  0.886728  0.386729  0.500000  1
  Ni  Ni14  1  0.630518  0.000000  0.630518  1
  Ni  Ni15  1  0.369482  0.000000  0.369482  1
  Bi  Bi16  1  0.500000  0.500000  0.000000  1
  Rh  Rh17  1  0.000000  0.000000  0.000000  1
