# generated using pymatgen
data_Nd2Sm4RhI10
_symmetry_space_group_name_H-M   'P 1'
_cell_length_a   7.90332005
_cell_length_b   9.88592449
_cell_length_c   9.92931168
_cell_angle_alpha   107.48530481
_cell_angle_beta   97.02813900
_cell_angle_gamma   104.46389515
_symmetry_Int_Tables_number   1
_chemical_formula_structural   Nd2Sm4RhI10
_chemical_formula_sum   'Nd2 Sm4 Rh1 I10'
_cell_volume   699.93669433
_cell_formula_units_Z   1
loop_
 _symmetry_equiv_pos_site_id
 _symmetry_equiv_pos_as_xyz
  1  'x, y, z'
loop_
 _atom_site_type_symbol
 _atom_site_label
 _atom_site_symmetry_multiplicity
 _atom_site_fract_x
 _atom_site_fract_y
 _atom_site_fract_z
 _atom_site_occupancy
  Nd  Nd0  1  0.531660  0.216940  0.414889  1
  Nd  Nd1  1  0.468340  0.783060  0.585111  1
  Sm  Sm2  1  0.146694  0.373037  0.330391  1
  Sm  Sm3  1  0.853306  0.626963  0.669609  1
  Sm  Sm4  1  0.615433  0.541135  0.255424  1
  Sm  Sm5  1  0.384567  0.458865  0.744576  1
  Rh  Rh6  1  0.500000  0.500000  0.500000  1
  I  I7  1  0.142105  0.047153  0.225581  1
  I  I8  1  0.857895  0.952847  0.774419  1
  I  I9  1  0.240603  0.411963  0.037822  1
  I  I10  1  0.759397  0.588037  0.962178  1
  I  I11  1  0.722188  0.243840  0.149276  1
  I  I12  1  0.277812  0.756160  0.850724  1
  I  I13  1  0.042699  0.682226  0.407883  1
  I  I14  1  0.957301  0.317774  0.592117  1
  I  I15  1  0.411338  0.130897  0.683912  1
  I  I16  1  0.588662  0.869103  0.316088  1
