# generated using pymatgen
data_Tb5As10P2Ru9Rh10
_symmetry_space_group_name_H-M   'P 1'
_cell_length_a   4.01705900
_cell_length_b   12.99074574
_cell_length_c   13.01628267
_cell_angle_alpha   119.94630863
_cell_angle_beta   90.00000000
_cell_angle_gamma   90.00000000
_symmetry_Int_Tables_number   1
_chemical_formula_structural   Tb5As10P2Ru9Rh10
_chemical_formula_sum   'Tb5 As10 P2 Ru9 Rh10'
_cell_volume   588.56523842
_cell_formula_units_Z   1
loop_
 _symmetry_equiv_pos_site_id
 _symmetry_equiv_pos_as_xyz
  1  'x, y, z'
loop_
 _atom_site_type_symbol
 _atom_site_label
 _atom_site_symmetry_multiplicity
 _atom_site_fract_x
 _atom_site_fract_y
 _atom_site_fract_z
 _atom_site_occupancy
  Tb  Tb0  1  0.500000  0.999960  0.185595  1
  Tb  Tb1  1  0.500000  0.186848  0.000470  1
  Tb  Tb2  1  0.500000  0.813070  0.814423  1
  Tb  Tb3  1  0.000000  0.333214  0.666298  1
  Tb  Tb4  1  0.000000  0.664283  0.328956  1
  As  As5  1  0.000000  0.997123  0.818198  1
  As  As6  1  0.000000  0.818950  0.002521  1
  As  As7  1  0.000000  0.185037  0.181125  1
  As  As8  1  0.500000  0.315252  0.483278  1
  As  As9  1  0.500000  0.169338  0.685734  1
  As  As10  1  0.500000  0.515577  0.831589  1
  As  As11  1  0.500000  0.826393  0.512413  1
  As  As12  1  0.000000  0.998242  0.365816  1
  As  As13  1  0.000000  0.368462  0.001861  1
  As  As14  1  0.000000  0.631226  0.631850  1
  P  P15  1  0.500000  0.485494  0.308866  1
  P  P16  1  0.500000  0.690183  0.173704  1
  Ru  Ru17  1  0.500000  0.997192  0.713119  1
  Ru  Ru18  1  0.500000  0.713165  0.006026  1
  Ru  Ru19  1  0.500000  0.294152  0.286315  1
  Ru  Ru20  1  0.500000  0.125270  0.483585  1
  Ru  Ru21  1  0.500000  0.358762  0.877518  1
  Ru  Ru22  1  0.500000  0.517429  0.641901  1
  Ru  Ru23  1  0.500000  0.632352  0.504239  1
  Ru  Ru24  1  0.500000  0.495608  0.132162  1
  Ru  Ru25  1  0.500000  0.871527  0.355355  1
  Rh  Rh26  1  0.000000  0.997261  0.550823  1
  Rh  Rh27  1  0.000000  0.553292  0.002590  1
  Rh  Rh28  1  0.000000  0.446855  0.447327  1
  Rh  Rh29  1  0.000000  0.193161  0.372369  1
  Rh  Rh30  1  0.000000  0.179909  0.806750  1
  Rh  Rh31  1  0.000000  0.625801  0.820908  1
  Rh  Rh32  1  0.000000  0.814589  0.622042  1
  Rh  Rh33  1  0.000000  0.385908  0.201617  1
  Rh  Rh34  1  0.000000  0.798350  0.180936  1
  Rh  Rh35  1  0.000000  0.000663  0.001721  1
