# generated using pymatgen
data_Tb8In2PdRh
_symmetry_space_group_name_H-M   'P 1'
_cell_length_a   9.74077528
_cell_length_b   9.74347474
_cell_length_c   9.74077438
_cell_angle_alpha   59.99083068
_cell_angle_beta   60.11632823
_cell_angle_gamma   59.99082946
_symmetry_Int_Tables_number   1
_chemical_formula_structural   Tb8In2PdRh
_chemical_formula_sum   'Tb16 In4 Pd2 Rh2'
_cell_volume   654.19303453
_cell_formula_units_Z   2
loop_
 _symmetry_equiv_pos_site_id
 _symmetry_equiv_pos_as_xyz
  1  'x, y, z'
loop_
 _atom_site_type_symbol
 _atom_site_label
 _atom_site_symmetry_multiplicity
 _atom_site_fract_x
 _atom_site_fract_y
 _atom_site_fract_z
 _atom_site_occupancy
  Tb  Tb0  1  0.809468  0.809944  0.194796  1
  Tb  Tb1  1  0.809162  0.190838  0.809162  1
  Tb  Tb2  1  0.194796  0.185791  0.809468  1
  Tb  Tb3  1  0.648185  0.048964  0.648185  1
  Tb  Tb4  1  0.062560  0.062998  0.435376  1
  Tb  Tb5  1  0.435376  0.439067  0.062560  1
  Tb  Tb6  1  0.648185  0.654666  0.648185  1
  Tb  Tb7  1  0.809468  0.185791  0.194796  1
  Tb  Tb8  1  0.194796  0.809944  0.809468  1
  Tb  Tb9  1  0.055586  0.650443  0.643528  1
  Tb  Tb10  1  0.435376  0.062998  0.062560  1
  Tb  Tb11  1  0.436843  0.063157  0.436843  1
  Tb  Tb12  1  0.062311  0.437689  0.062311  1
  Tb  Tb13  1  0.643528  0.650443  0.055586  1
  Tb  Tb14  1  0.189713  0.810287  0.189713  1
  Tb  Tb15  1  0.062560  0.439067  0.435376  1
  In  In16  1  0.417370  0.417443  0.417370  1
  In  In17  1  0.417987  0.417314  0.747383  1
  In  In18  1  0.417370  0.747815  0.417370  1
  In  In19  1  0.747383  0.417314  0.417987  1
  Pd  Pd20  1  0.857395  0.429698  0.857395  1
  Pd  Pd21  1  0.857395  0.855514  0.857395  1
  Rh  Rh22  1  0.858490  0.856408  0.428694  1
  Rh  Rh23  1  0.428694  0.856408  0.858490  1
