# generated using pymatgen
data_SrBi3Ru2(PtO7)2
_symmetry_space_group_name_H-M   'P 1'
_cell_length_a   7.38458292
_cell_length_b   7.35841316
_cell_length_c   7.38458309
_cell_angle_alpha   60.53790893
_cell_angle_beta   60.42909034
_cell_angle_gamma   60.53791015
_symmetry_Int_Tables_number   1
_chemical_formula_structural   SrBi3Ru2(PtO7)2
_chemical_formula_sum   'Sr1 Bi3 Ru2 Pt2 O14'
_cell_volume   286.95639689
_cell_formula_units_Z   1
loop_
 _symmetry_equiv_pos_site_id
 _symmetry_equiv_pos_as_xyz
  1  'x, y, z'
loop_
 _atom_site_type_symbol
 _atom_site_label
 _atom_site_symmetry_multiplicity
 _atom_site_fract_x
 _atom_site_fract_y
 _atom_site_fract_z
 _atom_site_occupancy
  Sr  Sr0  1  0.125000  0.125000  0.125000  1
  Bi  Bi1  1  0.125000  0.125000  0.625000  1
  Bi  Bi2  1  0.125000  0.625000  0.125000  1
  Bi  Bi3  1  0.625000  0.125000  0.125000  1
  Ru  Ru4  1  0.625000  0.625000  0.125000  1
  Ru  Ru5  1  0.125000  0.625000  0.625000  1
  Pt  Pt6  1  0.625000  0.125000  0.625000  1
  Pt  Pt7  1  0.625000  0.625000  0.625000  1
  O  O8  1  0.254455  0.256382  0.254455  1
  O  O9  1  0.995545  0.993618  0.995545  1
  O  O10  1  0.542162  0.956549  0.542162  1
  O  O11  1  0.304279  0.685399  0.304279  1
  O  O12  1  0.543121  0.546706  0.955993  1
  O  O13  1  0.955993  0.546706  0.543121  1
  O  O14  1  0.551382  0.950581  0.957560  1
  O  O15  1  0.957560  0.950581  0.551382  1
  O  O16  1  0.945721  0.564601  0.945721  1
  O  O17  1  0.698618  0.299419  0.292440  1
  O  O18  1  0.294007  0.703294  0.706879  1
  O  O19  1  0.707838  0.293451  0.707838  1
  O  O20  1  0.292440  0.299419  0.698618  1
  O  O21  1  0.706879  0.703294  0.294007  1
