# generated using pymatgen
data_Ba5Nd(BiPb4)2
_symmetry_space_group_name_H-M   'P 1'
_cell_length_a   9.44467978
_cell_length_b   9.44468119
_cell_length_c   9.44468064
_cell_angle_alpha   120.62295820
_cell_angle_beta   120.62295823
_cell_angle_gamma   88.92434761
_symmetry_Int_Tables_number   1
_chemical_formula_structural   Ba5Nd(BiPb4)2
_chemical_formula_sum   'Ba5 Nd1 Bi2 Pb8'
_cell_volume   590.00424325
_cell_formula_units_Z   1
loop_
 _symmetry_equiv_pos_site_id
 _symmetry_equiv_pos_as_xyz
  1  'x, y, z'
loop_
 _atom_site_type_symbol
 _atom_site_label
 _atom_site_symmetry_multiplicity
 _atom_site_fract_x
 _atom_site_fract_y
 _atom_site_fract_z
 _atom_site_occupancy
  Ba  Ba0  1  0.750000  0.750000  0.000000  1
  Ba  Ba1  1  0.162140  0.662140  0.824282  1
  Ba  Ba2  1  0.837860  0.337860  0.175718  1
  Ba  Ba3  1  0.662140  0.837860  0.500000  1
  Ba  Ba4  1  0.337860  0.162140  0.500000  1
  Nd  Nd5  1  0.250000  0.250000  0.000000  1
  Bi  Bi6  1  0.012092  0.012092  0.000000  1
  Bi  Bi7  1  0.487908  0.487908  0.000000  1
  Pb  Pb8  1  0.833947  0.325744  0.788286  1
  Pb  Pb9  1  0.174256  0.666053  0.211714  1
  Pb  Pb10  1  0.537458  0.045662  0.211714  1
  Pb  Pb11  1  0.325744  0.537458  0.491796  1
  Pb  Pb12  1  0.962542  0.174256  0.508204  1
  Pb  Pb13  1  0.454338  0.962542  0.788286  1
  Pb  Pb14  1  0.666053  0.454338  0.491796  1
  Pb  Pb15  1  0.045662  0.833947  0.508204  1
