# generated using pymatgen
data_Dy7Y3Ir3Os
_symmetry_space_group_name_H-M   'P 1'
_cell_length_a   6.47468701
_cell_length_b   7.27109044
_cell_length_c   8.54210751
_cell_angle_alpha   96.58615874
_cell_angle_beta   112.54572019
_cell_angle_gamma   90.12628461
_symmetry_Int_Tables_number   1
_chemical_formula_structural   Dy7Y3Ir3Os
_chemical_formula_sum   'Dy7 Y3 Ir3 Os1'
_cell_volume   368.49237509
_cell_formula_units_Z   1
loop_
 _symmetry_equiv_pos_site_id
 _symmetry_equiv_pos_as_xyz
  1  'x, y, z'
loop_
 _atom_site_type_symbol
 _atom_site_label
 _atom_site_symmetry_multiplicity
 _atom_site_fract_x
 _atom_site_fract_y
 _atom_site_fract_z
 _atom_site_occupancy
  Dy  Dy0  1  0.023098  0.582797  0.814675  1
  Dy  Dy1  1  0.213896  0.184740  0.561691  1
  Dy  Dy2  1  0.649252  0.316473  0.440901  1
  Dy  Dy3  1  0.789082  0.816327  0.439005  1
  Dy  Dy4  1  0.350992  0.682937  0.562253  1
  Dy  Dy5  1  0.427224  0.250357  0.999599  1
  Dy  Dy6  1  0.573078  0.748588  0.999359  1
  Y  Y7  1  0.790126  0.083918  0.814798  1
  Y  Y8  1  0.972792  0.417041  0.180373  1
  Y  Y9  1  0.208533  0.916462  0.183911  1
  Ir  Ir10  1  0.823951  0.073391  0.222367  1
  Ir  Ir11  1  0.397133  0.574878  0.221044  1
  Ir  Ir12  1  0.174855  0.925329  0.777815  1
  Os  Os13  1  0.605986  0.426763  0.782210  1
