# generated using pymatgen
data_CaTm4Si12Rh19
_symmetry_space_group_name_H-M   'P 1'
_cell_length_a   12.76761200
_cell_length_b   12.77277183
_cell_length_c   3.96482600
_cell_angle_alpha   90.00000000
_cell_angle_beta   90.00000000
_cell_angle_gamma   119.98663763
_symmetry_Int_Tables_number   1
_chemical_formula_structural   CaTm4Si12Rh19
_chemical_formula_sum   'Ca1 Tm4 Si12 Rh19'
_cell_volume   560.02582698
_cell_formula_units_Z   1
loop_
 _symmetry_equiv_pos_site_id
 _symmetry_equiv_pos_as_xyz
  1  'x, y, z'
loop_
 _atom_site_type_symbol
 _atom_site_label
 _atom_site_symmetry_multiplicity
 _atom_site_fract_x
 _atom_site_fract_y
 _atom_site_fract_z
 _atom_site_occupancy
  Ca  Ca0  1  0.186381  0.000000  0.500000  1
  Tm  Tm1  1  0.000117  0.185850  0.500000  1
  Tm  Tm2  1  0.814266  0.814150  0.500000  1
  Tm  Tm3  1  0.666749  0.333662  0.000000  1
  Tm  Tm4  1  0.333086  0.666338  0.000000  1
  Si  Si5  1  0.477194  0.312917  0.500000  1
  Si  Si6  1  0.818218  0.000000  0.000000  1
  Si  Si7  1  0.181667  0.182573  0.000000  1
  Si  Si8  1  0.999094  0.817427  0.000000  1
  Si  Si9  1  0.372153  0.000000  0.000000  1
  Si  Si10  1  0.686639  0.164545  0.500000  1
  Si  Si11  1  0.835652  0.521528  0.500000  1
  Si  Si12  1  0.522094  0.835455  0.500000  1
  Si  Si13  1  0.164276  0.687083  0.500000  1
  Si  Si14  1  0.314124  0.478472  0.500000  1
  Si  Si15  1  0.000157  0.370747  0.000000  1
  Si  Si16  1  0.629410  0.629253  0.000000  1
  Rh  Rh17  1  0.807921  0.182828  0.000000  1
  Rh  Rh18  1  0.377943  0.194405  0.000000  1
  Rh  Rh19  1  0.639846  0.511917  0.500000  1
  Rh  Rh20  1  0.872160  0.359036  0.500000  1
  Rh  Rh21  1  0.360667  0.872344  0.500000  1
  Rh  Rh22  1  0.513124  0.640964  0.500000  1
  Rh  Rh23  1  0.127929  0.488083  0.500000  1
  Rh  Rh24  1  0.816174  0.624042  0.000000  1
  Rh  Rh25  1  0.625092  0.817172  0.000000  1
  Rh  Rh26  1  0.183539  0.805595  0.000000  1
  Rh  Rh27  1  0.192132  0.375958  0.000000  1
  Rh  Rh28  1  0.998378  0.720570  0.500000  1
  Rh  Rh29  1  0.277808  0.279430  0.500000  1
  Rh  Rh30  1  0.721695  0.000000  0.500000  1
  Rh  Rh31  1  0.997725  0.552766  0.000000  1
  Rh  Rh32  1  0.444960  0.447234  0.000000  1
  Rh  Rh33  1  0.555393  0.000000  0.000000  1
  Rh  Rh34  1  0.997913  0.000000  0.000000  1
  Rh  Rh35  1  0.488324  0.127656  0.500000  1
