# generated using pymatgen
data_Tb16HoSc3Sn16
_symmetry_space_group_name_H-M   'P 1'
_cell_length_a   7.94884700
_cell_length_b   8.13326530
_cell_length_c   15.43291500
_cell_angle_alpha   90.00000000
_cell_angle_beta   90.00000000
_cell_angle_gamma   90.06540933
_symmetry_Int_Tables_number   1
_chemical_formula_structural   Tb16HoSc3Sn16
_chemical_formula_sum   'Tb16 Ho1 Sc3 Sn16'
_cell_volume   997.73856205
_cell_formula_units_Z   1
loop_
 _symmetry_equiv_pos_site_id
 _symmetry_equiv_pos_as_xyz
  1  'x, y, z'
loop_
 _atom_site_type_symbol
 _atom_site_label
 _atom_site_symmetry_multiplicity
 _atom_site_fract_x
 _atom_site_fract_y
 _atom_site_fract_z
 _atom_site_occupancy
  Tb  Tb0  1  0.363406  0.838782  0.875554  1
  Tb  Tb1  1  0.863527  0.660915  0.623913  1
  Tb  Tb2  1  0.636990  0.162010  0.377369  1
  Tb  Tb3  1  0.136131  0.339119  0.122717  1
  Tb  Tb4  1  0.636990  0.162010  0.122631  1
  Tb  Tb5  1  0.136131  0.339119  0.377283  1
  Tb  Tb6  1  0.363406  0.838782  0.624446  1
  Tb  Tb7  1  0.863527  0.660915  0.876087  1
  Tb  Tb8  1  0.519653  0.319919  0.903441  1
  Tb  Tb9  1  0.019802  0.179739  0.596982  1
  Tb  Tb10  1  0.481181  0.679456  0.404190  1
  Tb  Tb11  1  0.980500  0.819903  0.095660  1
  Tb  Tb12  1  0.481181  0.679456  0.095810  1
  Tb  Tb13  1  0.980500  0.819903  0.404340  1
  Tb  Tb14  1  0.519653  0.319919  0.596559  1
  Tb  Tb15  1  0.019802  0.179739  0.903018  1
  Ho  Ho16  1  0.305773  0.002881  0.250000  1
  Sc  Sc17  1  0.194995  0.502368  0.750000  1
  Sc  Sc18  1  0.695120  0.997138  0.750000  1
  Sc  Sc19  1  0.804609  0.496799  0.250000  1
  Sn  Sn20  1  0.295985  0.036915  0.041624  1
  Sn  Sn21  1  0.795826  0.464602  0.455993  1
  Sn  Sn22  1  0.704443  0.964041  0.544937  1
  Sn  Sn23  1  0.204507  0.535681  0.955045  1
  Sn  Sn24  1  0.704443  0.964041  0.955063  1
  Sn  Sn25  1  0.204507  0.535681  0.544955  1
  Sn  Sn26  1  0.295985  0.036915  0.458376  1
  Sn  Sn27  1  0.795826  0.464602  0.044007  1
  Sn  Sn28  1  0.556102  0.614371  0.750000  1
  Sn  Sn29  1  0.055797  0.884966  0.750000  1
  Sn  Sn30  1  0.444521  0.387044  0.250000  1
  Sn  Sn31  1  0.938640  0.118786  0.250000  1
  Sn  Sn32  1  0.328477  0.154499  0.750000  1
  Sn  Sn33  1  0.828278  0.345724  0.750000  1
  Sn  Sn34  1  0.675709  0.844687  0.250000  1
  Sn  Sn35  1  0.168076  0.648574  0.250000  1
