# generated using pymatgen
data_La6Cr(MoC4)3
_symmetry_space_group_name_H-M   'P 1'
_cell_length_a   8.57298500
_cell_length_b   8.57298443
_cell_length_c   5.37529000
_cell_angle_alpha   90.00000000
_cell_angle_beta   90.00000000
_cell_angle_gamma   119.99999064
_symmetry_Int_Tables_number   1
_chemical_formula_structural   La6Cr(MoC4)3
_chemical_formula_sum   'La6 Cr1 Mo3 C12'
_cell_volume   342.13434354
_cell_formula_units_Z   1
loop_
 _symmetry_equiv_pos_site_id
 _symmetry_equiv_pos_as_xyz
  1  'x, y, z'
loop_
 _atom_site_type_symbol
 _atom_site_label
 _atom_site_symmetry_multiplicity
 _atom_site_fract_x
 _atom_site_fract_y
 _atom_site_fract_z
 _atom_site_occupancy
  La  La0  1  0.617871  0.695282  0.750000  1
  La  La1  1  0.926509  0.612987  0.250000  1
  La  La2  1  0.686478  0.073491  0.250000  1
  La  La3  1  0.304718  0.922589  0.750000  1
  La  La4  1  0.077411  0.382129  0.750000  1
  La  La5  1  0.387013  0.313522  0.250000  1
  Cr  Cr6  1  0.333333  0.666667  0.250000  1
  Mo  Mo7  1  0.000000  0.000000  0.491504  1
  Mo  Mo8  1  0.000000  0.000000  0.008496  1
  Mo  Mo9  1  0.666667  0.333333  0.750000  1
  C  C10  1  0.954766  0.773788  0.750000  1
  C  C11  1  0.191458  0.951687  0.250000  1
  C  C12  1  0.760228  0.808542  0.250000  1
  C  C13  1  0.226212  0.180977  0.750000  1
  C  C14  1  0.819023  0.045234  0.750000  1
  C  C15  1  0.048313  0.239772  0.250000  1
  C  C16  1  0.863251  0.588242  0.750000  1
  C  C17  1  0.275925  0.850280  0.250000  1
  C  C18  1  0.574354  0.724075  0.250000  1
  C  C19  1  0.411758  0.275008  0.750000  1
  C  C20  1  0.149720  0.425646  0.250000  1
  C  C21  1  0.724992  0.136749  0.750000  1
