# generated using pymatgen
data_Tb6ScCrO12
_symmetry_space_group_name_H-M   'P 1'
_cell_length_a   6.59746804
_cell_length_b   6.59746894
_cell_length_c   6.59746868
_cell_angle_alpha   92.75357468
_cell_angle_beta   92.75358602
_cell_angle_gamma   92.75358380
_symmetry_Int_Tables_number   1
_chemical_formula_structural   Tb6ScCrO12
_chemical_formula_sum   'Tb6 Sc1 Cr1 O12'
_cell_volume   286.13751830
_cell_formula_units_Z   1
loop_
 _symmetry_equiv_pos_site_id
 _symmetry_equiv_pos_as_xyz
  1  'x, y, z'
loop_
 _atom_site_type_symbol
 _atom_site_label
 _atom_site_symmetry_multiplicity
 _atom_site_fract_x
 _atom_site_fract_y
 _atom_site_fract_z
 _atom_site_occupancy
  Tb  Tb0  1  0.742934  0.927178  0.436447  1
  Tb  Tb1  1  0.927178  0.436447  0.742934  1
  Tb  Tb2  1  0.436447  0.742934  0.927178  1
  Tb  Tb3  1  0.257066  0.072822  0.563553  1
  Tb  Tb4  1  0.072822  0.563553  0.257066  1
  Tb  Tb5  1  0.563553  0.257066  0.072822  1
  Sc  Sc6  1  0.000000  0.000000  0.000000  1
  Cr  Cr7  1  0.500000  0.500000  0.500000  1
  O  O8  1  0.587281  0.460444  0.797514  1
  O  O9  1  0.460444  0.797514  0.587281  1
  O  O10  1  0.797514  0.587281  0.460444  1
  O  O11  1  0.412719  0.539556  0.202486  1
  O  O12  1  0.539556  0.202486  0.412719  1
  O  O13  1  0.202486  0.412719  0.539556  1
  O  O14  1  0.067961  0.915245  0.306539  1
  O  O15  1  0.915245  0.306539  0.067961  1
  O  O16  1  0.693461  0.932039  0.084755  1
  O  O17  1  0.084755  0.693461  0.932039  1
  O  O18  1  0.932039  0.084755  0.693461  1
  O  O19  1  0.306539  0.067961  0.915245  1
