# generated using pymatgen
data_CaLa3(Pr4Ga3)4
_symmetry_space_group_name_H-M   'P 1'
_cell_length_a   7.90227000
_cell_length_b   7.90227000
_cell_length_c   14.91495400
_cell_angle_alpha   90.00000000
_cell_angle_beta   90.00000000
_cell_angle_gamma   90.00000000
_symmetry_Int_Tables_number   1
_chemical_formula_structural   CaLa3(Pr4Ga3)4
_chemical_formula_sum   'Ca1 La3 Pr16 Ga12'
_cell_volume   931.37729574
_cell_formula_units_Z   1
loop_
 _symmetry_equiv_pos_site_id
 _symmetry_equiv_pos_as_xyz
  1  'x, y, z'
loop_
 _atom_site_type_symbol
 _atom_site_label
 _atom_site_symmetry_multiplicity
 _atom_site_fract_x
 _atom_site_fract_y
 _atom_site_fract_z
 _atom_site_occupancy
  Ca  Ca0  1  0.500000  0.000000  0.762692  1
  La  La1  1  0.000000  0.500000  0.718118  1
  La  La2  1  0.000000  0.500000  0.213040  1
  La  La3  1  0.500000  0.000000  0.287256  1
  Pr  Pr4  1  0.819421  0.838978  0.603546  1
  Pr  Pr5  1  0.185903  0.840107  0.104325  1
  Pr  Pr6  1  0.160804  0.815086  0.396813  1
  Pr  Pr7  1  0.839196  0.184914  0.396813  1
  Pr  Pr8  1  0.684914  0.660804  0.396813  1
  Pr  Pr9  1  0.661022  0.319421  0.603546  1
  Pr  Pr10  1  0.338978  0.680579  0.603546  1
  Pr  Pr11  1  0.659893  0.685903  0.104325  1
  Pr  Pr12  1  0.682415  0.332110  0.896858  1
  Pr  Pr13  1  0.832110  0.817585  0.896858  1
  Pr  Pr14  1  0.315086  0.339196  0.396813  1
  Pr  Pr15  1  0.180579  0.161022  0.603546  1
  Pr  Pr16  1  0.814097  0.159893  0.104325  1
  Pr  Pr17  1  0.317585  0.667890  0.896858  1
  Pr  Pr18  1  0.340107  0.314097  0.104325  1
  Pr  Pr19  1  0.167890  0.182415  0.896858  1
  Ga  Ga20  1  0.617895  0.382020  0.250385  1
  Ga  Ga21  1  0.118154  0.882596  0.752757  1
  Ga  Ga22  1  0.382596  0.381846  0.752757  1
  Ga  Ga23  1  0.382105  0.617980  0.250385  1
  Ga  Ga24  1  0.882020  0.882105  0.250385  1
  Ga  Ga25  1  0.617404  0.618154  0.752757  1
  Ga  Ga26  1  0.000000  0.500000  0.505386  1
  Ga  Ga27  1  0.881846  0.117404  0.752757  1
  Ga  Ga28  1  0.500000  0.000000  0.499626  1
  Ga  Ga29  1  0.500000  0.000000  0.992173  1
  Ga  Ga30  1  0.117980  0.117895  0.250385  1
  Ga  Ga31  1  0.000000  0.500000  0.002977  1
