# generated using pymatgen
data_Pr3Nd3(CI3)2
_symmetry_space_group_name_H-M   'P 1'
_cell_length_a   4.04880500
_cell_length_b   9.04559284
_cell_length_c   12.23564589
_cell_angle_alpha   92.62273997
_cell_angle_beta   90.00000000
_cell_angle_gamma   90.00000000
_symmetry_Int_Tables_number   1
_chemical_formula_structural   Pr3Nd3(CI3)2
_chemical_formula_sum   'Pr3 Nd3 C2 I6'
_cell_volume   447.64694845
_cell_formula_units_Z   1
loop_
 _symmetry_equiv_pos_site_id
 _symmetry_equiv_pos_as_xyz
  1  'x, y, z'
loop_
 _atom_site_type_symbol
 _atom_site_label
 _atom_site_symmetry_multiplicity
 _atom_site_fract_x
 _atom_site_fract_y
 _atom_site_fract_z
 _atom_site_occupancy
  Pr  Pr0  1  0.250000  0.914418  0.602752  1
  Pr  Pr1  1  0.750000  0.085638  0.397552  1
  Pr  Pr2  1  0.250000  0.885950  0.178871  1
  Nd  Nd3  1  0.750000  0.114205  0.820109  1
  Nd  Nd4  1  0.250000  0.298841  0.616685  1
  Nd  Nd5  1  0.750000  0.701058  0.383487  1
  C  C6  1  0.250000  0.879064  0.384195  1
  C  C7  1  0.750000  0.120837  0.616942  1
  I  I8  1  0.250000  0.856413  0.875596  1
  I  I9  1  0.750000  0.145389  0.123926  1
  I  I10  1  0.250000  0.378110  0.873569  1
  I  I11  1  0.750000  0.620097  0.126236  1
  I  I12  1  0.250000  0.383285  0.365102  1
  I  I13  1  0.750000  0.616694  0.634977  1
