# generated using pymatgen
data_EuCu4AgO8
_symmetry_space_group_name_H-M   'P 1'
_cell_length_a   6.29326165
_cell_length_b   6.29326190
_cell_length_c   6.29326140
_cell_angle_alpha   124.57090448
_cell_angle_beta   124.57090854
_cell_angle_gamma   82.24997788
_symmetry_Int_Tables_number   1
_chemical_formula_structural   EuCu4AgO8
_chemical_formula_sum   'Eu1 Cu4 Ag1 O8'
_cell_volume   162.43236093
_cell_formula_units_Z   1
loop_
 _symmetry_equiv_pos_site_id
 _symmetry_equiv_pos_as_xyz
  1  'x, y, z'
loop_
 _atom_site_type_symbol
 _atom_site_label
 _atom_site_symmetry_multiplicity
 _atom_site_fract_x
 _atom_site_fract_y
 _atom_site_fract_z
 _atom_site_occupancy
  Eu  Eu0  1  0.750000  0.250000  0.500000  1
  Cu  Cu1  1  0.875086  0.619192  0.244982  1
  Cu  Cu2  1  0.374209  0.630105  0.755018  1
  Cu  Cu3  1  0.369895  0.124914  0.744106  1
  Cu  Cu4  1  0.380808  0.625791  0.255894  1
  Ag  Ag5  1  0.000000  0.000000  0.000000  1
  O  O6  1  0.415861  0.826242  0.139971  1
  O  O7  1  0.686270  0.275889  0.860029  1
  O  O8  1  0.344312  0.428204  0.374458  1
  O  O9  1  0.053746  0.969854  0.625542  1
  O  O10  1  0.030146  0.655688  0.083893  1
  O  O11  1  0.571796  0.946254  0.916107  1
  O  O12  1  0.173758  0.313730  0.589620  1
  O  O13  1  0.724111  0.584139  0.410380  1
