# generated using pymatgen
data_SmLu7(HfIr3)2
_symmetry_space_group_name_H-M   'P 1'
_cell_length_a   10.68015779
_cell_length_b   10.69439400
_cell_length_c   6.17826100
_cell_angle_alpha   90.00000000
_cell_angle_beta   89.83040031
_cell_angle_gamma   90.00000000
_symmetry_Int_Tables_number   1
_chemical_formula_structural   SmLu7(HfIr3)2
_chemical_formula_sum   'Sm2 Lu14 Hf4 Ir12'
_cell_volume   705.66438278
_cell_formula_units_Z   2
loop_
 _symmetry_equiv_pos_site_id
 _symmetry_equiv_pos_as_xyz
  1  'x, y, z'
loop_
 _atom_site_type_symbol
 _atom_site_label
 _atom_site_symmetry_multiplicity
 _atom_site_fract_x
 _atom_site_fract_y
 _atom_site_fract_z
 _atom_site_occupancy
  Sm  Sm0  1  0.088017  0.713359  0.632356  1
  Sm  Sm1  1  0.088017  0.286641  0.132356  1
  Lu  Lu2  1  0.291927  0.083047  0.373927  1
  Lu  Lu3  1  0.291927  0.916953  0.873927  1
  Lu  Lu4  1  0.709534  0.085481  0.869409  1
  Lu  Lu5  1  0.709534  0.914519  0.369409  1
  Lu  Lu6  1  0.585466  0.790063  0.872276  1
  Lu  Lu7  1  0.585466  0.209937  0.372276  1
  Lu  Lu8  1  0.415477  0.789654  0.370441  1
  Lu  Lu9  1  0.415477  0.210346  0.870441  1
  Lu  Lu10  1  0.210445  0.414004  0.629333  1
  Lu  Lu11  1  0.210445  0.585996  0.129333  1
  Lu  Lu12  1  0.788797  0.414671  0.129921  1
  Lu  Lu13  1  0.788797  0.585329  0.629921  1
  Lu  Lu14  1  0.912568  0.709481  0.129060  1
  Lu  Lu15  1  0.912568  0.290519  0.629060  1
  Hf  Hf16  1  0.997679  0.001838  0.495678  1
  Hf  Hf17  1  0.997679  0.998162  0.995678  1
  Hf  Hf18  1  0.500730  0.499894  0.000216  1
  Hf  Hf19  1  0.500730  0.500106  0.500216  1
  Ir  Ir20  1  0.850139  0.144036  0.250784  1
  Ir  Ir21  1  0.850139  0.855964  0.750784  1
  Ir  Ir22  1  0.146377  0.143242  0.742645  1
  Ir  Ir23  1  0.146377  0.856758  0.242645  1
  Ir  Ir24  1  0.646268  0.354353  0.750162  1
  Ir  Ir25  1  0.646268  0.645647  0.250162  1
  Ir  Ir26  1  0.358094  0.354172  0.252781  1
  Ir  Ir27  1  0.358094  0.645828  0.752781  1
  Ir  Ir28  1  0.500834  0.000367  0.117420  1
  Ir  Ir29  1  0.500834  0.999633  0.617420  1
  Ir  Ir30  1  0.997648  0.499843  0.883594  1
  Ir  Ir31  1  0.997648  0.500157  0.383594  1
