# generated using pymatgen
data_Hf18CrRe7Au2
_symmetry_space_group_name_H-M   'P 1'
_cell_length_a   8.70149400
_cell_length_b   8.70149413
_cell_length_c   8.50472600
_cell_angle_alpha   90.00000000
_cell_angle_beta   90.00000000
_cell_angle_gamma   119.99999952
_symmetry_Int_Tables_number   1
_chemical_formula_structural   Hf18CrRe7Au2
_chemical_formula_sum   'Hf18 Cr1 Re7 Au2'
_cell_volume   557.67171347
_cell_formula_units_Z   1
loop_
 _symmetry_equiv_pos_site_id
 _symmetry_equiv_pos_as_xyz
  1  'x, y, z'
loop_
 _atom_site_type_symbol
 _atom_site_label
 _atom_site_symmetry_multiplicity
 _atom_site_fract_x
 _atom_site_fract_y
 _atom_site_fract_z
 _atom_site_occupancy
  Hf  Hf0  1  0.190560  0.809440  0.450122  1
  Hf  Hf1  1  0.190560  0.381121  0.450122  1
  Hf  Hf2  1  0.618879  0.809440  0.450122  1
  Hf  Hf3  1  0.809440  0.190560  0.549878  1
  Hf  Hf4  1  0.809440  0.618879  0.549878  1
  Hf  Hf5  1  0.381121  0.190560  0.549878  1
  Hf  Hf6  1  0.807933  0.192067  0.950662  1
  Hf  Hf7  1  0.807933  0.615866  0.950662  1
  Hf  Hf8  1  0.384134  0.192067  0.950662  1
  Hf  Hf9  1  0.192067  0.807933  0.049338  1
  Hf  Hf10  1  0.192067  0.384134  0.049338  1
  Hf  Hf11  1  0.615866  0.807933  0.049338  1
  Hf  Hf12  1  0.542001  0.457999  0.250676  1
  Hf  Hf13  1  0.542001  0.084002  0.250676  1
  Hf  Hf14  1  0.915998  0.457999  0.250676  1
  Hf  Hf15  1  0.457999  0.542001  0.749324  1
  Hf  Hf16  1  0.457999  0.915998  0.749324  1
  Hf  Hf17  1  0.084002  0.542001  0.749324  1
  Cr  Cr18  1  0.000000  0.000000  0.500000  1
  Re  Re19  1  0.891137  0.108863  0.253336  1
  Re  Re20  1  0.891137  0.782273  0.253336  1
  Re  Re21  1  0.217727  0.108863  0.253336  1
  Re  Re22  1  0.108863  0.891137  0.746664  1
  Re  Re23  1  0.108863  0.217727  0.746664  1
  Re  Re24  1  0.782273  0.891137  0.746664  1
  Re  Re25  1  0.000000  0.000000  0.000000  1
  Au  Au26  1  0.333333  0.666667  0.250478  1
  Au  Au27  1  0.666667  0.333333  0.749522  1
