# generated using pymatgen
data_Sm4Ga18(CoPd)3
_symmetry_space_group_name_H-M   'P 1'
_cell_length_a   7.56539436
_cell_length_b   7.56539427
_cell_length_c   9.56639086
_cell_angle_alpha   90.06381754
_cell_angle_beta   90.06381492
_cell_angle_gamma   119.60550799
_symmetry_Int_Tables_number   1
_chemical_formula_structural   Sm4Ga18(CoPd)3
_chemical_formula_sum   'Sm4 Ga18 Co3 Pd3'
_cell_volume   476.05105018
_cell_formula_units_Z   1
loop_
 _symmetry_equiv_pos_site_id
 _symmetry_equiv_pos_as_xyz
  1  'x, y, z'
loop_
 _atom_site_type_symbol
 _atom_site_label
 _atom_site_symmetry_multiplicity
 _atom_site_fract_x
 _atom_site_fract_y
 _atom_site_fract_z
 _atom_site_occupancy
  Sm  Sm0  1  0.497937  0.822131  0.250760  1
  Sm  Sm1  1  0.493119  0.171966  0.749993  1
  Sm  Sm2  1  0.177869  0.502063  0.749240  1
  Sm  Sm3  1  0.828034  0.506881  0.250007  1
  Ga  Ga4  1  0.165056  0.954219  0.240959  1
  Ga  Ga5  1  0.836687  0.057736  0.752600  1
  Ga  Ga6  1  0.045781  0.834944  0.759041  1
  Ga  Ga7  1  0.942264  0.163313  0.247400  1
  Ga  Ga8  1  0.640218  0.637645  0.751188  1
  Ga  Ga9  1  0.362355  0.359782  0.248812  1
  Ga  Ga10  1  0.153981  0.162139  0.565712  1
  Ga  Ga11  1  0.840070  0.842323  0.059096  1
  Ga  Ga12  1  0.837861  0.846019  0.434288  1
  Ga  Ga13  1  0.157677  0.159930  0.940904  1
  Ga  Ga14  1  0.515415  0.846875  0.577290  1
  Ga  Ga15  1  0.503655  0.157084  0.072396  1
  Ga  Ga16  1  0.153125  0.484585  0.422710  1
  Ga  Ga17  1  0.842916  0.496345  0.927604  1
  Ga  Ga18  1  0.511491  0.164417  0.423335  1
  Ga  Ga19  1  0.499544  0.844398  0.927256  1
  Ga  Ga20  1  0.835583  0.488509  0.576665  1
  Ga  Ga21  1  0.155602  0.500456  0.072744  1
  Co  Co22  1  0.829772  0.170228  0.000000  1
  Co  Co23  1  0.831371  0.168629  0.500000  1
  Co  Co24  1  0.170544  0.829456  0.000000  1
  Pd  Pd25  1  0.500762  0.499238  0.500000  1
  Pd  Pd26  1  0.499729  0.500271  0.000000  1
  Pd  Pd27  1  0.171582  0.828418  0.500000  1
