# generated using pymatgen
data_Cs4Rb2LuInAs4
_symmetry_space_group_name_H-M   'P 1'
_cell_length_a   9.90149333
_cell_length_b   9.90149317
_cell_length_c   9.90149377
_cell_angle_alpha   130.51669958
_cell_angle_beta   137.76000158
_cell_angle_gamma   67.04518366
_symmetry_Int_Tables_number   1
_chemical_formula_structural   Cs4Rb2LuInAs4
_chemical_formula_sum   'Cs4 Rb2 Lu1 In1 As4'
_cell_volume   488.16932609
_cell_formula_units_Z   1
loop_
 _symmetry_equiv_pos_site_id
 _symmetry_equiv_pos_as_xyz
  1  'x, y, z'
loop_
 _atom_site_type_symbol
 _atom_site_label
 _atom_site_symmetry_multiplicity
 _atom_site_fract_x
 _atom_site_fract_y
 _atom_site_fract_z
 _atom_site_occupancy
  Cs  Cs0  1  0.690256  0.465672  0.792123  1
  Cs  Cs1  1  0.809744  0.101867  0.275416  1
  Cs  Cs2  1  0.173549  0.898133  0.707877  1
  Cs  Cs3  1  0.326451  0.534328  0.224584  1
  Rb  Rb4  1  0.750000  0.000000  0.750000  1
  Rb  Rb5  1  0.250000  0.000000  0.250000  1
  Lu  Lu6  1  0.250000  0.500000  0.750000  1
  In  In7  1  0.750000  0.500000  0.250000  1
  As  As8  1  0.408968  0.222399  0.815984  1
  As  As9  1  0.593585  0.777601  0.186570  1
  As  As10  1  0.091032  0.407016  0.313430  1
  As  As11  1  0.906415  0.592984  0.684016  1
