# generated using pymatgen
data_Pr3AlIn2Pt3
_symmetry_space_group_name_H-M   'P 1'
_cell_length_a   7.62413700
_cell_length_b   7.72060093
_cell_length_c   4.08051600
_cell_angle_alpha   90.00000000
_cell_angle_beta   90.00000000
_cell_angle_gamma   119.58754788
_symmetry_Int_Tables_number   1
_chemical_formula_structural   Pr3AlIn2Pt3
_chemical_formula_sum   'Pr3 Al1 In2 Pt3'
_cell_volume   208.87070864
_cell_formula_units_Z   1
loop_
 _symmetry_equiv_pos_site_id
 _symmetry_equiv_pos_as_xyz
  1  'x, y, z'
loop_
 _atom_site_type_symbol
 _atom_site_label
 _atom_site_symmetry_multiplicity
 _atom_site_fract_x
 _atom_site_fract_y
 _atom_site_fract_z
 _atom_site_occupancy
  Pr  Pr0  1  0.580527  0.000000  0.000000  1
  Pr  Pr1  1  0.001305  0.590339  0.000000  1
  Pr  Pr2  1  0.410966  0.409661  0.000000  1
  Al  Al3  1  0.242367  0.000000  0.500000  1
  In  In4  1  0.998637  0.245388  0.500000  1
  In  In5  1  0.753249  0.754612  0.500000  1
  Pt  Pt6  1  0.329902  0.679961  0.500000  1
  Pt  Pt7  1  0.649942  0.320039  0.500000  1
  Pt  Pt8  1  0.033104  0.000000  0.000000  1
