# generated using pymatgen
data_Pa2Mn5CoP4
_symmetry_space_group_name_H-M   'P 1'
_cell_length_a   3.76938100
_cell_length_b   10.56605500
_cell_length_c   12.42313000
_cell_angle_alpha   90.00000000
_cell_angle_beta   90.00000000
_cell_angle_gamma   90.00000000
_symmetry_Int_Tables_number   1
_chemical_formula_structural   Pa2Mn5CoP4
_chemical_formula_sum   'Pa6 Mn15 Co3 P12'
_cell_volume   494.78204810
_cell_formula_units_Z   3
loop_
 _symmetry_equiv_pos_site_id
 _symmetry_equiv_pos_as_xyz
  1  'x, y, z'
loop_
 _atom_site_type_symbol
 _atom_site_label
 _atom_site_symmetry_multiplicity
 _atom_site_fract_x
 _atom_site_fract_y
 _atom_site_fract_z
 _atom_site_occupancy
  Pa  Pa0  1  0.000000  0.500000  0.526122  1
  Pa  Pa1  1  0.500000  0.000000  0.472166  1
  Pa  Pa2  1  0.500000  0.818319  0.209070  1
  Pa  Pa3  1  0.500000  0.181681  0.209070  1
  Pa  Pa4  1  0.000000  0.680965  0.791005  1
  Pa  Pa5  1  0.000000  0.319035  0.791005  1
  Mn  Mn6  1  0.500000  0.500000  0.157113  1
  Mn  Mn7  1  0.000000  0.000000  0.843380  1
  Mn  Mn8  1  0.000000  0.500000  0.985252  1
  Mn  Mn9  1  0.500000  0.332637  0.996015  1
  Mn  Mn10  1  0.500000  0.667363  0.996015  1
  Mn  Mn11  1  0.000000  0.174094  0.004464  1
  Mn  Mn12  1  0.000000  0.825906  0.004464  1
  Mn  Mn13  1  0.500000  0.299730  0.428763  1
  Mn  Mn14  1  0.500000  0.700270  0.428763  1
  Mn  Mn15  1  0.000000  0.199108  0.570974  1
  Mn  Mn16  1  0.000000  0.800892  0.570974  1
  Mn  Mn17  1  0.500000  0.884331  0.708225  1
  Mn  Mn18  1  0.500000  0.115669  0.708225  1
  Mn  Mn19  1  0.000000  0.619185  0.296279  1
  Mn  Mn20  1  0.000000  0.380815  0.296279  1
  Co  Co21  1  0.500000  0.500000  0.700268  1
  Co  Co22  1  0.000000  0.000000  0.294600  1
  Co  Co23  1  0.500000  0.000000  0.013918  1
  P  P24  1  0.500000  0.500000  0.879232  1
  P  P25  1  0.000000  0.000000  0.114936  1
  P  P26  1  0.500000  0.500000  0.345337  1
  P  P27  1  0.000000  0.000000  0.649624  1
  P  P28  1  0.500000  0.310413  0.613292  1
  P  P29  1  0.500000  0.689587  0.613292  1
  P  P30  1  0.000000  0.187051  0.386490  1
  P  P31  1  0.000000  0.812949  0.386490  1
  P  P32  1  0.500000  0.848859  0.890004  1
  P  P33  1  0.500000  0.151141  0.890004  1
  P  P34  1  0.000000  0.645977  0.114444  1
  P  P35  1  0.000000  0.354023  0.114444  1
