# generated using pymatgen
data_Ho3Al7CuPd
_symmetry_space_group_name_H-M   'P 1'
_cell_length_a   9.11472579
_cell_length_b   9.11472665
_cell_length_c   9.11472635
_cell_angle_alpha   35.10742355
_cell_angle_beta   35.10741473
_cell_angle_gamma   35.10741808
_symmetry_Int_Tables_number   1
_chemical_formula_structural   Ho3Al7CuPd
_chemical_formula_sum   'Ho3 Al7 Cu1 Pd1'
_cell_volume   223.67001223
_cell_formula_units_Z   1
loop_
 _symmetry_equiv_pos_site_id
 _symmetry_equiv_pos_as_xyz
  1  'x, y, z'
loop_
 _atom_site_type_symbol
 _atom_site_label
 _atom_site_symmetry_multiplicity
 _atom_site_fract_x
 _atom_site_fract_y
 _atom_site_fract_z
 _atom_site_occupancy
  Ho  Ho0  1  0.999623  0.999623  0.999623  1
  Ho  Ho1  1  0.857586  0.857586  0.857586  1
  Ho  Ho2  1  0.142646  0.142646  0.142646  1
  Al  Al3  1  0.416663  0.416663  0.928008  1
  Al  Al4  1  0.928008  0.416663  0.416663  1
  Al  Al5  1  0.416663  0.928008  0.416663  1
  Al  Al6  1  0.500025  0.500025  0.500025  1
  Al  Al7  1  0.581421  0.076052  0.581421  1
  Al  Al8  1  0.076052  0.581421  0.581421  1
  Al  Al9  1  0.581421  0.581421  0.076052  1
  Cu  Cu10  1  0.335318  0.335318  0.335318  1
  Pd  Pd11  1  0.664574  0.664574  0.664574  1
