# generated using pymatgen
data_Tm2LuZr(Al3Rh)6
_symmetry_space_group_name_H-M   'P 1'
_cell_length_a   7.52061507
_cell_length_b   7.51019917
_cell_length_c   9.37061000
_cell_angle_alpha   90.00000000
_cell_angle_beta   90.00000000
_cell_angle_gamma   119.46704250
_symmetry_Int_Tables_number   1
_chemical_formula_structural   Tm2LuZr(Al3Rh)6
_chemical_formula_sum   'Tm2 Lu1 Zr1 Al18 Rh6'
_cell_volume   460.79811807
_cell_formula_units_Z   1
loop_
 _symmetry_equiv_pos_site_id
 _symmetry_equiv_pos_as_xyz
  1  'x, y, z'
loop_
 _atom_site_type_symbol
 _atom_site_label
 _atom_site_symmetry_multiplicity
 _atom_site_fract_x
 _atom_site_fract_y
 _atom_site_fract_z
 _atom_site_occupancy
  Tm  Tm0  1  0.006648  0.325830  0.750000  1
  Tm  Tm1  1  0.327017  0.007174  0.750000  1
  Lu  Lu2  1  0.672968  0.996090  0.250000  1
  Zr  Zr3  1  0.996155  0.672141  0.250000  1
  Al  Al4  1  0.124516  0.122389  0.250000  1
  Al  Al5  1  0.870495  0.869683  0.750000  1
  Al  Al6  1  0.999569  0.337997  0.079860  1
  Al  Al7  1  0.000122  0.664175  0.925856  1
  Al  Al8  1  0.000122  0.664175  0.574144  1
  Al  Al9  1  0.333350  0.997716  0.420034  1
  Al  Al10  1  0.999569  0.337997  0.420140  1
  Al  Al11  1  0.663690  0.999165  0.576717  1
  Al  Al12  1  0.663690  0.999165  0.923283  1
  Al  Al13  1  0.333350  0.997716  0.079966  1
  Al  Al14  1  0.333526  0.333549  0.549662  1
  Al  Al15  1  0.669938  0.668368  0.443809  1
  Al  Al16  1  0.669938  0.668368  0.056191  1
  Al  Al17  1  0.333526  0.333549  0.950338  1
  Al  Al18  1  0.337303  0.552680  0.250000  1
  Al  Al19  1  0.659968  0.449006  0.750000  1
  Al  Al20  1  0.557020  0.343888  0.250000  1
  Al  Al21  1  0.447480  0.658457  0.750000  1
  Rh  Rh22  1  0.672937  0.327760  0.000930  1
  Rh  Rh23  1  0.327781  0.673043  0.001695  1
  Rh  Rh24  1  0.327781  0.673043  0.498305  1
  Rh  Rh25  1  0.672937  0.327760  0.499070  1
  Rh  Rh26  1  0.999301  0.999557  0.000779  1
  Rh  Rh27  1  0.999301  0.999557  0.499221  1
