# generated using pymatgen
data_Y4Sc4Cr(B8Os)3
_symmetry_space_group_name_H-M   'P 1'
_cell_length_a   3.54721500
_cell_length_b   8.99258907
_cell_length_c   11.38911512
_cell_angle_alpha   89.99884099
_cell_angle_beta   90.00000000
_cell_angle_gamma   90.00000000
_symmetry_Int_Tables_number   1
_chemical_formula_structural   Y4Sc4Cr(B8Os)3
_chemical_formula_sum   'Y4 Sc4 Cr1 B24 Os3'
_cell_volume   363.29736083
_cell_formula_units_Z   1
loop_
 _symmetry_equiv_pos_site_id
 _symmetry_equiv_pos_as_xyz
  1  'x, y, z'
loop_
 _atom_site_type_symbol
 _atom_site_label
 _atom_site_symmetry_multiplicity
 _atom_site_fract_x
 _atom_site_fract_y
 _atom_site_fract_z
 _atom_site_occupancy
  Y  Y0  1  0.000000  0.819606  0.084954  1
  Y  Y1  1  0.000000  0.181932  0.911823  1
  Y  Y2  1  0.000000  0.320315  0.416634  1
  Y  Y3  1  0.000000  0.677669  0.587359  1
  Sc  Sc4  1  0.000000  0.444539  0.127093  1
  Sc  Sc5  1  0.000000  0.553569  0.871291  1
  Sc  Sc6  1  0.000000  0.943928  0.373197  1
  Sc  Sc7  1  0.000000  0.057678  0.627498  1
  Cr  Cr8  1  0.000000  0.360103  0.681564  1
  B  B9  1  0.500000  0.054628  0.066916  1
  B  B10  1  0.500000  0.945587  0.932384  1
  B  B11  1  0.500000  0.554322  0.433190  1
  B  B12  1  0.500000  0.445693  0.568055  1
  B  B13  1  0.500000  0.253059  0.081064  1
  B  B14  1  0.500000  0.746336  0.918143  1
  B  B15  1  0.500000  0.752453  0.419105  1
  B  B16  1  0.500000  0.247757  0.582047  1
  B  B17  1  0.500000  0.293463  0.234790  1
  B  B18  1  0.500000  0.705915  0.765441  1
  B  B19  1  0.500000  0.793588  0.265688  1
  B  B20  1  0.500000  0.206881  0.734033  1
  B  B21  1  0.500000  0.128726  0.317163  1
  B  B22  1  0.500000  0.871638  0.683611  1
  B  B23  1  0.500000  0.628463  0.183018  1
  B  B24  1  0.500000  0.371618  0.815732  1
  B  B25  1  0.500000  0.481384  0.285969  1
  B  B26  1  0.500000  0.518309  0.713995  1
  B  B27  1  0.500000  0.981349  0.214213  1
  B  B28  1  0.500000  0.019325  0.785392  1
  B  B29  1  0.500000  0.098362  0.473247  1
  B  B30  1  0.500000  0.901520  0.527120  1
  B  B31  1  0.500000  0.598172  0.026674  1
  B  B32  1  0.500000  0.401547  0.973053  1
  Os  Os33  1  0.000000  0.139711  0.181550  1
  Os  Os34  1  0.000000  0.860307  0.819132  1
  Os  Os35  1  0.000000  0.640547  0.317864  1
