# generated using pymatgen
data_Er5ThHg10
_symmetry_space_group_name_H-M   'P 1'
_cell_length_a   6.35308557
_cell_length_b   6.35308476
_cell_length_c   10.26423898
_cell_angle_alpha   90.60285803
_cell_angle_beta   90.60285813
_cell_angle_gamma   104.87249169
_symmetry_Int_Tables_number   1
_chemical_formula_structural   Er5ThHg10
_chemical_formula_sum   'Er5 Th1 Hg10'
_cell_volume   400.34371799
_cell_formula_units_Z   1
loop_
 _symmetry_equiv_pos_site_id
 _symmetry_equiv_pos_as_xyz
  1  'x, y, z'
loop_
 _atom_site_type_symbol
 _atom_site_label
 _atom_site_symmetry_multiplicity
 _atom_site_fract_x
 _atom_site_fract_y
 _atom_site_fract_z
 _atom_site_occupancy
  Er  Er0  1  0.592438  0.588599  0.249517  1
  Er  Er1  1  0.411401  0.407562  0.750483  1
  Er  Er2  1  0.213664  0.786336  0.000000  1
  Er  Er3  1  0.792312  0.207688  0.500000  1
  Er  Er4  1  0.783459  0.216541  0.000000  1
  Th  Th5  1  0.206205  0.793795  0.500000  1
  Hg  Hg6  1  0.986670  0.987759  0.243930  1
  Hg  Hg7  1  0.012241  0.013330  0.756070  1
  Hg  Hg8  1  0.298194  0.298513  0.030815  1
  Hg  Hg9  1  0.701487  0.701806  0.969185  1
  Hg  Hg10  1  0.303505  0.305798  0.464541  1
  Hg  Hg11  1  0.694202  0.696495  0.535459  1
  Hg  Hg12  1  0.494342  0.053169  0.246678  1
  Hg  Hg13  1  0.946831  0.505658  0.753322  1
  Hg  Hg14  1  0.514574  0.951526  0.755645  1
  Hg  Hg15  1  0.048474  0.485426  0.244355  1
