# generated using pymatgen
data_Dy19HoIr5Rh7
_symmetry_space_group_name_H-M   'P 1'
_cell_length_a   10.88243111
_cell_length_b   10.88225921
_cell_length_c   6.37330700
_cell_angle_alpha   89.99177348
_cell_angle_beta   89.99183195
_cell_angle_gamma   90.05783032
_symmetry_Int_Tables_number   1
_chemical_formula_structural   Dy19HoIr5Rh7
_chemical_formula_sum   'Dy19 Ho1 Ir5 Rh7'
_cell_volume   754.76126151
_cell_formula_units_Z   1
loop_
 _symmetry_equiv_pos_site_id
 _symmetry_equiv_pos_as_xyz
  1  'x, y, z'
loop_
 _atom_site_type_symbol
 _atom_site_label
 _atom_site_symmetry_multiplicity
 _atom_site_fract_x
 _atom_site_fract_y
 _atom_site_fract_z
 _atom_site_occupancy
  Dy  Dy0  1  0.290774  0.088270  0.377954  1
  Dy  Dy1  1  0.290720  0.909881  0.879321  1
  Dy  Dy2  1  0.708678  0.089736  0.878744  1
  Dy  Dy3  1  0.708493  0.910179  0.378118  1
  Dy  Dy4  1  0.587590  0.789960  0.879238  1
  Dy  Dy5  1  0.587399  0.210021  0.379105  1
  Dy  Dy6  1  0.410973  0.790228  0.379211  1
  Dy  Dy7  1  0.412312  0.209879  0.878951  1
  Dy  Dy8  1  0.210108  0.412413  0.620713  1
  Dy  Dy9  1  0.209703  0.589035  0.120842  1
  Dy  Dy10  1  0.790048  0.412597  0.120946  1
  Dy  Dy11  1  0.790050  0.587688  0.621005  1
  Dy  Dy12  1  0.911755  0.709228  0.122028  1
  Dy  Dy13  1  0.910233  0.291320  0.621272  1
  Dy  Dy14  1  0.090143  0.709282  0.620693  1
  Dy  Dy15  1  0.089794  0.291514  0.121852  1
  Dy  Dy16  1  0.000053  0.999798  0.500143  1
  Dy  Dy17  1  0.000202  0.999949  0.999855  1
  Dy  Dy18  1  0.499915  0.499774  0.000125  1
  Ho  Ho19  1  0.500216  0.500092  0.499884  1
  Ir  Ir20  1  0.153358  0.846630  0.249989  1
  Ir  Ir21  1  0.654511  0.345491  0.749791  1
  Ir  Ir22  1  0.654678  0.654362  0.250016  1
  Ir  Ir23  1  0.345639  0.345322  0.250414  1
  Ir  Ir24  1  0.346140  0.653861  0.749785  1
  Rh  Rh25  1  0.846608  0.153403  0.249995  1
  Rh  Rh26  1  0.845900  0.846539  0.749868  1
  Rh  Rh27  1  0.153466  0.154089  0.750143  1
  Rh  Rh28  1  0.500589  0.000247  0.122178  1
  Rh  Rh29  1  0.500427  0.000227  0.622732  1
  Rh  Rh30  1  0.999770  0.499575  0.877266  1
  Rh  Rh31  1  0.999753  0.499412  0.377824  1
