# generated using pymatgen
data_La12Tc3Rh
_symmetry_space_group_name_H-M   'P 1'
_cell_length_a   6.70232320
_cell_length_b   7.41966806
_cell_length_c   10.07571900
_cell_angle_alpha   90.00000000
_cell_angle_beta   90.00000000
_cell_angle_gamma   90.13736882
_symmetry_Int_Tables_number   1
_chemical_formula_structural   La12Tc3Rh
_chemical_formula_sum   'La12 Tc3 Rh1'
_cell_volume   501.05412481
_cell_formula_units_Z   1
loop_
 _symmetry_equiv_pos_site_id
 _symmetry_equiv_pos_as_xyz
  1  'x, y, z'
loop_
 _atom_site_type_symbol
 _atom_site_label
 _atom_site_symmetry_multiplicity
 _atom_site_fract_x
 _atom_site_fract_y
 _atom_site_fract_z
 _atom_site_occupancy
  La  La0  1  0.325288  0.664839  0.069311  1
  La  La1  1  0.171061  0.167513  0.433233  1
  La  La2  1  0.671479  0.331997  0.565785  1
  La  La3  1  0.833041  0.835147  0.933004  1
  La  La4  1  0.671479  0.331997  0.934215  1
  La  La5  1  0.833041  0.835147  0.566996  1
  La  La6  1  0.325288  0.664839  0.430689  1
  La  La7  1  0.171061  0.167513  0.066767  1
  La  La8  1  0.862207  0.561321  0.250000  1
  La  La9  1  0.635174  0.060576  0.250000  1
  La  La10  1  0.139992  0.439181  0.750000  1
  La  La11  1  0.354457  0.945756  0.750000  1
  Tc  Tc12  1  0.037861  0.869341  0.250000  1
  Tc  Tc13  1  0.457319  0.373156  0.250000  1
  Tc  Tc14  1  0.958268  0.128981  0.750000  1
  Rh  Rh15  1  0.552986  0.622696  0.750000  1
