# generated using pymatgen
data_Nd16Cd2Hg2RuPt3
_symmetry_space_group_name_H-M   'P 1'
_cell_length_a   10.00622141
_cell_length_b   10.00622208
_cell_length_c   10.02230007
_cell_angle_alpha   59.72634784
_cell_angle_beta   59.72634808
_cell_angle_gamma   59.76627483
_symmetry_Int_Tables_number   1
_chemical_formula_structural   Nd16Cd2Hg2RuPt3
_chemical_formula_sum   'Nd16 Cd2 Hg2 Ru1 Pt3'
_cell_volume   705.37041991
_cell_formula_units_Z   1
loop_
 _symmetry_equiv_pos_site_id
 _symmetry_equiv_pos_as_xyz
  1  'x, y, z'
loop_
 _atom_site_type_symbol
 _atom_site_label
 _atom_site_symmetry_multiplicity
 _atom_site_fract_x
 _atom_site_fract_y
 _atom_site_fract_z
 _atom_site_occupancy
  Nd  Nd0  1  0.351567  0.351567  0.351159  1
  Nd  Nd1  1  0.348227  0.348227  0.950654  1
  Nd  Nd2  1  0.348898  0.948858  0.348574  1
  Nd  Nd3  1  0.948858  0.348898  0.348574  1
  Nd  Nd4  1  0.816045  0.188867  0.189723  1
  Nd  Nd5  1  0.189074  0.808510  0.808556  1
  Nd  Nd6  1  0.188867  0.816045  0.189723  1
  Nd  Nd7  1  0.808510  0.189074  0.808556  1
  Nd  Nd8  1  0.188778  0.188778  0.816559  1
  Nd  Nd9  1  0.807566  0.807566  0.190178  1
  Nd  Nd10  1  0.936902  0.563265  0.563946  1
  Nd  Nd11  1  0.558888  0.936678  0.937949  1
  Nd  Nd12  1  0.563265  0.936902  0.563946  1
  Nd  Nd13  1  0.936678  0.558888  0.937949  1
  Nd  Nd14  1  0.563126  0.563126  0.938333  1
  Nd  Nd15  1  0.936832  0.936832  0.559559  1
  Cd  Cd16  1  0.579604  0.258600  0.580498  1
  Cd  Cd17  1  0.258600  0.579604  0.580498  1
  Hg  Hg18  1  0.582749  0.582749  0.584888  1
  Hg  Hg19  1  0.583552  0.583552  0.246592  1
  Ru  Ru20  1  0.142677  0.142677  0.142783  1
  Pt  Pt21  1  0.144472  0.144472  0.571595  1
  Pt  Pt22  1  0.144393  0.571871  0.144603  1
  Pt  Pt23  1  0.571871  0.144393  0.144603  1
