# generated using pymatgen
data_Sc2UTc3
_symmetry_space_group_name_H-M   'P 1'
_cell_length_a   5.57658800
_cell_length_b   5.57658861
_cell_length_c   8.14661500
_cell_angle_alpha   90.00000000
_cell_angle_beta   90.00000000
_cell_angle_gamma   120.00000825
_symmetry_Int_Tables_number   1
_chemical_formula_structural   Sc2UTc3
_chemical_formula_sum   'Sc4 U2 Tc6'
_cell_volume   219.40420926
_cell_formula_units_Z   2
loop_
 _symmetry_equiv_pos_site_id
 _symmetry_equiv_pos_as_xyz
  1  'x, y, z'
loop_
 _atom_site_type_symbol
 _atom_site_label
 _atom_site_symmetry_multiplicity
 _atom_site_fract_x
 _atom_site_fract_y
 _atom_site_fract_z
 _atom_site_occupancy
  Sc  Sc0  1  0.333333  0.666667  0.440014  1
  Sc  Sc1  1  0.666667  0.333333  0.559986  1
  Sc  Sc2  1  0.666667  0.333333  0.940014  1
  Sc  Sc3  1  0.333333  0.666667  0.059986  1
  U  U4  1  0.000000  0.000000  0.500000  1
  U  U5  1  0.000000  0.000000  0.000000  1
  Tc  Tc6  1  0.832130  0.167870  0.250000  1
  Tc  Tc7  1  0.832130  0.664261  0.250000  1
  Tc  Tc8  1  0.335739  0.167870  0.250000  1
  Tc  Tc9  1  0.167870  0.832130  0.750000  1
  Tc  Tc10  1  0.167870  0.335739  0.750000  1
  Tc  Tc11  1  0.664261  0.832130  0.750000  1
