# generated using pymatgen
data_Ho7Ir4PbO24
_symmetry_space_group_name_H-M   'P 1'
_cell_length_a   5.31049418
_cell_length_b   9.18850808
_cell_length_c   9.91116500
_cell_angle_alpha   90.55758289
_cell_angle_beta   89.94803939
_cell_angle_gamma   89.68424124
_symmetry_Int_Tables_number   1
_chemical_formula_structural   Ho7Ir4PbO24
_chemical_formula_sum   'Ho7 Ir4 Pb1 O24'
_cell_volume   483.58997011
_cell_formula_units_Z   1
loop_
 _symmetry_equiv_pos_site_id
 _symmetry_equiv_pos_as_xyz
  1  'x, y, z'
loop_
 _atom_site_type_symbol
 _atom_site_label
 _atom_site_symmetry_multiplicity
 _atom_site_fract_x
 _atom_site_fract_y
 _atom_site_fract_z
 _atom_site_occupancy
  Ho  Ho0  1  0.512285  0.103601  0.968153  1
  Ho  Ho1  1  0.017552  0.395905  0.035208  1
  Ho  Ho2  1  0.477874  0.601007  0.534005  1
  Ho  Ho3  1  0.986872  0.902334  0.462497  1
  Ho  Ho4  1  0.541279  0.219620  0.369318  1
  Ho  Ho5  1  0.044817  0.283114  0.629251  1
  Ho  Ho6  1  0.455925  0.716643  0.132872  1
  Ir  Ir7  1  0.466370  0.997284  0.646571  1
  Ir  Ir8  1  0.956966  0.503864  0.352177  1
  Ir  Ir9  1  0.542739  0.494833  0.853161  1
  Ir  Ir10  1  0.037078  0.004029  0.147382  1
  Pb  Pb11  1  0.970044  0.781495  0.859617  1
  O  O12  1  0.325163  0.135658  0.182452  1
  O  O13  1  0.829280  0.365545  0.819101  1
  O  O14  1  0.666398  0.631871  0.318616  1
  O  O15  1  0.184644  0.862214  0.671429  1
  O  O16  1  0.738024  0.116622  0.569116  1
  O  O17  1  0.235764  0.386187  0.430811  1
  O  O18  1  0.267405  0.610670  0.936348  1
  O  O19  1  0.757054  0.889228  0.077278  1
  O  O20  1  0.679082  0.640388  0.737593  1
  O  O21  1  0.185844  0.857266  0.262491  1
  O  O22  1  0.307000  0.140102  0.763701  1
  O  O23  1  0.812192  0.356254  0.236277  1
  O  O24  1  0.666073  0.953259  0.800799  1
  O  O25  1  0.163050  0.552877  0.201082  1
  O  O26  1  0.332970  0.445479  0.700398  1
  O  O27  1  0.841832  0.060106  0.302459  1
  O  O28  1  0.258287  0.090321  0.502295  1
  O  O29  1  0.753542  0.412605  0.498649  1
  O  O30  1  0.740638  0.581341  0.001367  1
  O  O31  1  0.245093  0.911870  0.003839  1
  O  O32  1  0.085614  0.658345  0.469106  1
  O  O33  1  0.598562  0.842415  0.528603  1
  O  O34  1  0.909832  0.155871  0.028070  1
  O  O35  1  0.406856  0.339778  0.967907  1
