# generated using pymatgen
data_DyPaSnPt2
_symmetry_space_group_name_H-M   'P 1'
_cell_length_a   7.80605400
_cell_length_b   7.78874500
_cell_length_c   3.68123300
_cell_angle_alpha   90.00000000
_cell_angle_beta   90.00000000
_cell_angle_gamma   90.00000000
_symmetry_Int_Tables_number   1
_chemical_formula_structural   DyPaSnPt2
_chemical_formula_sum   'Dy2 Pa2 Sn2 Pt4'
_cell_volume   223.81662536
_cell_formula_units_Z   2
loop_
 _symmetry_equiv_pos_site_id
 _symmetry_equiv_pos_as_xyz
  1  'x, y, z'
loop_
 _atom_site_type_symbol
 _atom_site_label
 _atom_site_symmetry_multiplicity
 _atom_site_fract_x
 _atom_site_fract_y
 _atom_site_fract_z
 _atom_site_occupancy
  Dy  Dy0  1  0.173841  0.673837  0.500001  1
  Dy  Dy1  1  0.673841  0.826163  0.500001  1
  Pa  Pa2  1  0.329966  0.169536  0.500001  1
  Pa  Pa3  1  0.829966  0.330464  0.500001  1
  Sn  Sn4  1  0.996481  0.989943  0.000000  1
  Sn  Sn5  1  0.496481  0.510057  0.000000  1
  Pt  Pt6  1  0.629987  0.141224  0.000000  1
  Pt  Pt7  1  0.129987  0.358776  0.000000  1
  Pt  Pt8  1  0.869724  0.615034  0.000000  1
  Pt  Pt9  1  0.369724  0.884966  0.000000  1
