# generated using pymatgen
data_Sc12FeCo3BiOs
_symmetry_space_group_name_H-M   'P 1'
_cell_length_a   7.75813796
_cell_length_b   7.75707958
_cell_length_c   7.75813634
_cell_angle_alpha   111.06542363
_cell_angle_beta   111.88634876
_cell_angle_gamma   105.53846499
_symmetry_Int_Tables_number   1
_chemical_formula_structural   Sc12FeCo3BiOs
_chemical_formula_sum   'Sc12 Fe1 Co3 Bi1 Os1'
_cell_volume   358.10823925
_cell_formula_units_Z   1
loop_
 _symmetry_equiv_pos_site_id
 _symmetry_equiv_pos_as_xyz
  1  'x, y, z'
loop_
 _atom_site_type_symbol
 _atom_site_label
 _atom_site_symmetry_multiplicity
 _atom_site_fract_x
 _atom_site_fract_y
 _atom_site_fract_z
 _atom_site_occupancy
  Sc  Sc0  1  0.271045  0.183593  0.454733  1
  Sc  Sc1  1  0.727148  0.815888  0.543136  1
  Sc  Sc2  1  0.272753  0.815888  0.088739  1
  Sc  Sc3  1  0.728859  0.183593  0.912548  1
  Sc  Sc4  1  0.613648  0.306138  0.302808  1
  Sc  Sc5  1  0.386307  0.689280  0.692302  1
  Sc  Sc6  1  0.003330  0.306138  0.692490  1
  Sc  Sc7  1  0.996979  0.689280  0.302974  1
  Sc  Sc8  1  0.220546  0.422278  0.201734  1
  Sc  Sc9  1  0.779349  0.577529  0.798177  1
  Sc  Sc10  1  0.220600  0.018725  0.798125  1
  Sc  Sc11  1  0.779476  0.981165  0.201689  1
  Fe  Fe12  1  0.000219  0.379329  0.379110  1
  Co  Co13  1  0.999980  0.635229  0.635250  1
  Co  Co14  1  0.383869  0.882444  0.498575  1
  Co  Co15  1  0.615912  0.114480  0.498568  1
  Bi  Bi16  1  0.499988  0.499126  0.999138  1
  Os  Os17  1  0.999992  0.999899  0.999906  1
