# generated using pymatgen
data_Li2Tb3Tl4
_symmetry_space_group_name_H-M   'P 1'
_cell_length_a   7.38911018
_cell_length_b   7.38910700
_cell_length_c   4.73765400
_cell_angle_alpha   90.00000000
_cell_angle_beta   90.00000000
_cell_angle_gamma   118.72351595
_symmetry_Int_Tables_number   1
_chemical_formula_structural   Li2Tb3Tl4
_chemical_formula_sum   'Li2 Tb3 Tl4'
_cell_volume   226.84111384
_cell_formula_units_Z   1
loop_
 _symmetry_equiv_pos_site_id
 _symmetry_equiv_pos_as_xyz
  1  'x, y, z'
loop_
 _atom_site_type_symbol
 _atom_site_label
 _atom_site_symmetry_multiplicity
 _atom_site_fract_x
 _atom_site_fract_y
 _atom_site_fract_z
 _atom_site_occupancy
  Li  Li0  1  0.231244  0.000769  0.500000  1
  Li  Li1  1  0.000769  0.231244  0.500000  1
  Tb  Tb2  1  0.562504  0.993214  0.000000  1
  Tb  Tb3  1  0.993214  0.562504  0.000000  1
  Tb  Tb4  1  0.444645  0.444645  0.000000  1
  Tl  Tl5  1  0.766589  0.766589  0.500000  1
  Tl  Tl6  1  0.308353  0.659351  0.500000  1
  Tl  Tl7  1  0.659351  0.308353  0.500000  1
  Tl  Tl8  1  0.033331  0.033331  0.000000  1
