# generated using pymatgen
data_Sm8Sc11Si16Mo
_symmetry_space_group_name_H-M   'P 1'
_cell_length_a   7.16701847
_cell_length_b   7.41301450
_cell_length_c   14.03813861
_cell_angle_alpha   90.17448850
_cell_angle_beta   89.79192986
_cell_angle_gamma   89.67543315
_symmetry_Int_Tables_number   1
_chemical_formula_structural   Sm8Sc11Si16Mo
_chemical_formula_sum   'Sm8 Sc11 Si16 Mo1'
_cell_volume   745.81484969
_cell_formula_units_Z   1
loop_
 _symmetry_equiv_pos_site_id
 _symmetry_equiv_pos_as_xyz
  1  'x, y, z'
loop_
 _atom_site_type_symbol
 _atom_site_label
 _atom_site_symmetry_multiplicity
 _atom_site_fract_x
 _atom_site_fract_y
 _atom_site_fract_z
 _atom_site_occupancy
  Sm  Sm0  1  0.012268  0.172549  0.097342  1
  Sm  Sm1  1  0.988350  0.827222  0.898787  1
  Sm  Sm2  1  0.486357  0.675305  0.899068  1
  Sm  Sm3  1  0.992579  0.831090  0.595958  1
  Sm  Sm4  1  0.513704  0.325023  0.097212  1
  Sm  Sm5  1  0.011876  0.173690  0.403120  1
  Sm  Sm6  1  0.508034  0.326416  0.408810  1
  Sm  Sm7  1  0.486059  0.675053  0.597022  1
  Sc  Sc8  1  0.162764  0.491525  0.744794  1
  Sc  Sc9  1  0.838334  0.498577  0.251754  1
  Sc  Sc10  1  0.338577  0.001288  0.251556  1
  Sc  Sc11  1  0.656362  0.003162  0.747148  1
  Sc  Sc12  1  0.667106  0.826009  0.378453  1
  Sc  Sc13  1  0.169314  0.676973  0.377493  1
  Sc  Sc14  1  0.670146  0.824286  0.124630  1
  Sc  Sc15  1  0.831438  0.324723  0.624226  1
  Sc  Sc16  1  0.331929  0.177167  0.875381  1
  Sc  Sc17  1  0.828776  0.322867  0.871357  1
  Sc  Sc18  1  0.171013  0.676071  0.125769  1
  Si  Si19  1  0.043140  0.124431  0.745131  1
  Si  Si20  1  0.964422  0.880564  0.251358  1
  Si  Si21  1  0.467001  0.622197  0.250757  1
  Si  Si22  1  0.529410  0.369917  0.745404  1
  Si  Si23  1  0.287445  0.887210  0.746532  1
  Si  Si24  1  0.711449  0.122106  0.250803  1
  Si  Si25  1  0.214500  0.377466  0.250632  1
  Si  Si26  1  0.784518  0.620258  0.747209  1
  Si  Si27  1  0.170753  0.450193  0.542346  1
  Si  Si28  1  0.847334  0.533345  0.460502  1
  Si  Si29  1  0.338970  0.969940  0.470084  1
  Si  Si30  1  0.847761  0.535834  0.039114  1
  Si  Si31  1  0.643303  0.037483  0.545506  1
  Si  Si32  1  0.150794  0.465254  0.959018  1
  Si  Si33  1  0.657171  0.036737  0.958257  1
  Si  Si34  1  0.345070  0.962535  0.038998  1
  Mo  Mo35  1  0.331975  0.175534  0.628467  1
