# generated using pymatgen
data_Ca3Si2HgRh6
_symmetry_space_group_name_H-M   'P 1'
_cell_length_a   5.65857700
_cell_length_b   5.65857724
_cell_length_c   16.06253800
_cell_angle_alpha   90.00000000
_cell_angle_beta   90.00000000
_cell_angle_gamma   119.99999274
_symmetry_Int_Tables_number   1
_chemical_formula_structural   Ca3Si2HgRh6
_chemical_formula_sum   'Ca6 Si4 Hg2 Rh12'
_cell_volume   445.40933024
_cell_formula_units_Z   2
loop_
 _symmetry_equiv_pos_site_id
 _symmetry_equiv_pos_as_xyz
  1  'x, y, z'
loop_
 _atom_site_type_symbol
 _atom_site_label
 _atom_site_symmetry_multiplicity
 _atom_site_fract_x
 _atom_site_fract_y
 _atom_site_fract_z
 _atom_site_occupancy
  Ca  Ca0  1  0.666667  0.333333  0.956800  1
  Ca  Ca1  1  0.666667  0.333333  0.543200  1
  Ca  Ca2  1  0.333333  0.666667  0.043200  1
  Ca  Ca3  1  0.666667  0.333333  0.750000  1
  Ca  Ca4  1  0.333333  0.666667  0.456800  1
  Ca  Ca5  1  0.333333  0.666667  0.250000  1
  Si  Si6  1  0.666667  0.333333  0.250000  1
  Si  Si7  1  0.000000  0.000000  0.250000  1
  Si  Si8  1  0.000000  0.000000  0.750000  1
  Si  Si9  1  0.333333  0.666667  0.750000  1
  Hg  Hg10  1  0.000000  0.000000  0.500000  1
  Hg  Hg11  1  0.000000  0.000000  0.000000  1
  Rh  Rh12  1  0.167653  0.335304  0.857285  1
  Rh  Rh13  1  0.167653  0.335304  0.642715  1
  Rh  Rh14  1  0.664696  0.832347  0.857285  1
  Rh  Rh15  1  0.335304  0.167653  0.357285  1
  Rh  Rh16  1  0.832347  0.664696  0.357285  1
  Rh  Rh17  1  0.832347  0.167653  0.357285  1
  Rh  Rh18  1  0.832347  0.167653  0.142715  1
  Rh  Rh19  1  0.335304  0.167653  0.142715  1
  Rh  Rh20  1  0.664696  0.832347  0.642715  1
  Rh  Rh21  1  0.167653  0.832347  0.642715  1
  Rh  Rh22  1  0.832347  0.664696  0.142715  1
  Rh  Rh23  1  0.167653  0.832347  0.857285  1
