# generated using pymatgen
data_Dy2TmBi5O14
_symmetry_space_group_name_H-M   'P 1'
_cell_length_a   6.61362437
_cell_length_b   6.74606955
_cell_length_c   7.78921100
_cell_angle_alpha   106.82395905
_cell_angle_beta   89.47336820
_cell_angle_gamma   98.90120332
_symmetry_Int_Tables_number   1
_chemical_formula_structural   Dy2TmBi5O14
_chemical_formula_sum   'Dy2 Tm1 Bi5 O14'
_cell_volume   328.40963252
_cell_formula_units_Z   1
loop_
 _symmetry_equiv_pos_site_id
 _symmetry_equiv_pos_as_xyz
  1  'x, y, z'
loop_
 _atom_site_type_symbol
 _atom_site_label
 _atom_site_symmetry_multiplicity
 _atom_site_fract_x
 _atom_site_fract_y
 _atom_site_fract_z
 _atom_site_occupancy
  Dy  Dy0  1  0.539147  0.994808  0.751941  1
  Dy  Dy1  1  0.262431  0.537799  0.884995  1
  Tm  Tm2  1  0.462606  0.002691  0.252668  1
  Bi  Bi3  1  0.003465  0.007470  0.502063  1
  Bi  Bi4  1  0.003712  0.001580  0.000864  1
  Bi  Bi5  1  0.737369  0.478733  0.115567  1
  Bi  Bi6  1  0.720045  0.461343  0.612024  1
  Bi  Bi7  1  0.268193  0.529418  0.388091  1
  O  O8  1  0.450596  0.656279  0.167672  1
  O  O9  1  0.537869  0.344405  0.823758  1
  O  O10  1  0.304721  0.919575  0.953028  1
  O  O11  1  0.697016  0.051410  0.052190  1
  O  O12  1  0.302235  0.923085  0.511474  1
  O  O13  1  0.700125  0.080773  0.485797  1
  O  O14  1  0.529335  0.350802  0.347482  1
  O  O15  1  0.454269  0.642680  0.657570  1
  O  O16  1  0.936041  0.668447  0.957529  1
  O  O17  1  0.085569  0.326229  0.035086  1
  O  O18  1  0.092093  0.334425  0.626489  1
  O  O19  1  0.905278  0.681482  0.372470  1
  O  O20  1  0.876991  0.929187  0.732409  1
  O  O21  1  0.130896  0.077378  0.268836  1
