# generated using pymatgen
data_Hf4ZrBSb3
_symmetry_space_group_name_H-M   'P 1'
_cell_length_a   8.45107200
_cell_length_b   8.45107196
_cell_length_c   5.75960100
_cell_angle_alpha   90.00000000
_cell_angle_beta   90.00000000
_cell_angle_gamma   120.00000014
_symmetry_Int_Tables_number   1
_chemical_formula_structural   Hf4ZrBSb3
_chemical_formula_sum   'Hf8 Zr2 B2 Sb6'
_cell_volume   356.24323933
_cell_formula_units_Z   2
loop_
 _symmetry_equiv_pos_site_id
 _symmetry_equiv_pos_as_xyz
  1  'x, y, z'
loop_
 _atom_site_type_symbol
 _atom_site_label
 _atom_site_symmetry_multiplicity
 _atom_site_fract_x
 _atom_site_fract_y
 _atom_site_fract_z
 _atom_site_occupancy
  Hf  Hf0  1  0.666667  0.333333  0.000000  1
  Hf  Hf1  1  0.333333  0.666667  0.000000  1
  Hf  Hf2  1  0.768585  0.768585  0.750250  1
  Hf  Hf3  1  0.231415  0.000000  0.750250  1
  Hf  Hf4  1  0.000000  0.231415  0.750250  1
  Hf  Hf5  1  0.231415  0.231415  0.249750  1
  Hf  Hf6  1  0.768585  0.000000  0.249750  1
  Hf  Hf7  1  0.000000  0.768585  0.249750  1
  Zr  Zr8  1  0.333333  0.666667  0.500000  1
  Zr  Zr9  1  0.666667  0.333333  0.500000  1
  B  B10  1  0.000000  0.000000  0.000000  1
  B  B11  1  0.000000  0.000000  0.500000  1
  Sb  Sb12  1  0.399809  0.399809  0.751287  1
  Sb  Sb13  1  0.600191  0.000000  0.751287  1
  Sb  Sb14  1  0.000000  0.600191  0.751287  1
  Sb  Sb15  1  0.600191  0.600191  0.248713  1
  Sb  Sb16  1  0.399809  0.000000  0.248713  1
  Sb  Sb17  1  0.000000  0.399809  0.248713  1
