# generated using pymatgen
data_Tm6Sc4(GaBi)3
_symmetry_space_group_name_H-M   'P 1'
_cell_length_a   8.60163900
_cell_length_b   8.62645680
_cell_length_c   6.20859500
_cell_angle_alpha   90.00000000
_cell_angle_beta   90.00000000
_cell_angle_gamma   119.90488096
_symmetry_Int_Tables_number   1
_chemical_formula_structural   Tm6Sc4(GaBi)3
_chemical_formula_sum   'Tm6 Sc4 Ga3 Bi3'
_cell_volume   399.34945152
_cell_formula_units_Z   1
loop_
 _symmetry_equiv_pos_site_id
 _symmetry_equiv_pos_as_xyz
  1  'x, y, z'
loop_
 _atom_site_type_symbol
 _atom_site_label
 _atom_site_symmetry_multiplicity
 _atom_site_fract_x
 _atom_site_fract_y
 _atom_site_fract_z
 _atom_site_occupancy
  Tm  Tm0  1  0.233387  0.000000  0.250000  1
  Tm  Tm1  1  0.243227  0.226731  0.750000  1
  Tm  Tm2  1  0.016497  0.773269  0.750000  1
  Tm  Tm3  1  0.017665  0.251423  0.250000  1
  Tm  Tm4  1  0.766242  0.748577  0.250000  1
  Tm  Tm5  1  0.754184  0.000000  0.750000  1
  Sc  Sc6  1  0.324793  0.667066  0.005831  1
  Sc  Sc7  1  0.657727  0.332934  0.494169  1
  Sc  Sc8  1  0.657727  0.332934  0.005831  1
  Sc  Sc9  1  0.324793  0.667066  0.494169  1
  Ga  Ga10  1  0.999172  0.600384  0.250000  1
  Ga  Ga11  1  0.398788  0.399616  0.250000  1
  Ga  Ga12  1  0.401752  0.000000  0.750000  1
  Bi  Bi13  1  0.607099  0.000000  0.250000  1
  Bi  Bi14  1  0.599894  0.602841  0.750000  1
  Bi  Bi15  1  0.997053  0.397159  0.750000  1
