# generated using pymatgen
data_SmDy2Th(ReB6)2
_symmetry_space_group_name_H-M   'P 1'
_cell_length_a   3.74645100
_cell_length_b   9.25365919
_cell_length_c   11.68152082
_cell_angle_alpha   89.86745146
_cell_angle_beta   90.00000000
_cell_angle_gamma   90.00000000
_symmetry_Int_Tables_number   1
_chemical_formula_structural   SmDy2Th(ReB6)2
_chemical_formula_sum   'Sm2 Dy4 Th2 Re4 B24'
_cell_volume   404.97832739
_cell_formula_units_Z   2
loop_
 _symmetry_equiv_pos_site_id
 _symmetry_equiv_pos_as_xyz
  1  'x, y, z'
loop_
 _atom_site_type_symbol
 _atom_site_label
 _atom_site_symmetry_multiplicity
 _atom_site_fract_x
 _atom_site_fract_y
 _atom_site_fract_z
 _atom_site_occupancy
  Sm  Sm0  1  0.000000  0.324398  0.414614  1
  Sm  Sm1  1  0.000000  0.675602  0.585386  1
  Dy  Dy2  1  0.000000  0.943181  0.371533  1
  Dy  Dy3  1  0.000000  0.056819  0.628467  1
  Dy  Dy4  1  0.000000  0.443511  0.130084  1
  Dy  Dy5  1  0.000000  0.556489  0.869916  1
  Th  Th6  1  0.000000  0.822010  0.086265  1
  Th  Th7  1  0.000000  0.177990  0.913735  1
  Re  Re8  1  0.000000  0.639779  0.319907  1
  Re  Re9  1  0.000000  0.360221  0.680093  1
  Re  Re10  1  0.000000  0.138235  0.179467  1
  Re  Re11  1  0.000000  0.861765  0.820533  1
  B  B12  1  0.500000  0.554474  0.431892  1
  B  B13  1  0.500000  0.445526  0.568108  1
  B  B14  1  0.500000  0.055647  0.070298  1
  B  B15  1  0.500000  0.944353  0.929702  1
  B  B16  1  0.500000  0.748583  0.417818  1
  B  B17  1  0.500000  0.251417  0.582182  1
  B  B18  1  0.500000  0.249494  0.084347  1
  B  B19  1  0.500000  0.750506  0.915653  1
  B  B20  1  0.500000  0.790551  0.267371  1
  B  B21  1  0.500000  0.209449  0.732629  1
  B  B22  1  0.500000  0.291313  0.234349  1
  B  B23  1  0.500000  0.708687  0.765651  1
  B  B24  1  0.500000  0.630472  0.187366  1
  B  B25  1  0.500000  0.369528  0.812634  1
  B  B26  1  0.500000  0.131030  0.314438  1
  B  B27  1  0.500000  0.868970  0.685562  1
  B  B28  1  0.500000  0.985558  0.214250  1
  B  B29  1  0.500000  0.014442  0.785750  1
  B  B30  1  0.500000  0.484497  0.287876  1
  B  B31  1  0.500000  0.515503  0.712124  1
  B  B32  1  0.500000  0.601059  0.028055  1
  B  B33  1  0.500000  0.398941  0.971945  1
  B  B34  1  0.500000  0.100332  0.472122  1
  B  B35  1  0.500000  0.899668  0.527878  1
