# generated using pymatgen
data_TaTi(VSi)2
_symmetry_space_group_name_H-M   'P 1'
_cell_length_a   3.35019000
_cell_length_b   6.59160559
_cell_length_c   7.91666652
_cell_angle_alpha   90.35208927
_cell_angle_beta   90.00000000
_cell_angle_gamma   90.00000000
_symmetry_Int_Tables_number   1
_chemical_formula_structural   TaTi(VSi)2
_chemical_formula_sum   'Ta2 Ti2 V4 Si4'
_cell_volume   174.82148414
_cell_formula_units_Z   2
loop_
 _symmetry_equiv_pos_site_id
 _symmetry_equiv_pos_as_xyz
  1  'x, y, z'
loop_
 _atom_site_type_symbol
 _atom_site_label
 _atom_site_symmetry_multiplicity
 _atom_site_fract_x
 _atom_site_fract_y
 _atom_site_fract_z
 _atom_site_occupancy
  Ta  Ta0  1  0.250000  0.548352  0.166629  1
  Ta  Ta1  1  0.750000  0.451648  0.833371  1
  Ti  Ti2  1  0.750000  0.950552  0.668325  1
  Ti  Ti3  1  0.250000  0.049448  0.331675  1
  V  V4  1  0.250000  0.625181  0.560794  1
  V  V5  1  0.750000  0.374819  0.439206  1
  V  V6  1  0.750000  0.870477  0.061407  1
  V  V7  1  0.250000  0.129523  0.938593  1
  Si  Si8  1  0.250000  0.755171  0.858666  1
  Si  Si9  1  0.750000  0.244829  0.141334  1
  Si  Si10  1  0.750000  0.753360  0.363070  1
  Si  Si11  1  0.250000  0.246640  0.636930  1
