# generated using pymatgen
data_Li2Lu3Si2AgGe
_symmetry_space_group_name_H-M   'P 1'
_cell_length_a   6.89211451
_cell_length_b   6.90024392
_cell_length_c   4.17369200
_cell_angle_alpha   90.00000000
_cell_angle_beta   90.00000000
_cell_angle_gamma   120.03902755
_symmetry_Int_Tables_number   1
_chemical_formula_structural   Li2Lu3Si2AgGe
_chemical_formula_sum   'Li2 Lu3 Si2 Ag1 Ge1'
_cell_volume   171.82922371
_cell_formula_units_Z   1
loop_
 _symmetry_equiv_pos_site_id
 _symmetry_equiv_pos_as_xyz
  1  'x, y, z'
loop_
 _atom_site_type_symbol
 _atom_site_label
 _atom_site_symmetry_multiplicity
 _atom_site_fract_x
 _atom_site_fract_y
 _atom_site_fract_z
 _atom_site_occupancy
  Li  Li0  1  0.761874  0.765110  0.000000  1
  Li  Li1  1  0.238126  0.003236  0.000000  1
  Lu  Lu2  1  0.425053  0.425228  0.500000  1
  Lu  Lu3  1  0.574947  0.000175  0.500000  1
  Lu  Lu4  1  0.000000  0.571071  0.500000  1
  Si  Si5  1  0.663651  0.332322  0.000000  1
  Si  Si6  1  0.336349  0.668673  0.000000  1
  Ag  Ag7  1  0.000000  0.242568  0.000000  1
  Ge  Ge8  1  0.000000  0.991615  0.500000  1
