# generated using pymatgen
data_Zn7Ga(PdRh)4
_symmetry_space_group_name_H-M   'P 1'
_cell_length_a   6.06469832
_cell_length_b   6.06065163
_cell_length_c   6.16514800
_cell_angle_alpha   90.00046817
_cell_angle_beta   90.00044912
_cell_angle_gamma   90.25038426
_symmetry_Int_Tables_number   1
_chemical_formula_structural   Zn7Ga(PdRh)4
_chemical_formula_sum   'Zn7 Ga1 Pd4 Rh4'
_cell_volume   226.60416243
_cell_formula_units_Z   1
loop_
 _symmetry_equiv_pos_site_id
 _symmetry_equiv_pos_as_xyz
  1  'x, y, z'
loop_
 _atom_site_type_symbol
 _atom_site_label
 _atom_site_symmetry_multiplicity
 _atom_site_fract_x
 _atom_site_fract_y
 _atom_site_fract_z
 _atom_site_occupancy
  Zn  Zn0  1  0.000021  0.500004  0.249814  1
  Zn  Zn1  1  0.499999  0.000000  0.250192  1
  Zn  Zn2  1  0.499991  0.500001  0.250193  1
  Zn  Zn3  1  0.500012  0.000004  0.749818  1
  Zn  Zn4  1  0.500001  0.499996  0.749803  1
  Zn  Zn5  1  0.999987  0.000003  0.750164  1
  Zn  Zn6  1  0.999993  0.500001  0.750182  1
  Ga  Ga7  1  0.000000  0.999989  0.249818  1
  Pd  Pd8  1  0.749497  0.250334  0.000485  1
  Pd  Pd9  1  0.250174  0.749653  0.499526  1
  Pd  Pd10  1  0.749829  0.250359  0.499477  1
  Pd  Pd11  1  0.250501  0.749665  0.000522  1
  Rh  Rh12  1  0.247162  0.247059  0.002174  1
  Rh  Rh13  1  0.752841  0.752940  0.002228  1
  Rh  Rh14  1  0.753102  0.752948  0.497785  1
  Rh  Rh15  1  0.246889  0.247046  0.497812  1
