# generated using pymatgen
data_Ce2FeCo16
_symmetry_space_group_name_H-M   'P 1'
_cell_length_a   6.28335377
_cell_length_b   6.28335312
_cell_length_c   6.28335459
_cell_angle_alpha   82.92670846
_cell_angle_beta   82.92671815
_cell_angle_gamma   82.92670719
_symmetry_Int_Tables_number   1
_chemical_formula_structural   Ce2FeCo16
_chemical_formula_sum   'Ce2 Fe1 Co16'
_cell_volume   242.83584402
_cell_formula_units_Z   1
loop_
 _symmetry_equiv_pos_site_id
 _symmetry_equiv_pos_as_xyz
  1  'x, y, z'
loop_
 _atom_site_type_symbol
 _atom_site_label
 _atom_site_symmetry_multiplicity
 _atom_site_fract_x
 _atom_site_fract_y
 _atom_site_fract_z
 _atom_site_occupancy
  Ce  Ce0  1  0.653479  0.653479  0.653479  1
  Ce  Ce1  1  0.346229  0.346229  0.346229  1
  Fe  Fe2  1  0.096461  0.096461  0.096461  1
  Co  Co3  1  0.347774  0.852861  0.347774  1
  Co  Co4  1  0.347774  0.347774  0.852861  1
  Co  Co5  1  0.852861  0.347774  0.347774  1
  Co  Co6  1  0.653452  0.145859  0.653452  1
  Co  Co7  1  0.653452  0.653452  0.145859  1
  Co  Co8  1  0.145859  0.653452  0.653452  1
  Co  Co9  1  0.712930  0.287414  0.999425  1
  Co  Co10  1  0.999425  0.712930  0.287414  1
  Co  Co11  1  0.287414  0.999425  0.712930  1
  Co  Co12  1  0.999425  0.287414  0.712930  1
  Co  Co13  1  0.712930  0.999425  0.287414  1
  Co  Co14  1  0.287414  0.712930  0.999425  1
  Co  Co15  1  0.999854  0.999854  0.501999  1
  Co  Co16  1  0.501999  0.999854  0.999854  1
  Co  Co17  1  0.999854  0.501999  0.999854  1
  Co  Co18  1  0.901415  0.901415  0.901415  1
