# generated using pymatgen
data_Nd6GaSiI6
_symmetry_space_group_name_H-M   'P 1'
_cell_length_a   10.83315862
_cell_length_b   10.83341509
_cell_length_c   10.87293095
_cell_angle_alpha   109.51294777
_cell_angle_beta   109.50901751
_cell_angle_gamma   109.24280873
_symmetry_Int_Tables_number   1
_chemical_formula_structural   Nd6GaSiI6
_chemical_formula_sum   'Nd12 Ga2 Si2 I12'
_cell_volume   984.09787464
_cell_formula_units_Z   2
loop_
 _symmetry_equiv_pos_site_id
 _symmetry_equiv_pos_as_xyz
  1  'x, y, z'
loop_
 _atom_site_type_symbol
 _atom_site_label
 _atom_site_symmetry_multiplicity
 _atom_site_fract_x
 _atom_site_fract_y
 _atom_site_fract_z
 _atom_site_occupancy
  Nd  Nd0  1  0.266988  0.016985  0.033969  1
  Nd  Nd1  1  0.032602  0.264682  0.017996  1
  Nd  Nd2  1  0.485398  0.753315  0.017996  1
  Nd  Nd3  1  0.746201  0.233133  0.264014  1
  Nd  Nd4  1  0.017812  0.030886  0.264020  1
  Nd  Nd5  1  0.014651  0.485350  0.750004  1
  Nd  Nd6  1  0.235350  0.264646  0.750000  1
  Nd  Nd7  1  0.266864  0.753799  0.235981  1
  Nd  Nd8  1  0.235318  0.467397  0.482003  1
  Nd  Nd9  1  0.469120  0.482190  0.235986  1
  Nd  Nd10  1  0.746689  0.014601  0.482005  1
  Nd  Nd11  1  0.483018  0.233020  0.466029  1
  Ga  Ga12  1  0.000348  0.250341  0.500684  1
  Ga  Ga13  1  0.249663  0.499661  0.999322  1
  Si  Si14  1  0.500305  0.999698  0.250001  1
  Si  Si15  1  0.249697  0.250306  0.250000  1
  I  I16  1  0.757435  0.742561  0.249997  1
  I  I17  1  0.507636  0.249794  0.992511  1
  I  I18  1  0.250207  0.992358  0.507492  1
  I  I19  1  0.515521  0.507599  0.757257  1
  I  I20  1  0.992397  0.984476  0.742743  1
  I  I21  1  0.742259  0.992261  0.984526  1
  I  I22  1  0.507737  0.757732  0.515472  1
  I  I23  1  0.757287  0.515129  0.507489  1
  I  I24  1  0.992553  0.507435  0.249994  1
  I  I25  1  0.984870  0.742720  0.992511  1
  I  I26  1  0.250340  0.758266  0.742744  1
  I  I27  1  0.741734  0.249660  0.757254  1
