# generated using pymatgen
data_Ca2Mg3PaIr3
_symmetry_space_group_name_H-M   'P 1'
_cell_length_a   7.48790100
_cell_length_b   7.29413453
_cell_length_c   4.10307600
_cell_angle_alpha   90.00000000
_cell_angle_beta   90.00000000
_cell_angle_gamma   120.88270914
_symmetry_Int_Tables_number   1
_chemical_formula_structural   Ca2Mg3PaIr3
_chemical_formula_sum   'Ca2 Mg3 Pa1 Ir3'
_cell_volume   192.32776131
_cell_formula_units_Z   1
loop_
 _symmetry_equiv_pos_site_id
 _symmetry_equiv_pos_as_xyz
  1  'x, y, z'
loop_
 _atom_site_type_symbol
 _atom_site_label
 _atom_site_symmetry_multiplicity
 _atom_site_fract_x
 _atom_site_fract_y
 _atom_site_fract_z
 _atom_site_occupancy
  Ca  Ca0  1  0.999914  0.587693  0.000000  1
  Ca  Ca1  1  0.412222  0.412307  0.000000  1
  Mg  Mg2  1  0.228195  0.000000  0.500000  1
  Mg  Mg3  1  0.011294  0.257244  0.500000  1
  Mg  Mg4  1  0.754050  0.742756  0.500000  1
  Pa  Pa5  1  0.597190  0.000000  0.000000  1
  Ir  Ir6  1  0.370535  0.714425  0.500000  1
  Ir  Ir7  1  0.656111  0.285575  0.500000  1
  Ir  Ir8  1  0.970490  0.000000  0.000000  1
