# generated using pymatgen
data_Yb3Zr(Si5Pt3)2
_symmetry_space_group_name_H-M   'P 1'
_cell_length_a   8.15196673
_cell_length_b   8.17260284
_cell_length_c   8.17260267
_cell_angle_alpha   137.28275406
_cell_angle_beta   103.96346038
_cell_angle_gamma   91.41294982
_symmetry_Int_Tables_number   1
_chemical_formula_structural   Yb3Zr(Si5Pt3)2
_chemical_formula_sum   'Yb3 Zr1 Si10 Pt6'
_cell_volume   341.16982410
_cell_formula_units_Z   1
loop_
 _symmetry_equiv_pos_site_id
 _symmetry_equiv_pos_as_xyz
  1  'x, y, z'
loop_
 _atom_site_type_symbol
 _atom_site_label
 _atom_site_symmetry_multiplicity
 _atom_site_fract_x
 _atom_site_fract_y
 _atom_site_fract_z
 _atom_site_occupancy
  Yb  Yb0  1  0.863701  0.630121  0.233580  1
  Yb  Yb1  1  0.137075  0.371242  0.765832  1
  Yb  Yb2  1  0.396387  0.127925  0.268462  1
  Zr  Zr3  1  0.596031  0.872076  0.723954  1
  Si  Si4  1  0.499210  0.743216  0.245809  1
  Si  Si5  1  0.499210  0.253401  0.755993  1
  Si  Si6  1  0.228752  0.983093  0.751919  1
  Si  Si7  1  0.774462  0.525775  0.755788  1
  Si  Si8  1  0.774462  0.018675  0.248687  1
  Si  Si9  1  0.228752  0.476834  0.245659  1
  Si  Si10  1  0.041584  0.887901  0.153683  1
  Si  Si11  1  0.949541  0.105041  0.844500  1
  Si  Si12  1  0.739006  0.387570  0.351437  1
  Si  Si13  1  0.266613  0.615517  0.651096  1
  Pt  Pt14  1  0.999712  0.751564  0.750151  1
  Pt  Pt15  1  0.999712  0.249561  0.248148  1
  Pt  Pt16  1  0.251863  0.863971  0.387893  1
  Pt  Pt17  1  0.749274  0.135974  0.613298  1
  Pt  Pt18  1  0.481849  0.361670  0.120179  1
  Pt  Pt19  1  0.522804  0.638873  0.883931  1
