# generated using pymatgen
data_Ti12P3S
_symmetry_space_group_name_H-M   'P 1'
_cell_length_a   9.92369677
_cell_length_b   9.92519361
_cell_length_c   4.97531218
_cell_angle_alpha   89.88961644
_cell_angle_beta   89.83938764
_cell_angle_gamma   90.00052290
_symmetry_Int_Tables_number   1
_chemical_formula_structural   Ti12P3S
_chemical_formula_sum   'Ti24 P6 S2'
_cell_volume   490.03860692
_cell_formula_units_Z   2
loop_
 _symmetry_equiv_pos_site_id
 _symmetry_equiv_pos_as_xyz
  1  'x, y, z'
loop_
 _atom_site_type_symbol
 _atom_site_label
 _atom_site_symmetry_multiplicity
 _atom_site_fract_x
 _atom_site_fract_y
 _atom_site_fract_z
 _atom_site_occupancy
  Ti  Ti0  1  0.970764  0.861423  0.282015  1
  Ti  Ti1  1  0.361129  0.527163  0.780792  1
  Ti  Ti2  1  0.638723  0.470552  0.781340  1
  Ti  Ti3  1  0.027436  0.139128  0.280019  1
  Ti  Ti4  1  0.528840  0.639467  0.219064  1
  Ti  Ti5  1  0.139469  0.972022  0.719638  1
  Ti  Ti6  1  0.860634  0.028746  0.719224  1
  Ti  Ti7  1  0.472132  0.360652  0.219712  1
  Ti  Ti8  1  0.818904  0.283552  0.011645  1
  Ti  Ti9  1  0.783615  0.680461  0.512165  1
  Ti  Ti10  1  0.216483  0.318435  0.510466  1
  Ti  Ti11  1  0.181178  0.716486  0.010611  1
  Ti  Ti12  1  0.680617  0.215780  0.486675  1
  Ti  Ti13  1  0.716303  0.820070  0.987978  1
  Ti  Ti14  1  0.284434  0.181827  0.988002  1
  Ti  Ti15  1  0.318907  0.783610  0.489648  1
  Ti  Ti16  1  0.916049  0.392833  0.536090  1
  Ti  Ti17  1  0.892620  0.583459  0.035298  1
  Ti  Ti18  1  0.107093  0.416238  0.036262  1
  Ti  Ti19  1  0.083330  0.607101  0.536108  1
  Ti  Ti20  1  0.584197  0.107480  0.964409  1
  Ti  Ti21  1  0.607436  0.916629  0.464773  1
  Ti  Ti22  1  0.393299  0.084005  0.464075  1
  Ti  Ti23  1  0.416975  0.893486  0.964215  1
  P  P24  1  0.206923  0.959146  0.213937  1
  P  P25  1  0.541363  0.707066  0.713799  1
  P  P26  1  0.041163  0.206890  0.786554  1
  P  P27  1  0.706817  0.458852  0.286317  1
  P  P28  1  0.293351  0.541042  0.286347  1
  P  P29  1  0.958913  0.793352  0.786191  1
  S  S30  1  0.459305  0.291882  0.713376  1
  S  S31  1  0.791597  0.041167  0.213258  1
