# generated using pymatgen
data_Tm5Zr3(P3Pd4)4
_symmetry_space_group_name_H-M   'P 1'
_cell_length_a   13.13725100
_cell_length_b   13.13724980
_cell_length_c   3.98423400
_cell_angle_alpha   90.00000000
_cell_angle_beta   90.00000000
_cell_angle_gamma   120.00000051
_symmetry_Int_Tables_number   1
_chemical_formula_structural   Tm5Zr3(P3Pd4)4
_chemical_formula_sum   'Tm5 Zr3 P12 Pd16'
_cell_volume   595.50364230
_cell_formula_units_Z   1
loop_
 _symmetry_equiv_pos_site_id
 _symmetry_equiv_pos_as_xyz
  1  'x, y, z'
loop_
 _atom_site_type_symbol
 _atom_site_label
 _atom_site_symmetry_multiplicity
 _atom_site_fract_x
 _atom_site_fract_y
 _atom_site_fract_z
 _atom_site_occupancy
  Tm  Tm0  1  0.188157  0.188157  0.500000  1
  Tm  Tm1  1  0.811843  0.000000  0.500000  1
  Tm  Tm2  1  0.000000  0.811843  0.500000  1
  Tm  Tm3  1  0.333333  0.666667  0.000000  1
  Tm  Tm4  1  0.666667  0.333333  0.000000  1
  Zr  Zr5  1  0.553304  0.553304  0.000000  1
  Zr  Zr6  1  0.446696  0.000000  0.000000  1
  Zr  Zr7  1  0.000000  0.446696  0.000000  1
  P  P8  1  0.826920  0.826920  0.000000  1
  P  P9  1  0.173080  0.000000  0.000000  1
  P  P10  1  0.000000  0.173080  0.000000  1
  P  P11  1  0.166020  0.482333  0.500000  1
  P  P12  1  0.517667  0.683687  0.500000  1
  P  P13  1  0.316313  0.833980  0.500000  1
  P  P14  1  0.683687  0.517667  0.500000  1
  P  P15  1  0.833980  0.316313  0.500000  1
  P  P16  1  0.482333  0.166020  0.500000  1
  P  P17  1  0.355826  0.355826  0.000000  1
  P  P18  1  0.644174  0.000000  0.000000  1
  P  P19  1  0.000000  0.644174  0.000000  1
  Pd  Pd20  1  0.727024  0.727024  0.500000  1
  Pd  Pd21  1  0.272976  0.000000  0.500000  1
  Pd  Pd22  1  0.000000  0.272976  0.500000  1
  Pd  Pd23  1  0.182541  0.372279  0.000000  1
  Pd  Pd24  1  0.627721  0.810263  0.000000  1
  Pd  Pd25  1  0.189737  0.817459  0.000000  1
  Pd  Pd26  1  0.810263  0.627721  0.000000  1
  Pd  Pd27  1  0.817459  0.189737  0.000000  1
  Pd  Pd28  1  0.372279  0.182541  0.000000  1
  Pd  Pd29  1  0.356557  0.489606  0.500000  1
  Pd  Pd30  1  0.510394  0.866950  0.500000  1
  Pd  Pd31  1  0.133050  0.643443  0.500000  1
  Pd  Pd32  1  0.866950  0.510394  0.500000  1
  Pd  Pd33  1  0.643443  0.133050  0.500000  1
  Pd  Pd34  1  0.489606  0.356557  0.500000  1
  Pd  Pd35  1  0.000000  0.000000  0.000000  1
