# generated using pymatgen
data_Nd8BeZn2Si12Rh
_symmetry_space_group_name_H-M   'P 1'
_cell_length_a   8.15965900
_cell_length_b   8.15965877
_cell_length_c   8.55460300
_cell_angle_alpha   90.00000000
_cell_angle_beta   90.00000000
_cell_angle_gamma   119.99999689
_symmetry_Int_Tables_number   1
_chemical_formula_structural   Nd8BeZn2Si12Rh
_chemical_formula_sum   'Nd8 Be1 Zn2 Si12 Rh1'
_cell_volume   493.25842483
_cell_formula_units_Z   1
loop_
 _symmetry_equiv_pos_site_id
 _symmetry_equiv_pos_as_xyz
  1  'x, y, z'
loop_
 _atom_site_type_symbol
 _atom_site_label
 _atom_site_symmetry_multiplicity
 _atom_site_fract_x
 _atom_site_fract_y
 _atom_site_fract_z
 _atom_site_occupancy
  Nd  Nd0  1  0.000000  0.000000  0.749684  1
  Nd  Nd1  1  0.000000  0.000000  0.250324  1
  Nd  Nd2  1  0.497845  0.502155  0.748965  1
  Nd  Nd3  1  0.497845  0.995692  0.748965  1
  Nd  Nd4  1  0.004308  0.502155  0.748965  1
  Nd  Nd5  1  0.498475  0.501525  0.251030  1
  Nd  Nd6  1  0.003051  0.501525  0.251030  1
  Nd  Nd7  1  0.498475  0.996949  0.251030  1
  Be  Be8  1  0.333333  0.666667  0.498119  1
  Zn  Zn9  1  0.666667  0.333333  0.999075  1
  Zn  Zn10  1  0.666667  0.333333  0.501511  1
  Si  Si11  1  0.837128  0.162872  0.999673  1
  Si  Si12  1  0.837128  0.674255  0.999673  1
  Si  Si13  1  0.325745  0.162872  0.999673  1
  Si  Si14  1  0.835027  0.164973  0.500026  1
  Si  Si15  1  0.835027  0.670055  0.500026  1
  Si  Si16  1  0.329945  0.164973  0.500026  1
  Si  Si17  1  0.173400  0.826600  0.500076  1
  Si  Si18  1  0.653201  0.826600  0.500076  1
  Si  Si19  1  0.173400  0.346799  0.500076  1
  Si  Si20  1  0.170032  0.829968  0.000157  1
  Si  Si21  1  0.659935  0.829968  0.000157  1
  Si  Si22  1  0.170032  0.340065  0.000157  1
  Rh  Rh23  1  0.333333  0.666667  0.001500  1
