# generated using pymatgen
data_Hf2Ta(SiTc)3
_symmetry_space_group_name_H-M   'P 1'
_cell_length_a   6.90767174
_cell_length_b   6.96113539
_cell_length_c   3.36413600
_cell_angle_alpha   90.00000000
_cell_angle_beta   90.00000000
_cell_angle_gamma   120.25638250
_symmetry_Int_Tables_number   1
_chemical_formula_structural   Hf2Ta(SiTc)3
_chemical_formula_sum   'Hf2 Ta1 Si3 Tc3'
_cell_volume   139.72951445
_cell_formula_units_Z   1
loop_
 _symmetry_equiv_pos_site_id
 _symmetry_equiv_pos_as_xyz
  1  'x, y, z'
loop_
 _atom_site_type_symbol
 _atom_site_label
 _atom_site_symmetry_multiplicity
 _atom_site_fract_x
 _atom_site_fract_y
 _atom_site_fract_z
 _atom_site_occupancy
  Hf  Hf0  1  0.401620  0.403371  0.500000  1
  Hf  Hf1  1  0.598380  0.001751  0.500000  1
  Ta  Ta2  1  0.000000  0.597075  0.500000  1
  Si  Si3  1  0.672280  0.338116  0.000000  1
  Si  Si4  1  0.327720  0.665837  0.000000  1
  Si  Si5  1  0.000000  0.997412  0.500000  1
  Tc  Tc6  1  0.747519  0.744589  0.000000  1
  Tc  Tc7  1  0.252481  0.997070  0.000000  1
  Tc  Tc8  1  0.000000  0.254777  0.000000  1
