# generated using pymatgen
data_Tm20Si2Bi9Sb
_symmetry_space_group_name_H-M   'P 1'
_cell_length_a   8.00616355
_cell_length_b   9.33256500
_cell_length_c   11.81581700
_cell_angle_alpha   90.00000000
_cell_angle_beta   90.04568684
_cell_angle_gamma   90.00000000
_symmetry_Int_Tables_number   1
_chemical_formula_structural   Tm20Si2Bi9Sb
_chemical_formula_sum   'Tm20 Si2 Bi9 Sb1'
_cell_volume   882.85442650
_cell_formula_units_Z   1
loop_
 _symmetry_equiv_pos_site_id
 _symmetry_equiv_pos_as_xyz
  1  'x, y, z'
loop_
 _atom_site_type_symbol
 _atom_site_label
 _atom_site_symmetry_multiplicity
 _atom_site_fract_x
 _atom_site_fract_y
 _atom_site_fract_z
 _atom_site_occupancy
  Tm  Tm0  1  0.021778  0.250000  0.510333  1
  Tm  Tm1  1  0.962092  0.750000  0.488695  1
  Tm  Tm2  1  0.474732  0.750000  0.010278  1
  Tm  Tm3  1  0.536110  0.250000  0.989903  1
  Tm  Tm4  1  0.346518  0.250000  0.283356  1
  Tm  Tm5  1  0.644964  0.750000  0.706072  1
  Tm  Tm6  1  0.152807  0.750000  0.786814  1
  Tm  Tm7  1  0.854604  0.250000  0.205363  1
  Tm  Tm8  1  0.169029  0.250000  0.791819  1
  Tm  Tm9  1  0.811849  0.750000  0.221490  1
  Tm  Tm10  1  0.329230  0.750000  0.290115  1
  Tm  Tm11  1  0.694883  0.250000  0.727342  1
  Tm  Tm12  1  0.181714  0.069523  0.053460  1
  Tm  Tm13  1  0.811970  0.948607  0.941357  1
  Tm  Tm14  1  0.316629  0.927589  0.553956  1
  Tm  Tm15  1  0.811970  0.551393  0.941357  1
  Tm  Tm16  1  0.690064  0.047784  0.439433  1
  Tm  Tm17  1  0.181714  0.430477  0.053460  1
  Tm  Tm18  1  0.690064  0.452216  0.439433  1
  Tm  Tm19  1  0.316629  0.572411  0.553956  1
  Si  Si20  1  0.590780  0.750000  0.463318  1
  Si  Si21  1  0.905929  0.250000  0.962942  1
  Bi  Bi22  1  0.410256  0.250000  0.545138  1
  Bi  Bi23  1  0.064700  0.001998  0.323813  1
  Bi  Bi24  1  0.938113  0.995089  0.675369  1
  Bi  Bi25  1  0.435823  0.998477  0.824328  1
  Bi  Bi26  1  0.938113  0.504911  0.675369  1
  Bi  Bi27  1  0.562426  0.003431  0.175287  1
  Bi  Bi28  1  0.064700  0.498002  0.323813  1
  Bi  Bi29  1  0.562426  0.496569  0.175287  1
  Bi  Bi30  1  0.435823  0.501523  0.824328  1
  Sb  Sb31  1  0.091566  0.750000  0.043011  1
