# generated using pymatgen
data_Cs3RhO4
_symmetry_space_group_name_H-M   'P 1'
_cell_length_a   6.73840500
_cell_length_b   9.05475500
_cell_length_c   12.52852900
_cell_angle_alpha   90.00000000
_cell_angle_beta   90.00000000
_cell_angle_gamma   90.00000000
_symmetry_Int_Tables_number   1
_chemical_formula_structural   Cs3RhO4
_chemical_formula_sum   'Cs12 Rh4 O16'
_cell_volume   764.42326528
_cell_formula_units_Z   4
loop_
 _symmetry_equiv_pos_site_id
 _symmetry_equiv_pos_as_xyz
  1  'x, y, z'
loop_
 _atom_site_type_symbol
 _atom_site_label
 _atom_site_symmetry_multiplicity
 _atom_site_fract_x
 _atom_site_fract_y
 _atom_site_fract_z
 _atom_site_occupancy
  Cs  Cs0  1  0.695287  0.007003  0.145818  1
  Cs  Cs1  1  0.804713  0.492997  0.645818  1
  Cs  Cs2  1  0.304713  0.507003  0.854182  1
  Cs  Cs3  1  0.195287  0.992997  0.354182  1
  Cs  Cs4  1  0.304713  0.992997  0.854182  1
  Cs  Cs5  1  0.195287  0.507003  0.354182  1
  Cs  Cs6  1  0.695287  0.492997  0.145818  1
  Cs  Cs7  1  0.804713  0.007003  0.645818  1
  Cs  Cs8  1  0.152693  0.250000  0.077630  1
  Cs  Cs9  1  0.347307  0.250000  0.577630  1
  Cs  Cs10  1  0.847307  0.750000  0.922370  1
  Cs  Cs11  1  0.652693  0.750000  0.422370  1
  Rh  Rh12  1  0.267375  0.750000  0.111535  1
  Rh  Rh13  1  0.232625  0.750000  0.611535  1
  Rh  Rh14  1  0.732625  0.250000  0.888465  1
  Rh  Rh15  1  0.767375  0.250000  0.388465  1
  O  O16  1  0.435654  0.750000  0.232119  1
  O  O17  1  0.064346  0.750000  0.732119  1
  O  O18  1  0.564346  0.250000  0.767881  1
  O  O19  1  0.935654  0.250000  0.267881  1
  O  O20  1  0.454688  0.750000  0.000810  1
  O  O21  1  0.045312  0.750000  0.500810  1
  O  O22  1  0.545312  0.250000  0.999190  1
  O  O23  1  0.954688  0.250000  0.499190  1
  O  O24  1  0.121419  0.577167  0.111812  1
  O  O25  1  0.378581  0.922833  0.611812  1
  O  O26  1  0.878581  0.077167  0.888188  1
  O  O27  1  0.621419  0.422833  0.388188  1
  O  O28  1  0.878581  0.422833  0.888188  1
  O  O29  1  0.621419  0.077167  0.388188  1
  O  O30  1  0.121419  0.922833  0.111812  1
  O  O31  1  0.378581  0.577167  0.611812  1
