# generated using pymatgen
data_Sc12Co(IrBr8)2
_symmetry_space_group_name_H-M   'P 1'
_cell_length_a   8.90615390
_cell_length_b   11.60659742
_cell_length_c   12.34708774
_cell_angle_alpha   117.08011858
_cell_angle_beta   101.10572235
_cell_angle_gamma   100.76806759
_symmetry_Int_Tables_number   1
_chemical_formula_structural   Sc12Co(IrBr8)2
_chemical_formula_sum   'Sc12 Co1 Ir2 Br16'
_cell_volume   1058.64193814
_cell_formula_units_Z   1
loop_
 _symmetry_equiv_pos_site_id
 _symmetry_equiv_pos_as_xyz
  1  'x, y, z'
loop_
 _atom_site_type_symbol
 _atom_site_label
 _atom_site_symmetry_multiplicity
 _atom_site_fract_x
 _atom_site_fract_y
 _atom_site_fract_z
 _atom_site_occupancy
  Sc  Sc0  1  0.092689  0.272726  0.360883  1
  Sc  Sc1  1  0.916519  0.731912  0.643534  1
  Sc  Sc2  1  0.781777  0.534921  0.327167  1
  Sc  Sc3  1  0.222195  0.463738  0.667371  1
  Sc  Sc4  1  0.278277  0.727239  0.639230  1
  Sc  Sc5  1  0.726190  0.268093  0.356042  1
  Sc  Sc6  1  0.148154  0.535789  0.333052  1
  Sc  Sc7  1  0.860258  0.465662  0.672148  1
  Sc  Sc8  1  0.402677  0.359583  0.275455  1
  Sc  Sc9  1  0.590861  0.640376  0.725011  1
  Sc  Sc10  1  0.456479  0.312088  0.520039  1
  Sc  Sc11  1  0.537375  0.687567  0.480205  1
  Co  Co12  1  0.342116  0.499847  0.499660  1
  Ir  Ir13  1  0.001186  0.500037  0.499938  1
  Ir  Ir14  1  0.658469  0.499989  0.500447  1
  Br  Br15  1  0.389145  0.729637  0.866722  1
  Br  Br16  1  0.607885  0.268984  0.131592  1
  Br  Br17  1  0.184595  0.945890  0.772444  1
  Br  Br18  1  0.821263  0.054304  0.226545  1
  Br  Br19  1  0.338477  0.111235  0.262716  1
  Br  Br20  1  0.649427  0.888561  0.737579  1
  Br  Br21  1  0.548279  0.437956  0.785416  1
  Br  Br22  1  0.440858  0.561912  0.214730  1
  Br  Br23  1  0.305246  0.814507  0.464999  1
  Br  Br24  1  0.695401  0.187039  0.534546  1
  Br  Br25  1  0.168486  0.183849  0.532115  1
  Br  Br26  1  0.830420  0.814622  0.468383  1
  Br  Br27  1  0.931758  0.569952  0.172377  1
  Br  Br28  1  0.074480  0.430407  0.827911  1
  Br  Br29  1  0.916157  0.730138  0.868473  1
  Br  Br30  1  0.082899  0.271438  0.133270  1
