# generated using pymatgen
data_Nb3P10W7
_symmetry_space_group_name_H-M   'P 1'
_cell_length_a   3.26417072
_cell_length_b   6.48135523
_cell_length_c   14.59837100
_cell_angle_alpha   77.17413075
_cell_angle_beta   83.58095228
_cell_angle_gamma   89.99999748
_symmetry_Int_Tables_number   1
_chemical_formula_structural   Nb3P10W7
_chemical_formula_sum   'Nb3 P10 W7'
_cell_volume   299.15472798
_cell_formula_units_Z   1
loop_
 _symmetry_equiv_pos_site_id
 _symmetry_equiv_pos_as_xyz
  1  'x, y, z'
loop_
 _atom_site_type_symbol
 _atom_site_label
 _atom_site_symmetry_multiplicity
 _atom_site_fract_x
 _atom_site_fract_y
 _atom_site_fract_z
 _atom_site_occupancy
  Nb  Nb0  1  0.012795  0.512795  0.974413  1
  Nb  Nb1  1  0.411001  0.911001  0.177996  1
  Nb  Nb2  1  0.809486  0.309486  0.381027  1
  P  P3  1  0.944622  0.199651  0.110755  1
  P  P4  1  0.343520  0.596716  0.312960  1
  P  P5  1  0.742863  0.990091  0.514274  1
  P  P6  1  0.144107  0.394653  0.711787  1
  P  P7  1  0.545466  0.802022  0.909069  1
  P  P8  1  0.944622  0.689593  0.110755  1
  P  P9  1  0.343520  0.090327  0.312960  1
  P  P10  1  0.742863  0.495634  0.514274  1
  P  P11  1  0.144107  0.893561  0.711787  1
  P  P12  1  0.545466  0.288910  0.909069  1
  W  W13  1  0.210021  0.710021  0.579957  1
  W  W14  1  0.209805  0.209805  0.580391  1
  W  W15  1  0.611691  0.611691  0.776619  1
  W  W16  1  0.011507  0.011507  0.976988  1
  W  W17  1  0.410391  0.410391  0.179218  1
  W  W18  1  0.809751  0.809751  0.380500  1
  W  W19  1  0.612398  0.112398  0.775204  1
