# generated using pymatgen
data_Rb8Zr(SeO4)6
_symmetry_space_group_name_H-M   'P 1'
_cell_length_a   8.16947939
_cell_length_b   10.29026625
_cell_length_c   10.63648080
_cell_angle_alpha   61.07102028
_cell_angle_beta   100.47468036
_cell_angle_gamma   112.07594593
_symmetry_Int_Tables_number   1
_chemical_formula_structural   Rb8Zr(SeO4)6
_chemical_formula_sum   'Rb8 Zr1 Se6 O24'
_cell_volume   725.21872550
_cell_formula_units_Z   1
loop_
 _symmetry_equiv_pos_site_id
 _symmetry_equiv_pos_as_xyz
  1  'x, y, z'
loop_
 _atom_site_type_symbol
 _atom_site_label
 _atom_site_symmetry_multiplicity
 _atom_site_fract_x
 _atom_site_fract_y
 _atom_site_fract_z
 _atom_site_occupancy
  Rb  Rb0  1  0.626809  0.223230  0.000000  1
  Rb  Rb1  1  0.373191  0.776769  0.000000  1
  Rb  Rb2  1  0.500001  0.335474  0.329052  1
  Rb  Rb3  1  0.891971  0.129096  0.341392  1
  Rb  Rb4  1  0.108029  0.529510  0.341392  1
  Rb  Rb5  1  0.891972  0.470490  0.658608  1
  Rb  Rb6  1  0.108028  0.870903  0.658608  1
  Rb  Rb7  1  0.500000  0.664527  0.670948  1
  Zr  Zr8  1  0.000000  0.000000  0.000000  1
  Se  Se9  1  0.203273  0.380775  0.000000  1
  Se  Se10  1  0.796727  0.619225  0.000000  1
  Se  Se11  1  0.715813  0.734251  0.316884  1
  Se  Se12  1  0.284187  0.948865  0.316884  1
  Se  Se13  1  0.715813  0.051135  0.683116  1
  Se  Se14  1  0.284187  0.265748  0.683116  1
  O  O15  1  0.027818  0.217290  0.000000  1
  O  O16  1  0.384188  0.345242  0.000000  1
  O  O17  1  0.615812  0.654757  0.000000  1
  O  O18  1  0.972182  0.782709  0.000000  1
  O  O19  1  0.804637  0.900799  0.157659  1
  O  O20  1  0.195362  0.941542  0.157659  1
  O  O21  1  0.183241  0.395089  0.145454  1
  O  O22  1  0.816758  0.459458  0.145454  1
  O  O23  1  0.500809  0.034623  0.289954  1
  O  O24  1  0.499191  0.675422  0.289954  1
  O  O25  1  0.198729  0.053318  0.347875  1
  O  O26  1  0.801270  0.598807  0.347875  1
  O  O27  1  0.228816  0.764463  0.447152  1
  O  O28  1  0.771184  0.788385  0.447152  1
  O  O29  1  0.228816  0.211615  0.552848  1
  O  O30  1  0.771185  0.235537  0.552848  1
  O  O31  1  0.198730  0.401193  0.652125  1
  O  O32  1  0.801270  0.946682  0.652125  1
  O  O33  1  0.500808  0.324578  0.710046  1
  O  O34  1  0.499191  0.965377  0.710046  1
  O  O35  1  0.183241  0.540542  0.854547  1
  O  O36  1  0.816758  0.604911  0.854547  1
  O  O37  1  0.804637  0.058457  0.842340  1
  O  O38  1  0.195363  0.099201  0.842340  1
