# generated using pymatgen
data_Er4MgCdCu3Ni
_symmetry_space_group_name_H-M   'P 1'
_cell_length_a   7.52194657
_cell_length_b   7.50908970
_cell_length_c   3.66022500
_cell_angle_alpha   90.00000000
_cell_angle_beta   90.00000000
_cell_angle_gamma   90.86787317
_symmetry_Int_Tables_number   1
_chemical_formula_structural   Er4MgCdCu3Ni
_chemical_formula_sum   'Er4 Mg1 Cd1 Cu3 Ni1'
_cell_volume   206.71666780
_cell_formula_units_Z   1
loop_
 _symmetry_equiv_pos_site_id
 _symmetry_equiv_pos_as_xyz
  1  'x, y, z'
loop_
 _atom_site_type_symbol
 _atom_site_label
 _atom_site_symmetry_multiplicity
 _atom_site_fract_x
 _atom_site_fract_y
 _atom_site_fract_z
 _atom_site_occupancy
  Er  Er0  1  0.660896  0.175199  0.500000  1
  Er  Er1  1  0.325987  0.813943  0.500000  1
  Er  Er2  1  0.179803  0.348203  0.500000  1
  Er  Er3  1  0.835927  0.666912  0.500000  1
  Mg  Mg4  1  0.001005  0.002473  0.000000  1
  Cd  Cd5  1  0.505014  0.501938  0.000000  1
  Cu  Cu6  1  0.882839  0.371129  0.000000  1
  Cu  Cu7  1  0.623923  0.881951  0.000000  1
  Cu  Cu8  1  0.369398  0.113702  0.000000  1
  Ni  Ni9  1  0.115207  0.624548  0.000000  1
