# generated using pymatgen
data_TbZr(Al3Rh)3
_symmetry_space_group_name_H-M   'P 1'
_cell_length_a   7.53515964
_cell_length_b   7.51203509
_cell_length_c   9.36700000
_cell_angle_alpha   90.00000000
_cell_angle_beta   90.00000000
_cell_angle_gamma   119.72492054
_symmetry_Int_Tables_number   1
_chemical_formula_structural   TbZr(Al3Rh)3
_chemical_formula_sum   'Tb2 Zr2 Al18 Rh6'
_cell_volume   460.44564545
_cell_formula_units_Z   2
loop_
 _symmetry_equiv_pos_site_id
 _symmetry_equiv_pos_as_xyz
  1  'x, y, z'
loop_
 _atom_site_type_symbol
 _atom_site_label
 _atom_site_symmetry_multiplicity
 _atom_site_fract_x
 _atom_site_fract_y
 _atom_site_fract_z
 _atom_site_occupancy
  Tb  Tb0  1  0.670965  0.993531  0.250000  1
  Tb  Tb1  1  0.329035  0.006469  0.750000  1
  Zr  Zr2  1  0.994700  0.671504  0.250000  1
  Zr  Zr3  1  0.005300  0.328496  0.750000  1
  Al  Al4  1  0.125377  0.123603  0.250000  1
  Al  Al5  1  0.874623  0.876397  0.750000  1
  Al  Al6  1  0.999411  0.337947  0.074659  1
  Al  Al7  1  0.000589  0.662053  0.925341  1
  Al  Al8  1  0.000589  0.662053  0.574659  1
  Al  Al9  1  0.331803  0.997882  0.421216  1
  Al  Al10  1  0.999411  0.337947  0.425341  1
  Al  Al11  1  0.668197  0.002118  0.578784  1
  Al  Al12  1  0.668197  0.002118  0.921216  1
  Al  Al13  1  0.331803  0.997882  0.078784  1
  Al  Al14  1  0.330780  0.333412  0.553870  1
  Al  Al15  1  0.669220  0.666588  0.446130  1
  Al  Al16  1  0.669220  0.666588  0.053870  1
  Al  Al17  1  0.330780  0.333412  0.946130  1
  Al  Al18  1  0.333866  0.549030  0.250000  1
  Al  Al19  1  0.666134  0.450970  0.750000  1
  Al  Al20  1  0.556638  0.345338  0.250000  1
  Al  Al21  1  0.443362  0.654662  0.750000  1
  Rh  Rh22  1  0.673399  0.328202  0.999292  1
  Rh  Rh23  1  0.326601  0.671798  0.000708  1
  Rh  Rh24  1  0.326601  0.671798  0.499292  1
  Rh  Rh25  1  0.673399  0.328202  0.500708  1
  Rh  Rh26  1  0.000000  0.000000  0.000000  1
  Rh  Rh27  1  0.000000  0.000000  0.500000  1
