# generated using pymatgen
data_Er4AlIr6Ru
_symmetry_space_group_name_H-M   'P 1'
_cell_length_a   5.45507900
_cell_length_b   5.45507926
_cell_length_c   8.32252700
_cell_angle_alpha   90.00000000
_cell_angle_beta   90.00000000
_cell_angle_gamma   120.00000451
_symmetry_Int_Tables_number   1
_chemical_formula_structural   Er4AlIr6Ru
_chemical_formula_sum   'Er4 Al1 Ir6 Ru1'
_cell_volume   214.48055947
_cell_formula_units_Z   1
loop_
 _symmetry_equiv_pos_site_id
 _symmetry_equiv_pos_as_xyz
  1  'x, y, z'
loop_
 _atom_site_type_symbol
 _atom_site_label
 _atom_site_symmetry_multiplicity
 _atom_site_fract_x
 _atom_site_fract_y
 _atom_site_fract_z
 _atom_site_occupancy
  Er  Er0  1  0.333333  0.666667  0.438361  1
  Er  Er1  1  0.666667  0.333333  0.561639  1
  Er  Er2  1  0.666667  0.333333  0.931327  1
  Er  Er3  1  0.333333  0.666667  0.068673  1
  Al  Al4  1  0.000000  0.000000  0.000000  1
  Ir  Ir5  1  0.170416  0.340831  0.753091  1
  Ir  Ir6  1  0.170416  0.829584  0.753091  1
  Ir  Ir7  1  0.340831  0.170416  0.246909  1
  Ir  Ir8  1  0.829584  0.659169  0.246909  1
  Ir  Ir9  1  0.659169  0.829584  0.753091  1
  Ir  Ir10  1  0.829584  0.170416  0.246909  1
  Ru  Ru11  1  0.000000  0.000000  0.500000  1
