# generated using pymatgen
data_MnCu11(PdAu)6
_symmetry_space_group_name_H-M   'P 1'
_cell_length_a   4.01915300
_cell_length_b   7.13834200
_cell_length_c   12.09215900
_cell_angle_alpha   90.00013055
_cell_angle_beta   90.00005224
_cell_angle_gamma   90.00000803
_symmetry_Int_Tables_number   1
_chemical_formula_structural   MnCu11(PdAu)6
_chemical_formula_sum   'Mn1 Cu11 Pd6 Au6'
_cell_volume   346.92511385
_cell_formula_units_Z   1
loop_
 _symmetry_equiv_pos_site_id
 _symmetry_equiv_pos_as_xyz
  1  'x, y, z'
loop_
 _atom_site_type_symbol
 _atom_site_label
 _atom_site_symmetry_multiplicity
 _atom_site_fract_x
 _atom_site_fract_y
 _atom_site_fract_z
 _atom_site_occupancy
  Mn  Mn0  1  0.500000  0.250137  0.000000  1
  Cu  Cu1  1  0.500000  0.748464  0.000000  1
  Cu  Cu2  1  0.999999  0.250237  0.167426  1
  Cu  Cu3  1  0.000000  0.750014  0.168559  1
  Cu  Cu4  1  0.500001  0.249814  0.333569  1
  Cu  Cu5  1  0.500001  0.750623  0.336258  1
  Cu  Cu6  1  0.000000  0.249741  0.500000  1
  Cu  Cu7  1  0.000000  0.750154  0.500000  1
  Cu  Cu8  1  0.499998  0.249812  0.666432  1
  Cu  Cu9  1  0.499999  0.750618  0.663745  1
  Cu  Cu10  1  0.000001  0.250238  0.832574  1
  Cu  Cu11  1  0.000001  0.750015  0.831436  1
  Pd  Pd12  1  0.000000  0.501890  0.000000  1
  Pd  Pd13  1  0.499999  0.998541  0.166960  1
  Pd  Pd14  1  0.000003  0.500432  0.334038  1
  Pd  Pd15  1  0.500000  0.001376  0.500000  1
  Pd  Pd16  1  0.999998  0.500430  0.665962  1
  Pd  Pd17  1  0.500002  0.998537  0.833037  1
  Au  Au18  1  0.000000  0.993172  0.000000  1
  Au  Au19  1  0.500002  0.503696  0.168918  1
  Au  Au20  1  0.000000  0.999902  0.333693  1
  Au  Au21  1  0.500000  0.498560  0.500000  1
  Au  Au22  1  0.000001  0.999901  0.666307  1
  Au  Au23  1  0.499999  0.503695  0.831082  1
