# generated using pymatgen
data_CaDy3Ho4(B6Ru)4
_symmetry_space_group_name_H-M   'P 1'
_cell_length_a   3.65582600
_cell_length_b   9.13621203
_cell_length_c   11.52552200
_cell_angle_alpha   89.89707878
_cell_angle_beta   90.00000000
_cell_angle_gamma   90.00000000
_symmetry_Int_Tables_number   1
_chemical_formula_structural   CaDy3Ho4(B6Ru)4
_chemical_formula_sum   'Ca1 Dy3 Ho4 B24 Ru4'
_cell_volume   384.95644120
_cell_formula_units_Z   1
loop_
 _symmetry_equiv_pos_site_id
 _symmetry_equiv_pos_as_xyz
  1  'x, y, z'
loop_
 _atom_site_type_symbol
 _atom_site_label
 _atom_site_symmetry_multiplicity
 _atom_site_fract_x
 _atom_site_fract_y
 _atom_site_fract_z
 _atom_site_occupancy
  Ca  Ca0  1  0.000000  0.322808  0.413893  1
  Dy  Dy1  1  0.000000  0.675709  0.585063  1
  Dy  Dy2  1  0.000000  0.822802  0.086318  1
  Dy  Dy3  1  0.000000  0.177674  0.914515  1
  Ho  Ho4  1  0.000000  0.943988  0.371115  1
  Ho  Ho5  1  0.000000  0.057792  0.628227  1
  Ho  Ho6  1  0.000000  0.443034  0.129488  1
  Ho  Ho7  1  0.000000  0.556204  0.872253  1
  B  B8  1  0.500000  0.554675  0.432528  1
  B  B9  1  0.500000  0.446152  0.567931  1
  B  B10  1  0.500000  0.053341  0.066581  1
  B  B11  1  0.500000  0.945722  0.932374  1
  B  B12  1  0.500000  0.748496  0.419144  1
  B  B13  1  0.500000  0.252169  0.581523  1
  B  B14  1  0.500000  0.247492  0.080316  1
  B  B15  1  0.500000  0.751874  0.919538  1
  B  B16  1  0.500000  0.791483  0.266032  1
  B  B17  1  0.500000  0.209678  0.734300  1
  B  B18  1  0.500000  0.289732  0.232964  1
  B  B19  1  0.500000  0.709310  0.766464  1
  B  B20  1  0.500000  0.632248  0.185770  1
  B  B21  1  0.500000  0.368428  0.815219  1
  B  B22  1  0.500000  0.130825  0.313540  1
  B  B23  1  0.500000  0.868480  0.685285  1
  B  B24  1  0.500000  0.983342  0.211715  1
  B  B25  1  0.500000  0.016327  0.787317  1
  B  B26  1  0.500000  0.484500  0.287379  1
  B  B27  1  0.500000  0.516355  0.713004  1
  B  B28  1  0.500000  0.608221  0.030085  1
  B  B29  1  0.500000  0.392033  0.970555  1
  B  B30  1  0.500000  0.103977  0.471172  1
  B  B31  1  0.500000  0.894528  0.529156  1
  Ru  Ru32  1  0.000000  0.640105  0.320238  1
  Ru  Ru33  1  0.000000  0.361972  0.680839  1
  Ru  Ru34  1  0.000000  0.136471  0.177172  1
  Ru  Ru35  1  0.000000  0.862049  0.820986  1
