# generated using pymatgen
data_HgSe2O7
_symmetry_space_group_name_H-M   'P 1'
_cell_length_a   5.48743775
_cell_length_b   7.70413886
_cell_length_c   9.51988366
_cell_angle_alpha   93.58670983
_cell_angle_beta   91.30168703
_cell_angle_gamma   105.47269498
_symmetry_Int_Tables_number   1
_chemical_formula_structural   HgSe2O7
_chemical_formula_sum   'Hg2 Se4 O14'
_cell_volume   386.79151803
_cell_formula_units_Z   2
loop_
 _symmetry_equiv_pos_site_id
 _symmetry_equiv_pos_as_xyz
  1  'x, y, z'
loop_
 _atom_site_type_symbol
 _atom_site_label
 _atom_site_symmetry_multiplicity
 _atom_site_fract_x
 _atom_site_fract_y
 _atom_site_fract_z
 _atom_site_occupancy
  Hg  Hg0  1  0.000000  0.500000  0.000000  1
  Hg  Hg1  1  0.500000  0.000000  0.500000  1
  Se  Se2  1  0.514881  0.644135  0.769330  1
  Se  Se3  1  0.485119  0.355865  0.230670  1
  Se  Se4  1  0.137072  0.251261  0.685081  1
  Se  Se5  1  0.862928  0.748739  0.314919  1
  O  O6  1  0.726851  0.536498  0.809379  1
  O  O7  1  0.273149  0.463502  0.190621  1
  O  O8  1  0.349929  0.695507  0.902350  1
  O  O9  1  0.650071  0.304493  0.097650  1
  O  O10  1  0.623796  0.811855  0.669271  1
  O  O11  1  0.376204  0.188145  0.330729  1
  O  O12  1  0.286347  0.484419  0.645672  1
  O  O13  1  0.713653  0.515581  0.354328  1
  O  O14  1  0.926771  0.196631  0.553371  1
  O  O15  1  0.073229  0.803369  0.446629  1
  O  O16  1  0.361235  0.140943  0.682431  1
  O  O17  1  0.638765  0.859057  0.317569  1
  O  O18  1  0.036264  0.253522  0.847551  1
  O  O19  1  0.963736  0.746478  0.152449  1
