# generated using pymatgen
data_Na2Yb(ZrS3)2
_symmetry_space_group_name_H-M   'P 1'
_cell_length_a   6.66574492
_cell_length_b   6.66574529
_cell_length_c   7.03150900
_cell_angle_alpha   81.20890327
_cell_angle_beta   81.20892017
_cell_angle_gamma   120.61018233
_symmetry_Int_Tables_number   1
_chemical_formula_structural   Na2Yb(ZrS3)2
_chemical_formula_sum   'Na2 Yb1 Zr2 S6'
_cell_volume   255.77269433
_cell_formula_units_Z   1
loop_
 _symmetry_equiv_pos_site_id
 _symmetry_equiv_pos_as_xyz
  1  'x, y, z'
loop_
 _atom_site_type_symbol
 _atom_site_label
 _atom_site_symmetry_multiplicity
 _atom_site_fract_x
 _atom_site_fract_y
 _atom_site_fract_z
 _atom_site_occupancy
  Na  Na0  1  0.161843  0.838157  0.500000  1
  Na  Na1  1  0.838157  0.161843  0.500000  1
  Yb  Yb2  1  0.000000  0.000000  0.000000  1
  Zr  Zr3  1  0.334422  0.665578  0.000000  1
  Zr  Zr4  1  0.665578  0.334422  0.000000  1
  S  S5  1  0.932266  0.574583  0.217783  1
  S  S6  1  0.284339  0.284339  0.220011  1
  S  S7  1  0.574583  0.932266  0.217783  1
  S  S8  1  0.715661  0.715661  0.779989  1
  S  S9  1  0.067734  0.425417  0.782217  1
  S  S10  1  0.425417  0.067734  0.782217  1
