# generated using pymatgen
data_RbNbSi2O7
_symmetry_space_group_name_H-M   'P 1'
_cell_length_a   8.87738900
_cell_length_b   8.87738900
_cell_length_c   8.27438800
_cell_angle_alpha   90.00000000
_cell_angle_beta   90.00000000
_cell_angle_gamma   90.00000000
_symmetry_Int_Tables_number   1
_chemical_formula_structural   RbNbSi2O7
_chemical_formula_sum   'Rb4 Nb4 Si8 O28'
_cell_volume   652.08826289
_cell_formula_units_Z   4
loop_
 _symmetry_equiv_pos_site_id
 _symmetry_equiv_pos_as_xyz
  1  'x, y, z'
loop_
 _atom_site_type_symbol
 _atom_site_label
 _atom_site_symmetry_multiplicity
 _atom_site_fract_x
 _atom_site_fract_y
 _atom_site_fract_z
 _atom_site_occupancy
  Rb  Rb0  1  0.177286  0.677286  0.992718  1
  Rb  Rb1  1  0.677286  0.822714  0.992718  1
  Rb  Rb2  1  0.822714  0.322714  0.992718  1
  Rb  Rb3  1  0.322714  0.177286  0.992718  1
  Nb  Nb4  1  0.500000  0.500000  0.719311  1
  Nb  Nb5  1  0.500000  0.500000  0.219093  1
  Nb  Nb6  1  0.000000  0.000000  0.719311  1
  Nb  Nb7  1  0.000000  0.000000  0.219093  1
  Si  Si8  1  0.123752  0.376248  0.692042  1
  Si  Si9  1  0.876450  0.623550  0.303566  1
  Si  Si10  1  0.376450  0.876450  0.303566  1
  Si  Si11  1  0.623550  0.123550  0.303566  1
  Si  Si12  1  0.623752  0.123752  0.692042  1
  Si  Si13  1  0.376248  0.876248  0.692042  1
  Si  Si14  1  0.876248  0.623752  0.692042  1
  Si  Si15  1  0.123550  0.376450  0.303566  1
  O  O16  1  0.424684  0.712131  0.760873  1
  O  O17  1  0.924185  0.787326  0.234532  1
  O  O18  1  0.075316  0.212131  0.760873  1
  O  O19  1  0.287869  0.424684  0.760873  1
  O  O20  1  0.575815  0.287326  0.234532  1
  O  O21  1  0.787869  0.075316  0.760873  1
  O  O22  1  0.287326  0.424185  0.234532  1
  O  O23  1  0.620069  0.120069  0.497756  1
  O  O24  1  0.787326  0.075815  0.234532  1
  O  O25  1  0.120069  0.379931  0.497756  1
  O  O26  1  0.000000  0.500000  0.761479  1
  O  O27  1  0.000000  0.500000  0.233767  1
  O  O28  1  0.379931  0.879931  0.497756  1
  O  O29  1  0.500000  0.000000  0.761479  1
  O  O30  1  0.879931  0.620069  0.497756  1
  O  O31  1  0.924684  0.787869  0.760873  1
  O  O32  1  0.075815  0.212674  0.234532  1
  O  O33  1  0.424185  0.712674  0.234532  1
  O  O34  1  0.212674  0.924185  0.234532  1
  O  O35  1  0.500000  0.000000  0.233767  1
  O  O36  1  0.500000  0.500000  0.501618  1
  O  O37  1  0.500000  0.500000  0.999747  1
  O  O38  1  0.712674  0.575815  0.234532  1
  O  O39  1  0.212131  0.924684  0.760873  1
  O  O40  1  0.000000  0.000000  0.501618  1
  O  O41  1  0.712131  0.575316  0.760873  1
  O  O42  1  0.000000  0.000000  0.999747  1
  O  O43  1  0.575316  0.287869  0.760873  1
