# generated using pymatgen
data_Ce4HfNb5Si8
_symmetry_space_group_name_H-M   'P 1'
_cell_length_a   7.14692075
_cell_length_b   7.14692075
_cell_length_c   13.27623300
_cell_angle_alpha   90.00000000
_cell_angle_beta   90.00000000
_cell_angle_gamma   90.05255846
_symmetry_Int_Tables_number   1
_chemical_formula_structural   Ce4HfNb5Si8
_chemical_formula_sum   'Ce8 Hf2 Nb10 Si16'
_cell_volume   678.12946642
_cell_formula_units_Z   2
loop_
 _symmetry_equiv_pos_site_id
 _symmetry_equiv_pos_as_xyz
  1  'x, y, z'
loop_
 _atom_site_type_symbol
 _atom_site_label
 _atom_site_symmetry_multiplicity
 _atom_site_fract_x
 _atom_site_fract_y
 _atom_site_fract_z
 _atom_site_occupancy
  Ce  Ce0  1  0.994448  0.335804  0.217649  1
  Ce  Ce1  1  0.005552  0.664196  0.717649  1
  Ce  Ce2  1  0.165562  0.495533  0.466423  1
  Ce  Ce3  1  0.504467  0.834438  0.033577  1
  Ce  Ce4  1  0.834438  0.504467  0.966423  1
  Ce  Ce5  1  0.495533  0.165562  0.533577  1
  Ce  Ce6  1  0.335804  0.994448  0.782351  1
  Ce  Ce7  1  0.664196  0.005552  0.282351  1
  Hf  Hf8  1  0.169483  0.169483  0.000000  1
  Hf  Hf9  1  0.830517  0.830517  0.500000  1
  Nb  Nb10  1  0.331318  0.668682  0.250000  1
  Nb  Nb11  1  0.668682  0.331318  0.750000  1
  Nb  Nb12  1  0.157840  0.994146  0.373500  1
  Nb  Nb13  1  0.842160  0.005854  0.873500  1
  Nb  Nb14  1  0.504411  0.656825  0.625306  1
  Nb  Nb15  1  0.343175  0.495589  0.874694  1
  Nb  Nb16  1  0.495589  0.343175  0.125306  1
  Nb  Nb17  1  0.656825  0.504411  0.374694  1
  Nb  Nb18  1  0.994146  0.157840  0.626500  1
  Nb  Nb19  1  0.005854  0.842160  0.126500  1
  Si  Si20  1  0.293551  0.040111  0.186920  1
  Si  Si21  1  0.706449  0.959889  0.686920  1
  Si  Si22  1  0.457020  0.792944  0.435388  1
  Si  Si23  1  0.207056  0.542980  0.064612  1
  Si  Si24  1  0.542980  0.207056  0.935388  1
  Si  Si25  1  0.792944  0.457020  0.564612  1
  Si  Si26  1  0.040111  0.293551  0.813080  1
  Si  Si27  1  0.959889  0.706449  0.313080  1
  Si  Si28  1  0.371541  0.296396  0.313927  1
  Si  Si29  1  0.628459  0.703604  0.813927  1
  Si  Si30  1  0.205524  0.871800  0.563913  1
  Si  Si31  1  0.128200  0.794476  0.936087  1
  Si  Si32  1  0.794476  0.128200  0.063913  1
  Si  Si33  1  0.871800  0.205524  0.436087  1
  Si  Si34  1  0.296396  0.371541  0.686073  1
  Si  Si35  1  0.703604  0.628459  0.186073  1
