# generated using pymatgen
data_ZrBr37
_symmetry_space_group_name_H-M   'P 1'
_cell_length_a   14.20848141
_cell_length_b   15.29732181
_cell_length_c   14.42416200
_cell_angle_alpha   103.00376457
_cell_angle_beta   48.80056783
_cell_angle_gamma   81.50743146
_symmetry_Int_Tables_number   1
_chemical_formula_structural   ZrBr37
_chemical_formula_sum   'Zr1 Br37'
_cell_volume   2102.91272627
_cell_formula_units_Z   1
loop_
 _symmetry_equiv_pos_site_id
 _symmetry_equiv_pos_as_xyz
  1  'x, y, z'
loop_
 _atom_site_type_symbol
 _atom_site_label
 _atom_site_symmetry_multiplicity
 _atom_site_fract_x
 _atom_site_fract_y
 _atom_site_fract_z
 _atom_site_occupancy
  Zr  Zr0  1  0.500000  0.000000  0.000000  1
  Br  Br1  1  0.791709  0.302946  0.136081  1
  Br  Br2  1  0.208291  0.697054  0.863919  1
  Br  Br3  1  0.745877  0.081760  0.361395  1
  Br  Br4  1  0.254123  0.918240  0.638605  1
  Br  Br5  1  0.109276  0.352878  0.171828  1
  Br  Br6  1  0.890724  0.647122  0.828172  1
  Br  Br7  1  0.862626  0.535605  0.248908  1
  Br  Br8  1  0.137374  0.464395  0.751092  1
  Br  Br9  1  0.687117  0.274815  0.521582  1
  Br  Br10  1  0.312883  0.725185  0.478418  1
  Br  Br11  1  0.039213  0.153341  0.478407  1
  Br  Br12  1  0.960787  0.846659  0.521593  1
  Br  Br13  1  0.980652  0.007773  0.282728  1
  Br  Br14  1  0.019348  0.992227  0.717272  1
  Br  Br15  1  0.948720  0.341231  0.601110  1
  Br  Br16  1  0.051280  0.658769  0.398890  1
  Br  Br17  1  0.581500  0.429085  0.234207  1
  Br  Br18  1  0.418500  0.570915  0.765793  1
  Br  Br19  1  0.176595  0.474130  0.267916  1
  Br  Br20  1  0.823405  0.525870  0.732084  1
  Br  Br21  1  0.000000  0.500000  0.000000  1
  Br  Br22  1  0.621146  0.944969  0.071143  1
  Br  Br23  1  0.378854  0.055031  0.928857  1
  Br  Br24  1  0.315622  0.048749  0.277106  1
  Br  Br25  1  0.684378  0.951251  0.722894  1
  Br  Br26  1  0.534036  0.128812  0.410580  1
  Br  Br27  1  0.465964  0.871188  0.589420  1
  Br  Br28  1  0.073168  0.224707  0.078318  1
  Br  Br29  1  0.926832  0.775293  0.921682  1
  Br  Br30  1  0.661377  0.695674  0.404064  1
  Br  Br31  1  0.338623  0.304326  0.595936  1
  Br  Br32  1  0.901401  0.148056  0.923769  1
  Br  Br33  1  0.098599  0.851944  0.076231  1
  Br  Br34  1  0.513404  0.167508  0.047929  1
  Br  Br35  1  0.486596  0.832492  0.952071  1
  Br  Br36  1  0.651029  0.429658  0.649499  1
  Br  Br37  1  0.348971  0.570342  0.350501  1
