# generated using pymatgen
data_AlZn4SiPd10
_symmetry_space_group_name_H-M   'P 1'
_cell_length_a   4.07195500
_cell_length_b   5.49148047
_cell_length_c   10.51241049
_cell_angle_alpha   90.25552587
_cell_angle_beta   90.00000000
_cell_angle_gamma   90.00000000
_symmetry_Int_Tables_number   1
_chemical_formula_structural   AlZn4SiPd10
_chemical_formula_sum   'Al1 Zn4 Si1 Pd10'
_cell_volume   235.06631824
_cell_formula_units_Z   1
loop_
 _symmetry_equiv_pos_site_id
 _symmetry_equiv_pos_as_xyz
  1  'x, y, z'
loop_
 _atom_site_type_symbol
 _atom_site_label
 _atom_site_symmetry_multiplicity
 _atom_site_fract_x
 _atom_site_fract_y
 _atom_site_fract_z
 _atom_site_occupancy
  Al  Al0  1  0.000000  0.500000  0.500000  1
  Zn  Zn1  1  0.500000  0.162126  0.359710  1
  Zn  Zn2  1  0.500000  0.837874  0.640290  1
  Zn  Zn3  1  0.500000  0.651329  0.143081  1
  Zn  Zn4  1  0.500000  0.348671  0.856919  1
  Si  Si5  1  0.000000  0.000000  0.000000  1
  Pd  Pd6  1  0.500000  0.176489  0.101239  1
  Pd  Pd7  1  0.500000  0.823511  0.898761  1
  Pd  Pd8  1  0.500000  0.682601  0.392972  1
  Pd  Pd9  1  0.500000  0.317399  0.607028  1
  Pd  Pd10  1  0.000000  0.000000  0.500000  1
  Pd  Pd11  1  0.000000  0.500000  0.000000  1
  Pd  Pd12  1  0.000000  0.904070  0.226968  1
  Pd  Pd13  1  0.000000  0.095930  0.773032  1
  Pd  Pd14  1  0.000000  0.401797  0.265658  1
  Pd  Pd15  1  0.000000  0.598203  0.734342  1
