# generated using pymatgen
data_NaZr2NbPd12
_symmetry_space_group_name_H-M   'P 1'
_cell_length_a   5.66092900
_cell_length_b   5.66092984
_cell_length_c   9.17275400
_cell_angle_alpha   90.00000000
_cell_angle_beta   90.00000000
_cell_angle_gamma   120.00000096
_symmetry_Int_Tables_number   1
_chemical_formula_structural   NaZr2NbPd12
_chemical_formula_sum   'Na1 Zr2 Nb1 Pd12'
_cell_volume   254.56919784
_cell_formula_units_Z   1
loop_
 _symmetry_equiv_pos_site_id
 _symmetry_equiv_pos_as_xyz
  1  'x, y, z'
loop_
 _atom_site_type_symbol
 _atom_site_label
 _atom_site_symmetry_multiplicity
 _atom_site_fract_x
 _atom_site_fract_y
 _atom_site_fract_z
 _atom_site_occupancy
  Na  Na0  1  0.333333  0.666667  0.249756  1
  Zr  Zr1  1  0.000000  0.000000  0.003909  1
  Zr  Zr2  1  0.666667  0.333333  0.751592  1
  Nb  Nb3  1  0.000000  0.000000  0.493023  1
  Pd  Pd4  1  0.500791  0.499209  0.501351  1
  Pd  Pd5  1  0.500791  0.001582  0.501351  1
  Pd  Pd6  1  0.998418  0.499209  0.501351  1
  Pd  Pd7  1  0.500778  0.499222  0.998938  1
  Pd  Pd8  1  0.500778  0.001554  0.998938  1
  Pd  Pd9  1  0.998446  0.499222  0.998938  1
  Pd  Pd10  1  0.831537  0.168463  0.253345  1
  Pd  Pd11  1  0.831537  0.663074  0.253345  1
  Pd  Pd12  1  0.336926  0.168463  0.253345  1
  Pd  Pd13  1  0.167784  0.832216  0.746939  1
  Pd  Pd14  1  0.167784  0.335567  0.746939  1
  Pd  Pd15  1  0.664433  0.832216  0.746939  1
