# generated using pymatgen
data_Y5Sc14Si16Mo
_symmetry_space_group_name_H-M   'P 1'
_cell_length_a   6.98527755
_cell_length_b   7.29768209
_cell_length_c   13.81820910
_cell_angle_alpha   89.78467470
_cell_angle_beta   89.75207342
_cell_angle_gamma   89.74894158
_symmetry_Int_Tables_number   1
_chemical_formula_structural   Y5Sc14Si16Mo
_chemical_formula_sum   'Y5 Sc14 Si16 Mo1'
_cell_volume   704.38337275
_cell_formula_units_Z   1
loop_
 _symmetry_equiv_pos_site_id
 _symmetry_equiv_pos_as_xyz
  1  'x, y, z'
loop_
 _atom_site_type_symbol
 _atom_site_label
 _atom_site_symmetry_multiplicity
 _atom_site_fract_x
 _atom_site_fract_y
 _atom_site_fract_z
 _atom_site_occupancy
  Y  Y0  1  0.992688  0.679557  0.600775  1
  Y  Y1  1  0.011683  0.323448  0.404824  1
  Y  Y2  1  0.510449  0.175559  0.405153  1
  Y  Y3  1  0.013142  0.324104  0.089798  1
  Y  Y4  1  0.486423  0.825239  0.599432  1
  Sc  Sc5  1  0.842108  0.004755  0.247015  1
  Sc  Sc6  1  0.342160  0.497015  0.247663  1
  Sc  Sc7  1  0.656932  0.506244  0.753394  1
  Sc  Sc8  1  0.990574  0.686688  0.898634  1
  Sc  Sc9  1  0.483583  0.823253  0.901188  1
  Sc  Sc10  1  0.516746  0.181454  0.095514  1
  Sc  Sc11  1  0.327492  0.320307  0.631165  1
  Sc  Sc12  1  0.670718  0.676982  0.373279  1
  Sc  Sc13  1  0.173310  0.826347  0.375317  1
  Sc  Sc14  1  0.671110  0.678221  0.123472  1
  Sc  Sc15  1  0.828153  0.169552  0.631446  1
  Sc  Sc16  1  0.327582  0.319491  0.875422  1
  Sc  Sc17  1  0.824621  0.168746  0.873176  1
  Sc  Sc18  1  0.174329  0.827363  0.119742  1
  Si  Si19  1  0.030020  0.382097  0.753862  1
  Si  Si20  1  0.971295  0.616354  0.247876  1
  Si  Si21  1  0.469495  0.889357  0.246815  1
  Si  Si22  1  0.519213  0.097912  0.754593  1
  Si  Si23  1  0.281543  0.640870  0.756027  1
  Si  Si24  1  0.715410  0.369948  0.246326  1
  Si  Si25  1  0.218776  0.130381  0.245751  1
  Si  Si26  1  0.791149  0.867431  0.754529  1
  Si  Si27  1  0.155069  0.035351  0.546968  1
  Si  Si28  1  0.843729  0.963673  0.463485  1
  Si  Si29  1  0.345036  0.535671  0.463592  1
  Si  Si30  1  0.838584  0.963735  0.035558  1
  Si  Si31  1  0.657671  0.463664  0.540207  1
  Si  Si32  1  0.155865  0.023413  0.949376  1
  Si  Si33  1  0.662137  0.469878  0.959553  1
  Si  Si34  1  0.349970  0.535609  0.035955  1
  Mo  Mo35  1  0.151236  0.000325  0.753120  1
