# generated using pymatgen
data_K2Li14Sn3O14
_symmetry_space_group_name_H-M   'P 1'
_cell_length_a   8.24382283
_cell_length_b   8.24382281
_cell_length_c   8.24382256
_cell_angle_alpha   127.88831377
_cell_angle_beta   122.82505470
_cell_angle_gamma   81.01360615
_symmetry_Int_Tables_number   1
_chemical_formula_structural   K2Li14Sn3O14
_chemical_formula_sum   'K2 Li14 Sn3 O14'
_cell_volume   358.12775266
_cell_formula_units_Z   1
loop_
 _symmetry_equiv_pos_site_id
 _symmetry_equiv_pos_as_xyz
  1  'x, y, z'
loop_
 _atom_site_type_symbol
 _atom_site_label
 _atom_site_symmetry_multiplicity
 _atom_site_fract_x
 _atom_site_fract_y
 _atom_site_fract_z
 _atom_site_occupancy
  K  K0  1  0.500000  0.755845  0.255845  1
  K  K1  1  0.500000  0.244155  0.744155  1
  Li  Li2  1  0.705455  0.135725  0.112372  1
  Li  Li3  1  0.976648  0.864275  0.569730  1
  Li  Li4  1  0.023352  0.593083  0.887628  1
  Li  Li5  1  0.294545  0.406917  0.430270  1
  Li  Li6  1  0.023352  0.135725  0.430270  1
  Li  Li7  1  0.840585  0.500000  0.340585  1
  Li  Li8  1  0.159415  0.500000  0.659415  1
  Li  Li9  1  0.416630  0.771503  0.645127  1
  Li  Li10  1  0.583370  0.228497  0.354873  1
  Li  Li11  1  0.873624  0.228497  0.645127  1
  Li  Li12  1  0.126376  0.771503  0.354873  1
  Li  Li13  1  0.705455  0.593083  0.569730  1
  Li  Li14  1  0.294545  0.864275  0.887628  1
  Li  Li15  1  0.976648  0.406917  0.112372  1
  Sn  Sn16  1  0.000000  0.000000  0.000000  1
  Sn  Sn17  1  0.270490  0.270490  0.000000  1
  Sn  Sn18  1  0.729510  0.729510  0.000000  1
  O  O19  1  0.052102  0.873234  0.178868  1
  O  O20  1  0.420458  0.630885  0.789573  1
  O  O21  1  0.841312  0.630885  0.210427  1
  O  O22  1  0.579542  0.369115  0.210427  1
  O  O23  1  0.158688  0.369115  0.789573  1
  O  O24  1  0.744504  0.029911  0.285406  1
  O  O25  1  0.255496  0.540903  0.285406  1
  O  O26  1  0.255496  0.970089  0.714594  1
  O  O27  1  0.744504  0.459097  0.714594  1
  O  O28  1  0.000000  0.711251  0.711251  1
  O  O29  1  0.000000  0.288749  0.288749  1
  O  O30  1  0.694366  0.873234  0.821132  1
  O  O31  1  0.305634  0.126766  0.178868  1
  O  O32  1  0.947898  0.126766  0.821132  1
