# generated using pymatgen
data_SrTb3(Pt2O7)2
_symmetry_space_group_name_H-M   'P 1'
_cell_length_a   7.35098004
_cell_length_b   7.35097976
_cell_length_c   7.35098024
_cell_angle_alpha   59.97598474
_cell_angle_beta   59.97598121
_cell_angle_gamma   59.97598082
_symmetry_Int_Tables_number   1
_chemical_formula_structural   SrTb3(Pt2O7)2
_chemical_formula_sum   'Sr1 Tb3 Pt4 O14'
_cell_volume   280.72696864
_cell_formula_units_Z   1
loop_
 _symmetry_equiv_pos_site_id
 _symmetry_equiv_pos_as_xyz
  1  'x, y, z'
loop_
 _atom_site_type_symbol
 _atom_site_label
 _atom_site_symmetry_multiplicity
 _atom_site_fract_x
 _atom_site_fract_y
 _atom_site_fract_z
 _atom_site_occupancy
  Sr  Sr0  1  0.625000  0.625000  0.625000  1
  Tb  Tb1  1  0.625000  0.625000  0.125000  1
  Tb  Tb2  1  0.625000  0.125000  0.625000  1
  Tb  Tb3  1  0.125000  0.625000  0.625000  1
  Pt  Pt4  1  0.125000  0.125000  0.125000  1
  Pt  Pt5  1  0.625000  0.125000  0.125000  1
  Pt  Pt6  1  0.125000  0.625000  0.125000  1
  Pt  Pt7  1  0.125000  0.125000  0.625000  1
  O  O8  1  0.054548  0.457875  0.457875  1
  O  O9  1  0.792125  0.792125  0.195452  1
  O  O10  1  0.788344  0.212651  0.212651  1
  O  O11  1  0.457875  0.054548  0.457875  1
  O  O12  1  0.037349  0.461656  0.037349  1
  O  O13  1  0.756892  0.756892  0.756892  1
  O  O14  1  0.037349  0.037349  0.461656  1
  O  O15  1  0.212651  0.788344  0.212651  1
  O  O16  1  0.212651  0.212651  0.788344  1
  O  O17  1  0.493108  0.493108  0.493108  1
  O  O18  1  0.792125  0.195452  0.792125  1
  O  O19  1  0.461656  0.037349  0.037349  1
  O  O20  1  0.457875  0.457875  0.054548  1
  O  O21  1  0.195452  0.792125  0.792125  1
