# generated using pymatgen
data_Er10In7HgPd4
_symmetry_space_group_name_H-M   'P 1'
_cell_length_a   3.62218300
_cell_length_b   8.06522691
_cell_length_c   18.14048330
_cell_angle_alpha   90.07891282
_cell_angle_beta   90.00000000
_cell_angle_gamma   90.00000000
_symmetry_Int_Tables_number   1
_chemical_formula_structural   Er10In7HgPd4
_chemical_formula_sum   'Er10 In7 Hg1 Pd4'
_cell_volume   529.95063893
_cell_formula_units_Z   1
loop_
 _symmetry_equiv_pos_site_id
 _symmetry_equiv_pos_as_xyz
  1  'x, y, z'
loop_
 _atom_site_type_symbol
 _atom_site_label
 _atom_site_symmetry_multiplicity
 _atom_site_fract_x
 _atom_site_fract_y
 _atom_site_fract_z
 _atom_site_occupancy
  Er  Er0  1  0.000000  0.499928  0.500202  1
  Er  Er1  1  0.000000  0.996008  0.997459  1
  Er  Er2  1  0.000000  0.741439  0.279356  1
  Er  Er3  1  0.000000  0.258519  0.719719  1
  Er  Er4  1  0.000000  0.758074  0.783759  1
  Er  Er5  1  0.000000  0.241590  0.220153  1
  Er  Er6  1  0.000000  0.615870  0.083471  1
  Er  Er7  1  0.000000  0.390827  0.915832  1
  Er  Er8  1  0.000000  0.881870  0.585141  1
  Er  Er9  1  0.000000  0.116384  0.415864  1
  In  In10  1  0.500000  0.289869  0.066917  1
  In  In11  1  0.500000  0.790710  0.432631  1
  In  In12  1  0.500000  0.207440  0.567171  1
  In  In13  1  0.500000  0.578686  0.649267  1
  In  In14  1  0.500000  0.422286  0.351054  1
  In  In15  1  0.500000  0.922280  0.148090  1
  In  In16  1  0.500000  0.081910  0.851399  1
  Hg  Hg17  1  0.500000  0.710409  0.933706  1
  Pd  Pd18  1  0.500000  0.523425  0.195847  1
  Pd  Pd19  1  0.500000  0.473479  0.802508  1
  Pd  Pd20  1  0.500000  0.975456  0.696525  1
  Pd  Pd21  1  0.500000  0.023542  0.303929  1
