# generated using pymatgen
data_TbThAl5Au3
_symmetry_space_group_name_H-M   'P 1'
_cell_length_a   4.28231400
_cell_length_b   4.30148400
_cell_length_c   10.89101700
_cell_angle_alpha   90.00000000
_cell_angle_beta   90.00000000
_cell_angle_gamma   90.00000000
_symmetry_Int_Tables_number   1
_chemical_formula_structural   TbThAl5Au3
_chemical_formula_sum   'Tb1 Th1 Al5 Au3'
_cell_volume   200.61585658
_cell_formula_units_Z   1
loop_
 _symmetry_equiv_pos_site_id
 _symmetry_equiv_pos_as_xyz
  1  'x, y, z'
loop_
 _atom_site_type_symbol
 _atom_site_label
 _atom_site_symmetry_multiplicity
 _atom_site_fract_x
 _atom_site_fract_y
 _atom_site_fract_z
 _atom_site_occupancy
  Tb  Tb0  1  0.500000  0.000000  0.746309  1
  Th  Th1  1  0.000000  0.500000  0.252630  1
  Al  Al2  1  0.500000  0.500000  0.999112  1
  Al  Al3  1  0.000000  0.000000  0.997275  1
  Al  Al4  1  0.000000  0.500000  0.640742  1
  Al  Al5  1  0.500000  0.000000  0.361698  1
  Al  Al6  1  0.000000  0.000000  0.501659  1
  Au  Au7  1  0.000000  0.500000  0.866899  1
  Au  Au8  1  0.500000  0.000000  0.132893  1
  Au  Au9  1  0.500000  0.500000  0.500784  1
