# generated using pymatgen
data_KRb3(CeI6)2
_symmetry_space_group_name_H-M   'P 1'
_cell_length_a   8.69028519
_cell_length_b   8.42218469
_cell_length_c   14.70465724
_cell_angle_alpha   54.99636023
_cell_angle_beta   90.02976593
_cell_angle_gamma   89.66185852
_symmetry_Int_Tables_number   1
_chemical_formula_structural   KRb3(CeI6)2
_chemical_formula_sum   'K1 Rb3 Ce2 I12'
_cell_volume   881.54887862
_cell_formula_units_Z   1
loop_
 _symmetry_equiv_pos_site_id
 _symmetry_equiv_pos_as_xyz
  1  'x, y, z'
loop_
 _atom_site_type_symbol
 _atom_site_label
 _atom_site_symmetry_multiplicity
 _atom_site_fract_x
 _atom_site_fract_y
 _atom_site_fract_z
 _atom_site_occupancy
  K  K0  1  0.562269  0.261351  0.750542  1
  Rb  Rb1  1  0.442889  0.736286  0.249911  1
  Rb  Rb2  1  0.941717  0.264777  0.249722  1
  Rb  Rb3  1  0.057985  0.735461  0.750482  1
  Ce  Ce4  1  0.998968  0.001640  0.998274  1
  Ce  Ce5  1  0.500797  0.998537  0.501875  1
  I  I6  1  0.800545  0.329127  0.964886  1
  I  I7  1  0.505630  0.184145  0.253530  1
  I  I8  1  0.494076  0.824410  0.748414  1
  I  I9  1  0.292198  0.225201  0.964428  1
  I  I10  1  0.310453  0.661034  0.542429  1
  I  I11  1  0.207128  0.222371  0.471590  1
  I  I12  1  0.196068  0.671716  0.033171  1
  I  I13  1  0.792804  0.774241  0.529846  1
  I  I14  1  0.707766  0.779050  0.027534  1
  I  I15  1  0.008271  0.816065  0.246284  1
  I  I16  1  0.983818  0.186929  0.750763  1
  I  I17  1  0.696617  0.327656  0.466320  1
