# generated using pymatgen
data_SmY4Ni16(MoAs4)3
_symmetry_space_group_name_H-M   'P 1'
_cell_length_a   12.68866400
_cell_length_b   12.68866468
_cell_length_c   3.87421800
_cell_angle_alpha   90.00000000
_cell_angle_beta   90.00000000
_cell_angle_gamma   120.00000864
_symmetry_Int_Tables_number   1
_chemical_formula_structural   SmY4Ni16(MoAs4)3
_chemical_formula_sum   'Sm1 Y4 Ni16 Mo3 As12'
_cell_volume   540.18990816
_cell_formula_units_Z   1
loop_
 _symmetry_equiv_pos_site_id
 _symmetry_equiv_pos_as_xyz
  1  'x, y, z'
loop_
 _atom_site_type_symbol
 _atom_site_label
 _atom_site_symmetry_multiplicity
 _atom_site_fract_x
 _atom_site_fract_y
 _atom_site_fract_z
 _atom_site_occupancy
  Sm  Sm0  1  0.333333  0.666667  0.000000  1
  Y  Y1  1  0.185687  0.185708  0.500000  1
  Y  Y2  1  0.814292  0.999979  0.500000  1
  Y  Y3  1  0.000021  0.814313  0.500000  1
  Y  Y4  1  0.666667  0.333333  0.000000  1
  Ni  Ni5  1  0.718326  0.718002  0.500000  1
  Ni  Ni6  1  0.281998  0.000324  0.500000  1
  Ni  Ni7  1  0.999676  0.281674  0.500000  1
  Ni  Ni8  1  0.182491  0.375857  0.000000  1
  Ni  Ni9  1  0.624143  0.806634  0.000000  1
  Ni  Ni10  1  0.193366  0.817509  0.000000  1
  Ni  Ni11  1  0.806393  0.623563  0.000000  1
  Ni  Ni12  1  0.817170  0.193607  0.000000  1
  Ni  Ni13  1  0.376437  0.182830  0.000000  1
  Ni  Ni14  1  0.359275  0.481857  0.500000  1
  Ni  Ni15  1  0.518143  0.877419  0.500000  1
  Ni  Ni16  1  0.122581  0.640725  0.500000  1
  Ni  Ni17  1  0.876620  0.517436  0.500000  1
  Ni  Ni18  1  0.640817  0.123380  0.500000  1
  Ni  Ni19  1  0.482564  0.359183  0.500000  1
  Ni  Ni20  1  0.000000  0.000000  0.000000  1
  Mo  Mo21  1  0.562024  0.561722  0.000000  1
  Mo  Mo22  1  0.438278  0.000301  0.000000  1
  Mo  Mo23  1  0.999699  0.437976  0.000000  1
  As  As24  1  0.821492  0.821401  0.000000  1
  As  As25  1  0.178599  0.000090  0.000000  1
  As  As26  1  0.999910  0.178508  0.000000  1
  As  As27  1  0.166145  0.479925  0.500000  1
  As  As28  1  0.520075  0.686219  0.500000  1
  As  As29  1  0.313781  0.833855  0.500000  1
  As  As30  1  0.686171  0.518840  0.500000  1
  As  As31  1  0.832668  0.313829  0.500000  1
  As  As32  1  0.481160  0.167332  0.500000  1
  As  As33  1  0.364885  0.364958  0.000000  1
  As  As34  1  0.635042  0.999927  0.000000  1
  As  As35  1  0.000073  0.635115  0.000000  1
