# generated using pymatgen
data_SrCu(Sb4Ru)3
_symmetry_space_group_name_H-M   'P 1'
_cell_length_a   8.17038499
_cell_length_b   8.18258536
_cell_length_c   8.17038514
_cell_angle_alpha   109.50146949
_cell_angle_beta   109.44094647
_cell_angle_gamma   109.50147827
_symmetry_Int_Tables_number   1
_chemical_formula_structural   SrCu(Sb4Ru)3
_chemical_formula_sum   'Sr1 Cu1 Sb12 Ru3'
_cell_volume   420.33101696
_cell_formula_units_Z   1
loop_
 _symmetry_equiv_pos_site_id
 _symmetry_equiv_pos_as_xyz
  1  'x, y, z'
loop_
 _atom_site_type_symbol
 _atom_site_label
 _atom_site_symmetry_multiplicity
 _atom_site_fract_x
 _atom_site_fract_y
 _atom_site_fract_z
 _atom_site_occupancy
  Sr  Sr0  1  0.000000  0.000000  0.000000  1
  Cu  Cu1  1  0.000000  0.500000  0.000000  1
  Sb  Sb2  1  0.160690  0.499874  0.347094  1
  Sb  Sb3  1  0.500994  0.659962  0.841798  1
  Sb  Sb4  1  0.347094  0.847220  0.186405  1
  Sb  Sb5  1  0.813595  0.660816  0.160690  1
  Sb  Sb6  1  0.659195  0.841032  0.500994  1
  Sb  Sb7  1  0.186405  0.339184  0.839310  1
  Sb  Sb8  1  0.652906  0.152780  0.813595  1
  Sb  Sb9  1  0.340805  0.158968  0.499006  1
  Sb  Sb10  1  0.499006  0.340038  0.158202  1
  Sb  Sb11  1  0.839310  0.500126  0.652906  1
  Sb  Sb12  1  0.841798  0.181838  0.340805  1
  Sb  Sb13  1  0.158202  0.818162  0.659195  1
  Ru  Ru14  1  0.500000  0.500000  0.500000  1
  Ru  Ru15  1  0.500000  0.000000  0.000000  1
  Ru  Ru16  1  0.000000  0.000000  0.500000  1
