# generated using pymatgen
data_Ac6OsRh
_symmetry_space_group_name_H-M   'P 1'
_cell_length_a   6.92870300
_cell_length_b   7.78085000
_cell_length_c   10.53197900
_cell_angle_alpha   90.00000000
_cell_angle_beta   90.00000000
_cell_angle_gamma   90.00000000
_symmetry_Int_Tables_number   1
_chemical_formula_structural   Ac6OsRh
_chemical_formula_sum   'Ac12 Os2 Rh2'
_cell_volume   567.79161297
_cell_formula_units_Z   2
loop_
 _symmetry_equiv_pos_site_id
 _symmetry_equiv_pos_as_xyz
  1  'x, y, z'
loop_
 _atom_site_type_symbol
 _atom_site_label
 _atom_site_symmetry_multiplicity
 _atom_site_fract_x
 _atom_site_fract_y
 _atom_site_fract_z
 _atom_site_occupancy
  Ac  Ac0  1  0.320359  0.673679  0.073202  1
  Ac  Ac1  1  0.179641  0.173679  0.426798  1
  Ac  Ac2  1  0.669786  0.326385  0.567769  1
  Ac  Ac3  1  0.830214  0.826385  0.932231  1
  Ac  Ac4  1  0.669786  0.326385  0.932231  1
  Ac  Ac5  1  0.830214  0.826385  0.567769  1
  Ac  Ac6  1  0.320359  0.673679  0.426798  1
  Ac  Ac7  1  0.179641  0.173679  0.073202  1
  Ac  Ac8  1  0.838548  0.545916  0.250000  1
  Ac  Ac9  1  0.661452  0.045916  0.250000  1
  Ac  Ac10  1  0.157438  0.453305  0.750000  1
  Ac  Ac11  1  0.342562  0.953304  0.750000  1
  Os  Os12  1  0.054956  0.882623  0.250000  1
  Os  Os13  1  0.445044  0.382623  0.250000  1
  Rh  Rh14  1  0.939326  0.118026  0.750000  1
  Rh  Rh15  1  0.560674  0.618026  0.750000  1
