# generated using pymatgen
data_Th7Pa(ZnIr)8
_symmetry_space_group_name_H-M   'P 1'
_cell_length_a   4.03299200
_cell_length_b   7.37491943
_cell_length_c   16.68579800
_cell_angle_alpha   89.61161674
_cell_angle_beta   90.00000000
_cell_angle_gamma   90.00000000
_symmetry_Int_Tables_number   1
_chemical_formula_structural   Th7Pa(ZnIr)8
_chemical_formula_sum   'Th7 Pa1 Zn8 Ir8'
_cell_volume   496.27413920
_cell_formula_units_Z   1
loop_
 _symmetry_equiv_pos_site_id
 _symmetry_equiv_pos_as_xyz
  1  'x, y, z'
loop_
 _atom_site_type_symbol
 _atom_site_label
 _atom_site_symmetry_multiplicity
 _atom_site_fract_x
 _atom_site_fract_y
 _atom_site_fract_z
 _atom_site_occupancy
  Th  Th0  1  0.750000  0.943293  0.284348  1
  Th  Th1  1  0.750000  0.823655  0.062027  1
  Th  Th2  1  0.250000  0.056906  0.715438  1
  Th  Th3  1  0.250000  0.169088  0.941084  1
  Th  Th4  1  0.250000  0.555348  0.785304  1
  Th  Th5  1  0.750000  0.333407  0.438352  1
  Th  Th6  1  0.250000  0.674612  0.559774  1
  Pa  Pa7  1  0.750000  0.440803  0.215120  1
  Zn  Zn8  1  0.250000  0.001576  0.437970  1
  Zn  Zn9  1  0.750000  0.501960  0.941254  1
  Zn  Zn10  1  0.750000  0.008074  0.559987  1
  Zn  Zn11  1  0.250000  0.618939  0.347341  1
  Zn  Zn12  1  0.750000  0.383769  0.651275  1
  Zn  Zn13  1  0.750000  0.882119  0.848857  1
  Zn  Zn14  1  0.250000  0.491174  0.060847  1
  Zn  Zn15  1  0.250000  0.115996  0.152998  1
  Ir  Ir16  1  0.250000  0.255422  0.561665  1
  Ir  Ir17  1  0.750000  0.247680  0.066495  1
  Ir  Ir18  1  0.250000  0.258003  0.307776  1
  Ir  Ir19  1  0.750000  0.256727  0.815283  1
  Ir  Ir20  1  0.250000  0.751544  0.937970  1
  Ir  Ir21  1  0.750000  0.757535  0.685132  1
  Ir  Ir22  1  0.750000  0.753095  0.436848  1
  Ir  Ir23  1  0.250000  0.719273  0.186855  1
