# generated using pymatgen
data_Ho5Er7In2Fe2Ir
_symmetry_space_group_name_H-M   'P 1'
_cell_length_a   8.31949946
_cell_length_b   8.32171505
_cell_length_c   8.32171559
_cell_angle_alpha   108.75489665
_cell_angle_beta   108.71862743
_cell_angle_gamma   110.96142581
_symmetry_Int_Tables_number   1
_chemical_formula_structural   Ho5Er7In2Fe2Ir
_chemical_formula_sum   'Ho5 Er7 In2 Fe2 Ir1'
_cell_volume   443.22283824
_cell_formula_units_Z   1
loop_
 _symmetry_equiv_pos_site_id
 _symmetry_equiv_pos_as_xyz
  1  'x, y, z'
loop_
 _atom_site_type_symbol
 _atom_site_label
 _atom_site_symmetry_multiplicity
 _atom_site_fract_x
 _atom_site_fract_y
 _atom_site_fract_z
 _atom_site_occupancy
  Ho  Ho0  1  0.306893  0.307007  0.614010  1
  Ho  Ho1  1  0.693239  0.693416  0.386245  1
  Ho  Ho2  1  0.306893  0.692880  0.999886  1
  Ho  Ho3  1  0.693239  0.306996  0.999823  1
  Ho  Ho4  1  0.432731  0.193579  0.239151  1
  Er  Er5  1  0.568021  0.806613  0.761409  1
  Er  Er6  1  0.954514  0.193318  0.761196  1
  Er  Er7  1  0.193150  0.954393  0.760925  1
  Er  Er8  1  0.045116  0.806448  0.238668  1
  Er  Er9  1  0.806773  0.045266  0.238671  1
  Er  Er10  1  0.193150  0.432225  0.238757  1
  Er  Er11  1  0.806773  0.568101  0.761507  1
  In  In12  1  0.500015  0.999808  0.500208  1
  In  In13  1  0.999981  0.499998  0.499983  1
  Fe  Fe14  1  0.385576  0.385660  0.999917  1
  Fe  Fe15  1  0.614512  0.614550  0.999962  1
  Ir  Ir16  1  0.999424  0.999743  0.999681  1
