# generated using pymatgen
data_Pr2ErTm(B6Ru)2
_symmetry_space_group_name_H-M   'P 1'
_cell_length_a   3.71363900
_cell_length_b   9.21764307
_cell_length_c   11.65668509
_cell_angle_alpha   90.01407505
_cell_angle_beta   90.00000000
_cell_angle_gamma   90.00000000
_symmetry_Int_Tables_number   1
_chemical_formula_structural   Pr2ErTm(B6Ru)2
_chemical_formula_sum   'Pr4 Er2 Tm2 B24 Ru4'
_cell_volume   399.01996111
_cell_formula_units_Z   2
loop_
 _symmetry_equiv_pos_site_id
 _symmetry_equiv_pos_as_xyz
  1  'x, y, z'
loop_
 _atom_site_type_symbol
 _atom_site_label
 _atom_site_symmetry_multiplicity
 _atom_site_fract_x
 _atom_site_fract_y
 _atom_site_fract_z
 _atom_site_occupancy
  Pr  Pr0  1  0.000000  0.323068  0.414597  1
  Pr  Pr1  1  0.000000  0.676932  0.585403  1
  Pr  Pr2  1  0.000000  0.822853  0.085306  1
  Pr  Pr3  1  0.000000  0.177147  0.914694  1
  Er  Er4  1  0.000000  0.944353  0.371779  1
  Er  Er5  1  0.000000  0.055647  0.628221  1
  Tm  Tm6  1  0.000000  0.444370  0.128099  1
  Tm  Tm7  1  0.000000  0.555630  0.871901  1
  B  B8  1  0.500000  0.557226  0.429356  1
  B  B9  1  0.500000  0.442774  0.570644  1
  B  B10  1  0.500000  0.057323  0.070572  1
  B  B11  1  0.500000  0.942677  0.929428  1
  B  B12  1  0.500000  0.750492  0.416529  1
  B  B13  1  0.500000  0.249508  0.583471  1
  B  B14  1  0.500000  0.250916  0.083433  1
  B  B15  1  0.500000  0.749084  0.916567  1
  B  B16  1  0.500000  0.790755  0.266536  1
  B  B17  1  0.500000  0.209245  0.733464  1
  B  B18  1  0.500000  0.291241  0.233322  1
  B  B19  1  0.500000  0.708759  0.766678  1
  B  B20  1  0.500000  0.630214  0.184607  1
  B  B21  1  0.500000  0.369786  0.815393  1
  B  B22  1  0.500000  0.130585  0.315166  1
  B  B23  1  0.500000  0.869415  0.684834  1
  B  B24  1  0.500000  0.986334  0.214400  1
  B  B25  1  0.500000  0.013666  0.785600  1
  B  B26  1  0.500000  0.486040  0.285312  1
  B  B27  1  0.500000  0.513960  0.714688  1
  B  B28  1  0.500000  0.600895  0.027352  1
  B  B29  1  0.500000  0.399105  0.972648  1
  B  B30  1  0.500000  0.101421  0.472517  1
  B  B31  1  0.500000  0.898579  0.527483  1
  Ru  Ru32  1  0.000000  0.639946  0.318462  1
  Ru  Ru33  1  0.000000  0.360054  0.681538  1
  Ru  Ru34  1  0.000000  0.140657  0.181218  1
  Ru  Ru35  1  0.000000  0.859343  0.818782  1
