# generated using pymatgen
data_Yb4SiNi3Br2
_symmetry_space_group_name_H-M   'P 1'
_cell_length_a   4.00906700
_cell_length_b   4.00906773
_cell_length_c   16.05803900
_cell_angle_alpha   90.00000000
_cell_angle_beta   90.00000000
_cell_angle_gamma   119.99998572
_symmetry_Int_Tables_number   1
_chemical_formula_structural   Yb4SiNi3Br2
_chemical_formula_sum   'Yb4 Si1 Ni3 Br2'
_cell_volume   223.51666572
_cell_formula_units_Z   1
loop_
 _symmetry_equiv_pos_site_id
 _symmetry_equiv_pos_as_xyz
  1  'x, y, z'
loop_
 _atom_site_type_symbol
 _atom_site_label
 _atom_site_symmetry_multiplicity
 _atom_site_fract_x
 _atom_site_fract_y
 _atom_site_fract_z
 _atom_site_occupancy
  Yb  Yb0  1  0.000000  0.000000  0.108351  1
  Yb  Yb1  1  0.000000  0.000000  0.891633  1
  Yb  Yb2  1  0.000000  0.000000  0.616876  1
  Yb  Yb3  1  0.000000  0.000000  0.384392  1
  Si  Si4  1  0.333333  0.666667  0.501903  1
  Ni  Ni5  1  0.666667  0.333333  0.498311  1
  Ni  Ni6  1  0.666667  0.333333  0.001236  1
  Ni  Ni7  1  0.333333  0.666667  0.998497  1
  Br  Br8  1  0.333333  0.666667  0.246791  1
  Br  Br9  1  0.666667  0.333333  0.752010  1
