# generated using pymatgen
data_Nd2Sb4Ir2Pd
_symmetry_space_group_name_H-M   'P 1'
_cell_length_a   4.54620100
_cell_length_b   11.40866800
_cell_length_c   16.22574900
_cell_angle_alpha   90.00000000
_cell_angle_beta   90.00000000
_cell_angle_gamma   90.00000000
_symmetry_Int_Tables_number   1
_chemical_formula_structural   Nd2Sb4Ir2Pd
_chemical_formula_sum   'Nd8 Sb16 Ir8 Pd4'
_cell_volume   841.56628565
_cell_formula_units_Z   4
loop_
 _symmetry_equiv_pos_site_id
 _symmetry_equiv_pos_as_xyz
  1  'x, y, z'
loop_
 _atom_site_type_symbol
 _atom_site_label
 _atom_site_symmetry_multiplicity
 _atom_site_fract_x
 _atom_site_fract_y
 _atom_site_fract_z
 _atom_site_occupancy
  Nd  Nd0  1  0.250000  0.750490  0.507634  1
  Nd  Nd1  1  0.250000  0.749510  0.007634  1
  Nd  Nd2  1  0.750000  0.249510  0.492366  1
  Nd  Nd3  1  0.750000  0.250490  0.992366  1
  Nd  Nd4  1  0.250000  0.594331  0.754444  1
  Nd  Nd5  1  0.250000  0.905669  0.254444  1
  Nd  Nd6  1  0.750000  0.405669  0.245556  1
  Nd  Nd7  1  0.750000  0.094331  0.745556  1
  Sb  Sb8  1  0.250000  0.269067  0.647439  1
  Sb  Sb9  1  0.250000  0.230933  0.147439  1
  Sb  Sb10  1  0.750000  0.730933  0.352561  1
  Sb  Sb11  1  0.750000  0.769067  0.852561  1
  Sb  Sb12  1  0.250000  0.891640  0.715147  1
  Sb  Sb13  1  0.250000  0.608360  0.215147  1
  Sb  Sb14  1  0.750000  0.108360  0.284853  1
  Sb  Sb15  1  0.750000  0.391640  0.784853  1
  Sb  Sb16  1  0.250000  0.075333  0.892758  1
  Sb  Sb17  1  0.250000  0.424667  0.392758  1
  Sb  Sb18  1  0.750000  0.924667  0.107242  1
  Sb  Sb19  1  0.750000  0.575333  0.607242  1
  Sb  Sb20  1  0.250000  0.443062  0.932243  1
  Sb  Sb21  1  0.250000  0.056938  0.432243  1
  Sb  Sb22  1  0.750000  0.556938  0.067757  1
  Sb  Sb23  1  0.750000  0.943062  0.567757  1
  Ir  Ir24  1  0.250000  0.052589  0.594189  1
  Ir  Ir25  1  0.250000  0.447411  0.094189  1
  Ir  Ir26  1  0.750000  0.947411  0.405811  1
  Ir  Ir27  1  0.750000  0.552589  0.905811  1
  Ir  Ir28  1  0.250000  0.280503  0.815418  1
  Ir  Ir29  1  0.250000  0.219497  0.315418  1
  Ir  Ir30  1  0.750000  0.719497  0.184582  1
  Ir  Ir31  1  0.750000  0.780503  0.684582  1
  Pd  Pd32  1  0.250000  0.466727  0.557446  1
  Pd  Pd33  1  0.250000  0.033273  0.057446  1
  Pd  Pd34  1  0.750000  0.533273  0.442554  1
  Pd  Pd35  1  0.750000  0.966727  0.942554  1
