# generated using pymatgen
data_Zr3AlGa2Ni3
_symmetry_space_group_name_H-M   'P 1'
_cell_length_a   6.84447500
_cell_length_b   6.89420509
_cell_length_c   3.49847100
_cell_angle_alpha   90.00000000
_cell_angle_beta   90.00000000
_cell_angle_gamma   119.76166610
_symmetry_Int_Tables_number   1
_chemical_formula_structural   Zr3AlGa2Ni3
_chemical_formula_sum   'Zr3 Al1 Ga2 Ni3'
_cell_volume   143.30827038
_cell_formula_units_Z   1
loop_
 _symmetry_equiv_pos_site_id
 _symmetry_equiv_pos_as_xyz
  1  'x, y, z'
loop_
 _atom_site_type_symbol
 _atom_site_label
 _atom_site_symmetry_multiplicity
 _atom_site_fract_x
 _atom_site_fract_y
 _atom_site_fract_z
 _atom_site_occupancy
  Zr  Zr0  1  0.999767  0.406359  0.500000  1
  Zr  Zr1  1  0.593408  0.593641  0.500000  1
  Zr  Zr2  1  0.402736  0.000000  0.500000  1
  Al  Al3  1  0.748907  0.000000  0.000000  1
  Ga  Ga4  1  0.996751  0.741535  0.000000  1
  Ga  Ga5  1  0.255217  0.258465  0.000000  1
  Ni  Ni6  1  0.998949  0.000000  0.500000  1
  Ni  Ni7  1  0.337274  0.670283  0.000000  1
  Ni  Ni8  1  0.666992  0.329717  0.000000  1
