# generated using pymatgen
data_Nb3GaPdO
_symmetry_space_group_name_H-M   'P 1'
_cell_length_a   7.03604900
_cell_length_b   7.03604900
_cell_length_c   7.03604900
_cell_angle_alpha   90.00000000
_cell_angle_beta   90.00000000
_cell_angle_gamma   90.00000000
_symmetry_Int_Tables_number   1
_chemical_formula_structural   Nb3GaPdO
_chemical_formula_sum   'Nb12 Ga4 Pd4 O4'
_cell_volume   348.32653999
_cell_formula_units_Z   4
loop_
 _symmetry_equiv_pos_site_id
 _symmetry_equiv_pos_as_xyz
  1  'x, y, z'
loop_
 _atom_site_type_symbol
 _atom_site_label
 _atom_site_symmetry_multiplicity
 _atom_site_fract_x
 _atom_site_fract_y
 _atom_site_fract_z
 _atom_site_occupancy
  Nb  Nb0  1  0.789717  0.951513  0.376937  1
  Nb  Nb1  1  0.710283  0.048487  0.876937  1
  Nb  Nb2  1  0.210283  0.451513  0.123063  1
  Nb  Nb3  1  0.289717  0.548487  0.623063  1
  Nb  Nb4  1  0.951513  0.376937  0.789717  1
  Nb  Nb5  1  0.048487  0.876937  0.710283  1
  Nb  Nb6  1  0.451513  0.123063  0.210283  1
  Nb  Nb7  1  0.548487  0.623063  0.289717  1
  Nb  Nb8  1  0.376937  0.789717  0.951513  1
  Nb  Nb9  1  0.876937  0.710283  0.048487  1
  Nb  Nb10  1  0.123063  0.210283  0.451513  1
  Nb  Nb11  1  0.623063  0.289717  0.548487  1
  Ga  Ga12  1  0.569842  0.430158  0.930158  1
  Ga  Ga13  1  0.430158  0.930158  0.569842  1
  Ga  Ga14  1  0.930158  0.569842  0.430158  1
  Ga  Ga15  1  0.069842  0.069842  0.069842  1
  Pd  Pd16  1  0.182759  0.817241  0.317241  1
  Pd  Pd17  1  0.317241  0.182759  0.817241  1
  Pd  Pd18  1  0.817241  0.317241  0.182759  1
  Pd  Pd19  1  0.682759  0.682759  0.682759  1
  O  O20  1  0.877143  0.122857  0.622857  1
  O  O21  1  0.622857  0.877143  0.122857  1
  O  O22  1  0.122857  0.622857  0.877143  1
  O  O23  1  0.377143  0.377143  0.377143  1
