# generated using pymatgen
data_Zr6Zn17SiAg5Au
_symmetry_space_group_name_H-M   'P 1'
_cell_length_a   8.90520145
_cell_length_b   8.91337875
_cell_length_c   8.90216400
_cell_angle_alpha   60.04233735
_cell_angle_beta   60.01179162
_cell_angle_gamma   60.09209455
_symmetry_Int_Tables_number   1
_chemical_formula_structural   Zr6Zn17SiAg5Au
_chemical_formula_sum   'Zr6 Zn17 Si1 Ag5 Au1'
_cell_volume   500.20241940
_cell_formula_units_Z   1
loop_
 _symmetry_equiv_pos_site_id
 _symmetry_equiv_pos_as_xyz
  1  'x, y, z'
loop_
 _atom_site_type_symbol
 _atom_site_label
 _atom_site_symmetry_multiplicity
 _atom_site_fract_x
 _atom_site_fract_y
 _atom_site_fract_z
 _atom_site_occupancy
  Zr  Zr0  1  0.707758  0.294700  0.288950  1
  Zr  Zr1  1  0.295259  0.704955  0.705292  1
  Zr  Zr2  1  0.295261  0.704954  0.294494  1
  Zr  Zr3  1  0.707758  0.294698  0.708594  1
  Zr  Zr4  1  0.289116  0.294286  0.708300  1
  Zr  Zr5  1  0.704887  0.705571  0.294770  1
  Zn  Zn6  1  0.633425  0.120756  0.122910  1
  Zn  Zn7  1  0.366079  0.878254  0.877833  1
  Zn  Zn8  1  0.500263  0.000453  0.999340  1
  Zn  Zn9  1  0.000528  0.500339  0.498819  1
  Zn  Zn10  1  0.000528  0.500339  0.000315  1
  Zn  Zn11  1  0.500264  0.000453  0.499943  1
  Zn  Zn12  1  0.999129  0.000377  0.500247  1
  Zn  Zn13  1  0.498370  0.500945  0.000342  1
  Zn  Zn14  1  0.336933  0.336006  0.336015  1
  Zn  Zn15  1  0.663284  0.664814  0.664022  1
  Zn  Zn16  1  0.336932  0.336004  0.991049  1
  Zn  Zn17  1  0.336533  0.991543  0.335961  1
  Zn  Zn18  1  0.663285  0.664815  0.007876  1
  Zn  Zn19  1  0.662086  0.011948  0.662983  1
  Zn  Zn20  1  0.991990  0.335951  0.336030  1
  Zn  Zn21  1  0.006878  0.664797  0.664162  1
  Zn  Zn22  1  0.000130  0.000458  0.999706  1
  Si  Si23  1  0.501476  0.495503  0.501511  1
  Ag  Ag24  1  0.123308  0.118393  0.121661  1
  Ag  Ag25  1  0.878014  0.879769  0.879725  1
  Ag  Ag26  1  0.123310  0.118395  0.636638  1
  Ag  Ag27  1  0.121339  0.639091  0.119785  1
  Ag  Ag28  1  0.878014  0.879770  0.362491  1
  Au  Au29  1  0.877864  0.361662  0.880237  1
