# generated using pymatgen
data_SrY(Al5Os)4
_symmetry_space_group_name_H-M   'P 1'
_cell_length_a   6.89424102
_cell_length_b   6.89424137
_cell_length_c   9.20287000
_cell_angle_alpha   90.00000000
_cell_angle_beta   90.00000000
_cell_angle_gamma   96.47922716
_symmetry_Int_Tables_number   1
_chemical_formula_structural   SrY(Al5Os)4
_chemical_formula_sum   'Sr1 Y1 Al20 Os4'
_cell_volume   434.62372043
_cell_formula_units_Z   1
loop_
 _symmetry_equiv_pos_site_id
 _symmetry_equiv_pos_as_xyz
  1  'x, y, z'
loop_
 _atom_site_type_symbol
 _atom_site_label
 _atom_site_symmetry_multiplicity
 _atom_site_fract_x
 _atom_site_fract_y
 _atom_site_fract_z
 _atom_site_occupancy
  Sr  Sr0  1  0.875838  0.124162  0.750000  1
  Y  Y1  1  0.125698  0.874302  0.250000  1
  Al  Al2  1  0.622771  0.377229  0.543478  1
  Al  Al3  1  0.376964  0.623036  0.449683  1
  Al  Al4  1  0.376964  0.623036  0.050317  1
  Al  Al5  1  0.622771  0.377229  0.956522  1
  Al  Al6  1  0.224578  0.225724  0.497240  1
  Al  Al7  1  0.774276  0.775422  0.497240  1
  Al  Al8  1  0.774276  0.775422  0.002760  1
  Al  Al9  1  0.224578  0.225724  0.002760  1
  Al  Al10  1  0.843626  0.156374  0.102083  1
  Al  Al11  1  0.162954  0.837046  0.898296  1
  Al  Al12  1  0.162954  0.837046  0.601704  1
  Al  Al13  1  0.843626  0.156374  0.397917  1
  Al  Al14  1  0.856575  0.589900  0.750000  1
  Al  Al15  1  0.143272  0.417154  0.250000  1
  Al  Al16  1  0.410100  0.143425  0.750000  1
  Al  Al17  1  0.582846  0.856728  0.250000  1
  Al  Al18  1  0.219792  0.481592  0.750000  1
  Al  Al19  1  0.782640  0.519497  0.250000  1
  Al  Al20  1  0.518408  0.780208  0.750000  1
  Al  Al21  1  0.480503  0.217360  0.250000  1
  Os  Os22  1  0.999832  0.502837  0.497973  1
  Os  Os23  1  0.999832  0.502837  0.002027  1
  Os  Os24  1  0.497163  0.000168  0.002027  1
  Os  Os25  1  0.497163  0.000168  0.497973  1
