# generated using pymatgen
data_La5Y(BiO7)2
_symmetry_space_group_name_H-M   'P 1'
_cell_length_a   6.75476999
_cell_length_b   6.78367052
_cell_length_c   7.96756000
_cell_angle_alpha   106.88429767
_cell_angle_beta   89.85716692
_cell_angle_gamma   98.57664653
_symmetry_Int_Tables_number   1
_chemical_formula_structural   La5Y(BiO7)2
_chemical_formula_sum   'La5 Y1 Bi2 O14'
_cell_volume   345.12436209
_cell_formula_units_Z   1
loop_
 _symmetry_equiv_pos_site_id
 _symmetry_equiv_pos_as_xyz
  1  'x, y, z'
loop_
 _atom_site_type_symbol
 _atom_site_label
 _atom_site_symmetry_multiplicity
 _atom_site_fract_x
 _atom_site_fract_y
 _atom_site_fract_z
 _atom_site_occupancy
  La  La0  1  0.535280  0.995834  0.746519  1
  La  La1  1  0.264840  0.535772  0.883951  1
  La  La2  1  0.731876  0.468689  0.120091  1
  La  La3  1  0.740948  0.481173  0.614623  1
  La  La4  1  0.256801  0.514278  0.378489  1
  Y  Y5  1  0.462822  0.004200  0.252866  1
  Bi  Bi6  1  0.000455  0.000352  0.497537  1
  Bi  Bi7  1  0.999925  0.000458  0.003731  1
  O  O8  1  0.443361  0.656096  0.169962  1
  O  O9  1  0.558737  0.357066  0.834101  1
  O  O10  1  0.299419  0.934540  0.963766  1
  O  O11  1  0.703608  0.064394  0.054574  1
  O  O12  1  0.295949  0.932919  0.504306  1
  O  O13  1  0.706338  0.064275  0.475654  1
  O  O14  1  0.540547  0.352938  0.341210  1
  O  O15  1  0.450039  0.635336  0.652610  1
  O  O16  1  0.924821  0.673301  0.952226  1
  O  O17  1  0.074863  0.327689  0.049628  1
  O  O18  1  0.067900  0.334882  0.614729  1
  O  O19  1  0.925427  0.663318  0.388297  1
  O  O20  1  0.896042  0.920807  0.729865  1
  O  O21  1  0.120001  0.081680  0.271266  1
