# generated using pymatgen
data_Tb8S7
_symmetry_space_group_name_H-M   'P 1'
_cell_length_a   6.80367970
_cell_length_b   6.74913453
_cell_length_c   10.33794265
_cell_angle_alpha   109.12128965
_cell_angle_beta   130.91677425
_cell_angle_gamma   80.55010589
_symmetry_Int_Tables_number   1
_chemical_formula_structural   Tb8S7
_chemical_formula_sum   'Tb8 S7'
_cell_volume   338.08262978
_cell_formula_units_Z   1
loop_
 _symmetry_equiv_pos_site_id
 _symmetry_equiv_pos_as_xyz
  1  'x, y, z'
loop_
 _atom_site_type_symbol
 _atom_site_label
 _atom_site_symmetry_multiplicity
 _atom_site_fract_x
 _atom_site_fract_y
 _atom_site_fract_z
 _atom_site_occupancy
  Tb  Tb0  1  0.339742  0.834423  0.636609  1
  Tb  Tb1  1  0.464422  0.338727  0.012254  1
  Tb  Tb2  1  0.207731  0.341820  0.262878  1
  Tb  Tb3  1  0.079022  0.831821  0.882655  1
  Tb  Tb4  1  0.585858  0.832034  0.385239  1
  Tb  Tb5  1  0.709508  0.336692  0.761609  1
  Tb  Tb6  1  0.968531  0.339227  0.513124  1
  Tb  Tb7  1  0.840434  0.829300  0.133113  1
  S  S8  1  0.024079  0.086074  0.698321  1
  S  S9  1  0.396465  0.584882  0.823288  1
  S  S10  1  0.774592  0.086937  0.949357  1
  S  S11  1  0.149643  0.584126  0.073210  1
  S  S12  1  0.900954  0.587799  0.324305  1
  S  S13  1  0.651738  0.585816  0.573386  1
  S  S14  1  0.273826  0.083617  0.447151  1
