# generated using pymatgen
data_La10IrOs2Rh
_symmetry_space_group_name_H-M   'P 1'
_cell_length_a   9.17262812
_cell_length_b   9.13219495
_cell_length_c   7.45443400
_cell_angle_alpha   84.95911982
_cell_angle_beta   84.86475686
_cell_angle_gamma   43.19061920
_symmetry_Int_Tables_number   1
_chemical_formula_structural   La10IrOs2Rh
_chemical_formula_sum   'La10 Ir1 Os2 Rh1'
_cell_volume   425.42750959
_cell_formula_units_Z   1
loop_
 _symmetry_equiv_pos_site_id
 _symmetry_equiv_pos_as_xyz
  1  'x, y, z'
loop_
 _atom_site_type_symbol
 _atom_site_label
 _atom_site_symmetry_multiplicity
 _atom_site_fract_x
 _atom_site_fract_y
 _atom_site_fract_z
 _atom_site_occupancy
  La  La0  1  0.015541  0.802172  0.908325  1
  La  La1  1  0.197664  0.985876  0.593605  1
  La  La2  1  0.992697  0.192339  0.089845  1
  La  La3  1  0.808736  0.006497  0.412416  1
  La  La4  1  0.354598  0.212707  0.818996  1
  La  La5  1  0.786907  0.644517  0.679990  1
  La  La6  1  0.639243  0.789384  0.175929  1
  La  La7  1  0.213963  0.360295  0.321871  1
  La  La8  1  0.570395  0.429395  0.751357  1
  La  La9  1  0.427209  0.572057  0.249527  1
  Ir  Ir10  1  0.595322  0.178933  0.079293  1
  Os  Os11  1  0.176497  0.601363  0.577795  1
  Os  Os12  1  0.398079  0.825387  0.922272  1
  Rh  Rh13  1  0.823151  0.399078  0.418781  1
