# generated using pymatgen
data_Ca2La2Os6O19
_symmetry_space_group_name_H-M   'P 1'
_cell_length_a   7.88926709
_cell_length_b   7.97099747
_cell_length_c   7.97099782
_cell_angle_alpha   109.86390940
_cell_angle_beta   109.47282370
_cell_angle_gamma   109.49306407
_symmetry_Int_Tables_number   1
_chemical_formula_structural   Ca2La2Os6O19
_chemical_formula_sum   'Ca2 La2 Os6 O19'
_cell_volume   383.87048263
_cell_formula_units_Z   1
loop_
 _symmetry_equiv_pos_site_id
 _symmetry_equiv_pos_as_xyz
  1  'x, y, z'
loop_
 _atom_site_type_symbol
 _atom_site_label
 _atom_site_symmetry_multiplicity
 _atom_site_fract_x
 _atom_site_fract_y
 _atom_site_fract_z
 _atom_site_occupancy
  Ca  Ca0  1  0.998638  0.000280  0.289663  1
  Ca  Ca1  1  0.001362  0.291025  0.001642  1
  La  La2  1  0.693139  0.695208  0.693839  1
  La  La3  1  0.306861  0.000700  0.002069  1
  Os  Os4  1  0.360921  0.499318  0.864494  1
  Os  Os5  1  0.864020  0.360983  0.499135  1
  Os  Os6  1  0.500000  0.138819  0.638819  1
  Os  Os7  1  0.135980  0.635114  0.496963  1
  Os  Os8  1  0.500000  0.864887  0.364887  1
  Os  Os9  1  0.639079  0.503573  0.138397  1
  O  O10  1  0.323045  0.999082  0.327789  1
  O  O11  1  0.325832  0.326259  0.000748  1
  O  O12  1  0.000000  0.672632  0.672632  1
  O  O13  1  0.674168  0.674916  0.000427  1
  O  O14  1  0.000000  0.325268  0.325268  1
  O  O15  1  0.676955  0.004744  0.676037  1
  O  O16  1  0.000000  0.986544  0.986544  1
  O  O17  1  0.345222  0.285042  0.635402  1
  O  O18  1  0.060582  0.351287  0.717497  1
  O  O19  1  0.710173  0.366588  0.647720  1
  O  O20  1  0.368747  0.656225  0.719508  1
  O  O21  1  0.289827  0.937547  0.656415  1
  O  O22  1  0.631253  0.350760  0.287477  1
  O  O23  1  0.289533  0.632147  0.350790  1
  O  O24  1  0.710467  0.061256  0.342613  1
  O  O25  1  0.939418  0.656914  0.290705  1
  O  O26  1  0.653395  0.716833  0.369260  1
  O  O27  1  0.654778  0.290180  0.939822  1
  O  O28  1  0.346605  0.715866  0.063438  1
