# generated using pymatgen
data_Tb6Er4InPb5
_symmetry_space_group_name_H-M   'P 1'
_cell_length_a   9.03995888
_cell_length_b   9.03995850
_cell_length_c   6.66952600
_cell_angle_alpha   90.00000000
_cell_angle_beta   90.00000000
_cell_angle_gamma   120.09773850
_symmetry_Int_Tables_number   1
_chemical_formula_structural   Tb6Er4InPb5
_chemical_formula_sum   'Tb6 Er4 In1 Pb5'
_cell_volume   471.55236050
_cell_formula_units_Z   1
loop_
 _symmetry_equiv_pos_site_id
 _symmetry_equiv_pos_as_xyz
  1  'x, y, z'
loop_
 _atom_site_type_symbol
 _atom_site_label
 _atom_site_symmetry_multiplicity
 _atom_site_fract_x
 _atom_site_fract_y
 _atom_site_fract_z
 _atom_site_occupancy
  Tb  Tb0  1  0.759978  0.759978  0.750000  1
  Tb  Tb1  1  0.239900  0.004926  0.750000  1
  Tb  Tb2  1  0.004926  0.239900  0.750000  1
  Tb  Tb3  1  0.238435  0.238435  0.250000  1
  Tb  Tb4  1  0.761483  0.999487  0.250000  1
  Tb  Tb5  1  0.999487  0.761483  0.250000  1
  Er  Er6  1  0.663585  0.333720  0.998293  1
  Er  Er7  1  0.333720  0.663585  0.998293  1
  Er  Er8  1  0.333720  0.663585  0.501707  1
  Er  Er9  1  0.663585  0.333720  0.501707  1
  In  In10  1  0.398138  0.398138  0.750000  1
  Pb  Pb11  1  0.605277  0.000613  0.750000  1
  Pb  Pb12  1  0.000613  0.605277  0.750000  1
  Pb  Pb13  1  0.603384  0.603384  0.250000  1
  Pb  Pb14  1  0.395443  0.998325  0.250000  1
  Pb  Pb15  1  0.998325  0.395443  0.250000  1
