# generated using pymatgen
data_Ba6ErTl(NiO6)2
_symmetry_space_group_name_H-M   'P 1'
_cell_length_a   7.14849965
_cell_length_b   7.14850045
_cell_length_c   7.14850147
_cell_angle_alpha   93.16498086
_cell_angle_beta   93.16497933
_cell_angle_gamma   93.16498641
_symmetry_Int_Tables_number   1
_chemical_formula_structural   Ba6ErTl(NiO6)2
_chemical_formula_sum   'Ba6 Er1 Tl1 Ni2 O12'
_cell_volume   363.56005964
_cell_formula_units_Z   1
loop_
 _symmetry_equiv_pos_site_id
 _symmetry_equiv_pos_as_xyz
  1  'x, y, z'
loop_
 _atom_site_type_symbol
 _atom_site_label
 _atom_site_symmetry_multiplicity
 _atom_site_fract_x
 _atom_site_fract_y
 _atom_site_fract_z
 _atom_site_occupancy
  Ba  Ba0  1  0.381661  0.118338  0.750000  1
  Ba  Ba1  1  0.750000  0.381662  0.118339  1
  Ba  Ba2  1  0.249999  0.620204  0.879797  1
  Ba  Ba3  1  0.620203  0.879796  0.250001  1
  Ba  Ba4  1  0.118339  0.750000  0.381662  1
  Ba  Ba5  1  0.879796  0.250000  0.620204  1
  Er  Er6  1  0.250001  0.250000  0.250000  1
  Tl  Tl7  1  0.750000  0.750001  0.750000  1
  Ni  Ni8  1  0.497894  0.497894  0.497894  1
  Ni  Ni9  1  0.002106  0.002106  0.002106  1
  O  O10  1  0.776955  0.587351  0.459649  1
  O  O11  1  0.587352  0.459648  0.776955  1
  O  O12  1  0.459648  0.776955  0.587352  1
  O  O13  1  0.040351  0.912649  0.723046  1
  O  O14  1  0.912648  0.723045  0.040351  1
  O  O15  1  0.723046  0.040351  0.912648  1
  O  O16  1  0.215942  0.404322  0.531485  1
  O  O17  1  0.404322  0.531484  0.215942  1
  O  O18  1  0.531484  0.215942  0.404321  1
  O  O19  1  0.968516  0.095678  0.284059  1
  O  O20  1  0.284059  0.968515  0.095677  1
  O  O21  1  0.095677  0.284058  0.968515  1
