# generated using pymatgen
data_Sr3Sm(Al3Pd)6
_symmetry_space_group_name_H-M   'P 1'
_cell_length_a   7.72703900
_cell_length_b   7.73135430
_cell_length_c   9.67198400
_cell_angle_alpha   90.00000000
_cell_angle_beta   90.00000000
_cell_angle_gamma   119.43053512
_symmetry_Int_Tables_number   1
_chemical_formula_structural   Sr3Sm(Al3Pd)6
_chemical_formula_sum   'Sr3 Sm1 Al18 Pd6'
_cell_volume   503.24388125
_cell_formula_units_Z   1
loop_
 _symmetry_equiv_pos_site_id
 _symmetry_equiv_pos_as_xyz
  1  'x, y, z'
loop_
 _atom_site_type_symbol
 _atom_site_label
 _atom_site_symmetry_multiplicity
 _atom_site_fract_x
 _atom_site_fract_y
 _atom_site_fract_z
 _atom_site_occupancy
  Sr  Sr0  1  0.994357  0.669202  0.250000  1
  Sr  Sr1  1  0.002940  0.330558  0.750000  1
  Sr  Sr2  1  0.670967  0.995847  0.250000  1
  Sm  Sm3  1  0.329959  0.002686  0.750000  1
  Al  Al4  1  0.137499  0.135480  0.250000  1
  Al  Al5  1  0.870556  0.866974  0.750000  1
  Al  Al6  1  0.005776  0.335074  0.072174  1
  Al  Al7  1  0.998913  0.667298  0.921877  1
  Al  Al8  1  0.998913  0.667298  0.578123  1
  Al  Al9  1  0.334659  0.003848  0.430797  1
  Al  Al10  1  0.005776  0.335074  0.427826  1
  Al  Al11  1  0.663107  0.997186  0.577959  1
  Al  Al12  1  0.663107  0.997186  0.922041  1
  Al  Al13  1  0.334659  0.003848  0.069203  1
  Al  Al14  1  0.334415  0.332218  0.557257  1
  Al  Al15  1  0.663578  0.663633  0.454656  1
  Al  Al16  1  0.663578  0.663633  0.045344  1
  Al  Al17  1  0.334415  0.332218  0.942743  1
  Al  Al18  1  0.341259  0.543053  0.250000  1
  Al  Al19  1  0.652783  0.452400  0.750000  1
  Al  Al20  1  0.540754  0.339449  0.250000  1
  Al  Al21  1  0.458087  0.665842  0.750000  1
  Pd  Pd22  1  0.670423  0.328641  0.998067  1
  Pd  Pd23  1  0.328810  0.670932  0.997819  1
  Pd  Pd24  1  0.328810  0.670932  0.502181  1
  Pd  Pd25  1  0.670423  0.328641  0.501933  1
  Pd  Pd26  1  0.000738  0.000423  0.997751  1
  Pd  Pd27  1  0.000738  0.000423  0.502249  1
