# generated using pymatgen
data_Tm10Zn3CuSb2
_symmetry_space_group_name_H-M   'P 1'
_cell_length_a   8.42679651
_cell_length_b   8.42679611
_cell_length_c   8.46324078
_cell_angle_alpha   124.10707941
_cell_angle_beta   124.10707882
_cell_angle_gamma   82.74226972
_symmetry_Int_Tables_number   1
_chemical_formula_structural   Tm10Zn3CuSb2
_chemical_formula_sum   'Tm10 Zn3 Cu1 Sb2'
_cell_volume   396.20383359
_cell_formula_units_Z   1
loop_
 _symmetry_equiv_pos_site_id
 _symmetry_equiv_pos_as_xyz
  1  'x, y, z'
loop_
 _atom_site_type_symbol
 _atom_site_label
 _atom_site_symmetry_multiplicity
 _atom_site_fract_x
 _atom_site_fract_y
 _atom_site_fract_z
 _atom_site_occupancy
  Tm  Tm0  1  0.999770  0.999543  0.999313  1
  Tm  Tm1  1  0.500457  0.500230  0.000687  1
  Tm  Tm2  1  0.792679  0.299587  0.803312  1
  Tm  Tm3  1  0.200413  0.707321  0.196688  1
  Tm  Tm4  1  0.489367  0.996274  0.196688  1
  Tm  Tm5  1  0.302437  0.481077  0.500000  1
  Tm  Tm6  1  0.018923  0.197563  0.500000  1
  Tm  Tm7  1  0.503726  0.010633  0.803312  1
  Tm  Tm8  1  0.702408  0.511654  0.500000  1
  Tm  Tm9  1  0.988346  0.797592  0.500000  1
  Zn  Zn10  1  0.138211  0.637478  0.775688  1
  Zn  Zn11  1  0.862522  0.361789  0.224312  1
  Zn  Zn12  1  0.633983  0.866017  0.500000  1
  Cu  Cu13  1  0.371269  0.128731  0.500000  1
  Sb  Sb14  1  0.247744  0.252256  0.000000  1
  Sb  Sb15  1  0.747744  0.752256  0.000000  1
