# generated using pymatgen
data_DyThAl3Tc
_symmetry_space_group_name_H-M   'P 1'
_cell_length_a   5.53576700
_cell_length_b   5.53576701
_cell_length_c   9.10778800
_cell_angle_alpha   90.00000000
_cell_angle_beta   90.00000000
_cell_angle_gamma   120.00001785
_symmetry_Int_Tables_number   1
_chemical_formula_structural   DyThAl3Tc
_chemical_formula_sum   'Dy2 Th2 Al6 Tc2'
_cell_volume   241.71247898
_cell_formula_units_Z   2
loop_
 _symmetry_equiv_pos_site_id
 _symmetry_equiv_pos_as_xyz
  1  'x, y, z'
loop_
 _atom_site_type_symbol
 _atom_site_label
 _atom_site_symmetry_multiplicity
 _atom_site_fract_x
 _atom_site_fract_y
 _atom_site_fract_z
 _atom_site_occupancy
  Dy  Dy0  1  0.333333  0.666667  0.443213  1
  Dy  Dy1  1  0.666667  0.333333  0.556787  1
  Th  Th2  1  0.666667  0.333333  0.955676  1
  Th  Th3  1  0.333333  0.666667  0.044324  1
  Al  Al4  1  0.837629  0.162371  0.256797  1
  Al  Al5  1  0.837629  0.675259  0.256797  1
  Al  Al6  1  0.324741  0.162371  0.256797  1
  Al  Al7  1  0.162371  0.837629  0.743203  1
  Al  Al8  1  0.162371  0.324741  0.743203  1
  Al  Al9  1  0.675259  0.837629  0.743203  1
  Tc  Tc10  1  0.000000  0.000000  0.500000  1
  Tc  Tc11  1  0.000000  0.000000  0.000000  1
