# generated using pymatgen
data_Y9Er(Pb3Cl)2
_symmetry_space_group_name_H-M   'P 1'
_cell_length_a   9.21033700
_cell_length_b   9.21033754
_cell_length_c   6.63451500
_cell_angle_alpha   90.00000000
_cell_angle_beta   90.00000000
_cell_angle_gamma   120.00001602
_symmetry_Int_Tables_number   1
_chemical_formula_structural   Y9Er(Pb3Cl)2
_chemical_formula_sum   'Y9 Er1 Pb6 Cl2'
_cell_volume   487.40593085
_cell_formula_units_Z   1
loop_
 _symmetry_equiv_pos_site_id
 _symmetry_equiv_pos_as_xyz
  1  'x, y, z'
loop_
 _atom_site_type_symbol
 _atom_site_label
 _atom_site_symmetry_multiplicity
 _atom_site_fract_x
 _atom_site_fract_y
 _atom_site_fract_z
 _atom_site_occupancy
  Y  Y0  1  0.260771  0.999917  0.250127  1
  Y  Y1  1  0.739147  0.999917  0.749873  1
  Y  Y2  1  0.000083  0.260853  0.250127  1
  Y  Y3  1  0.000083  0.739229  0.749873  1
  Y  Y4  1  0.739147  0.739229  0.250127  1
  Y  Y5  1  0.260771  0.260853  0.749873  1
  Y  Y6  1  0.333333  0.666667  0.000000  1
  Y  Y7  1  0.666667  0.333333  0.000000  1
  Y  Y8  1  0.666667  0.333333  0.500000  1
  Er  Er9  1  0.333333  0.666667  0.500000  1
  Pb  Pb10  1  0.609953  0.999652  0.250316  1
  Pb  Pb11  1  0.389698  0.999652  0.749684  1
  Pb  Pb12  1  0.000348  0.610302  0.250316  1
  Pb  Pb13  1  0.000348  0.390047  0.749684  1
  Pb  Pb14  1  0.389698  0.390047  0.250316  1
  Pb  Pb15  1  0.609953  0.610302  0.749684  1
  Cl  Cl16  1  0.000000  0.000000  0.000000  1
  Cl  Cl17  1  0.000000  0.000000  0.500000  1
