# generated using pymatgen
data_Yb2GaCuIr
_symmetry_space_group_name_H-M   'P 1'
_cell_length_a   4.22310939
_cell_length_b   5.39888864
_cell_length_c   5.55975665
_cell_angle_alpha   119.04737574
_cell_angle_beta   112.32084110
_cell_angle_gamma   89.99999782
_symmetry_Int_Tables_number   1
_chemical_formula_structural   Yb2GaCuIr
_chemical_formula_sum   'Yb2 Ga1 Cu1 Ir1'
_cell_volume   99.81453493
_cell_formula_units_Z   1
loop_
 _symmetry_equiv_pos_site_id
 _symmetry_equiv_pos_as_xyz
  1  'x, y, z'
loop_
 _atom_site_type_symbol
 _atom_site_label
 _atom_site_symmetry_multiplicity
 _atom_site_fract_x
 _atom_site_fract_y
 _atom_site_fract_z
 _atom_site_occupancy
  Yb  Yb0  1  0.802219  0.298847  0.604438  1
  Yb  Yb1  1  0.197781  0.694409  0.395562  1
  Ga  Ga2  1  0.000000  0.007830  0.000000  1
  Cu  Cu3  1  0.500000  0.738183  0.000000  1
  Ir  Ir4  1  0.500000  0.260731  0.000000  1
