# generated using pymatgen
data_Ca2CdIn3Pt2
_symmetry_space_group_name_H-M   'P 1'
_cell_length_a   5.60061448
_cell_length_b   5.60061442
_cell_length_c   8.31428222
_cell_angle_alpha   90.09473768
_cell_angle_beta   89.90526467
_cell_angle_gamma   134.62131012
_symmetry_Int_Tables_number   1
_chemical_formula_structural   Ca2CdIn3Pt2
_chemical_formula_sum   'Ca2 Cd1 In3 Pt2'
_cell_volume   185.62307006
_cell_formula_units_Z   1
loop_
 _symmetry_equiv_pos_site_id
 _symmetry_equiv_pos_as_xyz
  1  'x, y, z'
loop_
 _atom_site_type_symbol
 _atom_site_label
 _atom_site_symmetry_multiplicity
 _atom_site_fract_x
 _atom_site_fract_y
 _atom_site_fract_z
 _atom_site_occupancy
  Ca  Ca0  1  0.933979  0.066021  0.754921  1
  Ca  Ca1  1  0.067514  0.932486  0.246139  1
  Cd  Cd2  1  0.641154  0.358846  0.949828  1
  In  In3  1  0.644939  0.355061  0.554394  1
  In  In4  1  0.351045  0.648955  0.048478  1
  In  In5  1  0.356205  0.643795  0.448059  1
  Pt  Pt6  1  0.224399  0.775601  0.744865  1
  Pt  Pt7  1  0.780765  0.219235  0.253316  1
