# generated using pymatgen
data_DyHo3(In2Pd3)4
_symmetry_space_group_name_H-M   'P 1'
_cell_length_a   4.62316400
_cell_length_b   9.74915376
_cell_length_c   10.42690000
_cell_angle_alpha   90.04308429
_cell_angle_beta   90.00000000
_cell_angle_gamma   90.00000000
_symmetry_Int_Tables_number   1
_chemical_formula_structural   DyHo3(In2Pd3)4
_chemical_formula_sum   'Dy1 Ho3 In8 Pd12'
_cell_volume   469.96044366
_cell_formula_units_Z   1
loop_
 _symmetry_equiv_pos_site_id
 _symmetry_equiv_pos_as_xyz
  1  'x, y, z'
loop_
 _atom_site_type_symbol
 _atom_site_label
 _atom_site_symmetry_multiplicity
 _atom_site_fract_x
 _atom_site_fract_y
 _atom_site_fract_z
 _atom_site_occupancy
  Dy  Dy0  1  0.750000  0.947883  0.776238  1
  Ho  Ho1  1  0.250000  0.447274  0.722292  1
  Ho  Ho2  1  0.250000  0.052436  0.222640  1
  Ho  Ho3  1  0.750000  0.552614  0.277645  1
  In  In4  1  0.250000  0.887210  0.511988  1
  In  In5  1  0.250000  0.612660  0.011492  1
  In  In6  1  0.750000  0.112761  0.487838  1
  In  In7  1  0.750000  0.387439  0.989080  1
  In  In8  1  0.250000  0.166097  0.895624  1
  In  In9  1  0.250000  0.334004  0.395407  1
  In  In10  1  0.750000  0.833946  0.104633  1
  In  In11  1  0.750000  0.665555  0.604406  1
  Pd  Pd12  1  0.250000  0.144510  0.627715  1
  Pd  Pd13  1  0.250000  0.356564  0.128347  1
  Pd  Pd14  1  0.750000  0.856101  0.372316  1
  Pd  Pd15  1  0.750000  0.642804  0.871741  1
  Pd  Pd16  1  0.250000  0.746227  0.739556  1
  Pd  Pd17  1  0.250000  0.753027  0.239433  1
  Pd  Pd18  1  0.750000  0.253357  0.260746  1
  Pd  Pd19  1  0.750000  0.247539  0.761008  1
  Pd  Pd20  1  0.250000  0.897280  0.973044  1
  Pd  Pd21  1  0.250000  0.603120  0.472788  1
  Pd  Pd22  1  0.750000  0.103000  0.027129  1
  Pd  Pd23  1  0.750000  0.396587  0.526895  1
