# generated using pymatgen
data_CrPdF20
_symmetry_space_group_name_H-M   'P 1'
_cell_length_a   10.58340723
_cell_length_b   5.05695182
_cell_length_c   6.92060457
_cell_angle_alpha   90.20684699
_cell_angle_beta   89.67753872
_cell_angle_gamma   89.66555952
_symmetry_Int_Tables_number   1
_chemical_formula_structural   CrPdF20
_chemical_formula_sum   'Cr1 Pd1 F20'
_cell_volume   370.37460377
_cell_formula_units_Z   1
loop_
 _symmetry_equiv_pos_site_id
 _symmetry_equiv_pos_as_xyz
  1  'x, y, z'
loop_
 _atom_site_type_symbol
 _atom_site_label
 _atom_site_symmetry_multiplicity
 _atom_site_fract_x
 _atom_site_fract_y
 _atom_site_fract_z
 _atom_site_occupancy
  Cr  Cr0  1  0.500000  0.500000  0.000000  1
  Pd  Pd1  1  0.000000  0.500000  0.500000  1
  F  F2  1  0.858321  0.780519  0.976012  1
  F  F3  1  0.356429  0.217343  0.523932  1
  F  F4  1  0.141679  0.219481  0.023988  1
  F  F5  1  0.643571  0.782657  0.476068  1
  F  F6  1  0.851399  0.007569  0.098171  1
  F  F7  1  0.353190  0.990372  0.401858  1
  F  F8  1  0.148601  0.992431  0.901829  1
  F  F9  1  0.646810  0.009628  0.598142  1
  F  F10  1  0.075187  0.637139  0.272383  1
  F  F11  1  0.568217  0.364696  0.209007  1
  F  F12  1  0.924813  0.362861  0.727617  1
  F  F13  1  0.431783  0.635304  0.790993  1
  F  F14  1  0.860578  0.378936  0.353512  1
  F  F15  1  0.371458  0.621401  0.137312  1
  F  F16  1  0.139422  0.621064  0.646488  1
  F  F17  1  0.628542  0.378599  0.862688  1
  F  F18  1  0.084902  0.173397  0.457498  1
  F  F19  1  0.581241  0.796672  0.041139  1
  F  F20  1  0.418759  0.203328  0.958861  1
  F  F21  1  0.915098  0.826603  0.542502  1
