# generated using pymatgen
data_La5YU4O19
_symmetry_space_group_name_H-M   'P 1'
_cell_length_a   6.75994555
_cell_length_b   7.73801846
_cell_length_c   8.68280000
_cell_angle_alpha   100.88163926
_cell_angle_beta   97.16946071
_cell_angle_gamma   107.28375714
_symmetry_Int_Tables_number   1
_chemical_formula_structural   La5YU4O19
_chemical_formula_sum   'La5 Y1 U4 O19'
_cell_volume   417.87851520
_cell_formula_units_Z   1
loop_
 _symmetry_equiv_pos_site_id
 _symmetry_equiv_pos_as_xyz
  1  'x, y, z'
loop_
 _atom_site_type_symbol
 _atom_site_label
 _atom_site_symmetry_multiplicity
 _atom_site_fract_x
 _atom_site_fract_y
 _atom_site_fract_z
 _atom_site_occupancy
  La  La0  1  0.802796  0.102569  0.602341  1
  La  La1  1  0.399331  0.297974  0.798537  1
  La  La2  1  0.606309  0.703324  0.209199  1
  La  La3  1  0.997653  0.498643  0.988531  1
  La  La4  1  0.194858  0.905203  0.391477  1
  Y  Y5  1  0.768173  0.598948  0.601282  1
  U  U6  1  0.605445  0.204032  0.197016  1
  U  U7  1  0.001559  0.005027  0.999005  1
  U  U8  1  0.410490  0.807636  0.815070  1
  U  U9  1  0.198656  0.388386  0.389823  1
  O  O10  1  0.347261  0.061082  0.958957  1
  O  O11  1  0.427485  0.982847  0.653024  1
  O  O12  1  0.046810  0.209032  0.861038  1
  O  O13  1  0.735954  0.377511  0.743006  1
  O  O14  1  0.161103  0.189759  0.535140  1
  O  O15  1  0.366666  0.595892  0.948478  1
  O  O16  1  0.949195  0.264164  0.156265  1
  O  O17  1  0.906660  0.387062  0.453049  1
  O  O18  1  0.750074  0.864287  0.776766  1
  O  O19  1  0.534825  0.440819  0.357042  1
  O  O20  1  0.404185  0.563072  0.627065  1
  O  O21  1  0.240990  0.126487  0.229325  1
  O  O22  1  0.078902  0.726043  0.799749  1
  O  O23  1  0.646070  0.408210  0.065224  1
  O  O24  1  0.856515  0.813687  0.456491  1
  O  O25  1  0.246023  0.614898  0.275964  1
  O  O26  1  0.954183  0.786752  0.119604  1
  O  O27  1  0.567827  0.014125  0.344951  1
  O  O28  1  0.657918  0.950170  0.054816  1
