# generated using pymatgen
data_Sc8Ta11Si16Ru
_symmetry_space_group_name_H-M   'P 1'
_cell_length_a   6.87284350
_cell_length_b   6.88750625
_cell_length_c   12.67211990
_cell_angle_alpha   90.34612680
_cell_angle_beta   89.94878298
_cell_angle_gamma   89.91255375
_symmetry_Int_Tables_number   1
_chemical_formula_structural   Sc8Ta11Si16Ru
_chemical_formula_sum   'Sc8 Ta11 Si16 Ru1'
_cell_volume   599.84511433
_cell_formula_units_Z   1
loop_
 _symmetry_equiv_pos_site_id
 _symmetry_equiv_pos_as_xyz
  1  'x, y, z'
loop_
 _atom_site_type_symbol
 _atom_site_label
 _atom_site_symmetry_multiplicity
 _atom_site_fract_x
 _atom_site_fract_y
 _atom_site_fract_z
 _atom_site_occupancy
  Sc  Sc0  1  0.000121  0.659578  0.032569  1
  Sc  Sc1  1  0.839647  0.504177  0.280816  1
  Sc  Sc2  1  0.159211  0.499695  0.781377  1
  Sc  Sc3  1  0.500724  0.840964  0.717607  1
  Sc  Sc4  1  0.497445  0.158184  0.218647  1
  Sc  Sc5  1  0.001139  0.343257  0.530615  1
  Sc  Sc6  1  0.658743  0.001097  0.969640  1
  Sc  Sc7  1  0.340599  0.000182  0.469018  1
  Ta  Ta8  1  0.329797  0.329880  0.000097  1
  Ta  Ta9  1  0.175881  0.829041  0.250124  1
  Ta  Ta10  1  0.829600  0.172299  0.749190  1
  Ta  Ta11  1  0.672075  0.666104  0.500784  1
  Ta  Ta12  1  0.003108  0.150765  0.127120  1
  Ta  Ta13  1  0.348572  0.504069  0.376233  1
  Ta  Ta14  1  0.651182  0.493956  0.876059  1
  Ta  Ta15  1  0.509893  0.344647  0.621638  1
  Ta  Ta16  1  0.494677  0.654221  0.125013  1
  Ta  Ta17  1  0.995897  0.847124  0.627171  1
  Ta  Ta18  1  0.151104  0.006247  0.873547  1
  Si  Si19  1  0.300679  0.956967  0.063065  1
  Si  Si20  1  0.547650  0.801920  0.316165  1
  Si  Si21  1  0.456754  0.197479  0.813326  1
  Si  Si22  1  0.801229  0.544288  0.686857  1
  Si  Si23  1  0.199231  0.455022  0.186980  1
  Si  Si24  1  0.702265  0.038917  0.560709  1
  Si  Si25  1  0.956145  0.302426  0.937008  1
  Si  Si26  1  0.041307  0.707382  0.436159  1
  Si  Si27  1  0.704249  0.361222  0.072493  1
  Si  Si28  1  0.129795  0.200438  0.321643  1
  Si  Si29  1  0.859898  0.795585  0.822028  1
  Si  Si30  1  0.204905  0.140169  0.677526  1
  Si  Si31  1  0.797528  0.862691  0.180717  1
  Si  Si32  1  0.295020  0.636197  0.570320  1
  Si  Si33  1  0.361366  0.706566  0.928462  1
  Si  Si34  1  0.640425  0.289254  0.426420  1
  Ru  Ru35  1  0.842140  0.997991  0.372853  1
