# generated using pymatgen
data_CsReTe7Mo5
_symmetry_space_group_name_H-M   'P 1'
_cell_length_a   10.40941069
_cell_length_b   10.46696943
_cell_length_c   10.45632316
_cell_angle_alpha   61.34459258
_cell_angle_beta   61.39363211
_cell_angle_gamma   61.41351476
_symmetry_Int_Tables_number   1
_chemical_formula_structural   CsReTe7Mo5
_chemical_formula_sum   'Cs2 Re2 Te14 Mo10'
_cell_volume   830.62989339
_cell_formula_units_Z   2
loop_
 _symmetry_equiv_pos_site_id
 _symmetry_equiv_pos_as_xyz
  1  'x, y, z'
loop_
 _atom_site_type_symbol
 _atom_site_label
 _atom_site_symmetry_multiplicity
 _atom_site_fract_x
 _atom_site_fract_y
 _atom_site_fract_z
 _atom_site_occupancy
  Cs  Cs0  1  0.618379  0.614631  0.617388  1
  Cs  Cs1  1  0.382570  0.387497  0.386090  1
  Re  Re2  1  0.717391  0.877288  0.000535  1
  Re  Re3  1  0.004149  0.716702  0.875780  1
  Te  Te4  1  0.426632  0.813900  0.161309  1
  Te  Te5  1  0.161980  0.428706  0.812517  1
  Te  Te6  1  0.809638  0.162339  0.423965  1
  Te  Te7  1  0.577113  0.180821  0.840384  1
  Te  Te8  1  0.838542  0.578993  0.179406  1
  Te  Te9  1  0.189612  0.833848  0.578654  1
  Te  Te10  1  0.636426  0.972313  0.242994  1
  Te  Te11  1  0.245202  0.637777  0.974998  1
  Te  Te12  1  0.974732  0.243189  0.638389  1
  Te  Te13  1  0.361234  0.027290  0.754294  1
  Te  Te14  1  0.751926  0.359920  0.024728  1
  Te  Te15  1  0.024330  0.755182  0.360025  1
  Te  Te16  1  0.776383  0.770996  0.780935  1
  Te  Te17  1  0.223606  0.226451  0.229315  1
  Mo  Mo18  1  0.877298  0.999718  0.711957  1
  Mo  Mo19  1  0.282304  0.125903  0.002308  1
  Mo  Mo20  1  0.998780  0.284098  0.123450  1
  Mo  Mo21  1  0.122799  0.001645  0.285399  1
  Mo  Mo22  1  0.945839  0.811458  0.105446  1
  Mo  Mo23  1  0.107808  0.945273  0.813077  1
  Mo  Mo24  1  0.812801  0.106555  0.946045  1
  Mo  Mo25  1  0.053228  0.187991  0.893545  1
  Mo  Mo26  1  0.893526  0.053191  0.184817  1
  Mo  Mo27  1  0.185774  0.896328  0.052249  1
