# generated using pymatgen
data_Nb12CrGa8Cu(NiN2)2
_symmetry_space_group_name_H-M   'P 1'
_cell_length_a   8.22083870
_cell_length_b   8.26411117
_cell_length_c   8.22685000
_cell_angle_alpha   60.14903796
_cell_angle_beta   59.97580827
_cell_angle_gamma   60.22008683
_symmetry_Int_Tables_number   1
_chemical_formula_structural   Nb12CrGa8Cu(NiN2)2
_chemical_formula_sum   'Nb12 Cr1 Ga8 Cu1 Ni2 N4'
_cell_volume   396.23837931
_cell_formula_units_Z   1
loop_
 _symmetry_equiv_pos_site_id
 _symmetry_equiv_pos_as_xyz
  1  'x, y, z'
loop_
 _atom_site_type_symbol
 _atom_site_label
 _atom_site_symmetry_multiplicity
 _atom_site_fract_x
 _atom_site_fract_y
 _atom_site_fract_z
 _atom_site_occupancy
  Nb  Nb0  1  0.813589  0.815504  0.185453  1
  Nb  Nb1  1  0.198503  0.193845  0.803826  1
  Nb  Nb2  1  0.809732  0.185313  0.807556  1
  Nb  Nb3  1  0.185980  0.812552  0.193389  1
  Nb  Nb4  1  0.185980  0.812552  0.808078  1
  Nb  Nb5  1  0.809732  0.185313  0.197396  1
  Nb  Nb6  1  0.436411  0.434496  0.064547  1
  Nb  Nb7  1  0.051497  0.056155  0.446174  1
  Nb  Nb8  1  0.440268  0.064687  0.442444  1
  Nb  Nb9  1  0.064020  0.437448  0.056611  1
  Nb  Nb10  1  0.064020  0.437448  0.441922  1
  Nb  Nb11  1  0.440268  0.064687  0.052604  1
  Cr  Cr12  1  0.625000  0.125000  0.625000  1
  Ga  Ga13  1  0.755961  0.420388  0.411826  1
  Ga  Ga14  1  0.419969  0.760160  0.409936  1
  Ga  Ga15  1  0.419503  0.420314  0.749462  1
  Ga  Ga16  1  0.419503  0.420314  0.410723  1
  Ga  Ga17  1  0.494039  0.829612  0.838174  1
  Ga  Ga18  1  0.830031  0.489840  0.840064  1
  Ga  Ga19  1  0.830497  0.829686  0.500538  1
  Ga  Ga20  1  0.830497  0.829686  0.839277  1
  Cu  Cu21  1  0.125000  0.625000  0.625000  1
  Ni  Ni22  1  0.625000  0.625000  0.125000  1
  Ni  Ni23  1  0.625000  0.625000  0.625000  1
  N  N24  1  0.625000  0.125000  0.125000  1
  N  N25  1  0.125000  0.625000  0.125000  1
  N  N26  1  0.125000  0.125000  0.625000  1
  N  N27  1  0.125000  0.125000  0.125000  1
