# generated using pymatgen
data_Y7Pa(ReB6)4
_symmetry_space_group_name_H-M   'P 1'
_cell_length_a   3.69486100
_cell_length_b   9.18483384
_cell_length_c   11.55800747
_cell_angle_alpha   89.80093043
_cell_angle_beta   90.00000000
_cell_angle_gamma   90.00000000
_symmetry_Int_Tables_number   1
_chemical_formula_structural   Y7Pa(ReB6)4
_chemical_formula_sum   'Y7 Pa1 Re4 B24'
_cell_volume   392.23808354
_cell_formula_units_Z   1
loop_
 _symmetry_equiv_pos_site_id
 _symmetry_equiv_pos_as_xyz
  1  'x, y, z'
loop_
 _atom_site_type_symbol
 _atom_site_label
 _atom_site_symmetry_multiplicity
 _atom_site_fract_x
 _atom_site_fract_y
 _atom_site_fract_z
 _atom_site_occupancy
  Y  Y0  1  0.000000  0.179100  0.913272  1
  Y  Y1  1  0.000000  0.323522  0.414478  1
  Y  Y2  1  0.000000  0.675811  0.586506  1
  Y  Y3  1  0.000000  0.442325  0.128217  1
  Y  Y4  1  0.000000  0.555578  0.870999  1
  Y  Y5  1  0.000000  0.943187  0.372415  1
  Y  Y6  1  0.000000  0.057424  0.629905  1
  Pa  Pa7  1  0.000000  0.823633  0.085973  1
  Re  Re8  1  0.000000  0.134636  0.177648  1
  Re  Re9  1  0.000000  0.862629  0.824451  1
  Re  Re10  1  0.000000  0.640969  0.317924  1
  Re  Re11  1  0.000000  0.362179  0.678745  1
  B  B12  1  0.500000  0.052033  0.068086  1
  B  B13  1  0.500000  0.945587  0.933253  1
  B  B14  1  0.500000  0.553920  0.431956  1
  B  B15  1  0.500000  0.447301  0.566506  1
  B  B16  1  0.500000  0.247504  0.081464  1
  B  B17  1  0.500000  0.751777  0.919343  1
  B  B18  1  0.500000  0.747957  0.418756  1
  B  B19  1  0.500000  0.251939  0.581201  1
  B  B20  1  0.500000  0.290589  0.233708  1
  B  B21  1  0.500000  0.708884  0.765918  1
  B  B22  1  0.500000  0.791437  0.265142  1
  B  B23  1  0.500000  0.208865  0.734225  1
  B  B24  1  0.500000  0.130856  0.314518  1
  B  B25  1  0.500000  0.869497  0.686735  1
  B  B26  1  0.500000  0.632346  0.185098  1
  B  B27  1  0.500000  0.368764  0.813571  1
  B  B28  1  0.500000  0.483038  0.287512  1
  B  B29  1  0.500000  0.517573  0.711793  1
  B  B30  1  0.500000  0.982472  0.212170  1
  B  B31  1  0.500000  0.017524  0.787764  1
  B  B32  1  0.500000  0.102428  0.471849  1
  B  B33  1  0.500000  0.897643  0.529535  1
  B  B34  1  0.500000  0.606890  0.029579  1
  B  B35  1  0.500000  0.392187  0.969789  1
