# generated using pymatgen
data_DyHo3(OsC2)2
_symmetry_space_group_name_H-M   'P 1'
_cell_length_a   5.11865700
_cell_length_b   6.43067497
_cell_length_c   9.78073702
_cell_angle_alpha   89.91014155
_cell_angle_beta   90.00000000
_cell_angle_gamma   90.00000000
_symmetry_Int_Tables_number   1
_chemical_formula_structural   DyHo3(OsC2)2
_chemical_formula_sum   'Dy2 Ho6 Os4 C8'
_cell_volume   321.94644628
_cell_formula_units_Z   2
loop_
 _symmetry_equiv_pos_site_id
 _symmetry_equiv_pos_as_xyz
  1  'x, y, z'
loop_
 _atom_site_type_symbol
 _atom_site_label
 _atom_site_symmetry_multiplicity
 _atom_site_fract_x
 _atom_site_fract_y
 _atom_site_fract_z
 _atom_site_occupancy
  Dy  Dy0  1  0.750000  0.975138  0.719383  1
  Dy  Dy1  1  0.250000  0.024862  0.280617  1
  Ho  Ho2  1  0.250000  0.684181  0.552683  1
  Ho  Ho3  1  0.750000  0.315819  0.447317  1
  Ho  Ho4  1  0.750000  0.815713  0.052730  1
  Ho  Ho5  1  0.250000  0.184287  0.947270  1
  Ho  Ho6  1  0.250000  0.524756  0.220030  1
  Ho  Ho7  1  0.750000  0.475244  0.779970  1
  Os  Os8  1  0.250000  0.726041  0.865397  1
  Os  Os9  1  0.750000  0.273959  0.134603  1
  Os  Os10  1  0.750000  0.773379  0.365501  1
  Os  Os11  1  0.250000  0.226621  0.634499  1
  C  C12  1  0.250000  0.462410  0.757964  1
  C  C13  1  0.750000  0.537590  0.242036  1
  C  C14  1  0.750000  0.037457  0.257803  1
  C  C15  1  0.250000  0.962543  0.742197  1
  C  C16  1  0.250000  0.824374  0.053287  1
  C  C17  1  0.750000  0.175626  0.946713  1
  C  C18  1  0.750000  0.673406  0.553456  1
  C  C19  1  0.250000  0.326594  0.446544  1
