# generated using pymatgen
data_Sr8Li13CdSb12
_symmetry_space_group_name_H-M   'P 1'
_cell_length_a   9.13191258
_cell_length_b   9.13191199
_cell_length_c   20.74404186
_cell_angle_alpha   83.43753041
_cell_angle_beta   83.43753090
_cell_angle_gamma   30.57347838
_symmetry_Int_Tables_number   1
_chemical_formula_structural   Sr8Li13CdSb12
_chemical_formula_sum   'Sr8 Li13 Cd1 Sb12'
_cell_volume   873.69557936
_cell_formula_units_Z   1
loop_
 _symmetry_equiv_pos_site_id
 _symmetry_equiv_pos_as_xyz
  1  'x, y, z'
loop_
 _atom_site_type_symbol
 _atom_site_label
 _atom_site_symmetry_multiplicity
 _atom_site_fract_x
 _atom_site_fract_y
 _atom_site_fract_z
 _atom_site_occupancy
  Sr  Sr0  1  0.115436  0.115436  0.958879  1
  Sr  Sr1  1  0.613366  0.613366  0.453767  1
  Sr  Sr2  1  0.388320  0.388320  0.540660  1
  Sr  Sr3  1  0.886034  0.886034  0.044291  1
  Sr  Sr4  1  0.568373  0.568373  0.669126  1
  Sr  Sr5  1  0.069380  0.069380  0.171948  1
  Sr  Sr6  1  0.928437  0.928437  0.831323  1
  Sr  Sr7  1  0.430495  0.430495  0.328194  1
  Li  Li8  1  0.890519  0.890519  0.659103  1
  Li  Li9  1  0.387361  0.387361  0.158703  1
  Li  Li10  1  0.612847  0.612847  0.841618  1
  Li  Li11  1  0.113177  0.113177  0.340935  1
  Li  Li12  1  0.186622  0.186622  0.543603  1
  Li  Li13  1  0.691019  0.691019  0.044984  1
  Li  Li14  1  0.310242  0.310242  0.955434  1
  Li  Li15  1  0.810730  0.810730  0.453075  1
  Li  Li16  1  0.751841  0.751841  0.755850  1
  Li  Li17  1  0.249860  0.249860  0.248435  1
  Li  Li18  1  0.741644  0.741644  0.172287  1
  Li  Li19  1  0.257222  0.257222  0.829489  1
  Li  Li20  1  0.758630  0.758630  0.327985  1
  Cd  Cd21  1  0.240497  0.240497  0.673138  1
  Sb  Sb22  1  0.750283  0.750283  0.586941  1
  Sb  Sb23  1  0.249737  0.249737  0.091878  1
  Sb  Sb24  1  0.749306  0.749306  0.906914  1
  Sb  Sb25  1  0.250388  0.250388  0.410328  1
  Sb  Sb26  1  0.023486  0.023486  0.563442  1
  Sb  Sb27  1  0.523869  0.523869  0.063576  1
  Sb  Sb28  1  0.477166  0.477166  0.935471  1
  Sb  Sb29  1  0.976348  0.976348  0.435361  1
  Sb  Sb30  1  0.382347  0.382347  0.730253  1
  Sb  Sb31  1  0.880126  0.880126  0.228414  1
  Sb  Sb32  1  0.114554  0.114554  0.772453  1
  Sb  Sb33  1  0.620338  0.620338  0.272138  1
