# generated using pymatgen
data_MnNb8PbS16
_symmetry_space_group_name_H-M   'P 1'
_cell_length_a   6.75027200
_cell_length_b   6.75027197
_cell_length_c   13.65853100
_cell_angle_alpha   90.00000000
_cell_angle_beta   90.00000000
_cell_angle_gamma   120.00000015
_symmetry_Int_Tables_number   1
_chemical_formula_structural   MnNb8PbS16
_chemical_formula_sum   'Mn1 Nb8 Pb1 S16'
_cell_volume   538.98560663
_cell_formula_units_Z   1
loop_
 _symmetry_equiv_pos_site_id
 _symmetry_equiv_pos_as_xyz
  1  'x, y, z'
loop_
 _atom_site_type_symbol
 _atom_site_label
 _atom_site_symmetry_multiplicity
 _atom_site_fract_x
 _atom_site_fract_y
 _atom_site_fract_z
 _atom_site_occupancy
  Mn  Mn0  1  0.000000  0.000000  0.500000  1
  Nb  Nb1  1  0.990175  0.495088  0.271453  1
  Nb  Nb2  1  0.009825  0.504912  0.728547  1
  Nb  Nb3  1  0.495088  0.504912  0.728547  1
  Nb  Nb4  1  0.504912  0.009825  0.271453  1
  Nb  Nb5  1  0.000000  0.000000  0.728370  1
  Nb  Nb6  1  0.000000  0.000000  0.271630  1
  Nb  Nb7  1  0.504912  0.495088  0.271453  1
  Nb  Nb8  1  0.495088  0.990175  0.728547  1
  Pb  Pb9  1  0.000000  0.000000  0.000000  1
  S  S10  1  0.333333  0.666667  0.612925  1
  S  S11  1  0.666667  0.333333  0.154135  1
  S  S12  1  0.666667  0.333333  0.387075  1
  S  S13  1  0.333333  0.666667  0.845865  1
  S  S14  1  0.167399  0.334799  0.385038  1
  S  S15  1  0.831772  0.168228  0.842090  1
  S  S16  1  0.336455  0.168228  0.842090  1
  S  S17  1  0.665201  0.832601  0.385038  1
  S  S18  1  0.167399  0.832601  0.385038  1
  S  S19  1  0.831772  0.663545  0.842090  1
  S  S20  1  0.168228  0.336455  0.157910  1
  S  S21  1  0.832601  0.167399  0.614962  1
  S  S22  1  0.334799  0.167399  0.614962  1
  S  S23  1  0.663545  0.831772  0.157910  1
  S  S24  1  0.168228  0.831772  0.157910  1
  S  S25  1  0.832601  0.665201  0.614962  1
