# generated using pymatgen
data_Tb3Dy2TmTa2O14
_symmetry_space_group_name_H-M   'P 1'
_cell_length_a   6.50157611
_cell_length_b   6.48790058
_cell_length_c   7.47944062
_cell_angle_alpha   89.98812009
_cell_angle_beta   89.96333518
_cell_angle_gamma   108.61227840
_symmetry_Int_Tables_number   1
_chemical_formula_structural   Tb3Dy2TmTa2O14
_chemical_formula_sum   'Tb3 Dy2 Tm1 Ta2 O14'
_cell_volume   298.99417184
_cell_formula_units_Z   1
loop_
 _symmetry_equiv_pos_site_id
 _symmetry_equiv_pos_as_xyz
  1  'x, y, z'
loop_
 _atom_site_type_symbol
 _atom_site_label
 _atom_site_symmetry_multiplicity
 _atom_site_fract_x
 _atom_site_fract_y
 _atom_site_fract_z
 _atom_site_occupancy
  Tb  Tb0  1  0.464093  0.000322  0.258660  1
  Tb  Tb1  1  0.464659  0.466484  0.000780  1
  Tb  Tb2  1  0.538183  0.535857  0.499811  1
  Dy  Dy3  1  0.000098  0.465615  0.741700  1
  Dy  Dy4  1  0.535107  0.000317  0.758833  1
  Tm  Tm5  1  0.001021  0.534115  0.241560  1
  Ta  Ta6  1  0.002129  0.002518  0.499663  1
  Ta  Ta7  1  0.997494  0.997626  0.000755  1
  O  O8  1  0.933471  0.069419  0.750160  1
  O  O9  1  0.640899  0.360982  0.749695  1
  O  O10  1  0.307680  0.052122  0.544791  1
  O  O11  1  0.952462  0.691537  0.957836  1
  O  O12  1  0.635763  0.374652  0.248454  1
  O  O13  1  0.919851  0.671033  0.522171  1
  O  O14  1  0.327679  0.084062  0.975012  1
  O  O15  1  0.078840  0.327339  0.028259  1
  O  O16  1  0.671550  0.916458  0.477100  1
  O  O17  1  0.369669  0.629321  0.750023  1
  O  O18  1  0.690280  0.945814  0.042342  1
  O  O19  1  0.045637  0.306115  0.451444  1
  O  O20  1  0.355766  0.638266  0.250909  1
  O  O21  1  0.067665  0.930030  0.250043  1
