# generated using pymatgen
data_Tb4Ho3Lu13Bi12
_symmetry_space_group_name_H-M   'P 1'
_cell_length_a   8.17346226
_cell_length_b   9.38212200
_cell_length_c   11.90920037
_cell_angle_alpha   90.00000000
_cell_angle_beta   90.02870959
_cell_angle_gamma   90.00000000
_symmetry_Int_Tables_number   1
_chemical_formula_structural   Tb4Ho3Lu13Bi12
_chemical_formula_sum   'Tb4 Ho3 Lu13 Bi12'
_cell_volume   913.25000931
_cell_formula_units_Z   1
loop_
 _symmetry_equiv_pos_site_id
 _symmetry_equiv_pos_as_xyz
  1  'x, y, z'
loop_
 _atom_site_type_symbol
 _atom_site_label
 _atom_site_symmetry_multiplicity
 _atom_site_fract_x
 _atom_site_fract_y
 _atom_site_fract_z
 _atom_site_occupancy
  Tb  Tb0  1  0.313157  0.250000  0.218098  1
  Tb  Tb1  1  0.813199  0.250000  0.281940  1
  Tb  Tb2  1  0.686726  0.750000  0.781766  1
  Tb  Tb3  1  0.186986  0.750000  0.718082  1
  Ho  Ho4  1  0.352279  0.750000  0.217727  1
  Ho  Ho5  1  0.852443  0.750000  0.282132  1
  Ho  Ho6  1  0.647337  0.250000  0.782104  1
  Lu  Lu7  1  0.147629  0.250000  0.718298  1
  Lu  Lu8  1  0.692637  0.566831  0.059481  1
  Lu  Lu9  1  0.192664  0.933101  0.440555  1
  Lu  Lu10  1  0.307177  0.067062  0.940094  1
  Lu  Lu11  1  0.807440  0.433108  0.559571  1
  Lu  Lu12  1  0.307177  0.432938  0.940094  1
  Lu  Lu13  1  0.807440  0.066892  0.559571  1
  Lu  Lu14  1  0.692637  0.933169  0.059481  1
  Lu  Lu15  1  0.192664  0.566899  0.440555  1
  Lu  Lu16  1  0.476685  0.250000  0.488987  1
  Lu  Lu17  1  0.976911  0.250000  0.010698  1
  Lu  Lu18  1  0.523209  0.750000  0.511178  1
  Lu  Lu19  1  0.023479  0.750000  0.988894  1
  Bi  Bi20  1  0.403918  0.750000  0.958952  1
  Bi  Bi21  1  0.903882  0.750000  0.540969  1
  Bi  Bi22  1  0.596094  0.250000  0.041100  1
  Bi  Bi23  1  0.096408  0.250000  0.460035  1
  Bi  Bi24  1  0.565539  0.994774  0.326706  1
  Bi  Bi25  1  0.065579  0.505301  0.173350  1
  Bi  Bi26  1  0.433925  0.494514  0.673345  1
  Bi  Bi27  1  0.934867  0.005886  0.826420  1
  Bi  Bi28  1  0.433925  0.005486  0.673345  1
  Bi  Bi29  1  0.934867  0.494114  0.826420  1
  Bi  Bi30  1  0.565539  0.505226  0.326706  1
  Bi  Bi31  1  0.065579  0.994699  0.173350  1
