# generated using pymatgen
data_KErZrS4
_symmetry_space_group_name_H-M   'P 1'
_cell_length_a   3.86777100
_cell_length_b   6.58428769
_cell_length_c   7.87799096
_cell_angle_alpha   73.97620165
_cell_angle_beta   90.00000000
_cell_angle_gamma   90.00000000
_symmetry_Int_Tables_number   1
_chemical_formula_structural   KErZrS4
_chemical_formula_sum   'K1 Er1 Zr1 S4'
_cell_volume   192.83013273
_cell_formula_units_Z   1
loop_
 _symmetry_equiv_pos_site_id
 _symmetry_equiv_pos_as_xyz
  1  'x, y, z'
loop_
 _atom_site_type_symbol
 _atom_site_label
 _atom_site_symmetry_multiplicity
 _atom_site_fract_x
 _atom_site_fract_y
 _atom_site_fract_z
 _atom_site_occupancy
  K  K0  1  0.000000  0.500000  0.500000  1
  Er  Er1  1  0.500000  0.500000  0.000000  1
  Zr  Zr2  1  0.000000  0.000000  0.000000  1
  S  S3  1  0.500000  0.784022  0.193283  1
  S  S4  1  0.000000  0.256218  0.192006  1
  S  S5  1  0.500000  0.215978  0.806717  1
  S  S6  1  0.000000  0.743782  0.807994  1
