# generated using pymatgen
data_La20Ge8OsRh3
_symmetry_space_group_name_H-M   'P 1'
_cell_length_a   8.18192876
_cell_length_b   9.00519200
_cell_length_c   12.63049424
_cell_angle_alpha   90.00000000
_cell_angle_beta   89.90600040
_cell_angle_gamma   90.00000000
_symmetry_Int_Tables_number   1
_chemical_formula_structural   La20Ge8OsRh3
_chemical_formula_sum   'La20 Ge8 Os1 Rh3'
_cell_volume   930.61153480
_cell_formula_units_Z   1
loop_
 _symmetry_equiv_pos_site_id
 _symmetry_equiv_pos_as_xyz
  1  'x, y, z'
loop_
 _atom_site_type_symbol
 _atom_site_label
 _atom_site_symmetry_multiplicity
 _atom_site_fract_x
 _atom_site_fract_y
 _atom_site_fract_z
 _atom_site_occupancy
  La  La0  1  0.678041  0.467220  0.073202  1
  La  La1  1  0.180332  0.533866  0.424831  1
  La  La2  1  0.321349  0.964052  0.927061  1
  La  La3  1  0.820076  0.033774  0.574735  1
  La  La4  1  0.321349  0.535948  0.927061  1
  La  La5  1  0.820076  0.466226  0.574735  1
  La  La6  1  0.678041  0.032780  0.073202  1
  La  La7  1  0.180332  0.966134  0.424831  1
  La  La8  1  0.955861  0.750000  0.998964  1
  La  La9  1  0.457730  0.250000  0.500318  1
  La  La10  1  0.043190  0.250000  0.999942  1
  La  La11  1  0.542601  0.750000  0.500785  1
  La  La12  1  0.355802  0.750000  0.202398  1
  La  La13  1  0.850682  0.250000  0.295614  1
  La  La14  1  0.648640  0.250000  0.795374  1
  La  La15  1  0.147100  0.750000  0.704003  1
  La  La16  1  0.829665  0.750000  0.282951  1
  La  La17  1  0.329619  0.250000  0.216765  1
  La  La18  1  0.169409  0.250000  0.716182  1
  La  La19  1  0.667873  0.750000  0.786819  1
  Ge  Ge20  1  0.559538  0.495046  0.329240  1
  Ge  Ge21  1  0.059249  0.504653  0.171503  1
  Ge  Ge22  1  0.440159  0.995418  0.671722  1
  Ge  Ge23  1  0.941365  0.005510  0.828097  1
  Ge  Ge24  1  0.440159  0.504582  0.671722  1
  Ge  Ge25  1  0.941365  0.494490  0.828097  1
  Ge  Ge26  1  0.559538  0.004954  0.329240  1
  Ge  Ge27  1  0.059249  0.995347  0.171503  1
  Os  Os28  1  0.581033  0.750000  0.016449  1
  Rh  Rh29  1  0.078761  0.250000  0.483206  1
  Rh  Rh30  1  0.419933  0.250000  0.983181  1
  Rh  Rh31  1  0.921885  0.750000  0.516267  1
