# generated using pymatgen
data_Y6Co17Si12Ru
_symmetry_space_group_name_H-M   'P 1'
_cell_length_a   3.79714000
_cell_length_b   10.66857100
_cell_length_c   12.41344200
_cell_angle_alpha   90.00000000
_cell_angle_beta   90.00000000
_cell_angle_gamma   90.00000000
_symmetry_Int_Tables_number   1
_chemical_formula_structural   Y6Co17Si12Ru
_chemical_formula_sum   'Y6 Co17 Si12 Ru1'
_cell_volume   502.86925151
_cell_formula_units_Z   1
loop_
 _symmetry_equiv_pos_site_id
 _symmetry_equiv_pos_as_xyz
  1  'x, y, z'
loop_
 _atom_site_type_symbol
 _atom_site_label
 _atom_site_symmetry_multiplicity
 _atom_site_fract_x
 _atom_site_fract_y
 _atom_site_fract_z
 _atom_site_occupancy
  Y  Y0  1  0.000000  0.500000  0.526314  1
  Y  Y1  1  0.500000  0.000000  0.474272  1
  Y  Y2  1  0.500000  0.816975  0.205913  1
  Y  Y3  1  0.500000  0.183025  0.205913  1
  Y  Y4  1  0.000000  0.683458  0.795836  1
  Y  Y5  1  0.000000  0.316542  0.795836  1
  Co  Co6  1  0.000000  0.000000  0.847075  1
  Co  Co7  1  0.500000  0.500000  0.696987  1
  Co  Co8  1  0.000000  0.000000  0.302696  1
  Co  Co9  1  0.000000  0.500000  0.980992  1
  Co  Co10  1  0.500000  0.000000  0.018613  1
  Co  Co11  1  0.500000  0.328359  0.991713  1
  Co  Co12  1  0.500000  0.671641  0.991713  1
  Co  Co13  1  0.000000  0.167620  0.005063  1
  Co  Co14  1  0.000000  0.832380  0.005063  1
  Co  Co15  1  0.500000  0.300932  0.430780  1
  Co  Co16  1  0.500000  0.699068  0.430780  1
  Co  Co17  1  0.000000  0.198188  0.571199  1
  Co  Co18  1  0.000000  0.801812  0.571199  1
  Co  Co19  1  0.500000  0.883186  0.708301  1
  Co  Co20  1  0.500000  0.116814  0.708301  1
  Co  Co21  1  0.000000  0.618459  0.292331  1
  Co  Co22  1  0.000000  0.381541  0.292331  1
  Si  Si23  1  0.500000  0.500000  0.883069  1
  Si  Si24  1  0.000000  0.000000  0.116552  1
  Si  Si25  1  0.500000  0.500000  0.341049  1
  Si  Si26  1  0.000000  0.000000  0.662074  1
  Si  Si27  1  0.500000  0.303588  0.614628  1
  Si  Si28  1  0.500000  0.696412  0.614628  1
  Si  Si29  1  0.000000  0.196116  0.386993  1
  Si  Si30  1  0.000000  0.803884  0.386993  1
  Si  Si31  1  0.500000  0.855137  0.893079  1
  Si  Si32  1  0.500000  0.144863  0.893079  1
  Si  Si33  1  0.000000  0.649553  0.104191  1
  Si  Si34  1  0.000000  0.350447  0.104191  1
  Ru  Ru35  1  0.500000  0.500000  0.150254  1
