# generated using pymatgen
data_LiY6Ho10Mg(HgPt2)2
_symmetry_space_group_name_H-M   'P 1'
_cell_length_a   9.66072755
_cell_length_b   9.65809728
_cell_length_c   9.65809800
_cell_angle_alpha   60.00000437
_cell_angle_beta   60.00901039
_cell_angle_gamma   60.00900108
_symmetry_Int_Tables_number   1
_chemical_formula_structural   LiY6Ho10Mg(HgPt2)2
_chemical_formula_sum   'Li1 Y6 Ho10 Mg1 Hg2 Pt4'
_cell_volume   637.29004938
_cell_formula_units_Z   1
loop_
 _symmetry_equiv_pos_site_id
 _symmetry_equiv_pos_as_xyz
  1  'x, y, z'
loop_
 _atom_site_type_symbol
 _atom_site_label
 _atom_site_symmetry_multiplicity
 _atom_site_fract_x
 _atom_site_fract_y
 _atom_site_fract_z
 _atom_site_occupancy
  Li  Li0  1  0.828725  0.818696  0.818696  1
  Y  Y1  1  0.185483  0.815274  0.815274  1
  Y  Y2  1  0.814671  0.186394  0.186394  1
  Y  Y3  1  0.815281  0.185760  0.815931  1
  Y  Y4  1  0.183893  0.815454  0.186878  1
  Y  Y5  1  0.815281  0.815931  0.185760  1
  Y  Y6  1  0.183893  0.186878  0.815454  1
  Ho  Ho7  1  0.603423  0.600918  0.600918  1
  Ho  Ho8  1  0.599641  0.599163  0.200868  1
  Ho  Ho9  1  0.599641  0.200868  0.599163  1
  Ho  Ho10  1  0.191493  0.602251  0.602251  1
  Ho  Ho11  1  0.056999  0.442906  0.442906  1
  Ho  Ho12  1  0.435943  0.064011  0.064011  1
  Ho  Ho13  1  0.438288  0.062447  0.439178  1
  Ho  Ho14  1  0.060986  0.438666  0.062539  1
  Ho  Ho15  1  0.438288  0.439178  0.062447  1
  Ho  Ho16  1  0.060986  0.062539  0.438666  1
  Mg  Mg17  1  0.525158  0.823536  0.823536  1
  Hg  Hg18  1  0.833788  0.840287  0.494390  1
  Hg  Hg19  1  0.833788  0.494390  0.840287  1
  Pt  Pt20  1  0.389689  0.394753  0.394753  1
  Pt  Pt21  1  0.391485  0.395297  0.820906  1
  Pt  Pt22  1  0.391485  0.820906  0.395297  1
  Pt  Pt23  1  0.821693  0.393503  0.393503  1
