# generated using pymatgen
data_Er10In7HgPdPt3
_symmetry_space_group_name_H-M   'P 1'
_cell_length_a   3.62310700
_cell_length_b   8.07045233
_cell_length_c   18.11321314
_cell_angle_alpha   90.06475161
_cell_angle_beta   90.00000000
_cell_angle_gamma   90.00000000
_symmetry_Int_Tables_number   1
_chemical_formula_structural   Er10In7HgPdPt3
_chemical_formula_sum   'Er10 In7 Hg1 Pd1 Pt3'
_cell_volume   529.63204852
_cell_formula_units_Z   1
loop_
 _symmetry_equiv_pos_site_id
 _symmetry_equiv_pos_as_xyz
  1  'x, y, z'
loop_
 _atom_site_type_symbol
 _atom_site_label
 _atom_site_symmetry_multiplicity
 _atom_site_fract_x
 _atom_site_fract_y
 _atom_site_fract_z
 _atom_site_occupancy
  Er  Er0  1  0.000000  0.499667  0.500499  1
  Er  Er1  1  0.000000  0.995845  0.997318  1
  Er  Er2  1  0.000000  0.738384  0.278516  1
  Er  Er3  1  0.000000  0.257860  0.720290  1
  Er  Er4  1  0.000000  0.757860  0.782984  1
  Er  Er5  1  0.000000  0.244815  0.219801  1
  Er  Er6  1  0.000000  0.615084  0.084378  1
  Er  Er7  1  0.000000  0.391638  0.914801  1
  Er  Er8  1  0.000000  0.882632  0.586174  1
  Er  Er9  1  0.000000  0.116374  0.415647  1
  In  In10  1  0.500000  0.289251  0.066636  1
  In  In11  1  0.500000  0.791003  0.432385  1
  In  In12  1  0.500000  0.207603  0.566849  1
  In  In13  1  0.500000  0.577935  0.648711  1
  In  In14  1  0.500000  0.421580  0.351690  1
  In  In15  1  0.500000  0.923488  0.147866  1
  In  In16  1  0.500000  0.081237  0.851945  1
  Hg  Hg17  1  0.500000  0.711668  0.934600  1
  Pd  Pd18  1  0.500000  0.023430  0.303937  1
  Pt  Pt19  1  0.500000  0.523704  0.195910  1
  Pt  Pt20  1  0.500000  0.473656  0.802364  1
  Pt  Pt21  1  0.500000  0.975285  0.696699  1
