# generated using pymatgen
data_CeHo7(Tm3Sn4)4
_symmetry_space_group_name_H-M   'P 1'
_cell_length_a   7.97313154
_cell_length_b   8.10772119
_cell_length_c   15.31881800
_cell_angle_alpha   90.00638840
_cell_angle_beta   89.97900219
_cell_angle_gamma   89.98927491
_symmetry_Int_Tables_number   1
_chemical_formula_structural   CeHo7(Tm3Sn4)4
_chemical_formula_sum   'Ce1 Ho7 Tm12 Sn16'
_cell_volume   990.26847048
_cell_formula_units_Z   1
loop_
 _symmetry_equiv_pos_site_id
 _symmetry_equiv_pos_as_xyz
  1  'x, y, z'
loop_
 _atom_site_type_symbol
 _atom_site_label
 _atom_site_symmetry_multiplicity
 _atom_site_fract_x
 _atom_site_fract_y
 _atom_site_fract_z
 _atom_site_occupancy
  Ce  Ce0  1  0.017843  0.180236  0.905518  1
  Ho  Ho1  1  0.522397  0.321769  0.903147  1
  Ho  Ho2  1  0.021333  0.179809  0.597133  1
  Ho  Ho3  1  0.479099  0.678943  0.403100  1
  Ho  Ho4  1  0.979791  0.820648  0.097227  1
  Ho  Ho5  1  0.479212  0.679020  0.096936  1
  Ho  Ho6  1  0.979179  0.820823  0.403089  1
  Ho  Ho7  1  0.520859  0.321538  0.595686  1
  Tm  Tm8  1  0.365911  0.836398  0.876870  1
  Tm  Tm9  1  0.866827  0.662882  0.622115  1
  Tm  Tm10  1  0.633154  0.162281  0.376864  1
  Tm  Tm11  1  0.133689  0.337501  0.122878  1
  Tm  Tm12  1  0.633848  0.162369  0.123528  1
  Tm  Tm13  1  0.133597  0.337779  0.377077  1
  Tm  Tm14  1  0.366394  0.837656  0.622584  1
  Tm  Tm15  1  0.865664  0.661748  0.877353  1
  Tm  Tm16  1  0.197534  0.503208  0.749540  1
  Tm  Tm17  1  0.697718  0.995443  0.749098  1
  Tm  Tm18  1  0.802363  0.496474  0.250179  1
  Tm  Tm19  1  0.302762  0.003892  0.250242  1
  Sn  Sn20  1  0.297263  0.037220  0.041946  1
  Sn  Sn21  1  0.794340  0.461847  0.458254  1
  Sn  Sn22  1  0.706100  0.962758  0.541277  1
  Sn  Sn23  1  0.206727  0.537453  0.958345  1
  Sn  Sn24  1  0.702777  0.959951  0.959201  1
  Sn  Sn25  1  0.205792  0.538363  0.541150  1
  Sn  Sn26  1  0.294546  0.038304  0.458557  1
  Sn  Sn27  1  0.794035  0.462103  0.041649  1
  Sn  Sn28  1  0.563162  0.619224  0.749586  1
  Sn  Sn29  1  0.063277  0.880978  0.750730  1
  Sn  Sn30  1  0.436325  0.381155  0.250010  1
  Sn  Sn31  1  0.936685  0.119012  0.250152  1
  Sn  Sn32  1  0.331270  0.149169  0.749767  1
  Sn  Sn33  1  0.828856  0.352070  0.749153  1
  Sn  Sn34  1  0.670040  0.850910  0.250068  1
  Sn  Sn35  1  0.169632  0.649063  0.249989  1
