# generated using pymatgen
data_Cr20Mo2RhC6
_symmetry_space_group_name_H-M   'P 1'
_cell_length_a   7.54841102
_cell_length_b   7.54841106
_cell_length_c   7.54841200
_cell_angle_alpha   60.00000465
_cell_angle_beta   60.00000449
_cell_angle_gamma   60.00000063
_symmetry_Int_Tables_number   1
_chemical_formula_structural   Cr20Mo2RhC6
_chemical_formula_sum   'Cr20 Mo2 Rh1 C6'
_cell_volume   304.12471377
_cell_formula_units_Z   1
loop_
 _symmetry_equiv_pos_site_id
 _symmetry_equiv_pos_as_xyz
  1  'x, y, z'
loop_
 _atom_site_type_symbol
 _atom_site_label
 _atom_site_symmetry_multiplicity
 _atom_site_fract_x
 _atom_site_fract_y
 _atom_site_fract_z
 _atom_site_occupancy
  Cr  Cr0  1  0.616118  0.616118  0.151646  1
  Cr  Cr1  1  0.616118  0.151646  0.616118  1
  Cr  Cr2  1  0.151646  0.616118  0.616118  1
  Cr  Cr3  1  0.616118  0.616118  0.616118  1
  Cr  Cr4  1  0.383882  0.383882  0.848354  1
  Cr  Cr5  1  0.383882  0.848354  0.383882  1
  Cr  Cr6  1  0.848354  0.383882  0.383882  1
  Cr  Cr7  1  0.383882  0.383882  0.383882  1
  Cr  Cr8  1  0.000000  0.000000  0.337935  1
  Cr  Cr9  1  0.662065  0.000000  0.337935  1
  Cr  Cr10  1  0.000000  0.662065  0.337935  1
  Cr  Cr11  1  0.662065  0.337935  0.000000  1
  Cr  Cr12  1  0.000000  0.337935  0.000000  1
  Cr  Cr13  1  0.000000  0.337935  0.662065  1
  Cr  Cr14  1  0.337935  0.662065  0.000000  1
  Cr  Cr15  1  0.337935  0.000000  0.662065  1
  Cr  Cr16  1  0.337935  0.000000  0.000000  1
  Cr  Cr17  1  0.000000  0.000000  0.662065  1
  Cr  Cr18  1  0.000000  0.662065  0.000000  1
  Cr  Cr19  1  0.662065  0.000000  0.000000  1
  Mo  Mo20  1  0.750000  0.750000  0.750000  1
  Mo  Mo21  1  0.250000  0.250000  0.250000  1
  Rh  Rh22  1  0.000000  0.000000  0.000000  1
  C  C23  1  0.723460  0.723460  0.276540  1
  C  C24  1  0.276540  0.723460  0.276540  1
  C  C25  1  0.723460  0.276540  0.276540  1
  C  C26  1  0.276540  0.276540  0.723460  1
  C  C27  1  0.723460  0.276540  0.723460  1
  C  C28  1  0.276540  0.723460  0.723460  1
