# generated using pymatgen
data_Tb16Cd4Ir3Pt
_symmetry_space_group_name_H-M   'P 1'
_cell_length_a   9.67926472
_cell_length_b   9.67926474
_cell_length_c   9.67926554
_cell_angle_alpha   60.15058334
_cell_angle_beta   60.15058224
_cell_angle_gamma   60.15058643
_symmetry_Int_Tables_number   1
_chemical_formula_structural   Tb16Cd4Ir3Pt
_chemical_formula_sum   'Tb16 Cd4 Ir3 Pt1'
_cell_volume   643.41464251
_cell_formula_units_Z   1
loop_
 _symmetry_equiv_pos_site_id
 _symmetry_equiv_pos_as_xyz
  1  'x, y, z'
loop_
 _atom_site_type_symbol
 _atom_site_label
 _atom_site_symmetry_multiplicity
 _atom_site_fract_x
 _atom_site_fract_y
 _atom_site_fract_z
 _atom_site_occupancy
  Tb  Tb0  1  0.598127  0.598127  0.598127  1
  Tb  Tb1  1  0.602250  0.602250  0.199612  1
  Tb  Tb2  1  0.602250  0.199612  0.602250  1
  Tb  Tb3  1  0.199612  0.602250  0.602250  1
  Tb  Tb4  1  0.055526  0.440677  0.440677  1
  Tb  Tb5  1  0.437663  0.060311  0.060311  1
  Tb  Tb6  1  0.440677  0.055526  0.440677  1
  Tb  Tb7  1  0.060311  0.437663  0.060311  1
  Tb  Tb8  1  0.440677  0.440677  0.055526  1
  Tb  Tb9  1  0.060311  0.060311  0.437663  1
  Tb  Tb10  1  0.188710  0.812439  0.812439  1
  Tb  Tb11  1  0.813423  0.187432  0.187432  1
  Tb  Tb12  1  0.812439  0.188710  0.812439  1
  Tb  Tb13  1  0.187432  0.813423  0.187432  1
  Tb  Tb14  1  0.812439  0.812439  0.188710  1
  Tb  Tb15  1  0.187432  0.187432  0.813423  1
  Cd  Cd16  1  0.830836  0.830836  0.830836  1
  Cd  Cd17  1  0.831234  0.831234  0.505889  1
  Cd  Cd18  1  0.831234  0.505889  0.831234  1
  Cd  Cd19  1  0.505889  0.831234  0.831234  1
  Ir  Ir20  1  0.392252  0.392252  0.824321  1
  Ir  Ir21  1  0.392252  0.824321  0.392252  1
  Ir  Ir22  1  0.824321  0.392252  0.392252  1
  Pt  Pt23  1  0.392705  0.392705  0.392705  1
