# generated using pymatgen
data_Tb8Ho2OsRu3
_symmetry_space_group_name_H-M   'P 1'
_cell_length_a   6.37691059
_cell_length_b   7.29366723
_cell_length_c   8.51765654
_cell_angle_alpha   96.72591129
_cell_angle_beta   112.12116946
_cell_angle_gamma   89.87239968
_symmetry_Int_Tables_number   1
_chemical_formula_structural   Tb8Ho2OsRu3
_chemical_formula_sum   'Tb8 Ho2 Os1 Ru3'
_cell_volume   364.09981239
_cell_formula_units_Z   1
loop_
 _symmetry_equiv_pos_site_id
 _symmetry_equiv_pos_as_xyz
  1  'x, y, z'
loop_
 _atom_site_type_symbol
 _atom_site_label
 _atom_site_symmetry_multiplicity
 _atom_site_fract_x
 _atom_site_fract_y
 _atom_site_fract_z
 _atom_site_occupancy
  Tb  Tb0  1  0.978440  0.915940  0.185700  1
  Tb  Tb1  1  0.792537  0.584580  0.815064  1
  Tb  Tb2  1  0.021822  0.084850  0.814465  1
  Tb  Tb3  1  0.208044  0.415569  0.186047  1
  Tb  Tb4  1  0.640474  0.814191  0.433110  1
  Tb  Tb5  1  0.205403  0.684914  0.565735  1
  Tb  Tb6  1  0.360181  0.185547  0.566606  1
  Tb  Tb7  1  0.793328  0.314656  0.433643  1
  Ho  Ho8  1  0.422824  0.749360  0.000424  1
  Ho  Ho9  1  0.578267  0.250779  0.000303  1
  Os  Os10  1  0.821565  0.575659  0.218809  1
  Ru  Ru11  1  0.603474  0.924984  0.779987  1
  Ru  Ru12  1  0.177010  0.423906  0.780349  1
  Ru  Ru13  1  0.396630  0.075065  0.219757  1
