# generated using pymatgen
data_Te8As5
_symmetry_space_group_name_H-M   'P 1'
_cell_length_a   7.61235590
_cell_length_b   7.61235533
_cell_length_c   14.05763443
_cell_angle_alpha   71.87712092
_cell_angle_beta   71.87712303
_cell_angle_gamma   30.18479124
_symmetry_Int_Tables_number   1
_chemical_formula_structural   Te8As5
_chemical_formula_sum   'Te8 As5'
_cell_volume   387.74101599
_cell_formula_units_Z   1
loop_
 _symmetry_equiv_pos_site_id
 _symmetry_equiv_pos_as_xyz
  1  'x, y, z'
loop_
 _atom_site_type_symbol
 _atom_site_label
 _atom_site_symmetry_multiplicity
 _atom_site_fract_x
 _atom_site_fract_y
 _atom_site_fract_z
 _atom_site_occupancy
  Te  Te0  1  0.614212  0.614212  0.311333  1
  Te  Te1  1  0.923344  0.923344  0.544340  1
  Te  Te2  1  0.231629  0.231629  0.790030  1
  Te  Te3  1  0.962655  0.962655  0.833147  1
  Te  Te4  1  0.647027  0.647027  0.603339  1
  Te  Te5  1  0.338968  0.338968  0.369828  1
  Te  Te6  1  0.028235  0.028235  0.123349  1
  Te  Te7  1  0.297011  0.297011  0.081101  1
  As  As8  1  0.488613  0.488613  0.006722  1
  As  As9  1  0.813396  0.813396  0.239955  1
  As  As10  1  0.130844  0.130844  0.457408  1
  As  As11  1  0.447519  0.447519  0.674913  1
  As  As12  1  0.771149  0.771149  0.906834  1
