# generated using pymatgen
data_Dy3Lu8Sc(Si3Ir)4
_symmetry_space_group_name_H-M   'P 1'
_cell_length_a   4.17738900
_cell_length_b   10.52359123
_cell_length_c   12.05479763
_cell_angle_alpha   89.83293010
_cell_angle_beta   90.00000000
_cell_angle_gamma   90.00000000
_symmetry_Int_Tables_number   1
_chemical_formula_structural   Dy3Lu8Sc(Si3Ir)4
_chemical_formula_sum   'Dy3 Lu8 Sc1 Si12 Ir4'
_cell_volume   529.94032398
_cell_formula_units_Z   1
loop_
 _symmetry_equiv_pos_site_id
 _symmetry_equiv_pos_as_xyz
  1  'x, y, z'
loop_
 _atom_site_type_symbol
 _atom_site_label
 _atom_site_symmetry_multiplicity
 _atom_site_fract_x
 _atom_site_fract_y
 _atom_site_fract_z
 _atom_site_occupancy
  Dy  Dy0  1  0.750000  0.079162  0.400001  1
  Dy  Dy1  1  0.750000  0.419196  0.896528  1
  Dy  Dy2  1  0.750000  0.341767  0.198205  1
  Lu  Lu3  1  0.250000  0.880245  0.019891  1
  Lu  Lu4  1  0.250000  0.620557  0.520636  1
  Lu  Lu5  1  0.750000  0.118683  0.977503  1
  Lu  Lu6  1  0.750000  0.378836  0.482407  1
  Lu  Lu7  1  0.250000  0.919683  0.604337  1
  Lu  Lu8  1  0.250000  0.582392  0.103649  1
  Lu  Lu9  1  0.250000  0.661531  0.799992  1
  Lu  Lu10  1  0.250000  0.839952  0.300317  1
  Sc  Sc11  1  0.750000  0.158269  0.700848  1
  Si  Si12  1  0.250000  0.013100  0.819590  1
  Si  Si13  1  0.250000  0.488725  0.321945  1
  Si  Si14  1  0.750000  0.987910  0.177818  1
  Si  Si15  1  0.750000  0.514253  0.677604  1
  Si  Si16  1  0.250000  0.244122  0.836040  1
  Si  Si17  1  0.250000  0.252793  0.343311  1
  Si  Si18  1  0.750000  0.752864  0.158727  1
  Si  Si19  1  0.750000  0.747824  0.658034  1
  Si  Si20  1  0.250000  0.198216  0.551193  1
  Si  Si21  1  0.250000  0.297245  0.041431  1
  Si  Si22  1  0.750000  0.800922  0.456135  1
  Si  Si23  1  0.750000  0.699652  0.955055  1
  Ir  Ir24  1  0.250000  0.390842  0.678433  1
  Ir  Ir25  1  0.250000  0.108550  0.179285  1
  Ir  Ir26  1  0.750000  0.610859  0.322169  1
  Ir  Ir27  1  0.750000  0.891851  0.818916  1
