# generated using pymatgen
data_Zr2Ag2F11
_symmetry_space_group_name_H-M   'P 1'
_cell_length_a   5.89970136
_cell_length_b   6.02450399
_cell_length_c   8.09145242
_cell_angle_alpha   112.25627233
_cell_angle_beta   96.11196805
_cell_angle_gamma   105.64941163
_symmetry_Int_Tables_number   1
_chemical_formula_structural   Zr2Ag2F11
_chemical_formula_sum   'Zr2 Ag2 F11'
_cell_volume   249.17726420
_cell_formula_units_Z   1
loop_
 _symmetry_equiv_pos_site_id
 _symmetry_equiv_pos_as_xyz
  1  'x, y, z'
loop_
 _atom_site_type_symbol
 _atom_site_label
 _atom_site_symmetry_multiplicity
 _atom_site_fract_x
 _atom_site_fract_y
 _atom_site_fract_z
 _atom_site_occupancy
  Zr  Zr0  1  0.504571  0.734914  0.233663  1
  Zr  Zr1  1  0.495429  0.265086  0.766337  1
  Ag  Ag2  1  0.000000  0.000000  0.000000  1
  Ag  Ag3  1  0.000000  0.500000  0.500000  1
  F  F4  1  0.261153  0.840615  0.113481  1
  F  F5  1  0.342863  0.345980  0.011891  1
  F  F6  1  0.657137  0.654020  0.988109  1
  F  F7  1  0.769989  0.478245  0.686670  1
  F  F8  1  0.784077  0.053104  0.280348  1
  F  F9  1  0.215923  0.946896  0.719652  1
  F  F10  1  0.738847  0.159385  0.886519  1
  F  F11  1  0.230011  0.521755  0.313330  1
  F  F12  1  0.737459  0.609031  0.343833  1
  F  F13  1  0.262541  0.390969  0.656167  1
  F  F14  1  0.500000  0.000000  0.500000  1
