# generated using pymatgen
data_Mn20Cr(TcC3)2
_symmetry_space_group_name_H-M   'P 1'
_cell_length_a   7.38524073
_cell_length_b   7.38275673
_cell_length_c   7.38275614
_cell_angle_alpha   60.13511395
_cell_angle_beta   59.98887953
_cell_angle_gamma   59.98887335
_symmetry_Int_Tables_number   1
_chemical_formula_structural   Mn20Cr(TcC3)2
_chemical_formula_sum   'Mn20 Cr1 Tc2 C6'
_cell_volume   284.87547175
_cell_formula_units_Z   1
loop_
 _symmetry_equiv_pos_site_id
 _symmetry_equiv_pos_as_xyz
  1  'x, y, z'
loop_
 _atom_site_type_symbol
 _atom_site_label
 _atom_site_symmetry_multiplicity
 _atom_site_fract_x
 _atom_site_fract_y
 _atom_site_fract_z
 _atom_site_occupancy
  Mn  Mn0  1  0.001024  0.000000  0.000000  1
  Mn  Mn1  1  0.616772  0.615645  0.150267  1
  Mn  Mn2  1  0.616772  0.150266  0.615645  1
  Mn  Mn3  1  0.150282  0.616608  0.616608  1
  Mn  Mn4  1  0.615123  0.617310  0.617310  1
  Mn  Mn5  1  0.382685  0.384355  0.849733  1
  Mn  Mn6  1  0.382685  0.849733  0.384355  1
  Mn  Mn7  1  0.849741  0.382690  0.382690  1
  Mn  Mn8  1  0.383499  0.383392  0.383392  1
  Mn  Mn9  1  0.001066  0.999498  0.337115  1
  Mn  Mn10  1  0.662546  0.997895  0.338697  1
  Mn  Mn11  1  0.000310  0.662545  0.337455  1
  Mn  Mn12  1  0.662546  0.338697  0.997895  1
  Mn  Mn13  1  0.001066  0.337115  0.999498  1
  Mn  Mn14  1  0.000310  0.337455  0.662545  1
  Mn  Mn15  1  0.337678  0.662885  0.000502  1
  Mn  Mn16  1  0.337678  0.000502  0.662885  1
  Mn  Mn17  1  0.338135  0.000000  0.000000  1
  Mn  Mn18  1  0.999139  0.002105  0.661303  1
  Mn  Mn19  1  0.999139  0.661303  0.002105  1
  Cr  Cr20  1  0.662302  0.000000  0.000000  1
  Tc  Tc21  1  0.750613  0.749588  0.749588  1
  Tc  Tc22  1  0.249789  0.250412  0.250412  1
  C  C23  1  0.724885  0.720911  0.279089  1
  C  C24  1  0.275017  0.725239  0.274761  1
  C  C25  1  0.726372  0.273275  0.273275  1
  C  C26  1  0.275017  0.274761  0.725239  1
  C  C27  1  0.724885  0.279089  0.720911  1
  C  C28  1  0.272923  0.726725  0.726725  1
