# generated using pymatgen
data_Li4Ga3Cu
_symmetry_space_group_name_H-M   'P 1'
_cell_length_a   4.31631445
_cell_length_b   4.32343722
_cell_length_c   7.47480254
_cell_angle_alpha   106.27388245
_cell_angle_beta   89.48414171
_cell_angle_gamma   59.74856215
_symmetry_Int_Tables_number   1
_chemical_formula_structural   Li4Ga3Cu
_chemical_formula_sum   'Li4 Ga3 Cu1'
_cell_volume   113.75364018
_cell_formula_units_Z   1
loop_
 _symmetry_equiv_pos_site_id
 _symmetry_equiv_pos_as_xyz
  1  'x, y, z'
loop_
 _atom_site_type_symbol
 _atom_site_label
 _atom_site_symmetry_multiplicity
 _atom_site_fract_x
 _atom_site_fract_y
 _atom_site_fract_z
 _atom_site_occupancy
  Li  Li0  1  0.800235  0.471569  0.110052  1
  Li  Li1  1  0.923488  0.225112  0.744299  1
  Li  Li2  1  0.421349  0.230978  0.248464  1
  Li  Li3  1  0.292876  0.486070  0.635184  1
  Ga  Ga4  1  0.051796  0.969026  0.356644  1
  Ga  Ga5  1  0.544066  0.983937  0.882299  1
  Ga  Ga6  1  0.670728  0.730553  0.500723  1
  Cu  Cu7  1  0.169117  0.731018  0.995829  1
