# generated using pymatgen
data_YbSm6PtI12
_symmetry_space_group_name_H-M   'P 1'
_cell_length_a   9.92252443
_cell_length_b   9.92252378
_cell_length_c   9.92252580
_cell_angle_alpha   107.03084222
_cell_angle_beta   107.03083694
_cell_angle_gamma   107.03083840
_symmetry_Int_Tables_number   1
_chemical_formula_structural   YbSm6PtI12
_chemical_formula_sum   'Yb1 Sm6 Pt1 I12'
_cell_volume   812.91707154
_cell_formula_units_Z   1
loop_
 _symmetry_equiv_pos_site_id
 _symmetry_equiv_pos_as_xyz
  1  'x, y, z'
loop_
 _atom_site_type_symbol
 _atom_site_label
 _atom_site_symmetry_multiplicity
 _atom_site_fract_x
 _atom_site_fract_y
 _atom_site_fract_z
 _atom_site_occupancy
  Yb  Yb0  1  0.500000  0.500000  0.500000  1
  Sm  Sm1  1  0.100614  0.028117  0.306808  1
  Sm  Sm2  1  0.306808  0.100614  0.028117  1
  Sm  Sm3  1  0.028117  0.306808  0.100614  1
  Sm  Sm4  1  0.899386  0.971883  0.693192  1
  Sm  Sm5  1  0.693192  0.899386  0.971883  1
  Sm  Sm6  1  0.971883  0.693192  0.899386  1
  Pt  Pt7  1  0.000000  0.000000  0.000000  1
  I  I8  1  0.073688  0.680400  0.225351  1
  I  I9  1  0.225351  0.073688  0.680400  1
  I  I10  1  0.680400  0.225351  0.073688  1
  I  I11  1  0.926312  0.319600  0.774649  1
  I  I12  1  0.774649  0.926312  0.319600  1
  I  I13  1  0.319600  0.774649  0.926312  1
  I  I14  1  0.461980  0.156366  0.384775  1
  I  I15  1  0.384775  0.461980  0.156366  1
  I  I16  1  0.156366  0.384775  0.461980  1
  I  I17  1  0.538020  0.843634  0.615225  1
  I  I18  1  0.615225  0.538020  0.843634  1
  I  I19  1  0.843634  0.615225  0.538020  1
