# generated using pymatgen
data_La4InPd4Au
_symmetry_space_group_name_H-M   'P 1'
_cell_length_a   7.85885500
_cell_length_b   7.85885500
_cell_length_c   3.99284900
_cell_angle_alpha   90.00000000
_cell_angle_beta   90.00000000
_cell_angle_gamma   90.00000000
_symmetry_Int_Tables_number   1
_chemical_formula_structural   La4InPd4Au
_chemical_formula_sum   'La4 In1 Pd4 Au1'
_cell_volume   246.60475043
_cell_formula_units_Z   1
loop_
 _symmetry_equiv_pos_site_id
 _symmetry_equiv_pos_as_xyz
  1  'x, y, z'
loop_
 _atom_site_type_symbol
 _atom_site_label
 _atom_site_symmetry_multiplicity
 _atom_site_fract_x
 _atom_site_fract_y
 _atom_site_fract_z
 _atom_site_occupancy
  La  La0  1  0.687664  0.165926  0.500000  1
  La  La1  1  0.312336  0.834074  0.500000  1
  La  La2  1  0.165926  0.312336  0.500000  1
  La  La3  1  0.834074  0.687664  0.500000  1
  In  In4  1  0.500000  0.500000  0.000000  1
  Pd  Pd5  1  0.137363  0.617973  0.000000  1
  Pd  Pd6  1  0.862637  0.382027  0.000000  1
  Pd  Pd7  1  0.617973  0.862637  0.000000  1
  Pd  Pd8  1  0.382027  0.137363  0.000000  1
  Au  Au9  1  0.000000  0.000000  0.000000  1
