# generated using pymatgen
data_Tm8Sc2(InBi)3
_symmetry_space_group_name_H-M   'P 1'
_cell_length_a   6.38202500
_cell_length_b   8.88875186
_cell_length_c   8.88930800
_cell_angle_alpha   119.99870308
_cell_angle_beta   89.99943923
_cell_angle_gamma   90.00100831
_symmetry_Int_Tables_number   1
_chemical_formula_structural   Tm8Sc2(InBi)3
_chemical_formula_sum   'Tm8 Sc2 In3 Bi3'
_cell_volume   436.72046632
_cell_formula_units_Z   1
loop_
 _symmetry_equiv_pos_site_id
 _symmetry_equiv_pos_as_xyz
  1  'x, y, z'
loop_
 _atom_site_type_symbol
 _atom_site_label
 _atom_site_symmetry_multiplicity
 _atom_site_fract_x
 _atom_site_fract_y
 _atom_site_fract_z
 _atom_site_occupancy
  Tm  Tm0  1  0.008998  0.666679  0.333341  1
  Tm  Tm1  1  0.008971  0.333340  0.666659  1
  Tm  Tm2  1  0.748373  0.235886  0.999993  1
  Tm  Tm3  1  0.748379  0.764002  0.764046  1
  Tm  Tm4  1  0.748378  0.999969  0.235960  1
  Tm  Tm5  1  0.250799  0.762518  0.999991  1
  Tm  Tm6  1  0.250800  0.237602  0.237560  1
  Tm  Tm7  1  0.250801  0.000058  0.762448  1
  Sc  Sc8  1  0.492201  0.333310  0.666660  1
  Sc  Sc9  1  0.492357  0.666654  0.333339  1
  In  In10  1  0.256724  0.395162  0.000000  1
  In  In11  1  0.256735  0.604875  0.604863  1
  In  In12  1  0.256739  0.000026  0.395144  1
  Bi  Bi13  1  0.743247  0.601095  0.999981  1
  Bi  Bi14  1  0.743247  0.398821  0.398849  1
  Bi  Bi15  1  0.743249  0.000006  0.601167  1
