# generated using pymatgen
data_Ho11Er9Pb16
_symmetry_space_group_name_H-M   'P 1'
_cell_length_a   8.18072000
_cell_length_b   15.55433304
_cell_length_c   8.24301303
_cell_angle_alpha   90.00214856
_cell_angle_beta   89.90196433
_cell_angle_gamma   90.00739727
_symmetry_Int_Tables_number   1
_chemical_formula_structural   Ho11Er9Pb16
_chemical_formula_sum   'Ho11 Er9 Pb16'
_cell_volume   1048.88595113
_cell_formula_units_Z   1
loop_
 _symmetry_equiv_pos_site_id
 _symmetry_equiv_pos_as_xyz
  1  'x, y, z'
loop_
 _atom_site_type_symbol
 _atom_site_label
 _atom_site_symmetry_multiplicity
 _atom_site_fract_x
 _atom_site_fract_y
 _atom_site_fract_z
 _atom_site_occupancy
  Ho  Ho0  1  0.622246  0.878755  0.158153  1
  Ho  Ho1  1  0.122664  0.620657  0.342416  1
  Ho  Ho2  1  0.462016  0.599925  0.675894  1
  Ho  Ho3  1  0.962611  0.900188  0.823794  1
  Ho  Ho4  1  0.537947  0.100356  0.324588  1
  Ho  Ho5  1  0.037635  0.399899  0.175808  1
  Ho  Ho6  1  0.537669  0.399855  0.324250  1
  Ho  Ho7  1  0.037044  0.099877  0.176059  1
  Ho  Ho8  1  0.462151  0.900018  0.675542  1
  Ho  Ho9  1  0.962708  0.600024  0.824147  1
  Ho  Ho10  1  0.709257  0.250200  0.995698  1
  Er  Er11  1  0.622620  0.621664  0.157955  1
  Er  Er12  1  0.123156  0.878729  0.342430  1
  Er  Er13  1  0.377122  0.121369  0.842062  1
  Er  Er14  1  0.877209  0.378855  0.657433  1
  Er  Er15  1  0.377691  0.378303  0.841930  1
  Er  Er16  1  0.877344  0.121447  0.657617  1
  Er  Er17  1  0.790952  0.749979  0.495719  1
  Er  Er18  1  0.290696  0.750023  0.004249  1
  Er  Er19  1  0.209217  0.249801  0.504577  1
  Pb  Pb20  1  0.718668  0.457614  0.966250  1
  Pb  Pb21  1  0.218292  0.042824  0.533754  1
  Pb  Pb22  1  0.280749  0.957307  0.033743  1
  Pb  Pb23  1  0.780204  0.542531  0.466148  1
  Pb  Pb24  1  0.282201  0.542664  0.033339  1
  Pb  Pb25  1  0.781926  0.957356  0.466058  1
  Pb  Pb26  1  0.718584  0.043087  0.965966  1
  Pb  Pb27  1  0.219096  0.456373  0.534088  1
  Pb  Pb28  1  0.427878  0.749902  0.374304  1
  Pb  Pb29  1  0.928983  0.750113  0.126146  1
  Pb  Pb30  1  0.571465  0.249800  0.625396  1
  Pb  Pb31  1  0.071275  0.250163  0.873815  1
  Pb  Pb32  1  0.651366  0.750069  0.845165  1
  Pb  Pb33  1  0.151529  0.749989  0.654806  1
  Pb  Pb34  1  0.348858  0.250060  0.154590  1
  Pb  Pb35  1  0.848968  0.250225  0.346111  1
