# generated using pymatgen
data_Li4Dy4Sn3Sb
_symmetry_space_group_name_H-M   'P 1'
_cell_length_a   9.37233055
_cell_length_b   9.37916102
_cell_length_c   7.25181885
_cell_angle_alpha   90.00000109
_cell_angle_beta   90.08767669
_cell_angle_gamma   120.02410984
_symmetry_Int_Tables_number   1
_chemical_formula_structural   Li4Dy4Sn3Sb
_chemical_formula_sum   'Li8 Dy8 Sn6 Sb2'
_cell_volume   551.92863649
_cell_formula_units_Z   2
loop_
 _symmetry_equiv_pos_site_id
 _symmetry_equiv_pos_as_xyz
  1  'x, y, z'
loop_
 _atom_site_type_symbol
 _atom_site_label
 _atom_site_symmetry_multiplicity
 _atom_site_fract_x
 _atom_site_fract_y
 _atom_site_fract_z
 _atom_site_occupancy
  Li  Li0  1  0.167330  0.333904  0.286900  1
  Li  Li1  1  0.167330  0.833426  0.286900  1
  Li  Li2  1  0.666398  0.833199  0.287073  1
  Li  Li3  1  0.832140  0.666022  0.787507  1
  Li  Li4  1  0.832140  0.166118  0.787507  1
  Li  Li5  1  0.333912  0.166956  0.788589  1
  Li  Li6  1  0.333696  0.666848  0.670988  1
  Li  Li7  1  0.667207  0.333603  0.173123  1
  Dy  Dy8  1  0.514623  0.024580  0.491959  1
  Dy  Dy9  1  0.514623  0.490042  0.491959  1
  Dy  Dy10  1  0.974201  0.487100  0.490547  1
  Dy  Dy11  1  0.489948  0.977807  0.994896  1
  Dy  Dy12  1  0.489948  0.512142  0.994896  1
  Dy  Dy13  1  0.021262  0.510631  0.995508  1
  Dy  Dy14  1  0.998256  0.999128  0.497955  1
  Dy  Dy15  1  0.997877  0.998938  0.002436  1
  Sn  Sn16  1  0.666295  0.833148  0.731047  1
  Sn  Sn17  1  0.833666  0.666666  0.231526  1
  Sn  Sn18  1  0.833666  0.167000  0.231526  1
  Sn  Sn19  1  0.333700  0.166850  0.231200  1
  Sn  Sn20  1  0.332688  0.666344  0.260504  1
  Sn  Sn21  1  0.667160  0.333579  0.761145  1
  Sb  Sb22  1  0.165967  0.333304  0.733152  1
  Sb  Sb23  1  0.165967  0.832663  0.733152  1
