# generated using pymatgen
data_Dy9Tm2LuIn2FeTc2
_symmetry_space_group_name_H-M   'P 1'
_cell_length_a   8.41333975
_cell_length_b   8.40152439
_cell_length_c   8.40152313
_cell_angle_alpha   108.70852742
_cell_angle_beta   108.74485994
_cell_angle_gamma   110.91224128
_symmetry_Int_Tables_number   1
_chemical_formula_structural   Dy9Tm2LuIn2FeTc2
_chemical_formula_sum   'Dy9 Tm2 Lu1 In2 Fe1 Tc2'
_cell_volume   457.25747577
_cell_formula_units_Z   1
loop_
 _symmetry_equiv_pos_site_id
 _symmetry_equiv_pos_as_xyz
  1  'x, y, z'
loop_
 _atom_site_type_symbol
 _atom_site_label
 _atom_site_symmetry_multiplicity
 _atom_site_fract_x
 _atom_site_fract_y
 _atom_site_fract_z
 _atom_site_occupancy
  Dy  Dy0  1  0.303726  0.304466  0.609992  1
  Dy  Dy1  1  0.694013  0.691807  0.389950  1
  Dy  Dy2  1  0.694013  0.304064  0.002206  1
  Dy  Dy3  1  0.303726  0.693734  0.999260  1
  Dy  Dy4  1  0.192594  0.434681  0.243646  1
  Dy  Dy5  1  0.804920  0.567926  0.761670  1
  Dy  Dy6  1  0.192594  0.948946  0.757913  1
  Dy  Dy7  1  0.948966  0.188556  0.760412  1
  Dy  Dy8  1  0.804920  0.043251  0.236994  1
  Tm  Tm9  1  0.043956  0.808641  0.235314  1
  Tm  Tm10  1  0.426939  0.188345  0.238593  1
  Lu  Lu11  1  0.572710  0.808185  0.764525  1
  In  In12  1  0.997927  0.498017  0.499910  1
  In  In13  1  0.495573  0.996050  0.499523  1
  Fe  Fe14  1  0.632146  0.632529  0.999617  1
  Tc  Tc15  1  0.391057  0.390589  0.000469  1
  Tc  Tc16  1  0.000221  0.000215  0.000007  1
