# generated using pymatgen
data_DyTmB6Ru
_symmetry_space_group_name_H-M   'P 1'
_cell_length_a   3.63764400
_cell_length_b   9.09725800
_cell_length_c   11.48278900
_cell_angle_alpha   90.00000000
_cell_angle_beta   90.00000000
_cell_angle_gamma   90.00000000
_symmetry_Int_Tables_number   1
_chemical_formula_structural   DyTmB6Ru
_chemical_formula_sum   'Dy4 Tm4 B24 Ru4'
_cell_volume   379.99518227
_cell_formula_units_Z   4
loop_
 _symmetry_equiv_pos_site_id
 _symmetry_equiv_pos_as_xyz
  1  'x, y, z'
loop_
 _atom_site_type_symbol
 _atom_site_label
 _atom_site_symmetry_multiplicity
 _atom_site_fract_x
 _atom_site_fract_y
 _atom_site_fract_z
 _atom_site_occupancy
  Dy  Dy0  1  0.000000  0.322294  0.414133  1
  Dy  Dy1  1  0.000000  0.677706  0.585867  1
  Dy  Dy2  1  0.000000  0.822294  0.085867  1
  Dy  Dy3  1  0.000000  0.177706  0.914133  1
  Tm  Tm4  1  0.000000  0.943902  0.372453  1
  Tm  Tm5  1  0.000000  0.056098  0.627547  1
  Tm  Tm6  1  0.000000  0.443902  0.127547  1
  Tm  Tm7  1  0.000000  0.556098  0.872453  1
  B  B8  1  0.500000  0.554377  0.432823  1
  B  B9  1  0.500000  0.445623  0.567177  1
  B  B10  1  0.500000  0.054377  0.067177  1
  B  B11  1  0.500000  0.945623  0.932823  1
  B  B12  1  0.500000  0.749183  0.419504  1
  B  B13  1  0.500000  0.250817  0.580496  1
  B  B14  1  0.500000  0.249183  0.080496  1
  B  B15  1  0.500000  0.750817  0.919504  1
  B  B16  1  0.500000  0.791672  0.266034  1
  B  B17  1  0.500000  0.208328  0.733966  1
  B  B18  1  0.500000  0.291672  0.233966  1
  B  B19  1  0.500000  0.708328  0.766034  1
  B  B20  1  0.500000  0.631375  0.184598  1
  B  B21  1  0.500000  0.368625  0.815402  1
  B  B22  1  0.500000  0.131375  0.315402  1
  B  B23  1  0.500000  0.868625  0.684598  1
  B  B24  1  0.500000  0.983336  0.213324  1
  B  B25  1  0.500000  0.016664  0.786676  1
  B  B26  1  0.500000  0.483336  0.286676  1
  B  B27  1  0.500000  0.516664  0.713324  1
  B  B28  1  0.500000  0.605332  0.028995  1
  B  B29  1  0.500000  0.394668  0.971005  1
  B  B30  1  0.500000  0.105332  0.471005  1
  B  B31  1  0.500000  0.894668  0.528995  1
  Ru  Ru32  1  0.000000  0.638402  0.320507  1
  Ru  Ru33  1  0.000000  0.361598  0.679493  1
  Ru  Ru34  1  0.000000  0.138402  0.179493  1
  Ru  Ru35  1  0.000000  0.861598  0.820507  1
