# generated using pymatgen
data_Li4Ho4Si5As
_symmetry_space_group_name_H-M   'P 1'
_cell_length_a   9.23368903
_cell_length_b   9.23368922
_cell_length_c   6.65401400
_cell_angle_alpha   90.00000000
_cell_angle_beta   90.00000000
_cell_angle_gamma   153.38270631
_symmetry_Int_Tables_number   1
_chemical_formula_structural   Li4Ho4Si5As
_chemical_formula_sum   'Li4 Ho4 Si5 As1'
_cell_volume   254.17936294
_cell_formula_units_Z   1
loop_
 _symmetry_equiv_pos_site_id
 _symmetry_equiv_pos_as_xyz
  1  'x, y, z'
loop_
 _atom_site_type_symbol
 _atom_site_label
 _atom_site_symmetry_multiplicity
 _atom_site_fract_x
 _atom_site_fract_y
 _atom_site_fract_z
 _atom_site_occupancy
  Li  Li0  1  0.810036  0.189964  0.437672  1
  Li  Li1  1  0.190826  0.809174  0.560833  1
  Li  Li2  1  0.810036  0.189964  0.062328  1
  Li  Li3  1  0.190826  0.809174  0.939167  1
  Ho  Ho4  1  0.549611  0.450389  0.750000  1
  Ho  Ho5  1  0.448757  0.551243  0.250000  1
  Ho  Ho6  1  0.346002  0.653998  0.750000  1
  Ho  Ho7  1  0.654611  0.345389  0.250000  1
  Si  Si8  1  0.939944  0.060056  0.927057  1
  Si  Si9  1  0.060015  0.939985  0.072159  1
  Si  Si10  1  0.939944  0.060056  0.572943  1
  Si  Si11  1  0.060015  0.939985  0.427841  1
  Si  Si12  1  0.279813  0.720187  0.250000  1
  As  As13  1  0.719563  0.280437  0.750000  1
