# generated using pymatgen
data_Pr4Sm2CoBr10
_symmetry_space_group_name_H-M   'P 1'
_cell_length_a   7.63417985
_cell_length_b   9.47284034
_cell_length_c   9.56452372
_cell_angle_alpha   108.92953496
_cell_angle_beta   106.59914096
_cell_angle_gamma   96.82032452
_symmetry_Int_Tables_number   1
_chemical_formula_structural   Pr4Sm2CoBr10
_chemical_formula_sum   'Pr4 Sm2 Co1 Br10'
_cell_volume   609.71506476
_cell_formula_units_Z   1
loop_
 _symmetry_equiv_pos_site_id
 _symmetry_equiv_pos_as_xyz
  1  'x, y, z'
loop_
 _atom_site_type_symbol
 _atom_site_label
 _atom_site_symmetry_multiplicity
 _atom_site_fract_x
 _atom_site_fract_y
 _atom_site_fract_z
 _atom_site_occupancy
  Pr  Pr0  1  0.123525  0.763906  0.046812  1
  Pr  Pr1  1  0.633505  0.812624  0.858232  1
  Pr  Pr2  1  0.878271  0.236730  0.956029  1
  Pr  Pr3  1  0.978981  0.102287  0.305048  1
  Sm  Sm4  1  0.360912  0.181843  0.134831  1
  Sm  Sm5  1  0.025829  0.902754  0.702879  1
  Co  Co6  1  0.999949  0.999558  0.000662  1
  Br  Br7  1  0.445812  0.080723  0.826462  1
  Br  Br8  1  0.747220  0.541368  0.917698  1
  Br  Br9  1  0.258050  0.454138  0.084661  1
  Br  Br10  1  0.914703  0.165741  0.634678  1
  Br  Br11  1  0.644973  0.728280  0.538868  1
  Br  Br12  1  0.547952  0.923667  0.174766  1
  Br  Br13  1  0.086372  0.830860  0.371515  1
  Br  Br14  1  0.788085  0.351221  0.257679  1
  Br  Br15  1  0.193601  0.647016  0.735122  1
  Br  Br16  1  0.372260  0.277286  0.454059  1
