# generated using pymatgen
data_Ti8C4O
_symmetry_space_group_name_H-M   'P 1'
_cell_length_a   6.03063077
_cell_length_b   6.03063096
_cell_length_c   6.03063203
_cell_angle_alpha   61.00961475
_cell_angle_beta   61.00961331
_cell_angle_gamma   61.00961057
_symmetry_Int_Tables_number   1
_chemical_formula_structural   Ti8C4O
_chemical_formula_sum   'Ti8 C4 O1'
_cell_volume   158.61291022
_cell_formula_units_Z   1
loop_
 _symmetry_equiv_pos_site_id
 _symmetry_equiv_pos_as_xyz
  1  'x, y, z'
loop_
 _atom_site_type_symbol
 _atom_site_label
 _atom_site_symmetry_multiplicity
 _atom_site_fract_x
 _atom_site_fract_y
 _atom_site_fract_z
 _atom_site_occupancy
  Ti  Ti0  1  0.753582  0.753582  0.753582  1
  Ti  Ti1  1  0.747892  0.240092  0.747892  1
  Ti  Ti2  1  0.252108  0.759908  0.252108  1
  Ti  Ti3  1  0.240092  0.747892  0.747892  1
  Ti  Ti4  1  0.759908  0.252108  0.252108  1
  Ti  Ti5  1  0.246418  0.246418  0.246418  1
  Ti  Ti6  1  0.252108  0.252108  0.759908  1
  Ti  Ti7  1  0.747892  0.747892  0.240092  1
  C  C8  1  0.000000  0.000000  0.500000  1
  C  C9  1  0.000000  0.500000  0.000000  1
  C  C10  1  0.500000  0.000000  0.000000  1
  C  C11  1  0.500000  0.500000  0.500000  1
  O  O12  1  0.000000  0.000000  0.000000  1
