# generated using pymatgen
data_Dy2Er10ZnCo4Bi
_symmetry_space_group_name_H-M   'P 1'
_cell_length_a   8.29397952
_cell_length_b   8.33000855
_cell_length_c   8.33000790
_cell_angle_alpha   111.68432380
_cell_angle_beta   109.46134185
_cell_angle_gamma   107.46214618
_symmetry_Int_Tables_number   1
_chemical_formula_structural   Dy2Er10ZnCo4Bi
_chemical_formula_sum   'Dy2 Er10 Zn1 Co4 Bi1'
_cell_volume   441.51354905
_cell_formula_units_Z   1
loop_
 _symmetry_equiv_pos_site_id
 _symmetry_equiv_pos_as_xyz
  1  'x, y, z'
loop_
 _atom_site_type_symbol
 _atom_site_label
 _atom_site_symmetry_multiplicity
 _atom_site_fract_x
 _atom_site_fract_y
 _atom_site_fract_z
 _atom_site_occupancy
  Dy  Dy0  1  0.988641  0.781013  0.207627  1
  Dy  Dy1  1  0.011359  0.218987  0.792373  1
  Er  Er2  1  0.818580  0.714723  0.533515  1
  Er  Er3  1  0.181420  0.285277  0.466485  1
  Er  Er4  1  0.181420  0.714935  0.896143  1
  Er  Er5  1  0.818580  0.285065  0.103857  1
  Er  Er6  1  0.683894  0.377918  0.690175  1
  Er  Er7  1  0.316106  0.622082  0.309825  1
  Er  Er8  1  0.683894  0.993719  0.305976  1
  Er  Er9  1  0.316106  0.006281  0.694024  1
  Er  Er10  1  0.573112  0.779353  0.793758  1
  Er  Er11  1  0.426888  0.220647  0.206242  1
  Zn  Zn12  1  0.000000  0.000000  0.000000  1
  Co  Co13  1  0.621420  0.998153  0.623267  1
  Co  Co14  1  0.378580  0.001847  0.376733  1
  Co  Co15  1  0.113472  0.612432  0.501040  1
  Co  Co16  1  0.886528  0.387568  0.498960  1
  Bi  Bi17  1  0.500000  0.500000  0.000000  1
