# generated using pymatgen
data_Sr4LaPr(CoO3)4
_symmetry_space_group_name_H-M   'P 1'
_cell_length_a   6.60876998
_cell_length_b   6.60207220
_cell_length_c   6.60194482
_cell_angle_alpha   92.10539722
_cell_angle_beta   91.97321908
_cell_angle_gamma   91.90992293
_symmetry_Int_Tables_number   1
_chemical_formula_structural   Sr4LaPr(CoO3)4
_chemical_formula_sum   'Sr4 La1 Pr1 Co4 O12'
_cell_volume   287.51548935
_cell_formula_units_Z   1
loop_
 _symmetry_equiv_pos_site_id
 _symmetry_equiv_pos_as_xyz
  1  'x, y, z'
loop_
 _atom_site_type_symbol
 _atom_site_label
 _atom_site_symmetry_multiplicity
 _atom_site_fract_x
 _atom_site_fract_y
 _atom_site_fract_z
 _atom_site_occupancy
  Sr  Sr0  1  0.250095  0.619383  0.884512  1
  Sr  Sr1  1  0.611660  0.882524  0.249090  1
  Sr  Sr2  1  0.383295  0.112613  0.749970  1
  Sr  Sr3  1  0.118927  0.750516  0.384607  1
  La  La4  1  0.889883  0.250745  0.612818  1
  Pr  Pr5  1  0.750177  0.388152  0.114067  1
  Co  Co6  1  0.994638  0.002170  0.002457  1
  Co  Co7  1  0.746249  0.754729  0.748142  1
  Co  Co8  1  0.503252  0.495839  0.500806  1
  Co  Co9  1  0.256421  0.247902  0.245221  1
  O  O10  1  0.217952  0.406814  0.542260  1
  O  O11  1  0.417162  0.531908  0.216465  1
  O  O12  1  0.551427  0.218796  0.410045  1
  O  O13  1  0.904787  0.715619  0.044396  1
  O  O14  1  0.717016  0.052311  0.914639  1
  O  O15  1  0.030676  0.912856  0.718570  1
  O  O16  1  0.786434  0.572664  0.452618  1
  O  O17  1  0.600072  0.453351  0.784326  1
  O  O18  1  0.467943  0.777803  0.593082  1
  O  O19  1  0.074344  0.285347  0.954870  1
  O  O20  1  0.275600  0.966117  0.093845  1
  O  O21  1  0.951991  0.101845  0.283195  1
