# generated using pymatgen
data_Pr5US10
_symmetry_space_group_name_H-M   'P 1'
_cell_length_a   7.57388700
_cell_length_b   8.17158400
_cell_length_c   12.08918300
_cell_angle_alpha   90.00000000
_cell_angle_beta   90.00000000
_cell_angle_gamma   90.00000000
_symmetry_Int_Tables_number   1
_chemical_formula_structural   Pr5US10
_chemical_formula_sum   'Pr10 U2 S20'
_cell_volume   748.20744010
_cell_formula_units_Z   2
loop_
 _symmetry_equiv_pos_site_id
 _symmetry_equiv_pos_as_xyz
  1  'x, y, z'
loop_
 _atom_site_type_symbol
 _atom_site_label
 _atom_site_symmetry_multiplicity
 _atom_site_fract_x
 _atom_site_fract_y
 _atom_site_fract_z
 _atom_site_occupancy
  Pr  Pr0  1  0.927789  0.750000  0.491792  1
  Pr  Pr1  1  0.427789  0.250000  0.008208  1
  Pr  Pr2  1  0.478230  0.000106  0.321855  1
  Pr  Pr3  1  0.978230  0.999894  0.178145  1
  Pr  Pr4  1  0.523909  0.500059  0.675611  1
  Pr  Pr5  1  0.023909  0.499941  0.824389  1
  Pr  Pr6  1  0.523909  0.999941  0.675611  1
  Pr  Pr7  1  0.023909  0.000059  0.824389  1
  Pr  Pr8  1  0.478230  0.499894  0.321855  1
  Pr  Pr9  1  0.978230  0.500106  0.178145  1
  U  U10  1  0.062298  0.250000  0.508015  1
  U  U11  1  0.562298  0.750000  0.991985  1
  S  S12  1  0.174690  0.750000  0.307893  1
  S  S13  1  0.674690  0.250000  0.192107  1
  S  S14  1  0.830612  0.250000  0.683089  1
  S  S15  1  0.330612  0.750000  0.816911  1
  S  S16  1  0.538493  0.750000  0.497486  1
  S  S17  1  0.038493  0.250000  0.002514  1
  S  S18  1  0.447716  0.250000  0.498245  1
  S  S19  1  0.947716  0.750000  0.001755  1
  S  S20  1  0.806131  0.750000  0.715614  1
  S  S21  1  0.306131  0.250000  0.784386  1
  S  S22  1  0.196165  0.250000  0.287787  1
  S  S23  1  0.696165  0.750000  0.212213  1
  S  S24  1  0.163528  0.526994  0.599433  1
  S  S25  1  0.663528  0.473006  0.900567  1
  S  S26  1  0.842385  0.053539  0.405515  1
  S  S27  1  0.342385  0.946461  0.094485  1
  S  S28  1  0.842385  0.446461  0.405515  1
  S  S29  1  0.342385  0.553539  0.094485  1
  S  S30  1  0.163528  0.973006  0.599433  1
  S  S31  1  0.663528  0.026994  0.900567  1
