# generated using pymatgen
data_K2Mn(SiO3)2
_symmetry_space_group_name_H-M   'P 1'
_cell_length_a   5.94113464
_cell_length_b   5.94113417
_cell_length_c   10.65158900
_cell_angle_alpha   90.00000000
_cell_angle_beta   90.00000000
_cell_angle_gamma   114.30148122
_symmetry_Int_Tables_number   1
_chemical_formula_structural   K2Mn(SiO3)2
_chemical_formula_sum   'K4 Mn2 Si4 O12'
_cell_volume   342.65626100
_cell_formula_units_Z   2
loop_
 _symmetry_equiv_pos_site_id
 _symmetry_equiv_pos_as_xyz
  1  'x, y, z'
loop_
 _atom_site_type_symbol
 _atom_site_label
 _atom_site_symmetry_multiplicity
 _atom_site_fract_x
 _atom_site_fract_y
 _atom_site_fract_z
 _atom_site_occupancy
  K  K0  1  0.274048  0.927908  0.575526  1
  K  K1  1  0.072092  0.725952  0.924474  1
  K  K2  1  0.725952  0.072092  0.075526  1
  K  K3  1  0.927908  0.274048  0.424474  1
  Mn  Mn4  1  0.194243  0.805757  0.250000  1
  Mn  Mn5  1  0.805757  0.194243  0.750000  1
  Si  Si6  1  0.368013  0.334287  0.864992  1
  Si  Si7  1  0.334287  0.368013  0.135008  1
  Si  Si8  1  0.665713  0.631987  0.635008  1
  Si  Si9  1  0.631987  0.665713  0.364992  1
  O  O10  1  0.543530  0.456470  0.250000  1
  O  O11  1  0.525557  0.873518  0.339589  1
  O  O12  1  0.510889  0.510889  0.500000  1
  O  O13  1  0.873518  0.525557  0.660411  1
  O  O14  1  0.474443  0.126482  0.839589  1
  O  O15  1  0.069507  0.225220  0.877746  1
  O  O16  1  0.930493  0.774781  0.377746  1
  O  O17  1  0.456470  0.543530  0.750000  1
  O  O18  1  0.126482  0.474443  0.160411  1
  O  O19  1  0.225219  0.069507  0.122254  1
  O  O20  1  0.774780  0.930493  0.622254  1
  O  O21  1  0.489111  0.489111  0.000000  1
