# generated using pymatgen
data_TbSmRe5Si4Mo3
_symmetry_space_group_name_H-M   'P 1'
_cell_length_a   7.91900623
_cell_length_b   6.99100984
_cell_length_c   4.23958000
_cell_angle_alpha   90.00000000
_cell_angle_beta   90.00000000
_cell_angle_gamma   90.34555626
_symmetry_Int_Tables_number   1
_chemical_formula_structural   TbSmRe5Si4Mo3
_chemical_formula_sum   'Tb1 Sm1 Re5 Si4 Mo3'
_cell_volume   234.70672537
_cell_formula_units_Z   1
loop_
 _symmetry_equiv_pos_site_id
 _symmetry_equiv_pos_as_xyz
  1  'x, y, z'
loop_
 _atom_site_type_symbol
 _atom_site_label
 _atom_site_symmetry_multiplicity
 _atom_site_fract_x
 _atom_site_fract_y
 _atom_site_fract_z
 _atom_site_occupancy
  Tb  Tb0  1  0.499715  0.498588  0.000000  1
  Sm  Sm1  1  0.000427  0.000201  0.500000  1
  Re  Re2  1  0.387782  0.846228  0.500000  1
  Re  Re3  1  0.163444  0.576709  0.500000  1
  Re  Re4  1  0.839839  0.426538  0.500000  1
  Re  Re5  1  0.341762  0.074599  0.000000  1
  Re  Re6  1  0.654248  0.923063  0.000000  1
  Si  Si7  1  0.684312  0.732735  0.500000  1
  Si  Si8  1  0.313607  0.267914  0.500000  1
  Si  Si9  1  0.188676  0.766422  0.000000  1
  Si  Si10  1  0.812111  0.233736  0.000000  1
  Mo  Mo11  1  0.613146  0.151860  0.500000  1
  Mo  Mo12  1  0.115564  0.349497  0.000000  1
  Mo  Mo13  1  0.885366  0.651909  0.000000  1
