# generated using pymatgen
data_Tb9SmIn4(HgPd)4
_symmetry_space_group_name_H-M   'P 1'
_cell_length_a   8.03875129
_cell_length_b   18.45086666
_cell_length_c   3.66045700
_cell_angle_alpha   90.00000000
_cell_angle_beta   90.00000000
_cell_angle_gamma   90.03065588
_symmetry_Int_Tables_number   1
_chemical_formula_structural   Tb9SmIn4(HgPd)4
_chemical_formula_sum   'Tb9 Sm1 In4 Hg4 Pd4'
_cell_volume   542.92596234
_cell_formula_units_Z   1
loop_
 _symmetry_equiv_pos_site_id
 _symmetry_equiv_pos_as_xyz
  1  'x, y, z'
loop_
 _atom_site_type_symbol
 _atom_site_label
 _atom_site_symmetry_multiplicity
 _atom_site_fract_x
 _atom_site_fract_y
 _atom_site_fract_z
 _atom_site_occupancy
  Tb  Tb0  1  0.000000  0.000000  0.000000  1
  Tb  Tb1  1  0.745164  0.283178  0.000000  1
  Tb  Tb2  1  0.254836  0.716822  0.000000  1
  Tb  Tb3  1  0.754859  0.783771  0.000000  1
  Tb  Tb4  1  0.245141  0.216229  0.000000  1
  Tb  Tb5  1  0.609916  0.083353  0.000000  1
  Tb  Tb6  1  0.390084  0.916647  0.000000  1
  Tb  Tb7  1  0.888961  0.583737  0.000000  1
  Tb  Tb8  1  0.111039  0.416263  0.000000  1
  Sm  Sm9  1  0.500000  0.500000  0.000000  1
  In  In10  1  0.578805  0.650900  0.500000  1
  In  In11  1  0.421195  0.349100  0.500000  1
  In  In12  1  0.921766  0.149362  0.500000  1
  In  In13  1  0.078234  0.850638  0.500000  1
  Hg  Hg14  1  0.712928  0.932373  0.500000  1
  Hg  Hg15  1  0.287072  0.067627  0.500000  1
  Hg  Hg16  1  0.790286  0.431121  0.500000  1
  Hg  Hg17  1  0.209714  0.568879  0.500000  1
  Pd  Pd18  1  0.531976  0.197330  0.500000  1
  Pd  Pd19  1  0.468024  0.802670  0.500000  1
  Pd  Pd20  1  0.967965  0.697925  0.500000  1
  Pd  Pd21  1  0.032035  0.302075  0.500000  1
