# generated using pymatgen
data_Sc3Al3Si2Tc
_symmetry_space_group_name_H-M   'P 1'
_cell_length_a   6.63393600
_cell_length_b   6.63393591
_cell_length_c   4.11830100
_cell_angle_alpha   90.00000000
_cell_angle_beta   90.00000000
_cell_angle_gamma   120.00000045
_symmetry_Int_Tables_number   1
_chemical_formula_structural   Sc3Al3Si2Tc
_chemical_formula_sum   'Sc3 Al3 Si2 Tc1'
_cell_volume   156.96082186
_cell_formula_units_Z   1
loop_
 _symmetry_equiv_pos_site_id
 _symmetry_equiv_pos_as_xyz
  1  'x, y, z'
loop_
 _atom_site_type_symbol
 _atom_site_label
 _atom_site_symmetry_multiplicity
 _atom_site_fract_x
 _atom_site_fract_y
 _atom_site_fract_z
 _atom_site_occupancy
  Sc  Sc0  1  0.427335  0.000000  0.000000  1
  Sc  Sc1  1  0.000000  0.427335  0.000000  1
  Sc  Sc2  1  0.572665  0.572664  0.000000  1
  Al  Al3  1  0.761257  0.000000  0.500001  1
  Al  Al4  1  0.238742  0.238742  0.500001  1
  Al  Al5  1  0.000000  0.761257  0.500001  1
  Si  Si6  1  0.666667  0.333334  0.500001  1
  Si  Si7  1  0.333333  0.666667  0.500001  1
  Tc  Tc8  1  0.000000  0.000000  0.000000  1
