# generated using pymatgen
data_Cr9Tc2P4Ru
_symmetry_space_group_name_H-M   'P 1'
_cell_length_a   4.52439761
_cell_length_b   6.91144797
_cell_length_c   6.94150558
_cell_angle_alpha   83.46554978
_cell_angle_beta   70.79969187
_cell_angle_gamma   70.89620636
_symmetry_Int_Tables_number   1
_chemical_formula_structural   Cr9Tc2P4Ru
_chemical_formula_sum   'Cr9 Tc2 P4 Ru1'
_cell_volume   193.69382748
_cell_formula_units_Z   1
loop_
 _symmetry_equiv_pos_site_id
 _symmetry_equiv_pos_as_xyz
  1  'x, y, z'
loop_
 _atom_site_type_symbol
 _atom_site_label
 _atom_site_symmetry_multiplicity
 _atom_site_fract_x
 _atom_site_fract_y
 _atom_site_fract_z
 _atom_site_occupancy
  Cr  Cr0  1  0.659643  0.032119  0.186008  1
  Cr  Cr1  1  0.635715  0.393995  0.324979  1
  Cr  Cr2  1  0.356297  0.605939  0.675024  1
  Cr  Cr3  1  0.036126  0.326288  0.606046  1
  Cr  Cr4  1  0.968325  0.671422  0.392986  1
  Cr  Cr5  1  0.594617  0.388722  0.938682  1
  Cr  Cr6  1  0.922509  0.613994  0.063177  1
  Cr  Cr7  1  0.470530  0.938594  0.607406  1
  Cr  Cr8  1  0.012031  0.058243  0.385900  1
  Tc  Tc9  1  0.155621  0.192154  0.968013  1
  Tc  Tc10  1  0.308102  0.812377  0.038342  1
  P  P11  1  0.210039  0.342247  0.247604  1
  P  P12  1  0.799826  0.653803  0.753372  1
  P  P13  1  0.551062  0.245586  0.649656  1
  P  P14  1  0.446618  0.756081  0.349441  1
  Ru  Ru15  1  0.872942  0.968437  0.813366  1
