# generated using pymatgen
data_Cs2UTe3
_symmetry_space_group_name_H-M   'P 1'
_cell_length_a   15.34790800
_cell_length_b   7.62111551
_cell_length_c   10.35042726
_cell_angle_alpha   71.62757315
_cell_angle_beta   90.00000000
_cell_angle_gamma   90.00000000
_symmetry_Int_Tables_number   1
_chemical_formula_structural   Cs2UTe3
_chemical_formula_sum   'Cs8 U4 Te12'
_cell_volume   1148.96009643
_cell_formula_units_Z   4
loop_
 _symmetry_equiv_pos_site_id
 _symmetry_equiv_pos_as_xyz
  1  'x, y, z'
loop_
 _atom_site_type_symbol
 _atom_site_label
 _atom_site_symmetry_multiplicity
 _atom_site_fract_x
 _atom_site_fract_y
 _atom_site_fract_z
 _atom_site_occupancy
  Cs  Cs0  1  0.953969  0.674234  0.656122  1
  Cs  Cs1  1  0.453969  0.825766  0.343878  1
  Cs  Cs2  1  0.046031  0.325766  0.343878  1
  Cs  Cs3  1  0.546031  0.174234  0.656122  1
  Cs  Cs4  1  0.869050  0.083479  0.899571  1
  Cs  Cs5  1  0.369050  0.416521  0.100429  1
  Cs  Cs6  1  0.130950  0.916521  0.100429  1
  Cs  Cs7  1  0.630950  0.583479  0.899571  1
  U  U8  1  0.750250  0.656231  0.297340  1
  U  U9  1  0.250250  0.843769  0.702660  1
  U  U10  1  0.249750  0.343769  0.702660  1
  U  U11  1  0.749750  0.156231  0.297340  1
  Te  Te12  1  0.907805  0.913041  0.281228  1
  Te  Te13  1  0.407805  0.586959  0.718772  1
  Te  Te14  1  0.092195  0.086959  0.718772  1
  Te  Te15  1  0.592195  0.413041  0.281228  1
  Te  Te16  1  0.816605  0.310710  0.518859  1
  Te  Te17  1  0.316605  0.189290  0.481141  1
  Te  Te18  1  0.183395  0.689290  0.481141  1
  Te  Te19  1  0.683395  0.810710  0.518859  1
  Te  Te20  1  0.841585  0.494721  0.091836  1
  Te  Te21  1  0.341585  0.005279  0.908164  1
  Te  Te22  1  0.158415  0.505279  0.908164  1
  Te  Te23  1  0.658415  0.994721  0.091836  1
