# generated using pymatgen
data_YEr9(Si2Hg)2
_symmetry_space_group_name_H-M   'P 1'
_cell_length_a   7.51551321
_cell_length_b   7.51551316
_cell_length_c   8.90272400
_cell_angle_alpha   114.99221844
_cell_angle_beta   114.99222666
_cell_angle_gamma   90.22822282
_symmetry_Int_Tables_number   1
_chemical_formula_structural   YEr9(Si2Hg)2
_chemical_formula_sum   'Y1 Er9 Si4 Hg2'
_cell_volume   402.77085666
_cell_formula_units_Z   1
loop_
 _symmetry_equiv_pos_site_id
 _symmetry_equiv_pos_as_xyz
  1  'x, y, z'
loop_
 _atom_site_type_symbol
 _atom_site_label
 _atom_site_symmetry_multiplicity
 _atom_site_fract_x
 _atom_site_fract_y
 _atom_site_fract_z
 _atom_site_occupancy
  Y  Y0  1  0.530174  0.030174  0.719282  1
  Er  Er1  1  0.500965  0.500415  0.001523  1
  Er  Er2  1  0.000415  0.000965  0.001523  1
  Er  Er3  1  0.968739  0.812127  0.279799  1
  Er  Er4  1  0.312127  0.468739  0.279799  1
  Er  Er5  1  0.810441  0.310441  0.278491  1
  Er  Er6  1  0.468842  0.968842  0.278856  1
  Er  Er7  1  0.031668  0.189173  0.721173  1
  Er  Er8  1  0.689173  0.531668  0.721173  1
  Er  Er9  1  0.188263  0.688263  0.722014  1
  Si  Si10  1  0.625927  0.873090  0.000113  1
  Si  Si11  1  0.373090  0.125927  0.000113  1
  Si  Si12  1  0.875226  0.375226  0.000473  1
  Si  Si13  1  0.125776  0.625776  0.000658  1
  Hg  Hg14  1  0.751923  0.747252  0.497505  1
  Hg  Hg15  1  0.247252  0.251923  0.497505  1
