# generated using pymatgen
data_Sr10TaMn4O19
_symmetry_space_group_name_H-M   'P 1'
_cell_length_a   8.84282125
_cell_length_b   8.84282147
_cell_length_c   8.75500000
_cell_angle_alpha   60.79808398
_cell_angle_beta   60.79807574
_cell_angle_gamma   91.48518317
_symmetry_Int_Tables_number   1
_chemical_formula_structural   Sr10TaMn4O19
_chemical_formula_sum   'Sr10 Ta1 Mn4 O19'
_cell_volume   489.34310030
_cell_formula_units_Z   1
loop_
 _symmetry_equiv_pos_site_id
 _symmetry_equiv_pos_as_xyz
  1  'x, y, z'
loop_
 _atom_site_type_symbol
 _atom_site_label
 _atom_site_symmetry_multiplicity
 _atom_site_fract_x
 _atom_site_fract_y
 _atom_site_fract_z
 _atom_site_occupancy
  Sr  Sr0  1  0.860634  0.139366  0.000000  1
  Sr  Sr1  1  0.649471  0.949784  0.807844  1
  Sr  Sr2  1  0.459977  0.749934  0.582558  1
  Sr  Sr3  1  0.250066  0.540023  0.417442  1
  Sr  Sr4  1  0.050216  0.350529  0.192156  1
  Sr  Sr5  1  0.540023  0.250066  0.417442  1
  Sr  Sr6  1  0.350529  0.050216  0.192156  1
  Sr  Sr7  1  0.139366  0.860634  0.000000  1
  Sr  Sr8  1  0.949784  0.649471  0.807844  1
  Sr  Sr9  1  0.749934  0.459977  0.582558  1
  Ta  Ta10  1  0.500000  0.500000  0.000000  1
  Mn  Mn11  1  0.899432  0.899432  0.401381  1
  Mn  Mn12  1  0.699156  0.699156  0.199598  1
  Mn  Mn13  1  0.300844  0.300844  0.800402  1
  Mn  Mn14  1  0.100568  0.100568  0.598619  1
  O  O15  1  0.100319  0.100319  0.125009  1
  O  O16  1  0.500000  0.500000  0.500000  1
  O  O17  1  0.899681  0.899681  0.874991  1
  O  O18  1  0.290868  0.290868  0.294257  1
  O  O19  1  0.709132  0.709132  0.705743  1
  O  O20  1  0.660561  0.339439  0.000000  1
  O  O21  1  0.458263  0.142528  0.801878  1
  O  O22  1  0.251644  0.939440  0.585324  1
  O  O23  1  0.060560  0.748356  0.414676  1
  O  O24  1  0.857472  0.541737  0.198122  1
  O  O25  1  0.748356  0.060560  0.414676  1
  O  O26  1  0.541737  0.857472  0.198122  1
  O  O27  1  0.339439  0.660561  0.000000  1
  O  O28  1  0.142528  0.458263  0.801878  1
  O  O29  1  0.939440  0.251644  0.585324  1
  O  O30  1  0.412500  0.412500  0.881937  1
  O  O31  1  0.802502  0.802502  0.286968  1
  O  O32  1  0.197498  0.197498  0.713032  1
  O  O33  1  0.587500  0.587500  0.118063  1
