# generated using pymatgen
data_Sc2U2Fe7Ge6
_symmetry_space_group_name_H-M   'P 1'
_cell_length_a   6.84156467
_cell_length_b   6.84156512
_cell_length_c   6.95154531
_cell_angle_alpha   109.43290612
_cell_angle_beta   109.43290303
_cell_angle_gamma   108.89881701
_symmetry_Int_Tables_number   1
_chemical_formula_structural   Sc2U2Fe7Ge6
_chemical_formula_sum   'Sc2 U2 Fe7 Ge6'
_cell_volume   252.45935215
_cell_formula_units_Z   1
loop_
 _symmetry_equiv_pos_site_id
 _symmetry_equiv_pos_as_xyz
  1  'x, y, z'
loop_
 _atom_site_type_symbol
 _atom_site_label
 _atom_site_symmetry_multiplicity
 _atom_site_fract_x
 _atom_site_fract_y
 _atom_site_fract_z
 _atom_site_occupancy
  Sc  Sc0  1  0.000000  0.500000  0.000000  1
  Sc  Sc1  1  0.500000  0.000000  0.000000  1
  U  U2  1  0.000000  0.000000  0.500000  1
  U  U3  1  0.500000  0.500000  0.500000  1
  Fe  Fe4  1  0.750000  0.250000  0.500000  1
  Fe  Fe5  1  0.753141  0.515539  0.268680  1
  Fe  Fe6  1  0.484461  0.246859  0.731320  1
  Fe  Fe7  1  0.246859  0.484461  0.731320  1
  Fe  Fe8  1  0.250000  0.750000  0.500000  1
  Fe  Fe9  1  0.515539  0.753141  0.268680  1
  Fe  Fe10  1  0.000000  0.000000  0.000000  1
  Ge  Ge11  1  0.682545  0.682545  0.000000  1
  Ge  Ge12  1  0.314540  0.987316  0.301855  1
  Ge  Ge13  1  0.987316  0.314540  0.301855  1
  Ge  Ge14  1  0.317455  0.317455  0.000000  1
  Ge  Ge15  1  0.685459  0.012684  0.698145  1
  Ge  Ge16  1  0.012684  0.685460  0.698145  1
