# generated using pymatgen
data_Sr2MnNi5(PO4)6
_symmetry_space_group_name_H-M   'P 1'
_cell_length_a   9.04859400
_cell_length_b   9.05483402
_cell_length_c   9.04855937
_cell_angle_alpha   137.30837346
_cell_angle_beta   109.69694542
_cell_angle_gamma   85.84047314
_symmetry_Int_Tables_number   1
_chemical_formula_structural   Sr2MnNi5(PO4)6
_chemical_formula_sum   'Sr2 Mn1 Ni5 P6 O24'
_cell_volume   455.10865198
_cell_formula_units_Z   1
loop_
 _symmetry_equiv_pos_site_id
 _symmetry_equiv_pos_as_xyz
  1  'x, y, z'
loop_
 _atom_site_type_symbol
 _atom_site_label
 _atom_site_symmetry_multiplicity
 _atom_site_fract_x
 _atom_site_fract_y
 _atom_site_fract_z
 _atom_site_occupancy
  Sr  Sr0  1  0.748218  0.158668  0.410445  1
  Sr  Sr1  1  0.251782  0.841332  0.589555  1
  Mn  Mn2  1  0.000000  0.000000  0.000000  1
  Ni  Ni3  1  0.616949  0.614313  0.498010  1
  Ni  Ni4  1  0.383051  0.385687  0.501990  1
  Ni  Ni5  1  0.116332  0.614245  0.997363  1
  Ni  Ni6  1  0.883668  0.385755  0.002637  1
  Ni  Ni7  1  0.500000  0.500000  0.000000  1
  P  P8  1  0.321604  0.823631  0.000733  1
  P  P9  1  0.752917  0.667459  0.914540  1
  P  P10  1  0.177095  0.176337  0.497942  1
  P  P11  1  0.678396  0.176369  0.999267  1
  P  P12  1  0.247083  0.332541  0.085460  1
  P  P13  1  0.822905  0.823663  0.502058  1
  O  O14  1  0.576184  0.928786  0.779666  1
  O  O15  1  0.070374  0.296653  0.637126  1
  O  O16  1  0.851757  0.895958  0.044201  1
  O  O17  1  0.340456  0.703280  0.773678  1
  O  O18  1  0.141105  0.208230  0.335345  1
  O  O19  1  0.335893  0.274521  0.938612  1
  O  O20  1  0.635786  0.701003  0.350144  1
  O  O21  1  0.858895  0.791770  0.664655  1
  O  O22  1  0.367477  0.479806  0.349070  1
  O  O23  1  0.149147  0.928758  0.352562  1
  O  O24  1  0.649127  0.299020  0.934786  1
  O  O25  1  0.632523  0.520194  0.650930  1
  O  O26  1  0.872877  0.208263  0.067145  1
  O  O27  1  0.850853  0.071242  0.647438  1
  O  O28  1  0.350873  0.700980  0.065214  1
  O  O29  1  0.364214  0.298997  0.649856  1
  O  O30  1  0.664107  0.725479  0.061388  1
  O  O31  1  0.929626  0.703347  0.362874  1
  O  O32  1  0.148243  0.104041  0.955799  1
  O  O33  1  0.869289  0.520205  0.887658  1
  O  O34  1  0.130711  0.479795  0.112342  1
  O  O35  1  0.127123  0.791737  0.932855  1
  O  O36  1  0.659544  0.296720  0.226322  1
  O  O37  1  0.423816  0.071214  0.220334  1
