# generated using pymatgen
data_Yb9CdO10
_symmetry_space_group_name_H-M   'P 1'
_cell_length_a   8.87878538
_cell_length_b   8.87878574
_cell_length_c   5.81290688
_cell_angle_alpha   83.73696719
_cell_angle_beta   83.73696432
_cell_angle_gamma   141.77997846
_symmetry_Int_Tables_number   1
_chemical_formula_structural   Yb9CdO10
_chemical_formula_sum   'Yb9 Cd1 O10'
_cell_volume   267.30657152
_cell_formula_units_Z   1
loop_
 _symmetry_equiv_pos_site_id
 _symmetry_equiv_pos_as_xyz
  1  'x, y, z'
loop_
 _atom_site_type_symbol
 _atom_site_label
 _atom_site_symmetry_multiplicity
 _atom_site_fract_x
 _atom_site_fract_y
 _atom_site_fract_z
 _atom_site_occupancy
  Yb  Yb0  1  0.300619  0.699381  0.500000  1
  Yb  Yb1  1  0.599425  0.400575  0.000000  1
  Yb  Yb2  1  0.099675  0.900325  0.500000  1
  Yb  Yb3  1  0.400575  0.599425  0.000000  1
  Yb  Yb4  1  0.201069  0.798931  0.000000  1
  Yb  Yb5  1  0.699381  0.300619  0.500000  1
  Yb  Yb6  1  0.900325  0.099675  0.500000  1
  Yb  Yb7  1  0.798931  0.201069  0.000000  1
  Yb  Yb8  1  0.000000  0.000000  0.000000  1
  Cd  Cd9  1  0.500000  0.500000  0.500000  1
  O  O10  1  0.347294  0.143153  0.754921  1
  O  O11  1  0.550213  0.949112  0.749557  1
  O  O12  1  0.949112  0.550213  0.749557  1
  O  O13  1  0.143153  0.347294  0.754921  1
  O  O14  1  0.449787  0.050888  0.250443  1
  O  O15  1  0.244503  0.244503  0.244553  1
  O  O16  1  0.755497  0.755497  0.755447  1
  O  O17  1  0.856847  0.652706  0.245079  1
  O  O18  1  0.050888  0.449787  0.250443  1
  O  O19  1  0.652706  0.856847  0.245079  1
