# generated using pymatgen
data_Tb5Y3(PtI6)2
_symmetry_space_group_name_H-M   'P 1'
_cell_length_a   4.22282500
_cell_length_b   14.05677006
_cell_length_c   14.83129700
_cell_angle_alpha   90.02229995
_cell_angle_beta   90.00000000
_cell_angle_gamma   90.00000000
_symmetry_Int_Tables_number   1
_chemical_formula_structural   Tb5Y3(PtI6)2
_chemical_formula_sum   'Tb5 Y3 Pt2 I12'
_cell_volume   880.37504542
_cell_formula_units_Z   1
loop_
 _symmetry_equiv_pos_site_id
 _symmetry_equiv_pos_as_xyz
  1  'x, y, z'
loop_
 _atom_site_type_symbol
 _atom_site_label
 _atom_site_symmetry_multiplicity
 _atom_site_fract_x
 _atom_site_fract_y
 _atom_site_fract_z
 _atom_site_occupancy
  Tb  Tb0  1  0.500000  0.116909  0.343984  1
  Tb  Tb1  1  0.000000  0.106788  0.572403  1
  Tb  Tb2  1  0.000000  0.893075  0.427795  1
  Tb  Tb3  1  0.000000  0.606746  0.927804  1
  Tb  Tb4  1  0.000000  0.393189  0.072184  1
  Y  Y5  1  0.500000  0.882703  0.656457  1
  Y  Y6  1  0.500000  0.617281  0.156345  1
  Y  Y7  1  0.500000  0.382713  0.843642  1
  Pt  Pt8  1  0.500000  0.999882  0.500169  1
  Pt  Pt9  1  0.500000  0.500063  0.999970  1
  I  I10  1  0.500000  0.244911  0.163452  1
  I  I11  1  0.500000  0.755579  0.835994  1
  I  I12  1  0.500000  0.744382  0.336245  1
  I  I13  1  0.500000  0.255602  0.663801  1
  I  I14  1  0.000000  0.263406  0.414531  1
  I  I15  1  0.000000  0.737204  0.585891  1
  I  I16  1  0.000000  0.762857  0.085901  1
  I  I17  1  0.000000  0.237201  0.913957  1
  I  I18  1  0.000000  0.999172  0.235725  1
  I  I19  1  0.000000  0.000259  0.763824  1
  I  I20  1  0.000000  0.499809  0.263700  1
  I  I21  1  0.000000  0.500268  0.736226  1
