# generated using pymatgen
data_Pr2Th2Zn10SiSn
_symmetry_space_group_name_H-M   'P 1'
_cell_length_a   8.47067049
_cell_length_b   8.47067027
_cell_length_c   8.99783100
_cell_angle_alpha   90.00000000
_cell_angle_beta   90.00000000
_cell_angle_gamma   149.46444972
_symmetry_Int_Tables_number   1
_chemical_formula_structural   Pr2Th2Zn10SiSn
_chemical_formula_sum   'Pr2 Th2 Zn10 Si1 Sn1'
_cell_volume   328.01930964
_cell_formula_units_Z   1
loop_
 _symmetry_equiv_pos_site_id
 _symmetry_equiv_pos_as_xyz
  1  'x, y, z'
loop_
 _atom_site_type_symbol
 _atom_site_label
 _atom_site_symmetry_multiplicity
 _atom_site_fract_x
 _atom_site_fract_y
 _atom_site_fract_z
 _atom_site_occupancy
  Pr  Pr0  1  0.000604  0.999396  0.485586  1
  Pr  Pr1  1  0.000604  0.999396  0.014414  1
  Th  Th2  1  0.201536  0.798464  0.250000  1
  Th  Th3  1  0.795355  0.204645  0.750000  1
  Zn  Zn4  1  0.814139  0.185861  0.390731  1
  Zn  Zn5  1  0.184740  0.815260  0.606910  1
  Zn  Zn6  1  0.814139  0.185861  0.109269  1
  Zn  Zn7  1  0.184740  0.815260  0.893090  1
  Zn  Zn8  1  0.651973  0.348027  0.475619  1
  Zn  Zn9  1  0.342821  0.657179  0.515164  1
  Zn  Zn10  1  0.651973  0.348027  0.024381  1
  Zn  Zn11  1  0.342821  0.657179  0.984836  1
  Zn  Zn12  1  0.404485  0.595515  0.250000  1
  Zn  Zn13  1  0.605615  0.394385  0.750000  1
  Si  Si14  1  0.558859  0.441141  0.250000  1
  Sn  Sn15  1  0.445595  0.554405  0.750000  1
