# generated using pymatgen
data_Nd7Dy9(ErGa4)4
_symmetry_space_group_name_H-M   'P 1'
_cell_length_a   7.92710399
_cell_length_b   7.93203917
_cell_length_c   14.68293100
_cell_angle_alpha   89.99311616
_cell_angle_beta   89.89235583
_cell_angle_gamma   90.07112959
_symmetry_Int_Tables_number   1
_chemical_formula_structural   Nd7Dy9(ErGa4)4
_chemical_formula_sum   'Nd7 Dy9 Er4 Ga16'
_cell_volume   923.23244672
_cell_formula_units_Z   1
loop_
 _symmetry_equiv_pos_site_id
 _symmetry_equiv_pos_as_xyz
  1  'x, y, z'
loop_
 _atom_site_type_symbol
 _atom_site_label
 _atom_site_symmetry_multiplicity
 _atom_site_fract_x
 _atom_site_fract_y
 _atom_site_fract_z
 _atom_site_occupancy
  Nd  Nd0  1  0.359058  0.008633  0.958771  1
  Nd  Nd1  1  0.990379  0.641417  0.539977  1
  Nd  Nd2  1  0.490367  0.859380  0.209836  1
  Nd  Nd3  1  0.510723  0.138908  0.708062  1
  Nd  Nd4  1  0.860205  0.489492  0.791165  1
  Nd  Nd5  1  0.139415  0.509355  0.291885  1
  Nd  Nd6  1  0.008822  0.359556  0.042163  1
  Dy  Dy7  1  0.491750  0.358946  0.125155  1
  Dy  Dy8  1  0.991885  0.140062  0.623938  1
  Dy  Dy9  1  0.859486  0.007317  0.875047  1
  Dy  Dy10  1  0.140500  0.993994  0.375132  1
  Dy  Dy11  1  0.509614  0.642402  0.622952  1
  Dy  Dy12  1  0.358750  0.491856  0.875244  1
  Dy  Dy13  1  0.641328  0.508213  0.375614  1
  Dy  Dy14  1  0.006243  0.858318  0.126276  1
  Dy  Dy15  1  0.636524  0.994192  0.457284  1
  Er  Er16  1  0.319211  0.317712  0.500082  1
  Er  Er17  1  0.183684  0.817164  0.749286  1
  Er  Er18  1  0.815774  0.181637  0.250772  1
  Er  Er19  1  0.682195  0.681775  0.000229  1
  Ga  Ga20  1  0.293257  0.939168  0.561169  1
  Ga  Ga21  1  0.710372  0.062554  0.062564  1
  Ga  Ga22  1  0.935701  0.288072  0.437697  1
  Ga  Ga23  1  0.438400  0.209860  0.312725  1
  Ga  Ga24  1  0.563499  0.788133  0.811608  1
  Ga  Ga25  1  0.211527  0.437291  0.687384  1
  Ga  Ga26  1  0.788424  0.564195  0.188805  1
  Ga  Ga27  1  0.062989  0.710766  0.938133  1
  Ga  Ga28  1  0.799483  0.845396  0.688328  1
  Ga  Ga29  1  0.202317  0.152161  0.188816  1
  Ga  Ga30  1  0.844542  0.800632  0.314610  1
  Ga  Ga31  1  0.350194  0.706146  0.437287  1
  Ga  Ga32  1  0.652552  0.297074  0.938752  1
  Ga  Ga33  1  0.700487  0.343788  0.560585  1
  Ga  Ga34  1  0.296796  0.652813  0.062025  1
  Ga  Ga35  1  0.153546  0.201625  0.810642  1
