# generated using pymatgen
data_TbY3Bi3Sb3Rh7
_symmetry_space_group_name_H-M   'P 1'
_cell_length_a   7.75081317
_cell_length_b   7.71346699
_cell_length_c   7.71346508
_cell_angle_alpha   109.36608193
_cell_angle_beta   109.56640076
_cell_angle_gamma   109.56640878
_symmetry_Int_Tables_number   1
_chemical_formula_structural   TbY3Bi3Sb3Rh7
_chemical_formula_sum   'Tb1 Y3 Bi3 Sb3 Rh7'
_cell_volume   354.62189083
_cell_formula_units_Z   1
loop_
 _symmetry_equiv_pos_site_id
 _symmetry_equiv_pos_as_xyz
  1  'x, y, z'
loop_
 _atom_site_type_symbol
 _atom_site_label
 _atom_site_symmetry_multiplicity
 _atom_site_fract_x
 _atom_site_fract_y
 _atom_site_fract_z
 _atom_site_occupancy
  Tb  Tb0  1  0.490475  0.485963  0.485963  1
  Y  Y1  1  0.465303  0.999989  0.999989  1
  Y  Y2  1  0.004536  0.514092  0.000005  1
  Y  Y3  1  0.004536  0.000005  0.514092  1
  Bi  Bi4  1  0.988218  0.298101  0.298101  1
  Bi  Bi5  1  0.690171  0.000050  0.701911  1
  Bi  Bi6  1  0.690171  0.701911  0.000050  1
  Sb  Sb7  1  0.989232  0.665080  0.665080  1
  Sb  Sb8  1  0.324087  0.999918  0.334927  1
  Sb  Sb9  1  0.324087  0.334927  0.999918  1
  Rh  Rh10  1  0.064146  0.999997  0.999997  1
  Rh  Rh11  1  0.496226  0.752779  0.253362  1
  Rh  Rh12  1  0.743452  0.500582  0.247231  1
  Rh  Rh13  1  0.242840  0.746620  0.499394  1
  Rh  Rh14  1  0.242840  0.499394  0.746620  1
  Rh  Rh15  1  0.496226  0.253362  0.752779  1
  Rh  Rh16  1  0.743452  0.247231  0.500582  1
