# generated using pymatgen
data_SrLi3P2Pd
_symmetry_space_group_name_H-M   'P 1'
_cell_length_a   8.41441236
_cell_length_b   8.41441240
_cell_length_c   8.41441242
_cell_angle_alpha   28.85878493
_cell_angle_beta   28.85878327
_cell_angle_gamma   28.85878871
_symmetry_Int_Tables_number   1
_chemical_formula_structural   SrLi3P2Pd
_chemical_formula_sum   'Sr1 Li3 P2 Pd1'
_cell_volume   122.72859519
_cell_formula_units_Z   1
loop_
 _symmetry_equiv_pos_site_id
 _symmetry_equiv_pos_as_xyz
  1  'x, y, z'
loop_
 _atom_site_type_symbol
 _atom_site_label
 _atom_site_symmetry_multiplicity
 _atom_site_fract_x
 _atom_site_fract_y
 _atom_site_fract_z
 _atom_site_occupancy
  Sr  Sr0  1  0.997850  0.997850  0.997850  1
  Li  Li1  1  0.143030  0.143030  0.143030  1
  Li  Li2  1  0.563932  0.563932  0.563932  1
  Li  Li3  1  0.862914  0.862914  0.862914  1
  P  P4  1  0.755477  0.755477  0.755477  1
  P  P5  1  0.247094  0.247094  0.247094  1
  Pd  Pd6  1  0.429703  0.429703  0.429703  1
