# generated using pymatgen
data_Pr2Er6Co3Si12Pd
_symmetry_space_group_name_H-M   'P 1'
_cell_length_a   8.05960500
_cell_length_b   8.05960603
_cell_length_c   8.02957900
_cell_angle_alpha   90.00000000
_cell_angle_beta   90.00000000
_cell_angle_gamma   120.00000808
_symmetry_Int_Tables_number   1
_chemical_formula_structural   Pr2Er6Co3Si12Pd
_chemical_formula_sum   'Pr2 Er6 Co3 Si12 Pd1'
_cell_volume   451.70088610
_cell_formula_units_Z   1
loop_
 _symmetry_equiv_pos_site_id
 _symmetry_equiv_pos_as_xyz
  1  'x, y, z'
loop_
 _atom_site_type_symbol
 _atom_site_label
 _atom_site_symmetry_multiplicity
 _atom_site_fract_x
 _atom_site_fract_y
 _atom_site_fract_z
 _atom_site_occupancy
  Pr  Pr0  1  0.000000  0.000000  0.751088  1
  Pr  Pr1  1  0.000000  0.000000  0.247175  1
  Er  Er2  1  0.492505  0.507495  0.754551  1
  Er  Er3  1  0.502712  0.497288  0.248197  1
  Er  Er4  1  0.014990  0.507495  0.754551  1
  Er  Er5  1  0.994576  0.497288  0.248197  1
  Er  Er6  1  0.492505  0.985010  0.754551  1
  Er  Er7  1  0.502712  0.005424  0.248197  1
  Co  Co8  1  0.666667  0.333333  0.968894  1
  Co  Co9  1  0.333333  0.666667  0.037330  1
  Co  Co10  1  0.333333  0.666667  0.461902  1
  Si  Si11  1  0.825950  0.174050  0.000884  1
  Si  Si12  1  0.173293  0.826707  0.999402  1
  Si  Si13  1  0.348101  0.174050  0.000884  1
  Si  Si14  1  0.174698  0.825302  0.502660  1
  Si  Si15  1  0.653414  0.826707  0.999402  1
  Si  Si16  1  0.834381  0.165619  0.495590  1
  Si  Si17  1  0.825950  0.651899  0.000884  1
  Si  Si18  1  0.650604  0.825302  0.502660  1
  Si  Si19  1  0.173293  0.346586  0.999402  1
  Si  Si20  1  0.331238  0.165619  0.495590  1
  Si  Si21  1  0.174698  0.349396  0.502660  1
  Si  Si22  1  0.834381  0.668762  0.495590  1
  Pd  Pd23  1  0.666667  0.333333  0.529761  1
