# generated using pymatgen
data_K(Te2Ir)4
_symmetry_space_group_name_H-M   'P 1'
_cell_length_a   4.03045013
_cell_length_b   8.93165567
_cell_length_c   10.01044100
_cell_angle_alpha   80.86269670
_cell_angle_beta   78.38627893
_cell_angle_gamma   76.96023664
_symmetry_Int_Tables_number   1
_chemical_formula_structural   K(Te2Ir)4
_chemical_formula_sum   'K1 Te8 Ir4'
_cell_volume   341.44614864
_cell_formula_units_Z   1
loop_
 _symmetry_equiv_pos_site_id
 _symmetry_equiv_pos_as_xyz
  1  'x, y, z'
loop_
 _atom_site_type_symbol
 _atom_site_label
 _atom_site_symmetry_multiplicity
 _atom_site_fract_x
 _atom_site_fract_y
 _atom_site_fract_z
 _atom_site_occupancy
  K  K0  1  0.499750  0.000157  0.000342  1
  Te  Te1  1  0.456167  0.318300  0.769367  1
  Te  Te2  1  0.543917  0.681566  0.230599  1
  Te  Te3  1  0.892958  0.640348  0.573736  1
  Te  Te4  1  0.106997  0.359747  0.426257  1
  Te  Te5  1  0.209327  0.658033  0.923313  1
  Te  Te6  1  0.790747  0.341867  0.076640  1
  Te  Te7  1  0.830017  0.986707  0.353258  1
  Te  Te8  1  0.170018  0.013344  0.646619  1
  Ir  Ir9  1  0.635432  0.195066  0.534070  1
  Ir  Ir10  1  0.836013  0.505094  0.822878  1
  Ir  Ir11  1  0.164061  0.494799  0.177080  1
  Ir  Ir12  1  0.364594  0.804973  0.465837  1
