# generated using pymatgen
data_ZrTiICl5
_symmetry_space_group_name_H-M   'P 1'
_cell_length_a   7.39288836
_cell_length_b   7.19604035
_cell_length_c   6.03825965
_cell_angle_alpha   90.07572576
_cell_angle_beta   89.85258100
_cell_angle_gamma   120.90909502
_symmetry_Int_Tables_number   1
_chemical_formula_structural   ZrTiICl5
_chemical_formula_sum   'Zr1 Ti1 I1 Cl5'
_cell_volume   275.61126124
_cell_formula_units_Z   1
loop_
 _symmetry_equiv_pos_site_id
 _symmetry_equiv_pos_as_xyz
  1  'x, y, z'
loop_
 _atom_site_type_symbol
 _atom_site_label
 _atom_site_symmetry_multiplicity
 _atom_site_fract_x
 _atom_site_fract_y
 _atom_site_fract_z
 _atom_site_occupancy
  Zr  Zr0  1  0.003705  0.000000  0.003742  1
  Ti  Ti1  1  0.002924  0.000000  0.496248  1
  I  I2  1  0.678701  0.000000  0.741928  1
  Cl  Cl3  1  0.023753  0.286770  0.258806  1
  Cl  Cl4  1  0.276323  0.000000  0.259129  1
  Cl  Cl5  1  0.001090  0.724569  0.740670  1
  Cl  Cl6  1  0.736983  0.713230  0.258806  1
  Cl  Cl7  1  0.276520  0.275431  0.740670  1
