# generated using pymatgen
data_Dy4ErPd15
_symmetry_space_group_name_H-M   'P 1'
_cell_length_a   4.10753300
_cell_length_b   4.10753300
_cell_length_c   20.66486700
_cell_angle_alpha   90.00000000
_cell_angle_beta   90.00000000
_cell_angle_gamma   90.00000000
_symmetry_Int_Tables_number   1
_chemical_formula_structural   Dy4ErPd15
_chemical_formula_sum   'Dy4 Er1 Pd15'
_cell_volume   348.65406815
_cell_formula_units_Z   1
loop_
 _symmetry_equiv_pos_site_id
 _symmetry_equiv_pos_as_xyz
  1  'x, y, z'
loop_
 _atom_site_type_symbol
 _atom_site_label
 _atom_site_symmetry_multiplicity
 _atom_site_fract_x
 _atom_site_fract_y
 _atom_site_fract_z
 _atom_site_occupancy
  Dy  Dy0  1  0.000000  0.000000  0.199464  1
  Dy  Dy1  1  0.000000  0.000000  0.399851  1
  Dy  Dy2  1  0.000000  0.000000  0.600149  1
  Dy  Dy3  1  0.000000  0.000000  0.800536  1
  Er  Er4  1  0.000000  0.000000  0.000000  1
  Pd  Pd5  1  0.500000  0.500000  0.000000  1
  Pd  Pd6  1  0.500000  0.500000  0.199528  1
  Pd  Pd7  1  0.500000  0.500000  0.399785  1
  Pd  Pd8  1  0.500000  0.500000  0.600215  1
  Pd  Pd9  1  0.500000  0.500000  0.800472  1
  Pd  Pd10  1  0.500000  0.000000  0.099364  1
  Pd  Pd11  1  0.500000  0.000000  0.299742  1
  Pd  Pd12  1  0.500000  0.000000  0.500000  1
  Pd  Pd13  1  0.500000  0.000000  0.700258  1
  Pd  Pd14  1  0.500000  0.000000  0.900636  1
  Pd  Pd15  1  0.000000  0.500000  0.099364  1
  Pd  Pd16  1  0.000000  0.500000  0.299742  1
  Pd  Pd17  1  0.000000  0.500000  0.500000  1
  Pd  Pd18  1  0.000000  0.500000  0.700258  1
  Pd  Pd19  1  0.000000  0.500000  0.900636  1
