# generated using pymatgen
data_Dy5SiSb2
_symmetry_space_group_name_H-M   'P 1'
_cell_length_a   7.97196200
_cell_length_b   9.04527800
_cell_length_c   11.95456900
_cell_angle_alpha   90.00000000
_cell_angle_beta   90.00000000
_cell_angle_gamma   90.00000000
_symmetry_Int_Tables_number   1
_chemical_formula_structural   Dy5SiSb2
_chemical_formula_sum   'Dy20 Si4 Sb8'
_cell_volume   862.02738357
_cell_formula_units_Z   4
loop_
 _symmetry_equiv_pos_site_id
 _symmetry_equiv_pos_as_xyz
  1  'x, y, z'
loop_
 _atom_site_type_symbol
 _atom_site_label
 _atom_site_symmetry_multiplicity
 _atom_site_fract_x
 _atom_site_fract_y
 _atom_site_fract_z
 _atom_site_occupancy
  Dy  Dy0  1  0.335234  0.750000  0.714016  1
  Dy  Dy1  1  0.664766  0.250000  0.285984  1
  Dy  Dy2  1  0.835234  0.250000  0.785984  1
  Dy  Dy3  1  0.164766  0.750000  0.214016  1
  Dy  Dy4  1  0.038740  0.750000  0.501356  1
  Dy  Dy5  1  0.961260  0.250000  0.498644  1
  Dy  Dy6  1  0.538740  0.250000  0.998644  1
  Dy  Dy7  1  0.461260  0.750000  0.001356  1
  Dy  Dy8  1  0.861730  0.750000  0.793874  1
  Dy  Dy9  1  0.138270  0.250000  0.206126  1
  Dy  Dy10  1  0.361730  0.250000  0.706126  1
  Dy  Dy11  1  0.638270  0.750000  0.293874  1
  Dy  Dy12  1  0.684321  0.549893  0.565353  1
  Dy  Dy13  1  0.315679  0.450107  0.434647  1
  Dy  Dy14  1  0.184321  0.450107  0.934647  1
  Dy  Dy15  1  0.315679  0.049893  0.434647  1
  Dy  Dy16  1  0.815679  0.549893  0.065353  1
  Dy  Dy17  1  0.684321  0.950107  0.565353  1
  Dy  Dy18  1  0.815679  0.950107  0.065353  1
  Dy  Dy19  1  0.184321  0.049893  0.934647  1
  Si  Si20  1  0.082686  0.750000  0.980146  1
  Si  Si21  1  0.917314  0.250000  0.019854  1
  Si  Si22  1  0.582686  0.250000  0.519854  1
  Si  Si23  1  0.417314  0.750000  0.480146  1
  Sb  Sb24  1  0.568386  0.510435  0.826574  1
  Sb  Sb25  1  0.431614  0.489565  0.173426  1
  Sb  Sb26  1  0.068386  0.489565  0.673426  1
  Sb  Sb27  1  0.431614  0.010435  0.173426  1
  Sb  Sb28  1  0.931614  0.510435  0.326574  1
  Sb  Sb29  1  0.568386  0.989565  0.826574  1
  Sb  Sb30  1  0.931614  0.989565  0.326574  1
  Sb  Sb31  1  0.068386  0.010435  0.673426  1
