# generated using pymatgen
data_DyTm3Co18(CuP6)2
_symmetry_space_group_name_H-M   'P 1'
_cell_length_a   3.65910100
_cell_length_b   10.22717446
_cell_length_c   11.77886153
_cell_angle_alpha   90.03438948
_cell_angle_beta   90.00000000
_cell_angle_gamma   90.00000000
_symmetry_Int_Tables_number   1
_chemical_formula_structural   DyTm3Co18(CuP6)2
_chemical_formula_sum   'Dy1 Tm3 Co18 Cu2 P12'
_cell_volume   440.79158990
_cell_formula_units_Z   1
loop_
 _symmetry_equiv_pos_site_id
 _symmetry_equiv_pos_as_xyz
  1  'x, y, z'
loop_
 _atom_site_type_symbol
 _atom_site_label
 _atom_site_symmetry_multiplicity
 _atom_site_fract_x
 _atom_site_fract_y
 _atom_site_fract_z
 _atom_site_occupancy
  Dy  Dy0  1  0.750000  0.418631  0.296766  1
  Tm  Tm1  1  0.250000  0.579075  0.702129  1
  Tm  Tm2  1  0.250000  0.920994  0.202027  1
  Tm  Tm3  1  0.750000  0.081220  0.796977  1
  Co  Co4  1  0.750000  0.286553  0.008422  1
  Co  Co5  1  0.750000  0.213288  0.508511  1
  Co  Co6  1  0.250000  0.405414  0.487719  1
  Co  Co7  1  0.250000  0.094594  0.986358  1
  Co  Co8  1  0.750000  0.592482  0.516319  1
  Co  Co9  1  0.750000  0.907853  0.015992  1
  Co  Co10  1  0.250000  0.222234  0.175167  1
  Co  Co11  1  0.250000  0.276885  0.675719  1
  Co  Co12  1  0.750000  0.777850  0.825743  1
  Co  Co13  1  0.750000  0.722592  0.325853  1
  Co  Co14  1  0.250000  0.882019  0.699095  1
  Co  Co15  1  0.250000  0.619035  0.198577  1
  Co  Co16  1  0.750000  0.119507  0.299837  1
  Co  Co17  1  0.750000  0.379823  0.799727  1
  Co  Co18  1  0.250000  0.464994  0.930919  1
  Co  Co19  1  0.250000  0.034472  0.431549  1
  Co  Co20  1  0.750000  0.534903  0.066022  1
  Co  Co21  1  0.750000  0.965437  0.566786  1
  Cu  Cu22  1  0.250000  0.711781  0.990529  1
  Cu  Cu23  1  0.250000  0.788506  0.490759  1
  P  P24  1  0.250000  0.420373  0.111382  1
  P  P25  1  0.250000  0.079559  0.612545  1
  P  P26  1  0.750000  0.576347  0.883258  1
  P  P27  1  0.750000  0.923709  0.383488  1
  P  P28  1  0.250000  0.267731  0.867862  1
  P  P29  1  0.250000  0.230898  0.368404  1
  P  P30  1  0.750000  0.731150  0.138621  1
  P  P31  1  0.750000  0.768916  0.638671  1
  P  P32  1  0.250000  0.599389  0.391541  1
  P  P33  1  0.250000  0.901745  0.890980  1
  P  P34  1  0.750000  0.397046  0.607854  1
  P  P35  1  0.750000  0.102996  0.107898  1
