# generated using pymatgen
data_Er10In3Pb3Cl2
_symmetry_space_group_name_H-M   'P 1'
_cell_length_a   9.05998807
_cell_length_b   9.07408709
_cell_length_c   6.62329900
_cell_angle_alpha   90.00000000
_cell_angle_beta   90.00000000
_cell_angle_gamma   119.93399635
_symmetry_Int_Tables_number   1
_chemical_formula_structural   Er10In3Pb3Cl2
_chemical_formula_sum   'Er10 In3 Pb3 Cl2'
_cell_volume   471.87180200
_cell_formula_units_Z   1
loop_
 _symmetry_equiv_pos_site_id
 _symmetry_equiv_pos_as_xyz
  1  'x, y, z'
loop_
 _atom_site_type_symbol
 _atom_site_label
 _atom_site_symmetry_multiplicity
 _atom_site_fract_x
 _atom_site_fract_y
 _atom_site_fract_z
 _atom_site_occupancy
  Er  Er0  1  0.738428  0.738660  0.250000  1
  Er  Er1  1  0.995355  0.737252  0.750000  1
  Er  Er2  1  0.742712  0.000829  0.750000  1
  Er  Er3  1  0.332916  0.661127  0.501647  1
  Er  Er4  1  0.258095  0.263583  0.750000  1
  Er  Er5  1  0.004980  0.260188  0.250000  1
  Er  Er6  1  0.667121  0.336954  0.501590  1
  Er  Er7  1  0.260382  0.004681  0.250000  1
  Er  Er8  1  0.332916  0.661127  0.998353  1
  Er  Er9  1  0.667121  0.336954  0.998410  1
  In  In10  1  0.997596  0.390651  0.750000  1
  In  In11  1  0.395155  0.393798  0.250000  1
  In  In12  1  0.606540  0.607620  0.750000  1
  Pb  Pb13  1  0.389364  0.999036  0.750000  1
  Pb  Pb14  1  0.001472  0.609334  0.250000  1
  Pb  Pb15  1  0.610434  0.001885  0.250000  1
  Cl  Cl16  1  0.999706  0.998161  0.499109  1
  Cl  Cl17  1  0.999706  0.998161  0.000891  1
