# generated using pymatgen
data_LiCeTcH6
_symmetry_space_group_name_H-M   'P 1'
_cell_length_a   4.91460991
_cell_length_b   4.91461040
_cell_length_c   4.91461100
_cell_angle_alpha   60.00000269
_cell_angle_beta   59.99999936
_cell_angle_gamma   60.00001068
_symmetry_Int_Tables_number   1
_chemical_formula_structural   LiCeTcH6
_chemical_formula_sum   'Li1 Ce1 Tc1 H6'
_cell_volume   83.93678668
_cell_formula_units_Z   1
loop_
 _symmetry_equiv_pos_site_id
 _symmetry_equiv_pos_as_xyz
  1  'x, y, z'
loop_
 _atom_site_type_symbol
 _atom_site_label
 _atom_site_symmetry_multiplicity
 _atom_site_fract_x
 _atom_site_fract_y
 _atom_site_fract_z
 _atom_site_occupancy
  Li  Li0  1  0.750000  0.750000  0.750000  1
  Ce  Ce1  1  0.250000  0.250000  0.250000  1
  Tc  Tc2  1  0.000000  0.000000  0.000000  1
  H  H3  1  0.746800  0.253200  0.253200  1
  H  H4  1  0.253200  0.746800  0.746800  1
  H  H5  1  0.253200  0.746800  0.253200  1
  H  H6  1  0.746800  0.253200  0.746800  1
  H  H7  1  0.253200  0.253200  0.746800  1
  H  H8  1  0.746800  0.746800  0.253200  1
