# generated using pymatgen
data_Dy3Ho5(AlRu)8
_symmetry_space_group_name_H-M   'P 1'
_cell_length_a   4.07375600
_cell_length_b   7.00977257
_cell_length_c   15.92738065
_cell_angle_alpha   90.10840694
_cell_angle_beta   90.00000000
_cell_angle_gamma   90.00000000
_symmetry_Int_Tables_number   1
_chemical_formula_structural   Dy3Ho5(AlRu)8
_chemical_formula_sum   'Dy3 Ho5 Al8 Ru8'
_cell_volume   454.82310924
_cell_formula_units_Z   1
loop_
 _symmetry_equiv_pos_site_id
 _symmetry_equiv_pos_as_xyz
  1  'x, y, z'
loop_
 _atom_site_type_symbol
 _atom_site_label
 _atom_site_symmetry_multiplicity
 _atom_site_fract_x
 _atom_site_fract_y
 _atom_site_fract_z
 _atom_site_occupancy
  Dy  Dy0  1  0.750000  0.963874  0.219137  1
  Dy  Dy1  1  0.250000  0.157868  0.563369  1
  Dy  Dy2  1  0.750000  0.838949  0.436790  1
  Ho  Ho3  1  0.750000  0.462792  0.280610  1
  Ho  Ho4  1  0.750000  0.343064  0.062891  1
  Ho  Ho5  1  0.250000  0.660297  0.937018  1
  Ho  Ho6  1  0.250000  0.037242  0.781286  1
  Ho  Ho7  1  0.250000  0.536792  0.719448  1
  Al  Al8  1  0.750000  0.498954  0.565726  1
  Al  Al9  1  0.750000  0.367235  0.849171  1
  Al  Al10  1  0.750000  0.002207  0.934536  1
  Al  Al11  1  0.750000  0.864638  0.651680  1
  Al  Al12  1  0.250000  0.497286  0.434394  1
  Al  Al13  1  0.250000  0.001280  0.065216  1
  Al  Al14  1  0.250000  0.634963  0.150748  1
  Al  Al15  1  0.250000  0.133265  0.348490  1
  Ru  Ru16  1  0.750000  0.747602  0.812384  1
  Ru  Ru17  1  0.250000  0.237362  0.936787  1
  Ru  Ru18  1  0.750000  0.262979  0.436294  1
  Ru  Ru19  1  0.250000  0.750580  0.312013  1
  Ru  Ru20  1  0.750000  0.765515  0.062872  1
  Ru  Ru21  1  0.750000  0.246465  0.688403  1
  Ru  Ru22  1  0.250000  0.254998  0.187201  1
  Ru  Ru23  1  0.250000  0.733793  0.563535  1
