# generated using pymatgen
data_Nd3Bi(Pt2O7)2
_symmetry_space_group_name_H-M   'P 1'
_cell_length_a   7.42427143
_cell_length_b   7.42427155
_cell_length_c   7.42427169
_cell_angle_alpha   60.17962508
_cell_angle_beta   60.17962251
_cell_angle_gamma   60.17962151
_symmetry_Int_Tables_number   1
_chemical_formula_structural   Nd3Bi(Pt2O7)2
_chemical_formula_sum   'Nd3 Bi1 Pt4 O14'
_cell_volume   290.54246479
_cell_formula_units_Z   1
loop_
 _symmetry_equiv_pos_site_id
 _symmetry_equiv_pos_as_xyz
  1  'x, y, z'
loop_
 _atom_site_type_symbol
 _atom_site_label
 _atom_site_symmetry_multiplicity
 _atom_site_fract_x
 _atom_site_fract_y
 _atom_site_fract_z
 _atom_site_occupancy
  Nd  Nd0  1  0.125000  0.125000  0.625000  1
  Nd  Nd1  1  0.125000  0.625000  0.125000  1
  Nd  Nd2  1  0.625000  0.125000  0.125000  1
  Bi  Bi3  1  0.125000  0.125000  0.125000  1
  Pt  Pt4  1  0.625000  0.625000  0.125000  1
  Pt  Pt5  1  0.625000  0.125000  0.625000  1
  Pt  Pt6  1  0.125000  0.625000  0.625000  1
  Pt  Pt7  1  0.625000  0.625000  0.625000  1
  O  O8  1  0.250477  0.250477  0.250477  1
  O  O9  1  0.999523  0.999523  0.999523  1
  O  O10  1  0.539442  0.960412  0.539442  1
  O  O11  1  0.290967  0.707734  0.290967  1
  O  O12  1  0.539442  0.539442  0.960412  1
  O  O13  1  0.960412  0.539442  0.539442  1
  O  O14  1  0.542266  0.959033  0.959033  1
  O  O15  1  0.959033  0.959033  0.542266  1
  O  O16  1  0.959033  0.542266  0.959033  1
  O  O17  1  0.707734  0.290967  0.290967  1
  O  O18  1  0.289588  0.710558  0.710558  1
  O  O19  1  0.710558  0.289588  0.710558  1
  O  O20  1  0.290967  0.290967  0.707734  1
  O  O21  1  0.710558  0.710558  0.289588  1
