# generated using pymatgen
data_PrSc6Co6Sn23
_symmetry_space_group_name_H-M   'P 1'
_cell_length_a   9.57094000
_cell_length_b   9.57093985
_cell_length_c   9.80801100
_cell_angle_alpha   90.00000000
_cell_angle_beta   90.00000000
_cell_angle_gamma   120.00000053
_symmetry_Int_Tables_number   1
_chemical_formula_structural   PrSc6Co6Sn23
_chemical_formula_sum   'Pr1 Sc6 Co6 Sn23'
_cell_volume   778.07373249
_cell_formula_units_Z   1
loop_
 _symmetry_equiv_pos_site_id
 _symmetry_equiv_pos_as_xyz
  1  'x, y, z'
loop_
 _atom_site_type_symbol
 _atom_site_label
 _atom_site_symmetry_multiplicity
 _atom_site_fract_x
 _atom_site_fract_y
 _atom_site_fract_z
 _atom_site_occupancy
  Pr  Pr0  1  0.000000  0.000000  0.000000  1
  Sc  Sc1  1  0.517770  0.482230  0.692156  1
  Sc  Sc2  1  0.517770  0.035538  0.692156  1
  Sc  Sc3  1  0.964462  0.482230  0.692156  1
  Sc  Sc4  1  0.035538  0.517770  0.307844  1
  Sc  Sc5  1  0.482230  0.964462  0.307844  1
  Sc  Sc6  1  0.482230  0.517770  0.307844  1
  Co  Co7  1  0.169414  0.830586  0.800867  1
  Co  Co8  1  0.169414  0.338829  0.800867  1
  Co  Co9  1  0.661171  0.830586  0.800867  1
  Co  Co10  1  0.338829  0.169414  0.199133  1
  Co  Co11  1  0.830586  0.661171  0.199133  1
  Co  Co12  1  0.830586  0.169414  0.199133  1
  Sn  Sn13  1  0.666667  0.333333  0.177276  1
  Sn  Sn14  1  0.666667  0.333333  0.863003  1
  Sn  Sn15  1  0.333333  0.666667  0.136997  1
  Sn  Sn16  1  0.349301  0.349301  0.000000  1
  Sn  Sn17  1  0.000000  0.650699  0.000000  1
  Sn  Sn18  1  0.650699  0.000000  0.000000  1
  Sn  Sn19  1  0.650699  0.650699  0.000000  1
  Sn  Sn20  1  0.333333  0.666667  0.822724  1
  Sn  Sn21  1  0.441823  0.220912  0.453315  1
  Sn  Sn22  1  0.220912  0.779088  0.546685  1
  Sn  Sn23  1  0.220912  0.441823  0.546685  1
  Sn  Sn24  1  0.558177  0.779088  0.546685  1
  Sn  Sn25  1  0.122375  0.877625  0.277922  1
  Sn  Sn26  1  0.779088  0.558177  0.453315  1
  Sn  Sn27  1  0.779088  0.220912  0.453315  1
  Sn  Sn28  1  0.349301  0.000000  0.000000  1
  Sn  Sn29  1  0.122375  0.244748  0.277922  1
  Sn  Sn30  1  0.755252  0.877625  0.277922  1
  Sn  Sn31  1  0.244748  0.122375  0.722078  1
  Sn  Sn32  1  0.877625  0.755252  0.722078  1
  Sn  Sn33  1  0.877625  0.122375  0.722078  1
  Sn  Sn34  1  0.000000  0.000000  0.500000  1
  Sn  Sn35  1  0.000000  0.349301  0.000000  1
