# generated using pymatgen
data_Ba6Pr(IrO6)2
_symmetry_space_group_name_H-M   'P 1'
_cell_length_a   9.40821367
_cell_length_b   9.40821198
_cell_length_c   7.45421555
_cell_angle_alpha   67.84713815
_cell_angle_beta   67.84714022
_cell_angle_gamma   36.74161232
_symmetry_Int_Tables_number   1
_chemical_formula_structural   Ba6Pr(IrO6)2
_chemical_formula_sum   'Ba6 Pr1 Ir2 O12'
_cell_volume   362.20763157
_cell_formula_units_Z   1
loop_
 _symmetry_equiv_pos_site_id
 _symmetry_equiv_pos_as_xyz
  1  'x, y, z'
loop_
 _atom_site_type_symbol
 _atom_site_label
 _atom_site_symmetry_multiplicity
 _atom_site_fract_x
 _atom_site_fract_y
 _atom_site_fract_z
 _atom_site_occupancy
  Ba  Ba0  1  0.878180  0.878180  0.714615  1
  Ba  Ba1  1  0.217642  0.217642  0.705757  1
  Ba  Ba2  1  0.550154  0.550154  0.700623  1
  Ba  Ba3  1  0.449846  0.449846  0.299377  1
  Ba  Ba4  1  0.782358  0.782358  0.294243  1
  Ba  Ba5  1  0.121820  0.121820  0.285385  1
  Pr  Pr6  1  0.000000  0.000000  0.000000  1
  Ir  Ir7  1  0.672155  0.672155  0.999376  1
  Ir  Ir8  1  0.327845  0.327845  0.000624  1
  O  O9  1  0.938979  0.938979  0.344198  1
  O  O10  1  0.281031  0.281031  0.305594  1
  O  O11  1  0.618903  0.618903  0.303869  1
  O  O12  1  0.381097  0.381097  0.696131  1
  O  O13  1  0.718969  0.718969  0.694406  1
  O  O14  1  0.061021  0.061021  0.655802  1
  O  O15  1  0.500000  0.000000  0.000000  1
  O  O16  1  0.820894  0.364598  0.998410  1
  O  O17  1  0.179106  0.635402  0.001590  1
  O  O18  1  0.000000  0.500000  0.000000  1
  O  O19  1  0.364598  0.820894  0.998410  1
  O  O20  1  0.635402  0.179106  0.001590  1
