# generated using pymatgen
data_TbY(FeOs)2
_symmetry_space_group_name_H-M   'P 1'
_cell_length_a   5.25086264
_cell_length_b   5.29839237
_cell_length_c   5.29839300
_cell_angle_alpha   59.60076949
_cell_angle_beta   60.29630877
_cell_angle_gamma   60.29630278
_symmetry_Int_Tables_number   1
_chemical_formula_structural   TbY(FeOs)2
_chemical_formula_sum   'Tb1 Y1 Fe2 Os2'
_cell_volume   104.37477363
_cell_formula_units_Z   1
loop_
 _symmetry_equiv_pos_site_id
 _symmetry_equiv_pos_as_xyz
  1  'x, y, z'
loop_
 _atom_site_type_symbol
 _atom_site_label
 _atom_site_symmetry_multiplicity
 _atom_site_fract_x
 _atom_site_fract_y
 _atom_site_fract_z
 _atom_site_occupancy
  Tb  Tb0  1  0.252344  0.247656  0.247656  1
  Y  Y1  1  0.997900  0.002100  0.002100  1
  Fe  Fe2  1  0.125038  0.625045  0.625045  1
  Fe  Fe3  1  0.624873  0.625045  0.625045  1
  Os  Os4  1  0.624922  0.624967  0.125189  1
  Os  Os5  1  0.624922  0.125189  0.624967  1
