# generated using pymatgen
data_Hf12Ta4Fe5Co3N4
_symmetry_space_group_name_H-M   'P 1'
_cell_length_a   8.42966198
_cell_length_b   8.42966103
_cell_length_c   8.42966245
_cell_angle_alpha   59.96956611
_cell_angle_beta   59.96956849
_cell_angle_gamma   59.96956628
_symmetry_Int_Tables_number   1
_chemical_formula_structural   Hf12Ta4Fe5Co3N4
_chemical_formula_sum   'Hf12 Ta4 Fe5 Co3 N4'
_cell_volume   423.26819618
_cell_formula_units_Z   1
loop_
 _symmetry_equiv_pos_site_id
 _symmetry_equiv_pos_as_xyz
  1  'x, y, z'
loop_
 _atom_site_type_symbol
 _atom_site_label
 _atom_site_symmetry_multiplicity
 _atom_site_fract_x
 _atom_site_fract_y
 _atom_site_fract_z
 _atom_site_occupancy
  Hf  Hf0  1  0.813038  0.813038  0.187485  1
  Hf  Hf1  1  0.187743  0.187743  0.811822  1
  Hf  Hf2  1  0.813038  0.187485  0.813038  1
  Hf  Hf3  1  0.187743  0.811822  0.187743  1
  Hf  Hf4  1  0.187485  0.813038  0.813038  1
  Hf  Hf5  1  0.811822  0.187743  0.187743  1
  Hf  Hf6  1  0.438311  0.438311  0.063448  1
  Hf  Hf7  1  0.061383  0.061383  0.438682  1
  Hf  Hf8  1  0.438311  0.063448  0.438311  1
  Hf  Hf9  1  0.061383  0.438682  0.061383  1
  Hf  Hf10  1  0.063448  0.438311  0.438311  1
  Hf  Hf11  1  0.438682  0.061383  0.061383  1
  Ta  Ta12  1  0.123121  0.625632  0.625632  1
  Ta  Ta13  1  0.625632  0.123121  0.625632  1
  Ta  Ta14  1  0.625632  0.625632  0.123121  1
  Ta  Ta15  1  0.625825  0.625825  0.625825  1
  Fe  Fe16  1  0.418494  0.418494  0.418494  1
  Fe  Fe17  1  0.503407  0.832111  0.832111  1
  Fe  Fe18  1  0.832111  0.503407  0.832111  1
  Fe  Fe19  1  0.832111  0.832111  0.503407  1
  Fe  Fe20  1  0.832171  0.832171  0.832171  1
  Co  Co21  1  0.743022  0.418375  0.418375  1
  Co  Co22  1  0.418375  0.743022  0.418375  1
  Co  Co23  1  0.418375  0.418375  0.743022  1
  N  N24  1  0.624861  0.124734  0.124734  1
  N  N25  1  0.124734  0.624861  0.124734  1
  N  N26  1  0.124734  0.124734  0.624861  1
  N  N27  1  0.125006  0.125006  0.125006  1
