# generated using pymatgen
data_HoEr15Ga6FeIr
_symmetry_space_group_name_H-M   'P 1'
_cell_length_a   9.93073401
_cell_length_b   9.93073493
_cell_length_c   6.95736900
_cell_angle_alpha   89.99965967
_cell_angle_beta   89.99980338
_cell_angle_gamma   119.99947744
_symmetry_Int_Tables_number   1
_chemical_formula_structural   HoEr15Ga6FeIr
_chemical_formula_sum   'Ho1 Er15 Ga6 Fe1 Ir1'
_cell_volume   594.21101163
_cell_formula_units_Z   1
loop_
 _symmetry_equiv_pos_site_id
 _symmetry_equiv_pos_as_xyz
  1  'x, y, z'
loop_
 _atom_site_type_symbol
 _atom_site_label
 _atom_site_symmetry_multiplicity
 _atom_site_fract_x
 _atom_site_fract_y
 _atom_site_fract_z
 _atom_site_occupancy
  Ho  Ho0  1  0.000015  0.999981  0.732544  1
  Er  Er1  1  0.173289  0.826725  0.509960  1
  Er  Er2  1  0.653439  0.826715  0.509982  1
  Er  Er3  1  0.173283  0.346570  0.509963  1
  Er  Er4  1  0.828658  0.171346  0.012617  1
  Er  Er5  1  0.342670  0.171340  0.012607  1
  Er  Er6  1  0.828643  0.657333  0.012597  1
  Er  Er7  1  0.333331  0.666653  0.830472  1
  Er  Er8  1  0.666679  0.333297  0.338330  1
  Er  Er9  1  0.462167  0.537837  0.207906  1
  Er  Er10  1  0.075653  0.537850  0.207890  1
  Er  Er11  1  0.462163  0.924334  0.207888  1
  Er  Er12  1  0.534056  0.465932  0.704687  1
  Er  Er13  1  0.931894  0.465948  0.704711  1
  Er  Er14  1  0.534050  0.068101  0.704716  1
  Er  Er15  1  0.000005  0.000010  0.234565  1
  Ga  Ga16  1  0.163713  0.836272  0.957498  1
  Ga  Ga17  1  0.672577  0.836323  0.957510  1
  Ga  Ga18  1  0.163706  0.327421  0.957535  1
  Ga  Ga19  1  0.836446  0.163557  0.456857  1
  Ga  Ga20  1  0.327119  0.163562  0.456831  1
  Ga  Ga21  1  0.836459  0.672895  0.456837  1
  Fe  Fe22  1  0.333329  0.666667  0.446553  1
  Ir  Ir23  1  0.666655  0.333333  0.942987  1
