# generated using pymatgen
data_Eu8Si13Pt3
_symmetry_space_group_name_H-M   'P 1'
_cell_length_a   8.28458600
_cell_length_b   8.28458606
_cell_length_c   8.68073300
_cell_angle_alpha   90.00000000
_cell_angle_beta   90.00000000
_cell_angle_gamma   119.99999978
_symmetry_Int_Tables_number   1
_chemical_formula_structural   Eu8Si13Pt3
_chemical_formula_sum   'Eu8 Si13 Pt3'
_cell_volume   515.97499471
_cell_formula_units_Z   1
loop_
 _symmetry_equiv_pos_site_id
 _symmetry_equiv_pos_as_xyz
  1  'x, y, z'
loop_
 _atom_site_type_symbol
 _atom_site_label
 _atom_site_symmetry_multiplicity
 _atom_site_fract_x
 _atom_site_fract_y
 _atom_site_fract_z
 _atom_site_occupancy
  Eu  Eu0  1  0.000000  0.000000  0.749846  1
  Eu  Eu1  1  0.000000  0.000000  0.250127  1
  Eu  Eu2  1  0.498929  0.501071  0.749659  1
  Eu  Eu3  1  0.498929  0.997858  0.749659  1
  Eu  Eu4  1  0.002142  0.501071  0.749659  1
  Eu  Eu5  1  0.499563  0.500437  0.250385  1
  Eu  Eu6  1  0.000874  0.500437  0.250385  1
  Eu  Eu7  1  0.499563  0.999126  0.250385  1
  Si  Si8  1  0.832731  0.167269  0.999467  1
  Si  Si9  1  0.832731  0.665461  0.999467  1
  Si  Si10  1  0.334539  0.167269  0.999467  1
  Si  Si11  1  0.834253  0.165747  0.500533  1
  Si  Si12  1  0.834253  0.668507  0.500533  1
  Si  Si13  1  0.331493  0.165747  0.500533  1
  Si  Si14  1  0.165700  0.834300  0.499787  1
  Si  Si15  1  0.668602  0.834300  0.499787  1
  Si  Si16  1  0.165700  0.331398  0.499787  1
  Si  Si17  1  0.162926  0.837074  0.000108  1
  Si  Si18  1  0.674147  0.837074  0.000108  1
  Si  Si19  1  0.162926  0.325853  0.000108  1
  Si  Si20  1  0.333333  0.666667  0.000745  1
  Pt  Pt21  1  0.666667  0.333333  0.999524  1
  Pt  Pt22  1  0.666667  0.333333  0.500640  1
  Pt  Pt23  1  0.333333  0.666667  0.499303  1
