# generated using pymatgen
data_Dy8YMg(SiB4)4
_symmetry_space_group_name_H-M   'P 1'
_cell_length_a   7.19003000
_cell_length_b   7.19003000
_cell_length_c   8.00727500
_cell_angle_alpha   90.00000000
_cell_angle_beta   90.00000000
_cell_angle_gamma   90.00000000
_symmetry_Int_Tables_number   1
_chemical_formula_structural   Dy8YMg(SiB4)4
_chemical_formula_sum   'Dy8 Y1 Mg1 Si4 B16'
_cell_volume   413.94834347
_cell_formula_units_Z   1
loop_
 _symmetry_equiv_pos_site_id
 _symmetry_equiv_pos_as_xyz
  1  'x, y, z'
loop_
 _atom_site_type_symbol
 _atom_site_label
 _atom_site_symmetry_multiplicity
 _atom_site_fract_x
 _atom_site_fract_y
 _atom_site_fract_z
 _atom_site_occupancy
  Dy  Dy0  1  0.682067  0.179880  0.228550  1
  Dy  Dy1  1  0.317933  0.820120  0.771450  1
  Dy  Dy2  1  0.317933  0.820120  0.228550  1
  Dy  Dy3  1  0.820120  0.682067  0.228550  1
  Dy  Dy4  1  0.820120  0.682067  0.771450  1
  Dy  Dy5  1  0.682067  0.179880  0.771450  1
  Dy  Dy6  1  0.179880  0.317933  0.771450  1
  Dy  Dy7  1  0.179880  0.317933  0.228550  1
  Y  Y8  1  0.500000  0.500000  0.500000  1
  Mg  Mg9  1  0.000000  0.000000  0.500000  1
  Si  Si10  1  0.114639  0.616385  0.500000  1
  Si  Si11  1  0.885361  0.383615  0.500000  1
  Si  Si12  1  0.383615  0.114639  0.500000  1
  Si  Si13  1  0.616385  0.885361  0.500000  1
  B  B14  1  0.174329  0.038453  0.000000  1
  B  B15  1  0.825671  0.961547  0.000000  1
  B  B16  1  0.961547  0.174329  0.000000  1
  B  B17  1  0.327094  0.539553  0.000000  1
  B  B18  1  0.038453  0.825671  0.000000  1
  B  B19  1  0.672906  0.460447  0.000000  1
  B  B20  1  0.539553  0.672906  0.000000  1
  B  B21  1  0.460447  0.327094  0.000000  1
  B  B22  1  0.089343  0.588468  0.000000  1
  B  B23  1  0.910657  0.411532  0.000000  1
  B  B24  1  0.411532  0.089343  0.000000  1
  B  B25  1  0.588468  0.910657  0.000000  1
  B  B26  1  0.000000  0.000000  0.158836  1
  B  B27  1  0.000000  0.000000  0.841164  1
  B  B28  1  0.500000  0.500000  0.837367  1
  B  B29  1  0.500000  0.500000  0.162633  1
