# generated using pymatgen
data_Ba3TcN3
_symmetry_space_group_name_H-M   'P 1'
_cell_length_a   8.35644400
_cell_length_b   8.35644405
_cell_length_c   5.64256600
_cell_angle_alpha   90.00000000
_cell_angle_beta   90.00000000
_cell_angle_gamma   119.99999769
_symmetry_Int_Tables_number   1
_chemical_formula_structural   Ba3TcN3
_chemical_formula_sum   'Ba6 Tc2 N6'
_cell_volume   341.23243580
_cell_formula_units_Z   2
loop_
 _symmetry_equiv_pos_site_id
 _symmetry_equiv_pos_as_xyz
  1  'x, y, z'
loop_
 _atom_site_type_symbol
 _atom_site_label
 _atom_site_symmetry_multiplicity
 _atom_site_fract_x
 _atom_site_fract_y
 _atom_site_fract_z
 _atom_site_occupancy
  Ba  Ba0  1  0.639112  0.730067  0.750000  1
  Ba  Ba1  1  0.909044  0.639112  0.250000  1
  Ba  Ba2  1  0.730067  0.090956  0.250000  1
  Ba  Ba3  1  0.269933  0.909044  0.750000  1
  Ba  Ba4  1  0.090956  0.360888  0.750000  1
  Ba  Ba5  1  0.360888  0.269933  0.250000  1
  Tc  Tc6  1  0.666667  0.333333  0.750000  1
  Tc  Tc7  1  0.333333  0.666667  0.250000  1
  N  N8  1  0.562311  0.684335  0.250000  1
  N  N9  1  0.877976  0.562311  0.750000  1
  N  N10  1  0.684335  0.122024  0.750000  1
  N  N11  1  0.315665  0.877976  0.250000  1
  N  N12  1  0.122024  0.437689  0.250000  1
  N  N13  1  0.437689  0.315665  0.750000  1
