# generated using pymatgen
data_YHoAl20Ru3Rh
_symmetry_space_group_name_H-M   'P 1'
_cell_length_a   6.83606609
_cell_length_b   6.84482973
_cell_length_c   9.13604100
_cell_angle_alpha   90.13782061
_cell_angle_beta   90.16471467
_cell_angle_gamma   96.75021815
_symmetry_Int_Tables_number   1
_chemical_formula_structural   YHoAl20Ru3Rh
_chemical_formula_sum   'Y1 Ho1 Al20 Ru3 Rh1'
_cell_volume   424.52422952
_cell_formula_units_Z   1
loop_
 _symmetry_equiv_pos_site_id
 _symmetry_equiv_pos_as_xyz
  1  'x, y, z'
loop_
 _atom_site_type_symbol
 _atom_site_label
 _atom_site_symmetry_multiplicity
 _atom_site_fract_x
 _atom_site_fract_y
 _atom_site_fract_z
 _atom_site_occupancy
  Y  Y0  1  0.871114  0.127140  0.750614  1
  Ho  Ho1  1  0.129005  0.872800  0.249287  1
  Al  Al2  1  0.620639  0.376265  0.550793  1
  Al  Al3  1  0.379170  0.623892  0.448925  1
  Al  Al4  1  0.377326  0.623334  0.049661  1
  Al  Al5  1  0.622515  0.376829  0.950607  1
  Al  Al6  1  0.226936  0.225201  0.499034  1
  Al  Al7  1  0.773206  0.774663  0.500574  1
  Al  Al8  1  0.774393  0.774831  0.999975  1
  Al  Al9  1  0.225731  0.225052  0.000398  1
  Al  Al10  1  0.844466  0.156130  0.099868  1
  Al  Al11  1  0.155789  0.843648  0.900380  1
  Al  Al12  1  0.157478  0.844645  0.601106  1
  Al  Al13  1  0.842762  0.155097  0.398645  1
  Al  Al14  1  0.857988  0.587472  0.750880  1
  Al  Al15  1  0.142241  0.412945  0.249147  1
  Al  Al16  1  0.412266  0.141143  0.750459  1
  Al  Al17  1  0.587317  0.858647  0.249540  1
  Al  Al18  1  0.222614  0.480891  0.752623  1
  Al  Al19  1  0.777696  0.519441  0.247393  1
  Al  Al20  1  0.518897  0.779365  0.749810  1
  Al  Al21  1  0.480766  0.220350  0.250186  1
  Ru  Ru22  1  0.000078  0.500215  0.000194  1
  Ru  Ru23  1  0.499796  0.999947  0.000208  1
  Ru  Ru24  1  0.499786  0.999929  0.499787  1
  Rh  Rh25  1  0.000029  0.500125  0.499907  1
