# generated using pymatgen
data_LaPr(Lu2Rh9)2
_symmetry_space_group_name_H-M   'P 1'
_cell_length_a   5.27789300
_cell_length_b   5.28079462
_cell_length_c   17.45872800
_cell_angle_alpha   90.00000000
_cell_angle_beta   90.00000000
_cell_angle_gamma   119.97574835
_symmetry_Int_Tables_number   1
_chemical_formula_structural   LaPr(Lu2Rh9)2
_chemical_formula_sum   'La1 Pr1 Lu4 Rh18'
_cell_volume   421.51124847
_cell_formula_units_Z   1
loop_
 _symmetry_equiv_pos_site_id
 _symmetry_equiv_pos_as_xyz
  1  'x, y, z'
loop_
 _atom_site_type_symbol
 _atom_site_label
 _atom_site_symmetry_multiplicity
 _atom_site_fract_x
 _atom_site_fract_y
 _atom_site_fract_z
 _atom_site_occupancy
  La  La0  1  0.666679  0.333308  0.250000  1
  Pr  Pr1  1  0.333337  0.666679  0.750000  1
  Lu  Lu2  1  0.333334  0.666681  0.541651  1
  Lu  Lu3  1  0.666663  0.333339  0.040042  1
  Lu  Lu4  1  0.666663  0.333339  0.459958  1
  Lu  Lu5  1  0.333334  0.666681  0.958349  1
  Rh  Rh6  1  0.167720  0.335445  0.122891  1
  Rh  Rh7  1  0.832287  0.664554  0.624345  1
  Rh  Rh8  1  0.664520  0.832244  0.122881  1
  Rh  Rh9  1  0.167733  0.832241  0.122883  1
  Rh  Rh10  1  0.832283  0.167721  0.624343  1
  Rh  Rh11  1  0.335439  0.167740  0.624340  1
  Rh  Rh12  1  0.832287  0.664554  0.875655  1
  Rh  Rh13  1  0.832283  0.167721  0.875657  1
  Rh  Rh14  1  0.335439  0.167740  0.875660  1
  Rh  Rh15  1  0.664520  0.832244  0.377119  1
  Rh  Rh16  1  0.167733  0.832241  0.377117  1
  Rh  Rh17  1  0.167720  0.335445  0.377109  1
  Rh  Rh18  1  0.000068  0.000128  0.250000  1
  Rh  Rh19  1  0.999964  0.999942  0.750000  1
  Rh  Rh20  1  0.333322  0.666553  0.250000  1
  Rh  Rh21  1  0.666666  0.333365  0.750000  1
  Rh  Rh22  1  0.000005  0.000050  0.999322  1
  Rh  Rh23  1  0.000005  0.000050  0.500678  1
