# generated using pymatgen
data_Pr10Zn4RuRh5
_symmetry_space_group_name_H-M   'P 1'
_cell_length_a   8.63599633
_cell_length_b   8.63599632
_cell_length_c   8.60410300
_cell_angle_alpha   109.19529908
_cell_angle_beta   109.63753771
_cell_angle_gamma   109.73056018
_symmetry_Int_Tables_number   1
_chemical_formula_structural   Pr10Zn4RuRh5
_chemical_formula_sum   'Pr10 Zn4 Ru1 Rh5'
_cell_volume   493.05498921
_cell_formula_units_Z   1
loop_
 _symmetry_equiv_pos_site_id
 _symmetry_equiv_pos_as_xyz
  1  'x, y, z'
loop_
 _atom_site_type_symbol
 _atom_site_label
 _atom_site_symmetry_multiplicity
 _atom_site_fract_x
 _atom_site_fract_y
 _atom_site_fract_z
 _atom_site_occupancy
  Pr  Pr0  1  0.251368  0.682962  0.436297  1
  Pr  Pr1  1  0.746665  0.815071  0.063703  1
  Pr  Pr2  1  0.434472  0.250554  0.685065  1
  Pr  Pr3  1  0.683801  0.433801  0.250000  1
  Pr  Pr4  1  0.065489  0.749407  0.814935  1
  Pr  Pr5  1  0.815383  0.065383  0.750000  1
  Pr  Pr6  1  0.223304  0.223624  0.223361  1
  Pr  Pr7  1  0.500264  0.999943  0.276639  1
  Pr  Pr8  1  0.277805  0.502338  0.998392  1
  Pr  Pr9  1  0.003946  0.279413  0.501608  1
  Zn  Zn10  1  0.593184  0.593503  0.595725  1
  Zn  Zn11  1  0.497778  0.997459  0.904275  1
  Zn  Zn12  1  0.905671  0.499859  0.000717  1
  Zn  Zn13  1  0.999142  0.904954  0.499283  1
  Ru  Ru14  1  0.370554  0.620554  0.750000  1
  Rh  Rh15  1  0.250028  0.130426  0.880260  1
  Rh  Rh16  1  0.750166  0.369768  0.619740  1
  Rh  Rh17  1  0.878339  0.250350  0.127497  1
  Rh  Rh18  1  0.129787  0.879786  0.250000  1
  Rh  Rh19  1  0.622854  0.750844  0.372503  1
