# generated using pymatgen
data_Tb2Dy3Y(AlC3)2
_symmetry_space_group_name_H-M   'P 1'
_cell_length_a   3.58390000
_cell_length_b   7.07754514
_cell_length_c   10.00104003
_cell_angle_alpha   89.96290319
_cell_angle_beta   90.00000000
_cell_angle_gamma   90.00000000
_symmetry_Int_Tables_number   1
_chemical_formula_structural   Tb2Dy3Y(AlC3)2
_chemical_formula_sum   'Tb2 Dy3 Y1 Al2 C6'
_cell_volume   253.67846773
_cell_formula_units_Z   1
loop_
 _symmetry_equiv_pos_site_id
 _symmetry_equiv_pos_as_xyz
  1  'x, y, z'
loop_
 _atom_site_type_symbol
 _atom_site_label
 _atom_site_symmetry_multiplicity
 _atom_site_fract_x
 _atom_site_fract_y
 _atom_site_fract_z
 _atom_site_occupancy
  Tb  Tb0  1  0.000000  0.749871  0.458944  1
  Tb  Tb1  1  0.000000  0.250057  0.541403  1
  Dy  Dy2  1  0.500000  0.510880  0.199915  1
  Dy  Dy3  1  0.500000  0.488865  0.800110  1
  Dy  Dy4  1  0.500000  0.989073  0.199691  1
  Y  Y5  1  0.500000  0.009906  0.800530  1
  Al  Al6  1  0.000000  0.750049  0.005873  1
  Al  Al7  1  0.000000  0.250053  0.994106  1
  C  C8  1  0.500000  0.508972  0.565931  1
  C  C9  1  0.500000  0.490944  0.433972  1
  C  C10  1  0.500000  0.990871  0.565676  1
  C  C11  1  0.500000  0.009022  0.433872  1
  C  C12  1  0.000000  0.750113  0.208130  1
  C  C13  1  0.000000  0.251323  0.791850  1
