# generated using pymatgen
data_Co3Si4NiRu4
_symmetry_space_group_name_H-M   'P 1'
_cell_length_a   3.75796000
_cell_length_b   5.51981801
_cell_length_c   6.97726957
_cell_angle_alpha   90.19265928
_cell_angle_beta   90.00000000
_cell_angle_gamma   90.00000000
_symmetry_Int_Tables_number   1
_chemical_formula_structural   Co3Si4NiRu4
_chemical_formula_sum   'Co3 Si4 Ni1 Ru4'
_cell_volume   144.73046570
_cell_formula_units_Z   1
loop_
 _symmetry_equiv_pos_site_id
 _symmetry_equiv_pos_as_xyz
  1  'x, y, z'
loop_
 _atom_site_type_symbol
 _atom_site_label
 _atom_site_symmetry_multiplicity
 _atom_site_fract_x
 _atom_site_fract_y
 _atom_site_fract_z
 _atom_site_occupancy
  Co  Co0  1  0.000000  0.149543  0.438171  1
  Co  Co1  1  0.500000  0.347239  0.938270  1
  Co  Co2  1  0.500000  0.851712  0.560907  1
  Si  Si3  1  0.000000  0.244857  0.116646  1
  Si  Si4  1  0.000000  0.745053  0.385493  1
  Si  Si5  1  0.500000  0.752790  0.880751  1
  Si  Si6  1  0.500000  0.254708  0.617038  1
  Ni  Ni7  1  0.000000  0.651227  0.062491  1
  Ru  Ru8  1  0.000000  0.530229  0.692433  1
  Ru  Ru9  1  0.000000  0.029697  0.806238  1
  Ru  Ru10  1  0.500000  0.470169  0.309041  1
  Ru  Ru11  1  0.500000  0.972776  0.192519  1
