# generated using pymatgen
data_Cs2Cu(BrCl)2
_symmetry_space_group_name_H-M   'P 1'
_cell_length_a   9.38167586
_cell_length_b   9.38167526
_cell_length_c   7.63967000
_cell_angle_alpha   90.00000000
_cell_angle_beta   90.00000000
_cell_angle_gamma   131.87337984
_symmetry_Int_Tables_number   1
_chemical_formula_structural   Cs2Cu(BrCl)2
_chemical_formula_sum   'Cs4 Cu2 Br4 Cl4'
_cell_volume   500.69255653
_cell_formula_units_Z   2
loop_
 _symmetry_equiv_pos_site_id
 _symmetry_equiv_pos_as_xyz
  1  'x, y, z'
loop_
 _atom_site_type_symbol
 _atom_site_label
 _atom_site_symmetry_multiplicity
 _atom_site_fract_x
 _atom_site_fract_y
 _atom_site_fract_z
 _atom_site_occupancy
  Cs  Cs0  1  0.865161  0.134839  0.500000  1
  Cs  Cs1  1  0.365161  0.634839  0.000000  1
  Cs  Cs2  1  0.134839  0.865161  0.500000  1
  Cs  Cs3  1  0.634839  0.365161  0.000000  1
  Cu  Cu4  1  0.000000  0.000000  0.000000  1
  Cu  Cu5  1  0.500000  0.500000  0.500000  1
  Br  Br6  1  0.851215  0.148785  0.000000  1
  Br  Br7  1  0.148785  0.851215  0.000000  1
  Br  Br8  1  0.351215  0.648785  0.500000  1
  Br  Br9  1  0.648785  0.351215  0.500000  1
  Cl  Cl10  1  0.790914  0.790914  0.209005  1
  Cl  Cl11  1  0.209086  0.209086  0.790995  1
  Cl  Cl12  1  0.290914  0.290914  0.290995  1
  Cl  Cl13  1  0.709086  0.709086  0.709005  1
