# generated using pymatgen
data_CeDy4As12Ru19
_symmetry_space_group_name_H-M   'P 1'
_cell_length_a   13.00506600
_cell_length_b   13.00506504
_cell_length_c   4.07876300
_cell_angle_alpha   90.00000000
_cell_angle_beta   90.00000000
_cell_angle_gamma   119.99999736
_symmetry_Int_Tables_number   1
_chemical_formula_structural   CeDy4As12Ru19
_chemical_formula_sum   'Ce1 Dy4 As12 Ru19'
_cell_volume   597.42611560
_cell_formula_units_Z   1
loop_
 _symmetry_equiv_pos_site_id
 _symmetry_equiv_pos_as_xyz
  1  'x, y, z'
loop_
 _atom_site_type_symbol
 _atom_site_label
 _atom_site_symmetry_multiplicity
 _atom_site_fract_x
 _atom_site_fract_y
 _atom_site_fract_z
 _atom_site_occupancy
  Ce  Ce0  1  0.666667  0.333333  0.000000  1
  Dy  Dy1  1  0.184286  0.184124  0.500000  1
  Dy  Dy2  1  0.815876  0.000162  0.500000  1
  Dy  Dy3  1  0.999838  0.815714  0.500000  1
  Dy  Dy4  1  0.333333  0.666667  0.000000  1
  As  As5  1  0.817165  0.818273  0.000000  1
  As  As6  1  0.181727  0.998892  0.000000  1
  As  As7  1  0.001108  0.182835  0.000000  1
  As  As8  1  0.169678  0.480690  0.500000  1
  As  As9  1  0.519310  0.688988  0.500000  1
  As  As10  1  0.311012  0.830322  0.500000  1
  As  As11  1  0.688570  0.521602  0.500000  1
  As  As12  1  0.833033  0.311430  0.500000  1
  As  As13  1  0.478398  0.166967  0.500000  1
  As  As14  1  0.370681  0.370892  0.000000  1
  As  As15  1  0.629108  0.999789  0.000000  1
  As  As16  1  0.000211  0.629319  0.000000  1
  Ru  Ru17  1  0.557618  0.556829  0.000000  1
  Ru  Ru18  1  0.443171  0.000789  0.000000  1
  Ru  Ru19  1  0.999211  0.442382  0.000000  1
  Ru  Ru20  1  0.716812  0.717893  0.500000  1
  Ru  Ru21  1  0.282107  0.998919  0.500000  1
  Ru  Ru22  1  0.001081  0.283188  0.500000  1
  Ru  Ru23  1  0.183988  0.377823  0.000000  1
  Ru  Ru24  1  0.622177  0.806165  0.000000  1
  Ru  Ru25  1  0.193835  0.816012  0.000000  1
  Ru  Ru26  1  0.806243  0.623159  0.000000  1
  Ru  Ru27  1  0.816916  0.193757  0.000000  1
  Ru  Ru28  1  0.376841  0.183084  0.000000  1
  Ru  Ru29  1  0.362876  0.486684  0.500000  1
  Ru  Ru30  1  0.513316  0.876190  0.500000  1
  Ru  Ru31  1  0.123810  0.637124  0.500000  1
  Ru  Ru32  1  0.874856  0.513137  0.500000  1
  Ru  Ru33  1  0.638281  0.125144  0.500000  1
  Ru  Ru34  1  0.486863  0.361719  0.500000  1
  Ru  Ru35  1  0.000000  0.000000  0.000000  1
