# generated using pymatgen
data_La3Nd3(AlPd5)2
_symmetry_space_group_name_H-M   'P 1'
_cell_length_a   8.49845586
_cell_length_b   8.47664000
_cell_length_c   8.47664000
_cell_angle_alpha   127.47920186
_cell_angle_beta   126.20695811
_cell_angle_gamma   78.45238673
_symmetry_Int_Tables_number   1
_chemical_formula_structural   La3Nd3(AlPd5)2
_chemical_formula_sum   'La3 Nd3 Al2 Pd10'
_cell_volume   378.72596556
_cell_formula_units_Z   1
loop_
 _symmetry_equiv_pos_site_id
 _symmetry_equiv_pos_as_xyz
  1  'x, y, z'
loop_
 _atom_site_type_symbol
 _atom_site_label
 _atom_site_symmetry_multiplicity
 _atom_site_fract_x
 _atom_site_fract_y
 _atom_site_fract_z
 _atom_site_occupancy
  La  La0  1  0.372693  0.249399  0.123294  1
  La  La1  1  0.775400  0.547778  0.227621  1
  La  La2  1  0.627212  0.750219  0.876992  1
  Nd  Nd3  1  0.820073  0.047646  0.772426  1
  Nd  Nd4  1  0.222166  0.451492  0.770675  1
  Nd  Nd5  1  0.179579  0.952003  0.227576  1
  Al  Al6  1  0.218696  0.750570  0.468127  1
  Al  Al7  1  0.783166  0.249854  0.533312  1
  Pd  Pd8  1  0.832288  0.600853  0.642672  1
  Pd  Pd9  1  0.540661  0.308908  0.639738  1
  Pd  Pd10  1  0.457571  0.099554  0.767520  1
  Pd  Pd11  1  0.832288  0.189617  0.231436  1
  Pd  Pd12  1  0.168695  0.400057  0.358504  1
  Pd  Pd13  1  0.457571  0.690052  0.358017  1
  Pd  Pd14  1  0.540661  0.900924  0.231753  1
  Pd  Pd15  1  0.168695  0.810191  0.768639  1
  Pd  Pd16  1  0.001291  0.000964  0.501370  1
  Pd  Pd17  1  0.001291  0.499921  0.000329  1
