# generated using pymatgen
data_La8Pd23PtPb
_symmetry_space_group_name_H-M   'P 1'
_cell_length_a   8.65867000
_cell_length_b   8.63862400
_cell_length_c   8.64416500
_cell_angle_alpha   90.00000000
_cell_angle_beta   90.00000000
_cell_angle_gamma   90.00000000
_symmetry_Int_Tables_number   1
_chemical_formula_structural   La8Pd23PtPb
_chemical_formula_sum   'La8 Pd23 Pt1 Pb1'
_cell_volume   646.57485003
_cell_formula_units_Z   1
loop_
 _symmetry_equiv_pos_site_id
 _symmetry_equiv_pos_as_xyz
  1  'x, y, z'
loop_
 _atom_site_type_symbol
 _atom_site_label
 _atom_site_symmetry_multiplicity
 _atom_site_fract_x
 _atom_site_fract_y
 _atom_site_fract_z
 _atom_site_occupancy
  La  La0  1  0.251924  0.252503  0.251305  1
  La  La1  1  0.748180  0.748205  0.747692  1
  La  La2  1  0.748180  0.748205  0.252308  1
  La  La3  1  0.748180  0.251795  0.747692  1
  La  La4  1  0.251924  0.252503  0.748695  1
  La  La5  1  0.251924  0.747497  0.251305  1
  La  La6  1  0.251924  0.747497  0.748695  1
  La  La7  1  0.748180  0.251795  0.252308  1
  Pd  Pd8  1  0.729906  0.500000  0.000000  1
  Pd  Pd9  1  0.999994  0.270254  0.500000  1
  Pd  Pd10  1  0.500107  0.270630  0.000000  1
  Pd  Pd11  1  0.999994  0.729746  0.500000  1
  Pd  Pd12  1  0.500107  0.729370  0.000000  1
  Pd  Pd13  1  0.500208  0.000000  0.270758  1
  Pd  Pd14  1  0.270608  0.000000  0.500000  1
  Pd  Pd15  1  0.500208  0.000000  0.729242  1
  Pd  Pd16  1  0.729816  0.000000  0.500000  1
  Pd  Pd17  1  0.999352  0.500000  0.271091  1
  Pd  Pd18  1  0.999352  0.500000  0.728909  1
  Pd  Pd19  1  0.256620  0.500000  0.500000  1
  Pd  Pd20  1  0.743057  0.500000  0.500000  1
  Pd  Pd21  1  0.500119  0.256865  0.500000  1
  Pd  Pd22  1  0.500119  0.743135  0.500000  1
  Pd  Pd23  1  0.500101  0.500000  0.256405  1
  Pd  Pd24  1  0.500101  0.500000  0.743595  1
  Pd  Pd25  1  0.325410  0.000000  0.000000  1
  Pd  Pd26  1  0.675003  0.000000  0.000000  1
  Pd  Pd27  1  0.999606  0.325222  0.000000  1
  Pd  Pd28  1  0.999606  0.674778  0.000000  1
  Pd  Pd29  1  0.000103  0.000000  0.324841  1
  Pd  Pd30  1  0.000103  0.000000  0.675159  1
  Pt  Pt31  1  0.269397  0.500000  0.000000  1
  Pb  Pb32  1  0.000594  0.000000  0.000000  1
