# generated using pymatgen
data_NdHo9(Bi2As)2
_symmetry_space_group_name_H-M   'P 1'
_cell_length_a   8.07024300
_cell_length_b   9.16291100
_cell_length_c   12.06668000
_cell_angle_alpha   90.00000000
_cell_angle_beta   90.00000000
_cell_angle_gamma   90.00000000
_symmetry_Int_Tables_number   1
_chemical_formula_structural   NdHo9(Bi2As)2
_chemical_formula_sum   'Nd2 Ho18 Bi8 As4'
_cell_volume   892.29380080
_cell_formula_units_Z   2
loop_
 _symmetry_equiv_pos_site_id
 _symmetry_equiv_pos_as_xyz
  1  'x, y, z'
loop_
 _atom_site_type_symbol
 _atom_site_label
 _atom_site_symmetry_multiplicity
 _atom_site_fract_x
 _atom_site_fract_y
 _atom_site_fract_z
 _atom_site_occupancy
  Nd  Nd0  1  0.160379  0.750000  0.214225  1
  Nd  Nd1  1  0.339621  0.750000  0.714225  1
  Ho  Ho2  1  0.818984  0.555901  0.062641  1
  Ho  Ho3  1  0.681016  0.944099  0.562641  1
  Ho  Ho4  1  0.183070  0.057068  0.937603  1
  Ho  Ho5  1  0.316930  0.442932  0.437603  1
  Ho  Ho6  1  0.183070  0.442932  0.937603  1
  Ho  Ho7  1  0.316930  0.057068  0.437603  1
  Ho  Ho8  1  0.818984  0.944099  0.062641  1
  Ho  Ho9  1  0.681016  0.555901  0.562641  1
  Ho  Ho10  1  0.844533  0.250000  0.790034  1
  Ho  Ho11  1  0.655467  0.250000  0.290034  1
  Ho  Ho12  1  0.466970  0.750000  0.000231  1
  Ho  Ho13  1  0.033030  0.750000  0.500231  1
  Ho  Ho14  1  0.537149  0.250000  0.000256  1
  Ho  Ho15  1  0.962851  0.250000  0.500256  1
  Ho  Ho16  1  0.638524  0.750000  0.291521  1
  Ho  Ho17  1  0.861476  0.750000  0.791521  1
  Ho  Ho18  1  0.365938  0.250000  0.707560  1
  Ho  Ho19  1  0.134062  0.250000  0.207560  1
  Bi  Bi20  1  0.921253  0.507000  0.328269  1
  Bi  Bi21  1  0.578747  0.993000  0.828269  1
  Bi  Bi22  1  0.070576  0.011987  0.672404  1
  Bi  Bi23  1  0.429424  0.488013  0.172404  1
  Bi  Bi24  1  0.070576  0.488013  0.672404  1
  Bi  Bi25  1  0.429424  0.011987  0.172404  1
  Bi  Bi26  1  0.921253  0.993000  0.328269  1
  Bi  Bi27  1  0.578747  0.507000  0.828269  1
  As  As28  1  0.411025  0.750000  0.473104  1
  As  As29  1  0.088975  0.750000  0.973104  1
  As  As30  1  0.585675  0.250000  0.521236  1
  As  As31  1  0.914325  0.250000  0.021236  1
