# generated using pymatgen
data_Nd2CuSi8Ni17
_symmetry_space_group_name_H-M   'P 1'
_cell_length_a   7.94462039
_cell_length_b   7.94462041
_cell_length_c   7.96046983
_cell_angle_alpha   120.74132899
_cell_angle_beta   121.36355214
_cell_angle_gamma   88.06949015
_symmetry_Int_Tables_number   1
_chemical_formula_structural   Nd2CuSi8Ni17
_chemical_formula_sum   'Nd2 Cu1 Si8 Ni17'
_cell_volume   349.77131390
_cell_formula_units_Z   1
loop_
 _symmetry_equiv_pos_site_id
 _symmetry_equiv_pos_as_xyz
  1  'x, y, z'
loop_
 _atom_site_type_symbol
 _atom_site_label
 _atom_site_symmetry_multiplicity
 _atom_site_fract_x
 _atom_site_fract_y
 _atom_site_fract_z
 _atom_site_occupancy
  Nd  Nd0  1  0.749871  0.749664  0.999479  1
  Nd  Nd1  1  0.249814  0.249608  0.999479  1
  Cu  Cu2  1  0.801301  0.067713  0.869014  1
  Si  Si3  1  0.288296  0.789007  0.841296  1
  Si  Si4  1  0.052289  0.552999  0.841296  1
  Si  Si5  1  0.547377  0.704734  0.490242  1
  Si  Si6  1  0.785508  0.942865  0.490242  1
  Si  Si7  1  0.447722  0.287321  0.500767  1
  Si  Si8  1  0.948421  0.454260  0.163887  1
  Si  Si9  1  0.709626  0.215465  0.163887  1
  Si  Si10  1  0.213446  0.053045  0.500767  1
  Ni  Ni11  1  0.428873  0.703520  0.132393  1
  Ni  Ni12  1  0.701948  0.567396  0.269344  1
  Ni  Ni13  1  0.297680  0.432132  0.729812  1
  Ni  Ni14  1  0.929578  0.794376  0.723954  1
  Ni  Ni15  1  0.569906  0.295150  0.865056  1
  Ni  Ni16  1  0.316929  0.554383  0.501547  1
  Ni  Ni17  1  0.054096  0.816860  0.499965  1
  Ni  Ni18  1  0.683105  0.445869  0.499965  1
  Ni  Ni19  1  0.947164  0.184618  0.501547  1
  Ni  Ni20  1  0.447733  0.946548  0.764089  1
  Ni  Ni21  1  0.184450  0.686034  0.238634  1
  Ni  Ni22  1  0.552600  0.054184  0.238634  1
  Ni  Ni23  1  0.201689  0.932004  0.133693  1
  Ni  Ni24  1  0.069974  0.205757  0.275731  1
  Ni  Ni25  1  0.000496  0.500584  0.501080  1
  Ni  Ni26  1  0.502566  0.997546  0.500112  1
  Ni  Ni27  1  0.817541  0.316356  0.764089  1
