# generated using pymatgen
data_TbErNi7
_symmetry_space_group_name_H-M   'P 1'
_cell_length_a   4.91513806
_cell_length_b   4.91513758
_cell_length_c   12.32325935
_cell_angle_alpha   78.49665553
_cell_angle_beta   78.49665473
_cell_angle_gamma   59.99999937
_symmetry_Int_Tables_number   1
_chemical_formula_structural   TbErNi7
_chemical_formula_sum   'Tb2 Er2 Ni14'
_cell_volume   250.89752304
_cell_formula_units_Z   2
loop_
 _symmetry_equiv_pos_site_id
 _symmetry_equiv_pos_as_xyz
  1  'x, y, z'
loop_
 _atom_site_type_symbol
 _atom_site_label
 _atom_site_symmetry_multiplicity
 _atom_site_fract_x
 _atom_site_fract_y
 _atom_site_fract_z
 _atom_site_occupancy
  Tb  Tb0  1  0.949173  0.949173  0.152480  1
  Tb  Tb1  1  0.050827  0.050827  0.847520  1
  Er  Er2  1  0.852686  0.852686  0.441943  1
  Er  Er3  1  0.147314  0.147314  0.558057  1
  Ni  Ni4  1  0.500000  0.500000  0.500000  1
  Ni  Ni5  1  0.721861  0.721861  0.834417  1
  Ni  Ni6  1  0.278139  0.278139  0.165583  1
  Ni  Ni7  1  0.611601  0.611601  0.165197  1
  Ni  Ni8  1  0.388399  0.388399  0.834803  1
  Ni  Ni9  1  0.000000  0.500000  0.000000  1
  Ni  Ni10  1  0.500000  0.000000  0.000000  1
  Ni  Ni11  1  0.500000  0.500000  0.000000  1
  Ni  Ni12  1  0.389286  0.389286  0.330046  1
  Ni  Ni13  1  0.891381  0.389286  0.330046  1
  Ni  Ni14  1  0.389286  0.891381  0.330046  1
  Ni  Ni15  1  0.610714  0.610714  0.669954  1
  Ni  Ni16  1  0.108619  0.610714  0.669954  1
  Ni  Ni17  1  0.610714  0.108619  0.669954  1
