# generated using pymatgen
data_Rb2HfSc(CuSe3)2
_symmetry_space_group_name_H-M   'P 1'
_cell_length_a   8.09515572
_cell_length_b   8.09515703
_cell_length_c   10.27280100
_cell_angle_alpha   89.99926391
_cell_angle_beta   90.00073609
_cell_angle_gamma   152.48378647
_symmetry_Int_Tables_number   1
_chemical_formula_structural   Rb2HfSc(CuSe3)2
_chemical_formula_sum   'Rb2 Hf1 Sc1 Cu2 Se6'
_cell_volume   311.01473183
_cell_formula_units_Z   1
loop_
 _symmetry_equiv_pos_site_id
 _symmetry_equiv_pos_as_xyz
  1  'x, y, z'
loop_
 _atom_site_type_symbol
 _atom_site_label
 _atom_site_symmetry_multiplicity
 _atom_site_fract_x
 _atom_site_fract_y
 _atom_site_fract_z
 _atom_site_occupancy
  Rb  Rb0  1  0.748393  0.251607  0.255787  1
  Rb  Rb1  1  0.251607  0.748393  0.744213  1
  Hf  Hf2  1  0.000000  0.000000  0.000000  1
  Sc  Sc3  1  0.000000  0.000000  0.500000  1
  Cu  Cu4  1  0.532686  0.467314  0.749602  1
  Cu  Cu5  1  0.467314  0.532686  0.250398  1
  Se  Se6  1  0.616797  0.383203  0.553969  1
  Se  Se7  1  0.383203  0.616797  0.446031  1
  Se  Se8  1  0.062984  0.937016  0.245510  1
  Se  Se9  1  0.937016  0.062984  0.754490  1
  Se  Se10  1  0.616280  0.383720  0.949277  1
  Se  Se11  1  0.383720  0.616280  0.050723  1
