# generated using pymatgen
data_Ba4PrNd3(DySe4)4
_symmetry_space_group_name_H-M   'P 1'
_cell_length_a   4.28935100
_cell_length_b   12.97207575
_cell_length_c   15.44212990
_cell_angle_alpha   90.03905098
_cell_angle_beta   90.00000000
_cell_angle_gamma   90.00000000
_symmetry_Int_Tables_number   1
_chemical_formula_structural   Ba4PrNd3(DySe4)4
_chemical_formula_sum   'Ba4 Pr1 Nd3 Dy4 Se16'
_cell_volume   859.22748913
_cell_formula_units_Z   1
loop_
 _symmetry_equiv_pos_site_id
 _symmetry_equiv_pos_as_xyz
  1  'x, y, z'
loop_
 _atom_site_type_symbol
 _atom_site_label
 _atom_site_symmetry_multiplicity
 _atom_site_fract_x
 _atom_site_fract_y
 _atom_site_fract_z
 _atom_site_occupancy
  Ba  Ba0  1  0.250000  0.758525  0.339210  1
  Ba  Ba1  1  0.250000  0.258565  0.160876  1
  Ba  Ba2  1  0.750000  0.241645  0.660620  1
  Ba  Ba3  1  0.750000  0.741302  0.839186  1
  Pr  Pr4  1  0.750000  0.071808  0.890237  1
  Nd  Nd5  1  0.250000  0.428718  0.390101  1
  Nd  Nd6  1  0.250000  0.928569  0.110048  1
  Nd  Nd7  1  0.750000  0.571311  0.609904  1
  Dy  Dy8  1  0.250000  0.424047  0.900358  1
  Dy  Dy9  1  0.250000  0.923818  0.599459  1
  Dy  Dy10  1  0.750000  0.576132  0.099611  1
  Dy  Dy11  1  0.750000  0.076083  0.400386  1
  Se  Se12  1  0.250000  0.215605  0.828364  1
  Se  Se13  1  0.250000  0.714547  0.671001  1
  Se  Se14  1  0.750000  0.785448  0.170998  1
  Se  Se15  1  0.750000  0.285455  0.328985  1
  Se  Se16  1  0.250000  0.126528  0.522416  1
  Se  Se17  1  0.250000  0.626506  0.977623  1
  Se  Se18  1  0.750000  0.873458  0.477501  1
  Se  Se19  1  0.750000  0.373378  0.022365  1
  Se  Se20  1  0.250000  0.521487  0.212371  1
  Se  Se21  1  0.250000  0.021485  0.287656  1
  Se  Se22  1  0.750000  0.478560  0.787606  1
  Se  Se23  1  0.750000  0.978184  0.711897  1
  Se  Se24  1  0.250000  0.415981  0.580093  1
  Se  Se25  1  0.250000  0.914924  0.920155  1
  Se  Se26  1  0.750000  0.584027  0.419895  1
  Se  Se27  1  0.750000  0.083905  0.081079  1
