# generated using pymatgen
data_Ho(NbC)5
_symmetry_space_group_name_H-M   'P 1'
_cell_length_a   5.61006527
_cell_length_b   5.61006517
_cell_length_c   5.57895494
_cell_angle_alpha   81.01872064
_cell_angle_beta   81.01871577
_cell_angle_gamma   120.38344465
_symmetry_Int_Tables_number   1
_chemical_formula_structural   Ho(NbC)5
_chemical_formula_sum   'Ho1 Nb5 C5'
_cell_volume   143.80736283
_cell_formula_units_Z   1
loop_
 _symmetry_equiv_pos_site_id
 _symmetry_equiv_pos_as_xyz
  1  'x, y, z'
loop_
 _atom_site_type_symbol
 _atom_site_label
 _atom_site_symmetry_multiplicity
 _atom_site_fract_x
 _atom_site_fract_y
 _atom_site_fract_z
 _atom_site_occupancy
  Ho  Ho0  1  0.751259  0.751259  0.748579  1
  Nb  Nb1  1  0.260736  0.260736  0.262231  1
  Nb  Nb2  1  0.089238  0.446242  0.742247  1
  Nb  Nb3  1  0.554731  0.907988  0.254477  1
  Nb  Nb4  1  0.907988  0.554731  0.254477  1
  Nb  Nb5  1  0.446242  0.089238  0.742247  1
  C  C6  1  0.492546  0.492546  0.495648  1
  C  C7  1  0.661698  0.318083  0.009560  1
  C  C8  1  0.318083  0.661698  0.009560  1
  C  C9  1  0.836986  0.180493  0.490487  1
  C  C10  1  0.180493  0.836986  0.490487  1
