# generated using pymatgen
data_Cs3Dy2(SbS3)3
_symmetry_space_group_name_H-M   'P 1'
_cell_length_a   13.68865290
_cell_length_b   13.68865289
_cell_length_c   9.41889248
_cell_angle_alpha   84.34476017
_cell_angle_beta   84.34476247
_cell_angle_gamma   140.16938873
_symmetry_Int_Tables_number   1
_chemical_formula_structural   Cs3Dy2(SbS3)3
_chemical_formula_sum   'Cs6 Dy4 Sb6 S18'
_cell_volume   1082.11896917
_cell_formula_units_Z   2
loop_
 _symmetry_equiv_pos_site_id
 _symmetry_equiv_pos_as_xyz
  1  'x, y, z'
loop_
 _atom_site_type_symbol
 _atom_site_label
 _atom_site_symmetry_multiplicity
 _atom_site_fract_x
 _atom_site_fract_y
 _atom_site_fract_z
 _atom_site_occupancy
  Cs  Cs0  1  0.420304  0.579696  0.500000  1
  Cs  Cs1  1  0.579696  0.420304  0.500000  1
  Cs  Cs2  1  0.021603  0.454778  0.235117  1
  Cs  Cs3  1  0.454778  0.021603  0.235117  1
  Cs  Cs4  1  0.978397  0.545222  0.764883  1
  Cs  Cs5  1  0.545222  0.978397  0.764883  1
  Dy  Dy6  1  0.424697  0.575303  0.000000  1
  Dy  Dy7  1  0.575303  0.424697  0.000000  1
  Dy  Dy8  1  0.923450  0.076550  0.500000  1
  Dy  Dy9  1  0.076550  0.923450  0.500000  1
  Sb  Sb10  1  0.035475  0.278905  0.838632  1
  Sb  Sb11  1  0.278905  0.035475  0.838632  1
  Sb  Sb12  1  0.964525  0.721095  0.161368  1
  Sb  Sb13  1  0.721095  0.964525  0.161368  1
  Sb  Sb14  1  0.878294  0.878294  0.872919  1
  Sb  Sb15  1  0.121706  0.121706  0.127081  1
  S  S16  1  0.122050  0.122050  0.622754  1
  S  S17  1  0.877950  0.877950  0.377246  1
  S  S18  1  0.808822  0.191178  0.000000  1
  S  S19  1  0.191178  0.808822  0.000000  1
  S  S20  1  0.248110  0.555727  0.844090  1
  S  S21  1  0.555727  0.248110  0.844090  1
  S  S22  1  0.751890  0.444273  0.155910  1
  S  S23  1  0.444273  0.751890  0.155910  1
  S  S24  1  0.993367  0.307434  0.599985  1
  S  S25  1  0.307434  0.993367  0.599985  1
  S  S26  1  0.006633  0.692566  0.400015  1
  S  S27  1  0.692566  0.006633  0.400015  1
  S  S28  1  0.369620  0.369620  0.883271  1
  S  S29  1  0.630380  0.630380  0.116729  1
  S  S30  1  0.697954  0.849030  0.772402  1
  S  S31  1  0.849030  0.697954  0.772402  1
  S  S32  1  0.302046  0.150970  0.227598  1
  S  S33  1  0.150970  0.302046  0.227598  1
