# generated using pymatgen
data_Dy9Ho2ScPb10
_symmetry_space_group_name_H-M   'P 1'
_cell_length_a   11.74851067
_cell_length_b   11.74726275
_cell_length_c   11.75824554
_cell_angle_alpha   147.48206472
_cell_angle_beta   132.64236418
_cell_angle_gamma   58.53307432
_symmetry_Int_Tables_number   1
_chemical_formula_structural   Dy9Ho2ScPb10
_chemical_formula_sum   'Dy9 Ho2 Sc1 Pb10'
_cell_volume   636.71075735
_cell_formula_units_Z   1
loop_
 _symmetry_equiv_pos_site_id
 _symmetry_equiv_pos_as_xyz
  1  'x, y, z'
loop_
 _atom_site_type_symbol
 _atom_site_label
 _atom_site_symmetry_multiplicity
 _atom_site_fract_x
 _atom_site_fract_y
 _atom_site_fract_z
 _atom_site_occupancy
  Dy  Dy0  1  0.696308  0.946376  0.250011  1
  Dy  Dy1  1  0.251910  0.639687  0.610911  1
  Dy  Dy2  1  0.674896  0.940925  0.733469  1
  Dy  Dy3  1  0.028709  0.140978  0.889011  1
  Dy  Dy4  1  0.970522  0.858154  0.110863  1
  Dy  Dy5  1  0.792607  0.559837  0.233550  1
  Dy  Dy6  1  0.207600  0.441445  0.766670  1
  Dy  Dy7  1  0.303585  0.053580  0.750040  1
  Dy  Dy8  1  0.326197  0.059044  0.266372  1
  Ho  Ho9  1  0.304058  0.554031  0.249982  1
  Ho  Ho10  1  0.747224  0.359668  0.389119  1
  Sc  Sc11  1  0.694762  0.444776  0.749985  1
  Pb  Pb12  1  0.479457  0.569689  0.895171  1
  Pb  Pb13  1  0.598376  0.786379  0.798734  1
  Pb  Pb14  1  0.674482  0.084276  0.604793  1
  Pb  Pb15  1  0.000240  0.749973  0.749692  1
  Pb  Pb16  1  0.987450  0.299716  0.700998  1
  Pb  Pb17  1  0.524107  0.424330  0.099252  1
  Pb  Pb18  1  0.006410  0.702002  0.296391  1
  Pb  Pb19  1  0.405647  0.210019  0.203598  1
  Pb  Pb20  1  0.325541  0.924886  0.401135  1
  Pb  Pb21  1  0.999912  0.250228  0.250255  1
