# generated using pymatgen
data_TbEr3Zn4(PdRh)2
_symmetry_space_group_name_H-M   'P 1'
_cell_length_a   4.01801300
_cell_length_b   7.01673060
_cell_length_c   8.19938483
_cell_angle_alpha   89.96534260
_cell_angle_beta   90.00000000
_cell_angle_gamma   90.00000000
_symmetry_Int_Tables_number   1
_chemical_formula_structural   TbEr3Zn4(PdRh)2
_chemical_formula_sum   'Tb1 Er3 Zn4 Pd2 Rh2'
_cell_volume   231.16779525
_cell_formula_units_Z   1
loop_
 _symmetry_equiv_pos_site_id
 _symmetry_equiv_pos_as_xyz
  1  'x, y, z'
loop_
 _atom_site_type_symbol
 _atom_site_label
 _atom_site_symmetry_multiplicity
 _atom_site_fract_x
 _atom_site_fract_y
 _atom_site_fract_z
 _atom_site_occupancy
  Tb  Tb0  1  0.750000  0.951843  0.692153  1
  Er  Er1  1  0.250000  0.541137  0.181020  1
  Er  Er2  1  0.750000  0.458845  0.819764  1
  Er  Er3  1  0.250000  0.048737  0.306546  1
  Zn  Zn4  1  0.250000  0.135202  0.937370  1
  Zn  Zn5  1  0.750000  0.865222  0.063802  1
  Zn  Zn6  1  0.250000  0.638188  0.567617  1
  Zn  Zn7  1  0.750000  0.361169  0.431849  1
  Pd  Pd8  1  0.750000  0.746722  0.378798  1
  Pd  Pd9  1  0.250000  0.254145  0.620120  1
  Rh  Rh10  1  0.750000  0.251279  0.120971  1
  Rh  Rh11  1  0.250000  0.747510  0.879989  1
