# generated using pymatgen
data_K2Nb6PbCl18
_symmetry_space_group_name_H-M   'P 1'
_cell_length_a   10.38908191
_cell_length_b   10.38908198
_cell_length_c   10.38908274
_cell_angle_alpha   54.53987850
_cell_angle_beta   54.53987447
_cell_angle_gamma   54.53987898
_symmetry_Int_Tables_number   1
_chemical_formula_structural   K2Nb6PbCl18
_chemical_formula_sum   'K2 Nb6 Pb1 Cl18'
_cell_volume   691.98111254
_cell_formula_units_Z   1
loop_
 _symmetry_equiv_pos_site_id
 _symmetry_equiv_pos_as_xyz
  1  'x, y, z'
loop_
 _atom_site_type_symbol
 _atom_site_label
 _atom_site_symmetry_multiplicity
 _atom_site_fract_x
 _atom_site_fract_y
 _atom_site_fract_z
 _atom_site_occupancy
  K  K0  1  0.221687  0.221687  0.221687  1
  K  K1  1  0.778313  0.778313  0.778313  1
  Nb  Nb2  1  0.925783  0.792109  0.146083  1
  Nb  Nb3  1  0.074217  0.207891  0.853917  1
  Nb  Nb4  1  0.146083  0.925783  0.792109  1
  Nb  Nb5  1  0.853917  0.074217  0.207891  1
  Nb  Nb6  1  0.792109  0.146083  0.925783  1
  Nb  Nb7  1  0.207891  0.853917  0.074217  1
  Pb  Pb8  1  0.500000  0.500000  0.500000  1
  Cl  Cl9  1  0.161495  0.478059  0.671614  1
  Cl  Cl10  1  0.926265  0.082776  0.668636  1
  Cl  Cl11  1  0.331364  0.073735  0.917224  1
  Cl  Cl12  1  0.668636  0.926265  0.082776  1
  Cl  Cl13  1  0.584283  0.258535  0.157126  1
  Cl  Cl14  1  0.082776  0.668636  0.926265  1
  Cl  Cl15  1  0.671614  0.161495  0.478059  1
  Cl  Cl16  1  0.741465  0.842874  0.415717  1
  Cl  Cl17  1  0.415717  0.741465  0.842874  1
  Cl  Cl18  1  0.328386  0.838505  0.521941  1
  Cl  Cl19  1  0.258535  0.157126  0.584283  1
  Cl  Cl20  1  0.842874  0.415717  0.741465  1
  Cl  Cl21  1  0.073735  0.917224  0.331364  1
  Cl  Cl22  1  0.521941  0.328386  0.838505  1
  Cl  Cl23  1  0.157126  0.584283  0.258535  1
  Cl  Cl24  1  0.917224  0.331364  0.073735  1
  Cl  Cl25  1  0.838505  0.521941  0.328386  1
  Cl  Cl26  1  0.478059  0.671614  0.161495  1
