# generated using pymatgen
data_Tm2P7(IrRu5)2
_symmetry_space_group_name_H-M   'P 1'
_cell_length_a   9.38657402
_cell_length_b   9.45137635
_cell_length_c   3.94627900
_cell_angle_alpha   90.00000000
_cell_angle_beta   90.00000000
_cell_angle_gamma   120.14248120
_symmetry_Int_Tables_number   1
_chemical_formula_structural   Tm2P7(IrRu5)2
_chemical_formula_sum   'Tm2 P7 Ir2 Ru10'
_cell_volume   302.75774389
_cell_formula_units_Z   1
loop_
 _symmetry_equiv_pos_site_id
 _symmetry_equiv_pos_as_xyz
  1  'x, y, z'
loop_
 _atom_site_type_symbol
 _atom_site_label
 _atom_site_symmetry_multiplicity
 _atom_site_fract_x
 _atom_site_fract_y
 _atom_site_fract_z
 _atom_site_occupancy
  Tm  Tm0  1  0.668454  0.333745  0.500000  1
  Tm  Tm1  1  0.330477  0.665382  0.000000  1
  P  P2  1  0.599784  0.716894  0.500000  1
  P  P3  1  0.000511  0.000808  0.000000  1
  P  P4  1  0.277646  0.878447  0.500000  1
  P  P5  1  0.114568  0.402729  0.500000  1
  P  P6  1  0.884354  0.575883  0.000000  1
  P  P7  1  0.425798  0.303531  0.000000  1
  P  P8  1  0.697724  0.119985  0.000000  1
  Ir  Ir9  1  0.549976  0.941141  0.500000  1
  Ir  Ir10  1  0.389966  0.447575  0.500000  1
  Ru  Ru11  1  0.913941  0.126093  0.500000  1
  Ru  Ru12  1  0.214613  0.087721  0.500000  1
  Ru  Ru13  1  0.874390  0.790806  0.500000  1
  Ru  Ru14  1  0.726129  0.891847  0.000000  1
  Ru  Ru15  1  0.109533  0.837847  0.000000  1
  Ru  Ru16  1  0.166687  0.272360  0.000000  1
  Ru  Ru17  1  0.432091  0.067034  0.000000  1
  Ru  Ru18  1  0.935431  0.361996  0.000000  1
  Ru  Ru19  1  0.637714  0.569824  0.000000  1
  Ru  Ru20  1  0.050215  0.608351  0.500000  1
