# generated using pymatgen
data_YbGa2(SiO4)2
_symmetry_space_group_name_H-M   'P 1'
_cell_length_a   5.18631300
_cell_length_b   5.18631465
_cell_length_c   15.06340300
_cell_angle_alpha   89.99990833
_cell_angle_beta   90.00000000
_cell_angle_gamma   60.00001688
_symmetry_Int_Tables_number   1
_chemical_formula_structural   YbGa2(SiO4)2
_chemical_formula_sum   'Yb2 Ga4 Si4 O16'
_cell_volume   350.89031832
_cell_formula_units_Z   2
loop_
 _symmetry_equiv_pos_site_id
 _symmetry_equiv_pos_as_xyz
  1  'x, y, z'
loop_
 _atom_site_type_symbol
 _atom_site_label
 _atom_site_symmetry_multiplicity
 _atom_site_fract_x
 _atom_site_fract_y
 _atom_site_fract_z
 _atom_site_occupancy
  Yb  Yb0  1  0.000000  0.000000  0.500000  1
  Yb  Yb1  1  0.000000  0.000000  0.000000  1
  Ga  Ga2  1  0.666648  0.666666  0.641758  1
  Ga  Ga3  1  0.333352  0.333334  0.358242  1
  Ga  Ga4  1  0.666685  0.666666  0.141758  1
  Ga  Ga5  1  0.333315  0.333334  0.858242  1
  Si  Si6  1  0.333314  0.333332  0.633606  1
  Si  Si7  1  0.666686  0.666668  0.366394  1
  Si  Si8  1  0.333353  0.333332  0.133606  1
  Si  Si9  1  0.666647  0.666668  0.866394  1
  O  O10  1  0.360267  0.022284  0.594112  1
  O  O11  1  0.022268  0.617432  0.594114  1
  O  O12  1  0.617416  0.360279  0.594115  1
  O  O13  1  0.639733  0.977716  0.405888  1
  O  O14  1  0.977732  0.382568  0.405886  1
  O  O15  1  0.382584  0.639721  0.405885  1
  O  O16  1  0.617449  0.022284  0.094112  1
  O  O17  1  0.022304  0.360279  0.094115  1
  O  O18  1  0.360300  0.617432  0.094114  1
  O  O19  1  0.382551  0.977716  0.905888  1
  O  O20  1  0.977696  0.639721  0.905885  1
  O  O21  1  0.639700  0.382568  0.905886  1
  O  O22  1  0.666629  0.666674  0.760537  1
  O  O23  1  0.333303  0.333326  0.739463  1
  O  O24  1  0.333371  0.333326  0.239463  1
  O  O25  1  0.666697  0.666674  0.260537  1
