# generated using pymatgen
data_LaNdPdSe3
_symmetry_space_group_name_H-M   'P 1'
_cell_length_a   7.12062243
_cell_length_b   7.12062290
_cell_length_c   10.61309600
_cell_angle_alpha   90.00000000
_cell_angle_beta   90.00000000
_cell_angle_gamma   146.30458496
_symmetry_Int_Tables_number   1
_chemical_formula_structural   LaNdPdSe3
_chemical_formula_sum   'La2 Nd2 Pd2 Se6'
_cell_volume   298.53630333
_cell_formula_units_Z   2
loop_
 _symmetry_equiv_pos_site_id
 _symmetry_equiv_pos_as_xyz
  1  'x, y, z'
loop_
 _atom_site_type_symbol
 _atom_site_label
 _atom_site_symmetry_multiplicity
 _atom_site_fract_x
 _atom_site_fract_y
 _atom_site_fract_z
 _atom_site_occupancy
  La  La0  1  0.745906  0.254094  0.250000  1
  La  La1  1  0.254094  0.745906  0.750000  1
  Nd  Nd2  1  0.500000  0.500000  0.000000  1
  Nd  Nd3  1  0.500000  0.500000  0.500000  1
  Pd  Pd4  1  0.027554  0.972445  0.250000  1
  Pd  Pd5  1  0.972445  0.027554  0.750000  1
  Se  Se6  1  0.152346  0.847654  0.066083  1
  Se  Se7  1  0.405470  0.594529  0.250000  1
  Se  Se8  1  0.152346  0.847654  0.433917  1
  Se  Se9  1  0.847654  0.152346  0.566083  1
  Se  Se10  1  0.594529  0.405470  0.750000  1
  Se  Se11  1  0.847654  0.152346  0.933917  1
