# generated using pymatgen
data_TbEr7(InPt)2
_symmetry_space_group_name_H-M   'P 1'
_cell_length_a   9.65531860
_cell_length_b   9.65531968
_cell_length_c   9.65302200
_cell_angle_alpha   60.00786484
_cell_angle_beta   60.00786113
_cell_angle_gamma   59.98425819
_symmetry_Int_Tables_number   1
_chemical_formula_structural   TbEr7(InPt)2
_chemical_formula_sum   'Tb2 Er14 In4 Pt4'
_cell_volume   636.32862983
_cell_formula_units_Z   2
loop_
 _symmetry_equiv_pos_site_id
 _symmetry_equiv_pos_as_xyz
  1  'x, y, z'
loop_
 _atom_site_type_symbol
 _atom_site_label
 _atom_site_symmetry_multiplicity
 _atom_site_fract_x
 _atom_site_fract_y
 _atom_site_fract_z
 _atom_site_occupancy
  Tb  Tb0  1  0.563627  0.563627  0.936373  1
  Tb  Tb1  1  0.936373  0.936373  0.563627  1
  Er  Er2  1  0.350913  0.350913  0.350804  1
  Er  Er3  1  0.350913  0.350913  0.947371  1
  Er  Er4  1  0.350804  0.947371  0.350913  1
  Er  Er5  1  0.947371  0.350804  0.350913  1
  Er  Er6  1  0.810778  0.189222  0.189222  1
  Er  Er7  1  0.189222  0.810778  0.810778  1
  Er  Er8  1  0.189222  0.810778  0.189222  1
  Er  Er9  1  0.810778  0.189222  0.810778  1
  Er  Er10  1  0.189301  0.189301  0.810699  1
  Er  Er11  1  0.810699  0.810699  0.189301  1
  Er  Er12  1  0.938035  0.561965  0.561965  1
  Er  Er13  1  0.561965  0.938035  0.938035  1
  Er  Er14  1  0.561965  0.938035  0.561965  1
  Er  Er15  1  0.938035  0.561965  0.938035  1
  In  In16  1  0.583233  0.583233  0.582286  1
  In  In17  1  0.583233  0.583233  0.251246  1
  In  In18  1  0.582286  0.251246  0.583233  1
  In  In19  1  0.251246  0.582286  0.583233  1
  Pt  Pt20  1  0.143265  0.143265  0.142182  1
  Pt  Pt21  1  0.143265  0.143265  0.571289  1
  Pt  Pt22  1  0.142182  0.571289  0.143265  1
  Pt  Pt23  1  0.571289  0.142182  0.143265  1
