# generated using pymatgen
data_Er2Al8GaIr2Pd
_symmetry_space_group_name_H-M   'P 1'
_cell_length_a   7.55546135
_cell_length_b   7.55546938
_cell_length_c   9.45222600
_cell_angle_alpha   90.00000000
_cell_angle_beta   90.00000000
_cell_angle_gamma   119.47914541
_symmetry_Int_Tables_number   1
_chemical_formula_structural   Er2Al8GaIr2Pd
_chemical_formula_sum   'Er4 Al16 Ga2 Ir4 Pd2'
_cell_volume   469.72395397
_cell_formula_units_Z   2
loop_
 _symmetry_equiv_pos_site_id
 _symmetry_equiv_pos_as_xyz
  1  'x, y, z'
loop_
 _atom_site_type_symbol
 _atom_site_label
 _atom_site_symmetry_multiplicity
 _atom_site_fract_x
 _atom_site_fract_y
 _atom_site_fract_z
 _atom_site_occupancy
  Er  Er0  1  0.995303  0.673290  0.250000  1
  Er  Er1  1  0.004697  0.326710  0.750000  1
  Er  Er2  1  0.673294  0.995302  0.250000  1
  Er  Er3  1  0.326706  0.004698  0.750000  1
  Al  Al4  1  0.001078  0.339001  0.076389  1
  Al  Al5  1  0.998922  0.660999  0.923611  1
  Al  Al6  1  0.998922  0.660999  0.576389  1
  Al  Al7  1  0.339001  0.001078  0.423610  1
  Al  Al8  1  0.001078  0.339001  0.423611  1
  Al  Al9  1  0.660999  0.998922  0.576390  1
  Al  Al10  1  0.660999  0.998922  0.923610  1
  Al  Al11  1  0.339001  0.001078  0.076390  1
  Al  Al12  1  0.336874  0.336874  0.557186  1
  Al  Al13  1  0.663126  0.663126  0.442814  1
  Al  Al14  1  0.663126  0.663126  0.057186  1
  Al  Al15  1  0.336874  0.336874  0.942814  1
  Al  Al16  1  0.337102  0.549774  0.250000  1
  Al  Al17  1  0.662898  0.450226  0.750000  1
  Al  Al18  1  0.549774  0.337102  0.250000  1
  Al  Al19  1  0.450226  0.662898  0.750000  1
  Ga  Ga20  1  0.134508  0.134508  0.250000  1
  Ga  Ga21  1  0.865492  0.865492  0.750000  1
  Ir  Ir22  1  0.671844  0.328158  0.000000  1
  Ir  Ir23  1  0.328156  0.671842  0.000000  1
  Ir  Ir24  1  0.328156  0.671842  0.500000  1
  Ir  Ir25  1  0.671844  0.328158  0.500000  1
  Pd  Pd26  1  0.000000  0.000000  0.000000  1
  Pd  Pd27  1  0.000000  0.000000  0.500000  1
