# generated using pymatgen
data_Ho5Tl2Os
_symmetry_space_group_name_H-M   'P 1'
_cell_length_a   7.65748300
_cell_length_b   9.10103300
_cell_length_c   12.47151200
_cell_angle_alpha   90.00000000
_cell_angle_beta   90.00000000
_cell_angle_gamma   90.00000000
_symmetry_Int_Tables_number   1
_chemical_formula_structural   Ho5Tl2Os
_chemical_formula_sum   'Ho20 Tl8 Os4'
_cell_volume   869.15221114
_cell_formula_units_Z   4
loop_
 _symmetry_equiv_pos_site_id
 _symmetry_equiv_pos_as_xyz
  1  'x, y, z'
loop_
 _atom_site_type_symbol
 _atom_site_label
 _atom_site_symmetry_multiplicity
 _atom_site_fract_x
 _atom_site_fract_y
 _atom_site_fract_z
 _atom_site_occupancy
  Ho  Ho0  1  0.846344  0.750000  0.781723  1
  Ho  Ho1  1  0.153656  0.250000  0.218277  1
  Ho  Ho2  1  0.346344  0.250000  0.718277  1
  Ho  Ho3  1  0.653656  0.750000  0.281723  1
  Ho  Ho4  1  0.384610  0.750000  0.691067  1
  Ho  Ho5  1  0.615390  0.250000  0.308933  1
  Ho  Ho6  1  0.884610  0.250000  0.808933  1
  Ho  Ho7  1  0.115390  0.750000  0.191067  1
  Ho  Ho8  1  0.952940  0.750000  0.502431  1
  Ho  Ho9  1  0.047060  0.250000  0.497569  1
  Ho  Ho10  1  0.452940  0.250000  0.997569  1
  Ho  Ho11  1  0.547060  0.750000  0.002431  1
  Ho  Ho12  1  0.674392  0.035012  0.572909  1
  Ho  Ho13  1  0.325608  0.964988  0.427091  1
  Ho  Ho14  1  0.174392  0.964988  0.927091  1
  Ho  Ho15  1  0.325608  0.535012  0.427091  1
  Ho  Ho16  1  0.825608  0.035012  0.072909  1
  Ho  Ho17  1  0.674392  0.464988  0.572909  1
  Ho  Ho18  1  0.825608  0.464988  0.072909  1
  Ho  Ho19  1  0.174392  0.535012  0.927091  1
  Tl  Tl20  1  0.580182  0.493582  0.833397  1
  Tl  Tl21  1  0.419818  0.506418  0.166603  1
  Tl  Tl22  1  0.080182  0.506418  0.666603  1
  Tl  Tl23  1  0.419818  0.993582  0.166603  1
  Tl  Tl24  1  0.919818  0.493582  0.333397  1
  Tl  Tl25  1  0.580182  0.006418  0.833397  1
  Tl  Tl26  1  0.919818  0.006418  0.333397  1
  Tl  Tl27  1  0.080182  0.993582  0.666603  1
  Os  Os28  1  0.576372  0.750000  0.501669  1
  Os  Os29  1  0.423628  0.250000  0.498331  1
  Os  Os30  1  0.076372  0.250000  0.998331  1
  Os  Os31  1  0.923628  0.750000  0.001669  1
