# generated using pymatgen
data_YHo3Ag4
_symmetry_space_group_name_H-M   'P 1'
_cell_length_a   6.27959926
_cell_length_b   6.27959997
_cell_length_c   10.35838800
_cell_angle_alpha   90.00000000
_cell_angle_beta   90.00000000
_cell_angle_gamma   110.67420874
_symmetry_Int_Tables_number   1
_chemical_formula_structural   YHo3Ag4
_chemical_formula_sum   'Y2 Ho6 Ag8'
_cell_volume   382.16218556
_cell_formula_units_Z   2
loop_
 _symmetry_equiv_pos_site_id
 _symmetry_equiv_pos_as_xyz
  1  'x, y, z'
loop_
 _atom_site_type_symbol
 _atom_site_label
 _atom_site_symmetry_multiplicity
 _atom_site_fract_x
 _atom_site_fract_y
 _atom_site_fract_z
 _atom_site_occupancy
  Y  Y0  1  0.997865  0.997865  0.250000  1
  Y  Y1  1  0.002135  0.002135  0.750000  1
  Ho  Ho2  1  0.500453  0.500453  0.250000  1
  Ho  Ho3  1  0.499547  0.499547  0.750000  1
  Ho  Ho4  1  0.251337  0.748663  0.500000  1
  Ho  Ho5  1  0.251337  0.748663  0.000000  1
  Ho  Ho6  1  0.748663  0.251337  0.500000  1
  Ho  Ho7  1  0.748663  0.251337  0.000000  1
  Ag  Ag8  1  0.248327  0.248327  0.001278  1
  Ag  Ag9  1  0.751673  0.751673  0.998722  1
  Ag  Ag10  1  0.248327  0.248327  0.498722  1
  Ag  Ag11  1  0.751673  0.751673  0.501278  1
  Ag  Ag12  1  0.497544  0.000953  0.250000  1
  Ag  Ag13  1  0.999047  0.502456  0.750000  1
  Ag  Ag14  1  0.502456  0.999047  0.750000  1
  Ag  Ag15  1  0.000953  0.497544  0.250000  1
