# generated using pymatgen
data_Sr4Tm2TaWO12
_symmetry_space_group_name_H-M   'P 1'
_cell_length_a   5.84179234
_cell_length_b   5.87605725
_cell_length_c   8.26132358
_cell_angle_alpha   89.56573722
_cell_angle_beta   90.13616181
_cell_angle_gamma   90.01419632
_symmetry_Int_Tables_number   1
_chemical_formula_structural   Sr4Tm2TaWO12
_chemical_formula_sum   'Sr4 Tm2 Ta1 W1 O12'
_cell_volume   283.57507372
_cell_formula_units_Z   1
loop_
 _symmetry_equiv_pos_site_id
 _symmetry_equiv_pos_as_xyz
  1  'x, y, z'
loop_
 _atom_site_type_symbol
 _atom_site_label
 _atom_site_symmetry_multiplicity
 _atom_site_fract_x
 _atom_site_fract_y
 _atom_site_fract_z
 _atom_site_occupancy
  Sr  Sr0  1  0.492164  0.534090  0.249826  1
  Sr  Sr1  1  0.007895  0.035012  0.249646  1
  Sr  Sr2  1  0.992106  0.964988  0.750355  1
  Sr  Sr3  1  0.507836  0.465910  0.750175  1
  Tm  Tm4  1  0.500000  0.000000  0.000000  1
  Tm  Tm5  1  0.000000  0.499999  0.500000  1
  Ta  Ta6  1  0.500001  0.000000  0.500000  1
  W  W7  1  0.000000  0.499999  0.000000  1
  O  O8  1  0.276327  0.298441  0.038421  1
  O  O9  1  0.201702  0.772510  0.045061  1
  O  O10  1  0.922360  0.483839  0.237345  1
  O  O11  1  0.578036  0.980556  0.263144  1
  O  O12  1  0.299752  0.274187  0.457207  1
  O  O13  1  0.227584  0.797737  0.460773  1
  O  O14  1  0.772417  0.202263  0.539226  1
  O  O15  1  0.700248  0.725813  0.542793  1
  O  O16  1  0.421965  0.019444  0.736856  1
  O  O17  1  0.077641  0.516161  0.762655  1
  O  O18  1  0.798298  0.227490  0.954940  1
  O  O19  1  0.723672  0.701559  0.961579  1
