# generated using pymatgen
data_Rb3Na2TiAs3
_symmetry_space_group_name_H-M   'P 1'
_cell_length_a   10.87519848
_cell_length_b   10.87519810
_cell_length_c   15.83233200
_cell_angle_alpha   90.00000000
_cell_angle_beta   90.00000000
_cell_angle_gamma   142.62228348
_symmetry_Int_Tables_number   1
_chemical_formula_structural   Rb3Na2TiAs3
_chemical_formula_sum   'Rb12 Na8 Ti4 As12'
_cell_volume   1136.72591402
_cell_formula_units_Z   4
loop_
 _symmetry_equiv_pos_site_id
 _symmetry_equiv_pos_as_xyz
  1  'x, y, z'
loop_
 _atom_site_type_symbol
 _atom_site_label
 _atom_site_symmetry_multiplicity
 _atom_site_fract_x
 _atom_site_fract_y
 _atom_site_fract_z
 _atom_site_occupancy
  Rb  Rb0  1  0.942259  0.606301  0.825180  1
  Rb  Rb1  1  0.557741  0.893699  0.325180  1
  Rb  Rb2  1  0.393699  0.057741  0.174820  1
  Rb  Rb3  1  0.057741  0.393699  0.174820  1
  Rb  Rb4  1  0.893699  0.557741  0.325180  1
  Rb  Rb5  1  0.442259  0.106301  0.674820  1
  Rb  Rb6  1  0.606301  0.942259  0.825180  1
  Rb  Rb7  1  0.272340  0.272340  0.317276  1
  Rb  Rb8  1  0.772340  0.772340  0.182724  1
  Rb  Rb9  1  0.227660  0.227660  0.817276  1
  Rb  Rb10  1  0.727660  0.727660  0.682724  1
  Rb  Rb11  1  0.106301  0.442259  0.674820  1
  Na  Na12  1  0.920431  0.079569  0.000000  1
  Na  Na13  1  0.579569  0.420431  0.500000  1
  Na  Na14  1  0.079569  0.920431  0.000000  1
  Na  Na15  1  0.420431  0.579569  0.500000  1
  Na  Na16  1  0.754781  0.245219  0.000000  1
  Na  Na17  1  0.745219  0.254781  0.500000  1
  Na  Na18  1  0.245219  0.754781  0.000000  1
  Na  Na19  1  0.254781  0.745219  0.500000  1
  Ti  Ti20  1  0.584229  0.415771  0.000000  1
  Ti  Ti21  1  0.915771  0.084229  0.500000  1
  Ti  Ti22  1  0.415771  0.584229  0.000000  1
  Ti  Ti23  1  0.084229  0.915771  0.500000  1
  As  As24  1  0.860817  0.554090  0.093231  1
  As  As25  1  0.445910  0.139183  0.906769  1
  As  As26  1  0.639183  0.945910  0.593231  1
  As  As27  1  0.945910  0.639183  0.593231  1
  As  As28  1  0.139183  0.445910  0.906769  1
  As  As29  1  0.554090  0.860817  0.093231  1
  As  As30  1  0.360817  0.054090  0.406769  1
  As  As31  1  0.192781  0.192781  0.583627  1
  As  As32  1  0.692781  0.692781  0.916373  1
  As  As33  1  0.307219  0.307219  0.083627  1
  As  As34  1  0.054090  0.360817  0.406769  1
  As  As35  1  0.807219  0.807219  0.416373  1
