# generated using pymatgen
data_TbHo7In2IrPd
_symmetry_space_group_name_H-M   'P 1'
_cell_length_a   9.64785064
_cell_length_b   9.67936798
_cell_length_c   9.68339861
_cell_angle_alpha   60.16888626
_cell_angle_beta   60.04217935
_cell_angle_gamma   60.01706108
_symmetry_Int_Tables_number   1
_chemical_formula_structural   TbHo7In2IrPd
_chemical_formula_sum   'Tb2 Ho14 In4 Ir2 Pd2'
_cell_volume   640.52543923
_cell_formula_units_Z   2
loop_
 _symmetry_equiv_pos_site_id
 _symmetry_equiv_pos_as_xyz
  1  'x, y, z'
loop_
 _atom_site_type_symbol
 _atom_site_label
 _atom_site_symmetry_multiplicity
 _atom_site_fract_x
 _atom_site_fract_y
 _atom_site_fract_z
 _atom_site_occupancy
  Tb  Tb0  1  0.440142  0.433207  0.063436  1
  Tb  Tb1  1  0.648211  0.642303  0.059061  1
  Ho  Ho2  1  0.185299  0.809178  0.194682  1
  Ho  Ho3  1  0.061236  0.434485  0.059780  1
  Ho  Ho4  1  0.190855  0.809537  0.808788  1
  Ho  Ho5  1  0.065380  0.435344  0.435887  1
  Ho  Ho6  1  0.811073  0.188736  0.189458  1
  Ho  Ho7  1  0.656507  0.649794  0.649866  1
  Ho  Ho8  1  0.812060  0.194775  0.808313  1
  Ho  Ho9  1  0.186333  0.194595  0.808218  1
  Ho  Ho10  1  0.049232  0.647204  0.647223  1
  Ho  Ho11  1  0.437890  0.061454  0.061572  1
  Ho  Ho12  1  0.061335  0.059766  0.434962  1
  Ho  Ho13  1  0.648330  0.058700  0.642198  1
  Ho  Ho14  1  0.811909  0.809082  0.194576  1
  Ho  Ho15  1  0.441267  0.062060  0.434258  1
  In  In16  1  0.415103  0.416947  0.417680  1
  In  In17  1  0.416350  0.418275  0.749316  1
  In  In18  1  0.416282  0.749587  0.418172  1
  In  In19  1  0.750126  0.417268  0.417198  1
  Ir  Ir20  1  0.857392  0.426667  0.861463  1
  Ir  Ir21  1  0.855967  0.862398  0.427630  1
  Pd  Pd22  1  0.428082  0.860073  0.858610  1
  Pd  Pd23  1  0.853639  0.858568  0.857655  1
