# generated using pymatgen
data_KBaNbO4
_symmetry_space_group_name_H-M   'P 1'
_cell_length_a   6.36134200
_cell_length_b   7.96898600
_cell_length_c   10.85195100
_cell_angle_alpha   90.00000000
_cell_angle_beta   90.00000000
_cell_angle_gamma   90.00000000
_symmetry_Int_Tables_number   1
_chemical_formula_structural   KBaNbO4
_chemical_formula_sum   'K4 Ba4 Nb4 O16'
_cell_volume   550.12278484
_cell_formula_units_Z   4
loop_
 _symmetry_equiv_pos_site_id
 _symmetry_equiv_pos_as_xyz
  1  'x, y, z'
loop_
 _atom_site_type_symbol
 _atom_site_label
 _atom_site_symmetry_multiplicity
 _atom_site_fract_x
 _atom_site_fract_y
 _atom_site_fract_z
 _atom_site_occupancy
  K  K0  1  0.474030  0.079348  0.570404  1
  K  K1  1  0.525970  0.579348  0.929596  1
  K  K2  1  0.025970  0.920652  0.070404  1
  K  K3  1  0.974030  0.420652  0.429596  1
  Ba  Ba4  1  0.981205  0.250414  0.794967  1
  Ba  Ba5  1  0.481205  0.249586  0.205033  1
  Ba  Ba6  1  0.518795  0.749586  0.294967  1
  Ba  Ba7  1  0.018795  0.750414  0.705033  1
  Nb  Nb8  1  0.486738  0.527043  0.584088  1
  Nb  Nb9  1  0.013262  0.472957  0.084088  1
  Nb  Nb10  1  0.986738  0.972957  0.415912  1
  Nb  Nb11  1  0.513262  0.027043  0.915912  1
  O  O12  1  0.502763  0.925587  0.072533  1
  O  O13  1  0.245579  0.554259  0.172499  1
  O  O14  1  0.254421  0.445741  0.672499  1
  O  O15  1  0.068079  0.245317  0.059353  1
  O  O16  1  0.745579  0.945741  0.827501  1
  O  O17  1  0.568079  0.254683  0.940647  1
  O  O18  1  0.760460  0.513673  0.170734  1
  O  O19  1  0.260460  0.986327  0.829266  1
  O  O20  1  0.997237  0.074413  0.572533  1
  O  O21  1  0.754421  0.054259  0.327501  1
  O  O22  1  0.002763  0.574413  0.927467  1
  O  O23  1  0.497237  0.425587  0.427467  1
  O  O24  1  0.239540  0.013673  0.329266  1
  O  O25  1  0.431921  0.754683  0.559353  1
  O  O26  1  0.739540  0.486327  0.670734  1
  O  O27  1  0.931921  0.745317  0.440647  1
