# generated using pymatgen
data_Li3Er3InSiGe
_symmetry_space_group_name_H-M   'P 1'
_cell_length_a   7.18706900
_cell_length_b   7.18706796
_cell_length_c   4.21351300
_cell_angle_alpha   90.00000000
_cell_angle_beta   90.00000000
_cell_angle_gamma   119.99999097
_symmetry_Int_Tables_number   1
_chemical_formula_structural   Li3Er3InSiGe
_chemical_formula_sum   'Li3 Er3 In1 Si1 Ge1'
_cell_volume   188.48577316
_cell_formula_units_Z   1
loop_
 _symmetry_equiv_pos_site_id
 _symmetry_equiv_pos_as_xyz
  1  'x, y, z'
loop_
 _atom_site_type_symbol
 _atom_site_label
 _atom_site_symmetry_multiplicity
 _atom_site_fract_x
 _atom_site_fract_y
 _atom_site_fract_z
 _atom_site_occupancy
  Li  Li0  1  0.251256  0.999232  0.500000  1
  Li  Li1  1  0.747976  0.748744  0.500000  1
  Li  Li2  1  0.000768  0.252024  0.500000  1
  Er  Er3  1  0.001773  0.557764  0.000000  1
  Er  Er4  1  0.555991  0.998227  0.000000  1
  Er  Er5  1  0.442236  0.444009  0.000000  1
  In  In6  1  0.000000  0.000000  0.000000  1
  Si  Si7  1  0.333333  0.666667  0.500000  1
  Ge  Ge8  1  0.666667  0.333333  0.500000  1
