# generated using pymatgen
data_KRbBa2Y2(Si2O7)2
_symmetry_space_group_name_H-M   'P 1'
_cell_length_a   5.78733300
_cell_length_b   9.88554093
_cell_length_c   14.40485700
_cell_angle_alpha   63.00460321
_cell_angle_beta   90.00000000
_cell_angle_gamma   90.00000000
_symmetry_Int_Tables_number   1
_chemical_formula_structural   KRbBa2Y2(Si2O7)2
_chemical_formula_sum   'K2 Rb2 Ba4 Y4 Si8 O28'
_cell_volume   734.32197091
_cell_formula_units_Z   2
loop_
 _symmetry_equiv_pos_site_id
 _symmetry_equiv_pos_as_xyz
  1  'x, y, z'
loop_
 _atom_site_type_symbol
 _atom_site_label
 _atom_site_symmetry_multiplicity
 _atom_site_fract_x
 _atom_site_fract_y
 _atom_site_fract_z
 _atom_site_occupancy
  K  K0  1  0.737095  0.005520  0.862571  1
  K  K1  1  0.237095  0.994480  0.637429  1
  Rb  Rb2  1  0.764649  0.008345  0.357910  1
  Rb  Rb3  1  0.264649  0.991655  0.142090  1
  Ba  Ba4  1  0.269115  0.533631  0.328927  1
  Ba  Ba5  1  0.231543  0.534183  0.828897  1
  Ba  Ba6  1  0.731543  0.465817  0.671103  1
  Ba  Ba7  1  0.769115  0.466369  0.171073  1
  Y  Y8  1  0.240332  0.739588  0.019947  1
  Y  Y9  1  0.759505  0.260401  0.978731  1
  Y  Y10  1  0.259505  0.739599  0.521269  1
  Y  Y11  1  0.740332  0.260412  0.480053  1
  Si  Si12  1  0.228527  0.327126  0.621232  1
  Si  Si13  1  0.744983  0.829198  0.646480  1
  Si  Si14  1  0.254908  0.173634  0.355197  1
  Si  Si15  1  0.754908  0.826366  0.144803  1
  Si  Si16  1  0.771547  0.670893  0.378894  1
  Si  Si17  1  0.728527  0.672874  0.878768  1
  Si  Si18  1  0.244983  0.170802  0.853520  1
  Si  Si19  1  0.271547  0.329107  0.121106  1
  O  O20  1  0.999581  0.257522  0.849867  1
  O  O21  1  0.243220  0.481153  0.637708  1
  O  O22  1  0.465056  0.699771  0.907892  1
  O  O23  1  0.760681  0.007075  0.064508  1
  O  O24  1  0.743220  0.518847  0.862292  1
  O  O25  1  0.534160  0.300864  0.091218  1
  O  O26  1  0.498292  0.262088  0.350698  1
  O  O27  1  0.796549  0.820986  0.764103  1
  O  O28  1  0.579190  0.675985  0.459893  1
  O  O29  1  0.260681  0.992925  0.435492  1
  O  O30  1  0.704594  0.817087  0.262843  1
  O  O31  1  0.499581  0.742478  0.650133  1
  O  O32  1  0.296549  0.179014  0.735897  1
  O  O33  1  0.079190  0.324015  0.040107  1
  O  O34  1  0.461035  0.262918  0.873477  1
  O  O35  1  0.961035  0.737082  0.626523  1
  O  O36  1  0.034160  0.699136  0.408782  1
  O  O37  1  0.965056  0.300229  0.592108  1
  O  O38  1  0.919606  0.677192  0.960156  1
  O  O39  1  0.538037  0.735043  0.125279  1
  O  O40  1  0.204594  0.182913  0.237157  1
  O  O41  1  0.038037  0.264957  0.374721  1
  O  O42  1  0.998292  0.737912  0.149302  1
  O  O43  1  0.419606  0.322808  0.539844  1
  O  O44  1  0.257597  0.483051  0.136976  1
  O  O45  1  0.757597  0.516949  0.363024  1
  O  O46  1  0.740195  0.009648  0.566888  1
  O  O47  1  0.240195  0.990352  0.933112  1
