# generated using pymatgen
data_Sm2Pa(Ga2Ni3)3
_symmetry_space_group_name_H-M   'P 1'
_cell_length_a   8.76682500
_cell_length_b   8.76682461
_cell_length_c   4.15984800
_cell_angle_alpha   90.00000000
_cell_angle_beta   90.00000000
_cell_angle_gamma   119.99999769
_symmetry_Int_Tables_number   1
_chemical_formula_structural   Sm2Pa(Ga2Ni3)3
_chemical_formula_sum   'Sm2 Pa1 Ga6 Ni9'
_cell_volume   276.88074781
_cell_formula_units_Z   1
loop_
 _symmetry_equiv_pos_site_id
 _symmetry_equiv_pos_as_xyz
  1  'x, y, z'
loop_
 _atom_site_type_symbol
 _atom_site_label
 _atom_site_symmetry_multiplicity
 _atom_site_fract_x
 _atom_site_fract_y
 _atom_site_fract_z
 _atom_site_occupancy
  Sm  Sm0  1  0.666667  0.333333  0.500000  1
  Sm  Sm1  1  0.333333  0.666667  0.500000  1
  Pa  Pa2  1  0.000000  0.000000  0.000000  1
  Ga  Ga3  1  0.274321  0.274321  0.500000  1
  Ga  Ga4  1  0.725679  0.000000  0.500000  1
  Ga  Ga5  1  0.000000  0.725679  0.500000  1
  Ga  Ga6  1  0.518073  0.518073  0.000000  1
  Ga  Ga7  1  0.481927  0.000000  0.000000  1
  Ga  Ga8  1  0.000000  0.481927  0.000000  1
  Ni  Ni9  1  0.807828  0.170365  0.000000  1
  Ni  Ni10  1  0.829635  0.637462  0.000000  1
  Ni  Ni11  1  0.362538  0.192172  0.000000  1
  Ni  Ni12  1  0.170365  0.807828  0.000000  1
  Ni  Ni13  1  0.637462  0.829635  0.000000  1
  Ni  Ni14  1  0.192172  0.362538  0.000000  1
  Ni  Ni15  1  0.712053  0.712053  0.500000  1
  Ni  Ni16  1  0.287947  0.000000  0.500000  1
  Ni  Ni17  1  0.000000  0.287947  0.500000  1
