# generated using pymatgen
data_Er8Ti12Si15Pt
_symmetry_space_group_name_H-M   'P 1'
_cell_length_a   7.06628211
_cell_length_b   7.01497113
_cell_length_c   12.93783481
_cell_angle_alpha   89.93627703
_cell_angle_beta   89.91210649
_cell_angle_gamma   90.01217362
_symmetry_Int_Tables_number   1
_chemical_formula_structural   Er8Ti12Si15Pt
_chemical_formula_sum   'Er8 Ti12 Si15 Pt1'
_cell_volume   641.32426531
_cell_formula_units_Z   1
loop_
 _symmetry_equiv_pos_site_id
 _symmetry_equiv_pos_as_xyz
  1  'x, y, z'
loop_
 _atom_site_type_symbol
 _atom_site_label
 _atom_site_symmetry_multiplicity
 _atom_site_fract_x
 _atom_site_fract_y
 _atom_site_fract_z
 _atom_site_occupancy
  Er  Er0  1  0.340285  0.002020  0.465869  1
  Er  Er1  1  0.501528  0.838745  0.717673  1
  Er  Er2  1  0.500689  0.159858  0.216850  1
  Er  Er3  1  0.841963  0.497069  0.283000  1
  Er  Er4  1  0.157159  0.502118  0.782983  1
  Er  Er5  1  0.659559  0.997608  0.967715  1
  Er  Er6  1  0.001769  0.339474  0.534504  1
  Er  Er7  1  0.998934  0.659860  0.033267  1
  Ti  Ti8  1  0.325906  0.326837  0.001251  1
  Ti  Ti9  1  0.173996  0.826206  0.249896  1
  Ti  Ti10  1  0.822886  0.172931  0.749669  1
  Ti  Ti11  1  0.673752  0.671808  0.499323  1
  Ti  Ti12  1  0.154522  0.010811  0.876588  1
  Ti  Ti13  1  0.491986  0.651947  0.126307  1
  Ti  Ti14  1  0.502450  0.345508  0.626336  1
  Ti  Ti15  1  0.654308  0.496458  0.875658  1
  Ti  Ti16  1  0.348571  0.506966  0.373146  1
  Ti  Ti17  1  0.847129  0.992544  0.375041  1
  Ti  Ti18  1  0.007646  0.151379  0.125333  1
  Ti  Ti19  1  0.987883  0.848745  0.619080  1
  Si  Si20  1  0.368626  0.703049  0.934403  1
  Si  Si21  1  0.632043  0.296961  0.433214  1
  Si  Si22  1  0.703151  0.369080  0.067249  1
  Si  Si23  1  0.301161  0.632157  0.564148  1
  Si  Si24  1  0.795681  0.868633  0.182727  1
  Si  Si25  1  0.131065  0.202855  0.316208  1
  Si  Si26  1  0.868456  0.798418  0.816736  1
  Si  Si27  1  0.292267  0.953748  0.065721  1
  Si  Si28  1  0.547339  0.791227  0.314991  1
  Si  Si29  1  0.456848  0.213159  0.818350  1
  Si  Si30  1  0.790092  0.547517  0.685775  1
  Si  Si31  1  0.207651  0.453435  0.184897  1
  Si  Si32  1  0.706208  0.046757  0.563052  1
  Si  Si33  1  0.952022  0.291878  0.936839  1
  Si  Si34  1  0.048087  0.708066  0.433269  1
  Pt  Pt35  1  0.206383  0.124166  0.682933  1
