# generated using pymatgen
data_Tm4Tc4OsRu3
_symmetry_space_group_name_H-M   'P 1'
_cell_length_a   5.23044310
_cell_length_b   5.16047562
_cell_length_c   9.05759500
_cell_angle_alpha   90.00000000
_cell_angle_beta   90.00000000
_cell_angle_gamma   118.48307420
_symmetry_Int_Tables_number   1
_chemical_formula_structural   Tm4Tc4OsRu3
_chemical_formula_sum   'Tm4 Tc4 Os1 Ru3'
_cell_volume   214.88655802
_cell_formula_units_Z   1
loop_
 _symmetry_equiv_pos_site_id
 _symmetry_equiv_pos_as_xyz
  1  'x, y, z'
loop_
 _atom_site_type_symbol
 _atom_site_label
 _atom_site_symmetry_multiplicity
 _atom_site_fract_x
 _atom_site_fract_y
 _atom_site_fract_z
 _atom_site_occupancy
  Tm  Tm0  1  0.668934  0.332310  0.565455  1
  Tm  Tm1  1  0.329530  0.665823  0.435557  1
  Tm  Tm2  1  0.329530  0.665823  0.064443  1
  Tm  Tm3  1  0.668934  0.332310  0.934545  1
  Tc  Tc4  1  0.172741  0.833717  0.750000  1
  Tc  Tc5  1  0.660402  0.830534  0.750000  1
  Tc  Tc6  1  0.835125  0.661406  0.250000  1
  Tc  Tc7  1  0.836642  0.175687  0.250000  1
  Os  Os8  1  0.174162  0.345005  0.750000  1
  Ru  Ru9  1  0.987069  0.990874  0.498918  1
  Ru  Ru10  1  0.987069  0.990874  0.001082  1
  Ru  Ru11  1  0.349863  0.175639  0.250000  1
