# generated using pymatgen
data_Ca7In2SnN2
_symmetry_space_group_name_H-M   'P 1'
_cell_length_a   12.46159266
_cell_length_b   12.46159272
_cell_length_c   4.90306800
_cell_angle_alpha   90.00000000
_cell_angle_beta   90.00000000
_cell_angle_gamma   157.00630749
_symmetry_Int_Tables_number   1
_chemical_formula_structural   Ca7In2SnN2
_chemical_formula_sum   'Ca7 In2 Sn1 N2'
_cell_volume   297.42699410
_cell_formula_units_Z   1
loop_
 _symmetry_equiv_pos_site_id
 _symmetry_equiv_pos_as_xyz
  1  'x, y, z'
loop_
 _atom_site_type_symbol
 _atom_site_label
 _atom_site_symmetry_multiplicity
 _atom_site_fract_x
 _atom_site_fract_y
 _atom_site_fract_z
 _atom_site_occupancy
  Ca  Ca0  1  0.903364  0.096635  0.000000  1
  Ca  Ca1  1  0.696110  0.303889  0.000000  1
  Ca  Ca2  1  0.500000  0.500000  0.000000  1
  Ca  Ca3  1  0.303889  0.696110  0.000000  1
  Ca  Ca4  1  0.096635  0.903364  0.000000  1
  Ca  Ca5  1  0.596871  0.403129  0.500001  1
  Ca  Ca6  1  0.403129  0.596871  0.500001  1
  In  In7  1  0.792429  0.207570  0.500001  1
  In  In8  1  0.207570  0.792429  0.500001  1
  Sn  Sn9  1  0.000000  0.000000  0.500001  1
  N  N10  1  0.602108  0.397891  0.000000  1
  N  N11  1  0.397891  0.602108  0.000000  1
