# generated using pymatgen
data_Er5Si3P9Ir19
_symmetry_space_group_name_H-M   'P 1'
_cell_length_a   12.79696863
_cell_length_b   12.69203271
_cell_length_c   3.94888500
_cell_angle_alpha   90.00000000
_cell_angle_beta   90.00000000
_cell_angle_gamma   119.90033970
_symmetry_Int_Tables_number   1
_chemical_formula_structural   Er5Si3P9Ir19
_chemical_formula_sum   'Er5 Si3 P9 Ir19'
_cell_volume   556.00496262
_cell_formula_units_Z   1
loop_
 _symmetry_equiv_pos_site_id
 _symmetry_equiv_pos_as_xyz
  1  'x, y, z'
loop_
 _atom_site_type_symbol
 _atom_site_label
 _atom_site_symmetry_multiplicity
 _atom_site_fract_x
 _atom_site_fract_y
 _atom_site_fract_z
 _atom_site_occupancy
  Er  Er0  1  0.662882  0.332254  0.000000  1
  Er  Er1  1  0.335180  0.667458  0.000000  1
  Er  Er2  1  0.819730  0.817653  0.500000  1
  Er  Er3  1  0.181316  0.999475  0.500000  1
  Er  Er4  1  0.997445  0.182802  0.500000  1
  Si  Si5  1  0.677897  0.162277  0.500000  1
  Si  Si6  1  0.641257  0.640019  0.000000  1
  Si  Si7  1  0.360162  0.998787  0.000000  1
  P  P8  1  0.832568  0.516751  0.500000  1
  P  P9  1  0.481034  0.321251  0.500000  1
  P  P10  1  0.180946  0.695872  0.500000  1
  P  P11  1  0.517216  0.823222  0.500000  1
  P  P12  1  0.307597  0.483814  0.500000  1
  P  P13  1  0.998026  0.356473  0.000000  1
  P  P14  1  0.173278  0.180566  0.000000  1
  P  P15  1  0.819837  0.996148  0.000000  1
  P  P16  1  0.003602  0.822277  0.000000  1
  Ir  Ir17  1  0.811157  0.179867  0.000000  1
  Ir  Ir18  1  0.824948  0.627864  0.000000  1
  Ir  Ir19  1  0.360627  0.187129  0.000000  1
  Ir  Ir20  1  0.180408  0.797957  0.000000  1
  Ir  Ir21  1  0.620058  0.817877  0.000000  1
  Ir  Ir22  1  0.190694  0.378160  0.000000  1
  Ir  Ir23  1  0.469693  0.442879  0.000000  1
  Ir  Ir24  1  0.558876  0.027292  0.000000  1
  Ir  Ir25  1  0.991451  0.533035  0.000000  1
  Ir  Ir26  1  0.282575  0.286755  0.500000  1
  Ir  Ir27  1  0.717443  0.996660  0.500000  1
  Ir  Ir28  1  0.002106  0.715878  0.500000  1
  Ir  Ir29  1  0.861958  0.355158  0.500000  1
  Ir  Ir30  1  0.648874  0.513872  0.500000  1
  Ir  Ir31  1  0.482365  0.138048  0.500000  1
  Ir  Ir32  1  0.370388  0.877866  0.500000  1
  Ir  Ir33  1  0.506726  0.629980  0.500000  1
  Ir  Ir34  1  0.130382  0.497623  0.500000  1
  Ir  Ir35  1  0.999297  0.999001  0.000000  1
