# generated using pymatgen
data_K2BeH4
_symmetry_space_group_name_H-M   'P 1'
_cell_length_a   5.59333800
_cell_length_b   7.58191600
_cell_length_c   9.82026900
_cell_angle_alpha   90.00000000
_cell_angle_beta   90.00000000
_cell_angle_gamma   90.00000000
_symmetry_Int_Tables_number   1
_chemical_formula_structural   K2BeH4
_chemical_formula_sum   'K8 Be4 H16'
_cell_volume   416.46011717
_cell_formula_units_Z   4
loop_
 _symmetry_equiv_pos_site_id
 _symmetry_equiv_pos_as_xyz
  1  'x, y, z'
loop_
 _atom_site_type_symbol
 _atom_site_label
 _atom_site_symmetry_multiplicity
 _atom_site_fract_x
 _atom_site_fract_y
 _atom_site_fract_z
 _atom_site_occupancy
  K  K0  1  0.250000  0.155025  0.595108  1
  K  K1  1  0.250000  0.655025  0.904892  1
  K  K2  1  0.750000  0.844975  0.404892  1
  K  K3  1  0.750000  0.344975  0.095108  1
  K  K4  1  0.250000  0.489366  0.318270  1
  K  K5  1  0.250000  0.989366  0.181730  1
  K  K6  1  0.750000  0.510634  0.681730  1
  K  K7  1  0.750000  0.010634  0.818270  1
  Be  Be8  1  0.250000  0.240529  0.917324  1
  Be  Be9  1  0.250000  0.740529  0.582676  1
  Be  Be10  1  0.750000  0.759471  0.082676  1
  Be  Be11  1  0.750000  0.259471  0.417324  1
  H  H12  1  0.038275  0.309184  0.849401  1
  H  H13  1  0.461725  0.809184  0.650599  1
  H  H14  1  0.538275  0.690816  0.150599  1
  H  H15  1  0.961725  0.190816  0.349401  1
  H  H16  1  0.961725  0.690816  0.150599  1
  H  H17  1  0.538275  0.190816  0.349401  1
  H  H18  1  0.461725  0.309184  0.849401  1
  H  H19  1  0.038275  0.809184  0.650599  1
  H  H20  1  0.250000  0.048905  0.910385  1
  H  H21  1  0.250000  0.548905  0.589615  1
  H  H22  1  0.750000  0.951095  0.089615  1
  H  H23  1  0.750000  0.451095  0.410385  1
  H  H24  1  0.250000  0.802980  0.441852  1
  H  H25  1  0.250000  0.302980  0.058148  1
  H  H26  1  0.750000  0.197020  0.558148  1
  H  H27  1  0.750000  0.697020  0.941852  1
