# generated using pymatgen
data_Nd3Er(AsPt)4
_symmetry_space_group_name_H-M   'P 1'
_cell_length_a   4.32001200
_cell_length_b   4.32001188
_cell_length_c   16.00222600
_cell_angle_alpha   90.00000000
_cell_angle_beta   90.00000000
_cell_angle_gamma   120.00000091
_symmetry_Int_Tables_number   1
_chemical_formula_structural   Nd3Er(AsPt)4
_chemical_formula_sum   'Nd3 Er1 As4 Pt4'
_cell_volume   258.63120418
_cell_formula_units_Z   1
loop_
 _symmetry_equiv_pos_site_id
 _symmetry_equiv_pos_as_xyz
  1  'x, y, z'
loop_
 _atom_site_type_symbol
 _atom_site_label
 _atom_site_symmetry_multiplicity
 _atom_site_fract_x
 _atom_site_fract_y
 _atom_site_fract_z
 _atom_site_occupancy
  Nd  Nd0  1  0.000000  0.000000  0.504212  1
  Nd  Nd1  1  0.000000  0.000000  0.995788  1
  Nd  Nd2  1  0.000000  0.000000  0.250000  1
  Er  Er3  1  0.000000  0.000000  0.750000  1
  As  As4  1  0.333333  0.666667  0.878668  1
  As  As5  1  0.666667  0.333333  0.117444  1
  As  As6  1  0.666667  0.333333  0.382556  1
  As  As7  1  0.333333  0.666667  0.621332  1
  Pt  Pt8  1  0.333333  0.666667  0.370896  1
  Pt  Pt9  1  0.666667  0.333333  0.643848  1
  Pt  Pt10  1  0.666667  0.333333  0.856152  1
  Pt  Pt11  1  0.333333  0.666667  0.129104  1
