# generated using pymatgen
data_TaAg7(SO4)6
_symmetry_space_group_name_H-M   'P 1'
_cell_length_a   8.84841071
_cell_length_b   8.84841027
_cell_length_c   8.84841136
_cell_angle_alpha   108.40784220
_cell_angle_beta   108.40785215
_cell_angle_gamma   108.40786722
_symmetry_Int_Tables_number   1
_chemical_formula_structural   TaAg7(SO4)6
_chemical_formula_sum   'Ta1 Ag7 S6 O24'
_cell_volume   553.30329783
_cell_formula_units_Z   1
loop_
 _symmetry_equiv_pos_site_id
 _symmetry_equiv_pos_as_xyz
  1  'x, y, z'
loop_
 _atom_site_type_symbol
 _atom_site_label
 _atom_site_symmetry_multiplicity
 _atom_site_fract_x
 _atom_site_fract_y
 _atom_site_fract_z
 _atom_site_occupancy
  Ta  Ta0  1  0.000000  0.000000  0.000000  1
  Ag  Ag1  1  0.500000  0.500000  0.500000  1
  Ag  Ag2  1  0.834723  0.338725  0.678978  1
  Ag  Ag3  1  0.338725  0.678978  0.834723  1
  Ag  Ag4  1  0.678978  0.834723  0.338725  1
  Ag  Ag5  1  0.165277  0.661275  0.321022  1
  Ag  Ag6  1  0.661275  0.321022  0.165277  1
  Ag  Ag7  1  0.321022  0.165277  0.661275  1
  S  S8  1  0.968691  0.743788  0.602605  1
  S  S9  1  0.743788  0.602605  0.968691  1
  S  S10  1  0.602605  0.968691  0.743788  1
  S  S11  1  0.031309  0.256212  0.397395  1
  S  S12  1  0.256212  0.397395  0.031309  1
  S  S13  1  0.397395  0.031309  0.256212  1
  O  O14  1  0.458686  0.909457  0.169083  1
  O  O15  1  0.909457  0.169083  0.458686  1
  O  O16  1  0.169083  0.458686  0.909457  1
  O  O17  1  0.541314  0.090543  0.830917  1
  O  O18  1  0.090543  0.830917  0.541314  1
  O  O19  1  0.830917  0.541314  0.090543  1
  O  O20  1  0.321695  0.978190  0.367936  1
  O  O21  1  0.978190  0.367936  0.321695  1
  O  O22  1  0.367936  0.321695  0.978190  1
  O  O23  1  0.678305  0.021810  0.632064  1
  O  O24  1  0.021810  0.632064  0.678305  1
  O  O25  1  0.632064  0.678305  0.021810  1
  O  O26  1  0.756908  0.980227  0.901592  1
  O  O27  1  0.980227  0.901592  0.756908  1
  O  O28  1  0.646599  0.462911  0.777541  1
  O  O29  1  0.777541  0.646599  0.462911  1
  O  O30  1  0.462911  0.777541  0.646599  1
  O  O31  1  0.353401  0.537089  0.222459  1
  O  O32  1  0.222459  0.353401  0.537089  1
  O  O33  1  0.537089  0.222459  0.353401  1
  O  O34  1  0.098408  0.243092  0.019773  1
  O  O35  1  0.019773  0.098408  0.243092  1
  O  O36  1  0.243092  0.019773  0.098408  1
  O  O37  1  0.901592  0.756908  0.980227  1
