# generated using pymatgen
data_Ba6Er2Np3O18
_symmetry_space_group_name_H-M   'P 1'
_cell_length_a   10.81314146
_cell_length_b   10.81313871
_cell_length_c   10.81314000
_cell_angle_alpha   146.38808186
_cell_angle_beta   131.85201568
_cell_angle_gamma   59.99900689
_symmetry_Int_Tables_number   1
_chemical_formula_structural   Ba6Er2Np3O18
_chemical_formula_sum   'Ba6 Er2 Np3 O18'
_cell_volume   516.55228755
_cell_formula_units_Z   1
loop_
 _symmetry_equiv_pos_site_id
 _symmetry_equiv_pos_as_xyz
  1  'x, y, z'
loop_
 _atom_site_type_symbol
 _atom_site_label
 _atom_site_symmetry_multiplicity
 _atom_site_fract_x
 _atom_site_fract_y
 _atom_site_fract_z
 _atom_site_occupancy
  Ba  Ba0  1  0.774669  0.500000  0.274669  1
  Ba  Ba1  1  0.393046  0.156481  0.236566  1
  Ba  Ba2  1  0.080085  0.843519  0.236566  1
  Ba  Ba3  1  0.225331  0.500000  0.725331  1
  Ba  Ba4  1  0.919915  0.156481  0.763434  1
  Ba  Ba5  1  0.606954  0.843519  0.763434  1
  Er  Er6  1  0.665040  0.665040  0.000000  1
  Er  Er7  1  0.334960  0.334960  0.000000  1
  Np  Np8  1  0.500000  0.000000  0.500000  1
  Np  Np9  1  0.172435  0.672435  0.500000  1
  Np  Np10  1  0.827565  0.327565  0.500000  1
  O  O11  1  0.721793  0.000000  0.721793  1
  O  O12  1  0.413560  0.668681  0.744879  1
  O  O13  1  0.076200  0.331319  0.744879  1
  O  O14  1  0.582148  0.839698  0.257549  1
  O  O15  1  0.248918  0.506384  0.257467  1
  O  O16  1  0.904906  0.180493  0.275587  1
  O  O17  1  0.417852  0.675401  0.257549  1
  O  O18  1  0.095094  0.370681  0.275587  1
  O  O19  1  0.751082  0.008549  0.257467  1
  O  O20  1  0.278207  0.000000  0.278207  1
  O  O21  1  0.923800  0.668681  0.255121  1
  O  O22  1  0.586440  0.331319  0.255121  1
  O  O23  1  0.417852  0.160302  0.742451  1
  O  O24  1  0.095094  0.819507  0.724413  1
  O  O25  1  0.751082  0.493616  0.742533  1
  O  O26  1  0.582148  0.324599  0.742451  1
  O  O27  1  0.248918  0.991451  0.742533  1
  O  O28  1  0.904906  0.629320  0.724413  1
