# generated using pymatgen
data_BaLa(AsPd)2
_symmetry_space_group_name_H-M   'P 1'
_cell_length_a   4.40806700
_cell_length_b   4.40806725
_cell_length_c   8.87141400
_cell_angle_alpha   90.00000000
_cell_angle_beta   90.00000000
_cell_angle_gamma   120.00000565
_symmetry_Int_Tables_number   1
_chemical_formula_structural   BaLa(AsPd)2
_chemical_formula_sum   'Ba1 La1 As2 Pd2'
_cell_volume   149.28626479
_cell_formula_units_Z   1
loop_
 _symmetry_equiv_pos_site_id
 _symmetry_equiv_pos_as_xyz
  1  'x, y, z'
loop_
 _atom_site_type_symbol
 _atom_site_label
 _atom_site_symmetry_multiplicity
 _atom_site_fract_x
 _atom_site_fract_y
 _atom_site_fract_z
 _atom_site_occupancy
  Ba  Ba0  1  0.000000  0.000000  0.500000  1
  La  La1  1  0.000000  0.000000  0.000000  1
  As  As2  1  0.666667  0.333333  0.226640  1
  As  As3  1  0.333333  0.666667  0.773360  1
  Pd  Pd4  1  0.333333  0.666667  0.230290  1
  Pd  Pd5  1  0.666667  0.333333  0.769710  1
