# generated using pymatgen
data_LuTi4Re13Tc11
_symmetry_space_group_name_H-M   'P 1'
_cell_length_a   8.38452741
_cell_length_b   8.38748787
_cell_length_c   8.38452606
_cell_angle_alpha   109.50309258
_cell_angle_beta   109.45158283
_cell_angle_gamma   109.50310183
_symmetry_Int_Tables_number   1
_chemical_formula_structural   LuTi4Re13Tc11
_chemical_formula_sum   'Lu1 Ti4 Re13 Tc11'
_cell_volume   453.65986629
_cell_formula_units_Z   1
loop_
 _symmetry_equiv_pos_site_id
 _symmetry_equiv_pos_as_xyz
  1  'x, y, z'
loop_
 _atom_site_type_symbol
 _atom_site_label
 _atom_site_symmetry_multiplicity
 _atom_site_fract_x
 _atom_site_fract_y
 _atom_site_fract_z
 _atom_site_occupancy
  Lu  Lu0  1  0.999931  0.999676  0.999931  1
  Ti  Ti1  1  0.627707  0.999480  0.999660  1
  Ti  Ti2  1  0.000199  0.627922  0.000199  1
  Ti  Ti3  1  0.999660  0.999480  0.627707  1
  Ti  Ti4  1  0.371393  0.372731  0.371393  1
  Re  Re5  1  0.599428  0.279843  0.599428  1
  Re  Re6  1  0.378045  0.194375  0.999860  1
  Re  Re7  1  0.183501  0.805614  0.805474  1
  Re  Re8  1  0.378221  0.000951  0.194924  1
  Re  Re9  1  0.194707  0.377827  0.000114  1
  Re  Re10  1  0.000114  0.377827  0.194707  1
  Re  Re11  1  0.805857  0.182159  0.805857  1
  Re  Re12  1  0.805474  0.805614  0.183501  1
  Re  Re13  1  0.999860  0.194375  0.378045  1
  Re  Re14  1  0.194924  0.000951  0.378221  1
  Re  Re15  1  0.621700  0.621878  0.816306  1
  Re  Re16  1  0.816306  0.621878  0.621700  1
  Re  Re17  1  0.621470  0.815114  0.621470  1
  Tc  Tc18  1  0.400815  0.681710  0.000408  1
  Tc  Tc19  1  0.720170  0.319165  0.318373  1
  Tc  Tc20  1  0.401110  0.000340  0.681103  1
  Tc  Tc21  1  0.681807  0.400940  0.000105  1
  Tc  Tc22  1  0.000105  0.400940  0.681807  1
  Tc  Tc23  1  0.318133  0.719468  0.318133  1
  Tc  Tc24  1  0.318373  0.319165  0.720170  1
  Tc  Tc25  1  0.000408  0.681710  0.400815  1
  Tc  Tc26  1  0.681103  0.000340  0.401110  1
  Tc  Tc27  1  0.599320  0.599265  0.280158  1
  Tc  Tc28  1  0.280158  0.599265  0.599320  1
