# generated using pymatgen
data_Pr(TmSi2)2
_symmetry_space_group_name_H-M   'P 1'
_cell_length_a   3.89165789
_cell_length_b   4.19012034
_cell_length_c   9.11522700
_cell_angle_alpha   76.71266066
_cell_angle_beta   77.67720599
_cell_angle_gamma   90.00008069
_symmetry_Int_Tables_number   1
_chemical_formula_structural   Pr(TmSi2)2
_chemical_formula_sum   'Pr1 Tm2 Si4'
_cell_volume   141.13748606
_cell_formula_units_Z   1
loop_
 _symmetry_equiv_pos_site_id
 _symmetry_equiv_pos_as_xyz
  1  'x, y, z'
loop_
 _atom_site_type_symbol
 _atom_site_label
 _atom_site_symmetry_multiplicity
 _atom_site_fract_x
 _atom_site_fract_y
 _atom_site_fract_z
 _atom_site_occupancy
  Pr  Pr0  1  0.000021  0.000004  0.999997  1
  Tm  Tm1  1  0.684190  0.184602  0.631608  1
  Tm  Tm2  1  0.315798  0.815396  0.368392  1
  Si  Si3  1  0.849302  0.348753  0.301629  1
  Si  Si4  1  0.150689  0.651243  0.698372  1
  Si  Si5  1  0.568153  0.569432  0.862712  1
  Si  Si6  1  0.431849  0.430570  0.137289  1
