# generated using pymatgen
data_LiHf2(Co10B3)2
_symmetry_space_group_name_H-M   'P 1'
_cell_length_a   7.46594112
_cell_length_b   7.46594035
_cell_length_c   7.46594100
_cell_angle_alpha   60.00000157
_cell_angle_beta   60.00000498
_cell_angle_gamma   60.00000503
_symmetry_Int_Tables_number   1
_chemical_formula_structural   LiHf2(Co10B3)2
_chemical_formula_sum   'Li1 Hf2 Co20 B6'
_cell_volume   294.26504095
_cell_formula_units_Z   1
loop_
 _symmetry_equiv_pos_site_id
 _symmetry_equiv_pos_as_xyz
  1  'x, y, z'
loop_
 _atom_site_type_symbol
 _atom_site_label
 _atom_site_symmetry_multiplicity
 _atom_site_fract_x
 _atom_site_fract_y
 _atom_site_fract_z
 _atom_site_occupancy
  Li  Li0  1  0.000000  0.000000  0.000000  1
  Hf  Hf1  1  0.750000  0.750000  0.750000  1
  Hf  Hf2  1  0.250000  0.250000  0.250000  1
  Co  Co3  1  0.614370  0.614370  0.156889  1
  Co  Co4  1  0.614370  0.156889  0.614370  1
  Co  Co5  1  0.156889  0.614370  0.614370  1
  Co  Co6  1  0.614370  0.614370  0.614370  1
  Co  Co7  1  0.385630  0.385630  0.843111  1
  Co  Co8  1  0.385630  0.843111  0.385630  1
  Co  Co9  1  0.843111  0.385630  0.385630  1
  Co  Co10  1  0.385630  0.385630  0.385630  1
  Co  Co11  1  0.000000  0.000000  0.340321  1
  Co  Co12  1  0.659679  0.000000  0.340321  1
  Co  Co13  1  0.000000  0.659679  0.340321  1
  Co  Co14  1  0.659679  0.340321  0.000000  1
  Co  Co15  1  0.000000  0.340321  0.000000  1
  Co  Co16  1  0.000000  0.340321  0.659679  1
  Co  Co17  1  0.340321  0.659679  0.000000  1
  Co  Co18  1  0.340321  0.000000  0.659679  1
  Co  Co19  1  0.340321  0.000000  0.000000  1
  Co  Co20  1  0.000000  0.000000  0.659679  1
  Co  Co21  1  0.000000  0.659679  0.000000  1
  Co  Co22  1  0.659679  0.000000  0.000000  1
  B  B23  1  0.727788  0.727788  0.272212  1
  B  B24  1  0.272212  0.727788  0.272212  1
  B  B25  1  0.727788  0.272212  0.272212  1
  B  B26  1  0.272212  0.272212  0.727788  1
  B  B27  1  0.727788  0.272212  0.727788  1
  B  B28  1  0.272212  0.727788  0.727788  1
