# generated using pymatgen
data_MgU2Fe2(Ni3B)6
_symmetry_space_group_name_H-M   'P 1'
_cell_length_a   7.49990962
_cell_length_b   7.58552621
_cell_length_c   7.58552700
_cell_angle_alpha   60.00000093
_cell_angle_beta   59.62164920
_cell_angle_gamma   59.62165155
_symmetry_Int_Tables_number   1
_chemical_formula_structural   MgU2Fe2(Ni3B)6
_chemical_formula_sum   'Mg1 U2 Fe2 Ni18 B6'
_cell_volume   303.39265774
_cell_formula_units_Z   1
loop_
 _symmetry_equiv_pos_site_id
 _symmetry_equiv_pos_as_xyz
  1  'x, y, z'
loop_
 _atom_site_type_symbol
 _atom_site_label
 _atom_site_symmetry_multiplicity
 _atom_site_fract_x
 _atom_site_fract_y
 _atom_site_fract_z
 _atom_site_occupancy
  Mg  Mg0  1  0.000000  0.000000  0.000000  1
  U  U1  1  0.234309  0.255231  0.255231  1
  U  U2  1  0.765691  0.744769  0.744769  1
  Fe  Fe3  1  0.878084  0.373972  0.373972  1
  Fe  Fe4  1  0.121916  0.626028  0.626028  1
  Ni  Ni5  1  0.348222  0.995983  0.995983  1
  Ni  Ni6  1  0.651778  0.004017  0.004017  1
  Ni  Ni7  1  0.000000  0.340111  0.659889  1
  Ni  Ni8  1  0.000000  0.659889  0.340111  1
  Ni  Ni9  1  0.000000  0.340111  0.000000  1
  Ni  Ni10  1  0.651778  0.004017  0.340187  1
  Ni  Ni11  1  0.000000  0.659889  0.000000  1
  Ni  Ni12  1  0.348222  0.995983  0.659813  1
  Ni  Ni13  1  0.000000  0.000000  0.340111  1
  Ni  Ni14  1  0.000000  0.000000  0.659889  1
  Ni  Ni15  1  0.651778  0.340187  0.004017  1
  Ni  Ni16  1  0.348222  0.659813  0.995983  1
  Ni  Ni17  1  0.382349  0.389130  0.389130  1
  Ni  Ni18  1  0.617651  0.610870  0.610870  1
  Ni  Ni19  1  0.382349  0.389130  0.839393  1
  Ni  Ni20  1  0.382349  0.839393  0.389130  1
  Ni  Ni21  1  0.617651  0.610870  0.160607  1
  Ni  Ni22  1  0.617651  0.160607  0.610870  1
  B  B23  1  0.732221  0.266360  0.266360  1
  B  B24  1  0.267779  0.733640  0.733640  1
  B  B25  1  0.267779  0.733640  0.264941  1
  B  B26  1  0.732221  0.266360  0.735059  1
  B  B27  1  0.267779  0.264941  0.733640  1
  B  B28  1  0.732221  0.735059  0.266360  1
