# generated using pymatgen
data_Tm16In4OsPt3
_symmetry_space_group_name_H-M   'P 1'
_cell_length_a   9.57227303
_cell_length_b   9.57227339
_cell_length_c   9.59403407
_cell_angle_alpha   60.07499648
_cell_angle_beta   60.07499624
_cell_angle_gamma   59.99999847
_symmetry_Int_Tables_number   1
_chemical_formula_structural   Tm16In4OsPt3
_chemical_formula_sum   'Tm16 In4 Os1 Pt3'
_cell_volume   622.31146006
_cell_formula_units_Z   1
loop_
 _symmetry_equiv_pos_site_id
 _symmetry_equiv_pos_as_xyz
  1  'x, y, z'
loop_
 _atom_site_type_symbol
 _atom_site_label
 _atom_site_symmetry_multiplicity
 _atom_site_fract_x
 _atom_site_fract_y
 _atom_site_fract_z
 _atom_site_occupancy
  Tm  Tm0  1  0.058716  0.058716  0.436549  1
  Tm  Tm1  1  0.446020  0.058716  0.436549  1
  Tm  Tm2  1  0.063207  0.437607  0.061579  1
  Tm  Tm3  1  0.051583  0.650585  0.647247  1
  Tm  Tm4  1  0.437607  0.437607  0.061579  1
  Tm  Tm5  1  0.650585  0.051583  0.647247  1
  Tm  Tm6  1  0.184632  0.810949  0.193470  1
  Tm  Tm7  1  0.190265  0.190265  0.809769  1
  Tm  Tm8  1  0.810949  0.810949  0.193470  1
  Tm  Tm9  1  0.437607  0.063207  0.061579  1
  Tm  Tm10  1  0.810949  0.184632  0.193470  1
  Tm  Tm11  1  0.058716  0.446020  0.436549  1
  Tm  Tm12  1  0.809702  0.190265  0.809769  1
  Tm  Tm13  1  0.190265  0.809702  0.809769  1
  Tm  Tm14  1  0.648962  0.648962  0.053115  1
  Tm  Tm15  1  0.650585  0.650585  0.647247  1
  In  In16  1  0.417000  0.417000  0.414924  1
  In  In17  1  0.751076  0.417000  0.414924  1
  In  In18  1  0.417000  0.751076  0.414924  1
  In  In19  1  0.415967  0.415967  0.752098  1
  Os  Os20  1  0.857024  0.857024  0.428928  1
  Pt  Pt21  1  0.857206  0.857206  0.858416  1
  Pt  Pt22  1  0.427172  0.857206  0.858416  1
  Pt  Pt23  1  0.857206  0.427172  0.858416  1
