# generated using pymatgen
data_La5Er(CBr5)2
_symmetry_space_group_name_H-M   'P 1'
_cell_length_a   7.68789702
_cell_length_b   9.31286084
_cell_length_c   9.36545497
_cell_angle_alpha   108.36751463
_cell_angle_beta   96.52757239
_cell_angle_gamma   105.76781919
_symmetry_Int_Tables_number   1
_chemical_formula_structural   La5Er(CBr5)2
_chemical_formula_sum   'La5 Er1 C2 Br10'
_cell_volume   597.66583185
_cell_formula_units_Z   1
loop_
 _symmetry_equiv_pos_site_id
 _symmetry_equiv_pos_as_xyz
  1  'x, y, z'
loop_
 _atom_site_type_symbol
 _atom_site_label
 _atom_site_symmetry_multiplicity
 _atom_site_fract_x
 _atom_site_fract_y
 _atom_site_fract_z
 _atom_site_occupancy
  La  La0  1  0.887104  0.959277  0.234291  1
  La  La1  1  0.118579  0.045739  0.767774  1
  La  La2  1  0.028799  0.717909  0.915335  1
  La  La3  1  0.975403  0.283771  0.088059  1
  La  La4  1  0.611133  0.849478  0.802212  1
  Er  Er5  1  0.376446  0.141581  0.187938  1
  C  C6  1  0.910946  0.967937  0.955301  1
  C  C7  1  0.093717  0.033638  0.044562  1
  Br  Br8  1  0.751337  0.916925  0.536237  1
  Br  Br9  1  0.265562  0.090970  0.452009  1
  Br  Br10  1  0.452503  0.832340  0.093364  1
  Br  Br11  1  0.541294  0.182930  0.928750  1
  Br  Br12  1  0.789844  0.262734  0.351375  1
  Br  Br13  1  0.182651  0.730556  0.636672  1
  Br  Br14  1  0.909777  0.629151  0.178654  1
  Br  Br15  1  0.093932  0.374251  0.824831  1
  Br  Br16  1  0.649621  0.531879  0.724443  1
  Br  Br17  1  0.361352  0.448935  0.278191  1
