# generated using pymatgen
data_Zn3Ni4Mo12RuN4
_symmetry_space_group_name_H-M   'P 1'
_cell_length_a   6.73927300
_cell_length_b   6.73927333
_cell_length_c   6.73927312
_cell_angle_alpha   90.22364555
_cell_angle_beta   90.22364727
_cell_angle_gamma   90.22364758
_symmetry_Int_Tables_number   1
_chemical_formula_structural   Zn3Ni4Mo12RuN4
_chemical_formula_sum   'Zn3 Ni4 Mo12 Ru1 N4'
_cell_volume   306.07596389
_cell_formula_units_Z   1
loop_
 _symmetry_equiv_pos_site_id
 _symmetry_equiv_pos_as_xyz
  1  'x, y, z'
loop_
 _atom_site_type_symbol
 _atom_site_label
 _atom_site_symmetry_multiplicity
 _atom_site_fract_x
 _atom_site_fract_y
 _atom_site_fract_z
 _atom_site_occupancy
  Zn  Zn0  1  0.179071  0.820898  0.318689  1
  Zn  Zn1  1  0.318689  0.179071  0.820898  1
  Zn  Zn2  1  0.820898  0.318689  0.179071  1
  Ni  Ni3  1  0.564582  0.428378  0.936910  1
  Ni  Ni4  1  0.428378  0.936910  0.564582  1
  Ni  Ni5  1  0.936910  0.564582  0.428378  1
  Ni  Ni6  1  0.069126  0.069126  0.069126  1
  Mo  Mo7  1  0.790031  0.948250  0.380544  1
  Mo  Mo8  1  0.706238  0.043165  0.878468  1
  Mo  Mo9  1  0.202547  0.455378  0.124334  1
  Mo  Mo10  1  0.300508  0.545463  0.626706  1
  Mo  Mo11  1  0.948250  0.380544  0.790031  1
  Mo  Mo12  1  0.043165  0.878468  0.706238  1
  Mo  Mo13  1  0.455378  0.124334  0.202547  1
  Mo  Mo14  1  0.545463  0.626706  0.300508  1
  Mo  Mo15  1  0.380544  0.790031  0.948250  1
  Mo  Mo16  1  0.878468  0.706238  0.043165  1
  Mo  Mo17  1  0.124334  0.202547  0.455378  1
  Mo  Mo18  1  0.626706  0.300508  0.545463  1
  Ru  Ru19  1  0.681577  0.681577  0.681577  1
  N  N20  1  0.872272  0.126485  0.626380  1
  N  N21  1  0.626380  0.872272  0.126485  1
  N  N22  1  0.126485  0.626380  0.872272  1
  N  N23  1  0.373998  0.373998  0.373998  1
