# generated using pymatgen
data_Pr2Ho5Th(ReB6)4
_symmetry_space_group_name_H-M   'P 1'
_cell_length_a   3.73074800
_cell_length_b   9.23265046
_cell_length_c   11.66745600
_cell_angle_alpha   90.04340820
_cell_angle_beta   90.00000000
_cell_angle_gamma   90.00000000
_symmetry_Int_Tables_number   1
_chemical_formula_structural   Pr2Ho5Th(ReB6)4
_chemical_formula_sum   'Pr2 Ho5 Th1 Re4 B24'
_cell_volume   401.88181595
_cell_formula_units_Z   1
loop_
 _symmetry_equiv_pos_site_id
 _symmetry_equiv_pos_as_xyz
  1  'x, y, z'
loop_
 _atom_site_type_symbol
 _atom_site_label
 _atom_site_symmetry_multiplicity
 _atom_site_fract_x
 _atom_site_fract_y
 _atom_site_fract_z
 _atom_site_occupancy
  Pr  Pr0  1  0.000000  0.678084  0.586906  1
  Pr  Pr1  1  0.000000  0.822799  0.085044  1
  Ho  Ho2  1  0.000000  0.175842  0.913992  1
  Ho  Ho3  1  0.000000  0.942539  0.368550  1
  Ho  Ho4  1  0.000000  0.057075  0.631808  1
  Ho  Ho5  1  0.000000  0.442505  0.128575  1
  Ho  Ho6  1  0.000000  0.556847  0.869870  1
  Th  Th7  1  0.000000  0.322381  0.414398  1
  Re  Re8  1  0.000000  0.637643  0.319921  1
  Re  Re9  1  0.000000  0.359566  0.681366  1
  Re  Re10  1  0.000000  0.140578  0.179500  1
  Re  Re11  1  0.000000  0.862922  0.820304  1
  B  B12  1  0.500000  0.554630  0.430021  1
  B  B13  1  0.500000  0.443700  0.570530  1
  B  B14  1  0.500000  0.056082  0.066808  1
  B  B15  1  0.500000  0.948164  0.931048  1
  B  B16  1  0.500000  0.750208  0.415566  1
  B  B17  1  0.500000  0.249820  0.585521  1
  B  B18  1  0.500000  0.249734  0.080602  1
  B  B19  1  0.500000  0.751076  0.915885  1
  B  B20  1  0.500000  0.790797  0.266012  1
  B  B21  1  0.500000  0.207763  0.736369  1
  B  B22  1  0.500000  0.290920  0.232268  1
  B  B23  1  0.500000  0.709439  0.766840  1
  B  B24  1  0.500000  0.629413  0.185859  1
  B  B25  1  0.500000  0.368436  0.815966  1
  B  B26  1  0.500000  0.130327  0.312714  1
  B  B27  1  0.500000  0.871520  0.687654  1
  B  B28  1  0.500000  0.985361  0.211954  1
  B  B29  1  0.500000  0.018494  0.788504  1
  B  B30  1  0.500000  0.484044  0.286057  1
  B  B31  1  0.500000  0.514716  0.714794  1
  B  B32  1  0.500000  0.596557  0.026517  1
  B  B33  1  0.500000  0.399764  0.971836  1
  B  B34  1  0.500000  0.096800  0.473254  1
  B  B35  1  0.500000  0.903452  0.527187  1
