# generated using pymatgen
data_Er3Zn4InPt4
_symmetry_space_group_name_H-M   'P 1'
_cell_length_a   4.16505500
_cell_length_b   6.83940325
_cell_length_c   8.05673541
_cell_angle_alpha   87.96415002
_cell_angle_beta   90.00000000
_cell_angle_gamma   90.00000000
_symmetry_Int_Tables_number   1
_chemical_formula_structural   Er3Zn4InPt4
_chemical_formula_sum   'Er3 Zn4 In1 Pt4'
_cell_volume   229.36325153
_cell_formula_units_Z   1
loop_
 _symmetry_equiv_pos_site_id
 _symmetry_equiv_pos_as_xyz
  1  'x, y, z'
loop_
 _atom_site_type_symbol
 _atom_site_label
 _atom_site_symmetry_multiplicity
 _atom_site_fract_x
 _atom_site_fract_y
 _atom_site_fract_z
 _atom_site_occupancy
  Er  Er0  1  0.250000  0.536648  0.187114  1
  Er  Er1  1  0.750000  0.962238  0.670884  1
  Er  Er2  1  0.750000  0.458774  0.820509  1
  Zn  Zn3  1  0.250000  0.636709  0.562043  1
  Zn  Zn4  1  0.250000  0.136445  0.942142  1
  Zn  Zn5  1  0.750000  0.364628  0.438719  1
  Zn  Zn6  1  0.750000  0.865482  0.058211  1
  In  In7  1  0.250000  0.040621  0.320825  1
  Pt  Pt8  1  0.250000  0.252417  0.624260  1
  Pt  Pt9  1  0.250000  0.753366  0.872547  1
  Pt  Pt10  1  0.750000  0.748412  0.375174  1
  Pt  Pt11  1  0.750000  0.244260  0.127573  1
