# generated using pymatgen
data_Sm6Sb7Pd16Se
_symmetry_space_group_name_H-M   'P 1'
_cell_length_a   9.40641228
_cell_length_b   9.41263226
_cell_length_c   9.41266110
_cell_angle_alpha   60.04622198
_cell_angle_beta   60.02213423
_cell_angle_gamma   60.02209995
_symmetry_Int_Tables_number   1
_chemical_formula_structural   Sm6Sb7Pd16Se
_chemical_formula_sum   'Sm6 Sb7 Pd16 Se1'
_cell_volume   589.69739604
_cell_formula_units_Z   1
loop_
 _symmetry_equiv_pos_site_id
 _symmetry_equiv_pos_as_xyz
  1  'x, y, z'
loop_
 _atom_site_type_symbol
 _atom_site_label
 _atom_site_symmetry_multiplicity
 _atom_site_fract_x
 _atom_site_fract_y
 _atom_site_fract_z
 _atom_site_occupancy
  Sm  Sm0  1  0.720083  0.279916  0.279917  1
  Sm  Sm1  1  0.279917  0.720084  0.720083  1
  Sm  Sm2  1  0.279627  0.719759  0.280241  1
  Sm  Sm3  1  0.720373  0.280241  0.719759  1
  Sm  Sm4  1  0.279626  0.280241  0.719759  1
  Sm  Sm5  1  0.720374  0.719759  0.280241  1
  Sb  Sb6  1  0.000000  0.000000  0.000000  1
  Sb  Sb7  1  0.500000  0.000000  0.000000  1
  Sb  Sb8  1  0.000000  0.500000  0.500000  1
  Sb  Sb9  1  0.000000  0.500000  0.000000  1
  Sb  Sb10  1  0.500000  0.000000  0.500000  1
  Sb  Sb11  1  0.000000  0.000000  0.500000  1
  Sb  Sb12  1  0.500000  0.500000  0.000000  1
  Pd  Pd13  1  0.118137  0.118050  0.118049  1
  Pd  Pd14  1  0.881863  0.881950  0.881951  1
  Pd  Pd15  1  0.118785  0.118705  0.643725  1
  Pd  Pd16  1  0.118785  0.643724  0.118704  1
  Pd  Pd17  1  0.881215  0.881295  0.356275  1
  Pd  Pd18  1  0.881215  0.356276  0.881296  1
  Pd  Pd19  1  0.645765  0.118049  0.118049  1
  Pd  Pd20  1  0.354235  0.881951  0.881951  1
  Pd  Pd21  1  0.331186  0.331751  0.331750  1
  Pd  Pd22  1  0.668814  0.668249  0.668250  1
  Pd  Pd23  1  0.331742  0.332291  0.004226  1
  Pd  Pd24  1  0.331741  0.004227  0.332290  1
  Pd  Pd25  1  0.668258  0.667709  0.995774  1
  Pd  Pd26  1  0.668259  0.995773  0.667710  1
  Pd  Pd27  1  0.005313  0.331752  0.331750  1
  Pd  Pd28  1  0.994687  0.668248  0.668250  1
  Se  Se29  1  0.500000  0.500000  0.500000  1
