# generated using pymatgen
data_YbSn4(SbRu2)2
_symmetry_space_group_name_H-M   'P 1'
_cell_length_a   6.91100086
_cell_length_b   6.91100031
_cell_length_c   6.95308228
_cell_angle_alpha   119.62856187
_cell_angle_beta   119.62855576
_cell_angle_gamma   90.29960913
_symmetry_Int_Tables_number   1
_chemical_formula_structural   YbSn4(SbRu2)2
_chemical_formula_sum   'Yb1 Sn4 Sb2 Ru4'
_cell_volume   236.83650561
_cell_formula_units_Z   1
loop_
 _symmetry_equiv_pos_site_id
 _symmetry_equiv_pos_as_xyz
  1  'x, y, z'
loop_
 _atom_site_type_symbol
 _atom_site_label
 _atom_site_symmetry_multiplicity
 _atom_site_fract_x
 _atom_site_fract_y
 _atom_site_fract_z
 _atom_site_occupancy
  Yb  Yb0  1  0.000415  0.000415  0.000000  1
  Sn  Sn1  1  0.470875  0.470875  0.352476  1
  Sn  Sn2  1  0.499235  0.999235  0.500000  1
  Sn  Sn3  1  0.999235  0.499235  0.500000  1
  Sn  Sn4  1  0.118399  0.118399  0.647525  1
  Sb  Sb5  1  0.880825  0.527578  0.000000  1
  Sb  Sb6  1  0.527578  0.880825  0.000000  1
  Ru  Ru7  1  0.593407  0.245118  0.000000  1
  Ru  Ru8  1  0.245118  0.593407  0.000000  1
  Ru  Ru9  1  0.746556  0.746556  0.328198  1
  Ru  Ru10  1  0.418358  0.418358  0.671803  1
