# generated using pymatgen
data_Y7Er(Tm3Pt4)4
_symmetry_space_group_name_H-M   'P 1'
_cell_length_a   7.43415713
_cell_length_b   7.52543913
_cell_length_c   14.63517702
_cell_angle_alpha   89.99755991
_cell_angle_beta   90.00491737
_cell_angle_gamma   90.02086602
_symmetry_Int_Tables_number   1
_chemical_formula_structural   Y7Er(Tm3Pt4)4
_chemical_formula_sum   'Y7 Er1 Tm12 Pt16'
_cell_volume   818.76926591
_cell_formula_units_Z   1
loop_
 _symmetry_equiv_pos_site_id
 _symmetry_equiv_pos_as_xyz
  1  'x, y, z'
loop_
 _atom_site_type_symbol
 _atom_site_label
 _atom_site_symmetry_multiplicity
 _atom_site_fract_x
 _atom_site_fract_y
 _atom_site_fract_z
 _atom_site_occupancy
  Y  Y0  1  0.500893  0.679759  0.592538  1
  Y  Y1  1  0.000855  0.820293  0.907513  1
  Y  Y2  1  0.499109  0.320323  0.092548  1
  Y  Y3  1  0.999212  0.179459  0.407537  1
  Y  Y4  1  0.499082  0.320274  0.407465  1
  Y  Y5  1  0.999145  0.179689  0.092540  1
  Y  Y6  1  0.500850  0.679660  0.907452  1
  Er  Er7  1  0.001359  0.819988  0.592662  1
  Tm  Tm8  1  0.656965  0.167579  0.622650  1
  Tm  Tm9  1  0.156796  0.332267  0.877270  1
  Tm  Tm10  1  0.343209  0.832274  0.122695  1
  Tm  Tm11  1  0.843388  0.667836  0.377397  1
  Tm  Tm12  1  0.343167  0.832339  0.377322  1
  Tm  Tm13  1  0.843225  0.667690  0.122718  1
  Tm  Tm14  1  0.656806  0.167711  0.877297  1
  Tm  Tm15  1  0.156751  0.332299  0.622686  1
  Tm  Tm16  1  0.819230  0.510960  0.749894  1
  Tm  Tm17  1  0.319045  0.989128  0.749888  1
  Tm  Tm18  1  0.180839  0.489167  0.250020  1
  Tm  Tm19  1  0.680836  0.010800  0.249994  1
  Pt  Pt20  1  0.682916  0.965968  0.458488  1
  Pt  Pt21  1  0.182601  0.533811  0.041725  1
  Pt  Pt22  1  0.317433  0.033837  0.958317  1
  Pt  Pt23  1  0.817759  0.467024  0.541881  1
  Pt  Pt24  1  0.316328  0.033069  0.541880  1
  Pt  Pt25  1  0.817461  0.466234  0.958306  1
  Pt  Pt26  1  0.682579  0.966186  0.041709  1
  Pt  Pt27  1  0.182376  0.534250  0.458488  1
  Pt  Pt28  1  0.454172  0.386116  0.749975  1
  Pt  Pt29  1  0.954307  0.113512  0.749739  1
  Pt  Pt30  1  0.545805  0.613900  0.250016  1
  Pt  Pt31  1  0.045813  0.886099  0.250016  1
  Pt  Pt32  1  0.683446  0.857493  0.749813  1
  Pt  Pt33  1  0.182528  0.642999  0.749492  1
  Pt  Pt34  1  0.316861  0.142464  0.250033  1
  Pt  Pt35  1  0.816849  0.357545  0.250032  1
