# generated using pymatgen
data_Hf15Ni(Ir2N)4
_symmetry_space_group_name_H-M   'P 1'
_cell_length_a   8.56652124
_cell_length_b   8.70455684
_cell_length_c   8.56652200
_cell_angle_alpha   60.52219907
_cell_angle_beta   60.00046132
_cell_angle_gamma   60.52219185
_symmetry_Int_Tables_number   1
_chemical_formula_structural   Hf15Ni(Ir2N)4
_chemical_formula_sum   'Hf15 Ni1 Ir8 N4'
_cell_volume   455.22425630
_cell_formula_units_Z   1
loop_
 _symmetry_equiv_pos_site_id
 _symmetry_equiv_pos_as_xyz
  1  'x, y, z'
loop_
 _atom_site_type_symbol
 _atom_site_label
 _atom_site_symmetry_multiplicity
 _atom_site_fract_x
 _atom_site_fract_y
 _atom_site_fract_z
 _atom_site_occupancy
  Hf  Hf0  1  0.125006  0.624996  0.625001  1
  Hf  Hf1  1  0.625003  0.624995  0.125006  1
  Hf  Hf2  1  0.625004  0.624997  0.625002  1
  Hf  Hf3  1  0.816360  0.817087  0.183270  1
  Hf  Hf4  1  0.193676  0.185329  0.810494  1
  Hf  Hf5  1  0.810497  0.185339  0.810496  1
  Hf  Hf6  1  0.183278  0.817097  0.183278  1
  Hf  Hf7  1  0.183271  0.817088  0.816360  1
  Hf  Hf8  1  0.810496  0.185328  0.193675  1
  Hf  Hf9  1  0.433634  0.432917  0.066726  1
  Hf  Hf10  1  0.056332  0.064666  0.439495  1
  Hf  Hf11  1  0.439506  0.064666  0.439504  1
  Hf  Hf12  1  0.066722  0.432916  0.066721  1
  Hf  Hf13  1  0.066727  0.432917  0.433633  1
  Hf  Hf14  1  0.439497  0.064666  0.056331  1
  Ni  Ni15  1  0.625001  0.125003  0.625016  1
  Ir  Ir16  1  0.757057  0.403570  0.419689  1
  Ir  Ir17  1  0.408346  0.774957  0.408345  1
  Ir  Ir18  1  0.419687  0.403573  0.757058  1
  Ir  Ir19  1  0.419685  0.403569  0.419685  1
  Ir  Ir20  1  0.492939  0.846425  0.830313  1
  Ir  Ir21  1  0.841655  0.475031  0.841654  1
  Ir  Ir22  1  0.830312  0.846428  0.492939  1
  Ir  Ir23  1  0.830317  0.846427  0.830316  1
  N  N24  1  0.624999  0.125003  0.124997  1
  N  N25  1  0.124998  0.625003  0.124999  1
  N  N26  1  0.124999  0.125003  0.624998  1
  N  N27  1  0.124999  0.125003  0.124997  1
