# generated using pymatgen
data_Ho8In2NiIr
_symmetry_space_group_name_H-M   'P 1'
_cell_length_a   9.57893247
_cell_length_b   9.60003788
_cell_length_c   9.60003783
_cell_angle_alpha   60.41120385
_cell_angle_beta   60.07269681
_cell_angle_gamma   60.07270203
_symmetry_Int_Tables_number   1
_chemical_formula_structural   Ho8In2NiIr
_chemical_formula_sum   'Ho16 In4 Ni2 Ir2'
_cell_volume   626.84307437
_cell_formula_units_Z   2
loop_
 _symmetry_equiv_pos_site_id
 _symmetry_equiv_pos_as_xyz
  1  'x, y, z'
loop_
 _atom_site_type_symbol
 _atom_site_label
 _atom_site_symmetry_multiplicity
 _atom_site_fract_x
 _atom_site_fract_y
 _atom_site_fract_z
 _atom_site_occupancy
  Ho  Ho0  1  0.441210  0.436736  0.061036  1
  Ho  Ho1  1  0.650326  0.652404  0.046946  1
  Ho  Ho2  1  0.190718  0.809122  0.189071  1
  Ho  Ho3  1  0.061018  0.436736  0.061036  1
  Ho  Ho4  1  0.189829  0.810171  0.810171  1
  Ho  Ho5  1  0.060393  0.439607  0.439607  1
  Ho  Ho6  1  0.809153  0.190847  0.190847  1
  Ho  Ho7  1  0.650902  0.652033  0.652033  1
  Ho  Ho8  1  0.811089  0.189071  0.809122  1
  Ho  Ho9  1  0.190718  0.189071  0.809122  1
  Ho  Ho10  1  0.045033  0.652033  0.652033  1
  Ho  Ho11  1  0.438065  0.061935  0.061935  1
  Ho  Ho12  1  0.061018  0.061036  0.436736  1
  Ho  Ho13  1  0.650326  0.046946  0.652404  1
  Ho  Ho14  1  0.811089  0.809122  0.189071  1
  Ho  Ho15  1  0.441210  0.061036  0.436736  1
  In  In16  1  0.417392  0.417097  0.417097  1
  In  In17  1  0.417342  0.417108  0.748210  1
  In  In18  1  0.417342  0.748210  0.417108  1
  In  In19  1  0.748415  0.417097  0.417097  1
  Ni  Ni20  1  0.424242  0.858963  0.858963  1
  Ni  Ni21  1  0.857831  0.858963  0.858963  1
  Ir  Ir22  1  0.857672  0.425460  0.859196  1
  Ir  Ir23  1  0.857672  0.859196  0.425460  1
