# generated using pymatgen
data_Nd8Gd12Si15Os
_symmetry_space_group_name_H-M   'P 1'
_cell_length_a   7.41289600
_cell_length_b   7.81493728
_cell_length_c   14.72166100
_cell_angle_alpha   90.00000000
_cell_angle_beta   90.00000000
_cell_angle_gamma   90.09734134
_symmetry_Int_Tables_number   1
_chemical_formula_structural   Nd8Gd12Si15Os
_chemical_formula_sum   'Nd8 Gd12 Si15 Os1'
_cell_volume   852.84398363
_cell_formula_units_Z   1
loop_
 _symmetry_equiv_pos_site_id
 _symmetry_equiv_pos_as_xyz
  1  'x, y, z'
loop_
 _atom_site_type_symbol
 _atom_site_label
 _atom_site_symmetry_multiplicity
 _atom_site_fract_x
 _atom_site_fract_y
 _atom_site_fract_z
 _atom_site_occupancy
  Nd  Nd0  1  0.019530  0.182869  0.096488  1
  Nd  Nd1  1  0.983770  0.823782  0.903721  1
  Nd  Nd2  1  0.481779  0.678890  0.904786  1
  Nd  Nd3  1  0.983770  0.823782  0.596279  1
  Nd  Nd4  1  0.519588  0.319993  0.095807  1
  Nd  Nd5  1  0.019530  0.182869  0.403512  1
  Nd  Nd6  1  0.519588  0.319993  0.404193  1
  Nd  Nd7  1  0.481779  0.678890  0.595214  1
  Gd  Gd8  1  0.149466  0.511811  0.750000  1
  Gd  Gd9  1  0.846554  0.489491  0.250000  1
  Gd  Gd10  1  0.347921  0.014683  0.250000  1
  Gd  Gd11  1  0.665105  0.989100  0.750000  1
  Gd  Gd12  1  0.312872  0.174732  0.627125  1
  Gd  Gd13  1  0.677731  0.821907  0.376659  1
  Gd  Gd14  1  0.177405  0.682083  0.376538  1
  Gd  Gd15  1  0.677731  0.821907  0.123341  1
  Gd  Gd16  1  0.829098  0.315427  0.625158  1
  Gd  Gd17  1  0.312872  0.174732  0.872875  1
  Gd  Gd18  1  0.829098  0.315427  0.874842  1
  Gd  Gd19  1  0.177405  0.682083  0.123462  1
  Si  Si20  1  0.970595  0.897406  0.250000  1
  Si  Si21  1  0.469214  0.602349  0.250000  1
  Si  Si22  1  0.527736  0.396358  0.750000  1
  Si  Si23  1  0.271379  0.868816  0.750000  1
  Si  Si24  1  0.732644  0.122807  0.250000  1
  Si  Si25  1  0.231357  0.381247  0.250000  1
  Si  Si26  1  0.763463  0.619220  0.750000  1
  Si  Si27  1  0.149832  0.472411  0.538018  1
  Si  Si28  1  0.853310  0.531773  0.462122  1
  Si  Si29  1  0.351201  0.969824  0.461964  1
  Si  Si30  1  0.853310  0.531773  0.037878  1
  Si  Si31  1  0.643885  0.030077  0.537808  1
  Si  Si32  1  0.149832  0.472411  0.961982  1
  Si  Si33  1  0.643885  0.030077  0.962192  1
  Si  Si34  1  0.351201  0.969824  0.038036  1
  Os  Os35  1  0.024568  0.099180  0.750000  1
