# generated using pymatgen
data_Hf5Sc3V12Si15P
_symmetry_space_group_name_H-M   'P 1'
_cell_length_a   6.60533076
_cell_length_b   6.59073339
_cell_length_c   12.21398867
_cell_angle_alpha   90.01392087
_cell_angle_beta   90.02795907
_cell_angle_gamma   89.99235069
_symmetry_Int_Tables_number   1
_chemical_formula_structural   Hf5Sc3V12Si15P
_chemical_formula_sum   'Hf5 Sc3 V12 Si15 P1'
_cell_volume   531.72338097
_cell_formula_units_Z   1
loop_
 _symmetry_equiv_pos_site_id
 _symmetry_equiv_pos_as_xyz
  1  'x, y, z'
loop_
 _atom_site_type_symbol
 _atom_site_label
 _atom_site_symmetry_multiplicity
 _atom_site_fract_x
 _atom_site_fract_y
 _atom_site_fract_z
 _atom_site_occupancy
  Hf  Hf0  1  0.005924  0.663236  0.030041  1
  Hf  Hf1  1  0.836413  0.502946  0.280112  1
  Hf  Hf2  1  0.161920  0.495982  0.780235  1
  Hf  Hf3  1  0.503429  0.836989  0.720077  1
  Hf  Hf4  1  0.494256  0.161103  0.217916  1
  Sc  Sc5  1  0.998098  0.337602  0.529546  1
  Sc  Sc6  1  0.658769  0.001340  0.971295  1
  Sc  Sc7  1  0.337723  0.998469  0.470560  1
  V  V8  1  0.330045  0.330959  0.001034  1
  V  V9  1  0.168124  0.835235  0.246900  1
  V  V10  1  0.833490  0.166767  0.749696  1
  V  V11  1  0.667015  0.666671  0.500055  1
  V  V12  1  0.008054  0.156854  0.125632  1
  V  V13  1  0.340796  0.505041  0.375088  1
  V  V14  1  0.661344  0.496126  0.876066  1
  V  V15  1  0.504767  0.342511  0.624772  1
  V  V16  1  0.491914  0.664562  0.123228  1
  V  V17  1  0.995681  0.840431  0.627872  1
  V  V18  1  0.162567  0.002347  0.876826  1
  V  V19  1  0.839512  0.994802  0.372607  1
  Si  Si20  1  0.537899  0.793490  0.315574  1
  Si  Si21  1  0.462671  0.207239  0.815202  1
  Si  Si22  1  0.794079  0.538379  0.684725  1
  Si  Si23  1  0.207476  0.460689  0.185946  1
  Si  Si24  1  0.708645  0.039413  0.563841  1
  Si  Si25  1  0.958091  0.290013  0.935360  1
  Si  Si26  1  0.039664  0.708643  0.435531  1
  Si  Si27  1  0.703910  0.373766  0.071127  1
  Si  Si28  1  0.126961  0.204561  0.321216  1
  Si  Si29  1  0.872511  0.796638  0.822085  1
  Si  Si30  1  0.204350  0.127701  0.680193  1
  Si  Si31  1  0.794210  0.873046  0.179538  1
  Si  Si32  1  0.295531  0.628260  0.570495  1
  Si  Si33  1  0.375035  0.701191  0.927024  1
  Si  Si34  1  0.627322  0.295602  0.428932  1
  P  P35  1  0.291806  0.961395  0.063652  1
