# generated using pymatgen
data_TbYBePt6
_symmetry_space_group_name_H-M   'P 1'
_cell_length_a   5.98719205
_cell_length_b   5.98719182
_cell_length_c   5.98719300
_cell_angle_alpha   60.00001007
_cell_angle_beta   60.00001131
_cell_angle_gamma   60.00000311
_symmetry_Int_Tables_number   1
_chemical_formula_structural   TbYBePt6
_chemical_formula_sum   'Tb1 Y1 Be1 Pt6'
_cell_volume   151.75908594
_cell_formula_units_Z   1
loop_
 _symmetry_equiv_pos_site_id
 _symmetry_equiv_pos_as_xyz
  1  'x, y, z'
loop_
 _atom_site_type_symbol
 _atom_site_label
 _atom_site_symmetry_multiplicity
 _atom_site_fract_x
 _atom_site_fract_y
 _atom_site_fract_z
 _atom_site_occupancy
  Tb  Tb0  1  0.750000  0.750000  0.750000  1
  Y  Y1  1  0.250001  0.250001  0.250001  1
  Be  Be2  1  0.500000  0.500000  0.500000  1
  Pt  Pt3  1  0.238644  0.761356  0.238644  1
  Pt  Pt4  1  0.761356  0.238644  0.238644  1
  Pt  Pt5  1  0.761356  0.761356  0.238644  1
  Pt  Pt6  1  0.238644  0.238644  0.761356  1
  Pt  Pt7  1  0.761356  0.238644  0.761356  1
  Pt  Pt8  1  0.238644  0.761356  0.761356  1
