# generated using pymatgen
data_Tb4Ga20PdPt10
_symmetry_space_group_name_H-M   'P 1'
_cell_length_a   4.17721471
_cell_length_b   11.00393407
_cell_length_c   13.72998524
_cell_angle_alpha   82.20227690
_cell_angle_beta   81.25019114
_cell_angle_gamma   79.05856599
_symmetry_Int_Tables_number   1
_chemical_formula_structural   Tb4Ga20PdPt10
_chemical_formula_sum   'Tb4 Ga20 Pd1 Pt10'
_cell_volume   608.70525975
_cell_formula_units_Z   1
loop_
 _symmetry_equiv_pos_site_id
 _symmetry_equiv_pos_as_xyz
  1  'x, y, z'
loop_
 _atom_site_type_symbol
 _atom_site_label
 _atom_site_symmetry_multiplicity
 _atom_site_fract_x
 _atom_site_fract_y
 _atom_site_fract_z
 _atom_site_occupancy
  Tb  Tb0  1  0.877111  0.910157  0.335618  1
  Tb  Tb1  1  0.122889  0.089843  0.664382  1
  Tb  Tb2  1  0.226164  0.367854  0.179817  1
  Tb  Tb3  1  0.773836  0.632146  0.820183  1
  Ga  Ga4  1  0.992155  0.927639  0.088051  1
  Ga  Ga5  1  0.007845  0.072361  0.911949  1
  Ga  Ga6  1  0.933665  0.328524  0.804146  1
  Ga  Ga7  1  0.066335  0.671476  0.195854  1
  Ga  Ga8  1  0.897333  0.660301  0.545032  1
  Ga  Ga9  1  0.102667  0.339699  0.454968  1
  Ga  Ga10  1  0.797521  0.396499  0.008460  1
  Ga  Ga11  1  0.202479  0.603501  0.991540  1
  Ga  Ga12  1  0.742127  0.217199  0.298549  1
  Ga  Ga13  1  0.257873  0.782801  0.701451  1
  Ga  Ga14  1  0.697089  0.101137  0.504683  1
  Ga  Ga15  1  0.302911  0.898863  0.495317  1
  Ga  Ga16  1  0.613178  0.474293  0.299354  1
  Ga  Ga17  1  0.386822  0.525707  0.700646  1
  Ga  Ga18  1  0.603221  0.794870  0.998686  1
  Ga  Ga19  1  0.396779  0.205130  0.001314  1
  Ga  Ga20  1  0.457543  0.714844  0.370069  1
  Ga  Ga21  1  0.542457  0.285156  0.629931  1
  Ga  Ga22  1  0.364913  0.063009  0.207166  1
  Ga  Ga23  1  0.635087  0.936991  0.792834  1
  Pd  Pd24  1  0.500000  0.500000  0.500000  1
  Pt  Pt25  1  0.971952  0.427628  0.628467  1
  Pt  Pt26  1  0.028048  0.572372  0.371533  1
  Pt  Pt27  1  0.862965  0.163362  0.110707  1
  Pt  Pt28  1  0.137035  0.836638  0.889293  1
  Pt  Pt29  1  0.758852  0.873745  0.608553  1
  Pt  Pt30  1  0.241148  0.126255  0.391447  1
  Pt  Pt31  1  0.655058  0.581451  0.108433  1
  Pt  Pt32  1  0.344942  0.418549  0.891567  1
  Pt  Pt33  1  0.495042  0.828626  0.181289  1
  Pt  Pt34  1  0.504958  0.171374  0.818711  1
