# generated using pymatgen
data_Li6ZnCd2(Sn3O8)3
_symmetry_space_group_name_H-M   'P 1'
_cell_length_a   10.81795880
_cell_length_b   10.81795930
_cell_length_c   10.13853227
_cell_angle_alpha   89.88136824
_cell_angle_beta   90.11862852
_cell_angle_gamma   120.05695016
_symmetry_Int_Tables_number   1
_chemical_formula_structural   Li6ZnCd2(Sn3O8)3
_chemical_formula_sum   'Li12 Zn2 Cd4 Sn18 O48'
_cell_volume   1026.94132719
_cell_formula_units_Z   2
loop_
 _symmetry_equiv_pos_site_id
 _symmetry_equiv_pos_as_xyz
  1  'x, y, z'
loop_
 _atom_site_type_symbol
 _atom_site_label
 _atom_site_symmetry_multiplicity
 _atom_site_fract_x
 _atom_site_fract_y
 _atom_site_fract_z
 _atom_site_occupancy
  Li  Li0  1  0.335134  0.697028  0.720191  1
  Li  Li1  1  0.334090  0.834112  0.490134  1
  Li  Li2  1  0.665415  0.305906  0.220613  1
  Li  Li3  1  0.833944  0.332578  0.488822  1
  Li  Li4  1  0.166822  0.167040  0.987705  1
  Li  Li5  1  0.302972  0.664866  0.220191  1
  Li  Li6  1  0.667422  0.166056  0.988822  1
  Li  Li7  1  0.165888  0.665910  0.990134  1
  Li  Li8  1  0.980678  0.981606  0.716916  1
  Li  Li9  1  0.694094  0.334585  0.720613  1
  Li  Li10  1  0.018394  0.019322  0.216916  1
  Li  Li11  1  0.832960  0.833178  0.487705  1
  Zn  Zn12  1  0.332147  0.998087  0.803781  1
  Zn  Zn13  1  0.001913  0.667853  0.303781  1
  Cd  Cd14  1  0.665000  0.000480  0.310793  1
  Cd  Cd15  1  0.999520  0.335000  0.810793  1
  Cd  Cd16  1  0.668197  0.667174  0.810169  1
  Cd  Cd17  1  0.332826  0.331803  0.310169  1
  Sn  Sn18  1  0.160389  0.508057  0.495711  1
  Sn  Sn19  1  0.156715  0.981129  0.497132  1
  Sn  Sn20  1  0.507432  0.676251  0.495233  1
  Sn  Sn21  1  0.986595  0.161785  0.496642  1
  Sn  Sn22  1  0.685454  0.508606  0.493212  1
  Sn  Sn23  1  0.501437  0.160326  0.501570  1
  Sn  Sn24  1  0.323749  0.492568  0.995233  1
  Sn  Sn25  1  0.006073  0.669953  0.718825  1
  Sn  Sn26  1  0.673664  0.670011  0.215216  1
  Sn  Sn27  1  0.839674  0.498563  0.001570  1
  Sn  Sn28  1  0.018871  0.843285  0.997132  1
  Sn  Sn29  1  0.663383  0.002229  0.716516  1
  Sn  Sn30  1  0.997771  0.336617  0.216516  1
  Sn  Sn31  1  0.330047  0.993927  0.218825  1
  Sn  Sn32  1  0.491943  0.839611  0.995711  1
  Sn  Sn33  1  0.329989  0.326336  0.715216  1
  Sn  Sn34  1  0.491394  0.314546  0.993212  1
  Sn  Sn35  1  0.838215  0.013405  0.996642  1
  O  O36  1  0.494687  0.168689  0.120809  1
  O  O37  1  0.335830  0.664590  0.899703  1
  O  O38  1  0.834526  0.006116  0.616672  1
  O  O39  1  0.831311  0.505313  0.620809  1
  O  O40  1  0.841384  0.841743  0.111138  1
  O  O41  1  0.667258  0.663787  0.594558  1
  O  O42  1  0.336213  0.332742  0.094558  1
  O  O43  1  0.660173  0.166894  0.618215  1
  O  O44  1  0.326827  0.137802  0.375568  1
  O  O45  1  0.528818  0.524040  0.367464  1
  O  O46  1  0.663993  0.997899  0.094462  1
  O  O47  1  0.669599  0.338476  0.901136  1
  O  O48  1  0.167868  0.662133  0.619475  1
  O  O49  1  0.862198  0.673173  0.875568  1
  O  O50  1  0.166175  0.999388  0.117750  1
  O  O51  1  0.998650  0.670458  0.104983  1
  O  O52  1  0.335410  0.664170  0.399703  1
  O  O53  1  0.661524  0.330401  0.401136  1
  O  O54  1  0.994626  0.524485  0.866367  1
  O  O55  1  0.502738  0.985080  0.854742  1
  O  O56  1  0.806680  0.141094  0.863118  1
  O  O57  1  0.000612  0.833825  0.617750  1
  O  O58  1  0.475960  0.471182  0.867464  1
  O  O59  1  0.174930  0.847200  0.360138  1
  O  O60  1  0.664148  0.805307  0.358871  1
  O  O61  1  0.142224  0.334344  0.371892  1
  O  O62  1  0.329542  0.001350  0.604983  1
  O  O63  1  0.498962  0.664866  0.106759  1
  O  O64  1  0.002101  0.336007  0.594462  1
  O  O65  1  0.171942  0.494977  0.115471  1
  O  O66  1  0.342754  0.181850  0.852690  1
  O  O67  1  0.505023  0.828058  0.615471  1
  O  O68  1  0.995265  0.997000  0.899490  1
  O  O69  1  0.993884  0.165474  0.116672  1
  O  O70  1  0.003000  0.004735  0.399490  1
  O  O71  1  0.158257  0.158616  0.611138  1
  O  O72  1  0.152800  0.825070  0.860138  1
  O  O73  1  0.665656  0.857776  0.871892  1
  O  O74  1  0.194693  0.335852  0.858871  1
  O  O75  1  0.818150  0.657246  0.352690  1
  O  O76  1  0.833106  0.339827  0.118215  1
  O  O77  1  0.014920  0.497262  0.354742  1
  O  O78  1  0.335134  0.501038  0.606759  1
  O  O79  1  0.475515  0.005374  0.366367  1
  O  O80  1  0.337867  0.832132  0.119475  1
  O  O81  1  0.858906  0.193320  0.363118  1
  O  O82  1  0.664161  0.496214  0.107346  1
  O  O83  1  0.503786  0.335839  0.607346  1
