# generated using pymatgen
data_Hf18Ti2Re5MoP2
_symmetry_space_group_name_H-M   'P 1'
_cell_length_a   8.61107008
_cell_length_b   8.61107028
_cell_length_c   8.56413000
_cell_angle_alpha   90.00000000
_cell_angle_beta   90.00000000
_cell_angle_gamma   120.01600945
_symmetry_Int_Tables_number   1
_chemical_formula_structural   Hf18Ti2Re5MoP2
_chemical_formula_sum   'Hf18 Ti2 Re5 Mo1 P2'
_cell_volume   549.86750658
_cell_formula_units_Z   1
loop_
 _symmetry_equiv_pos_site_id
 _symmetry_equiv_pos_as_xyz
  1  'x, y, z'
loop_
 _atom_site_type_symbol
 _atom_site_label
 _atom_site_symmetry_multiplicity
 _atom_site_fract_x
 _atom_site_fract_y
 _atom_site_fract_z
 _atom_site_occupancy
  Hf  Hf0  1  0.196275  0.803725  0.450421  1
  Hf  Hf1  1  0.197083  0.393536  0.450920  1
  Hf  Hf2  1  0.606464  0.802917  0.450920  1
  Hf  Hf3  1  0.803244  0.196756  0.550734  1
  Hf  Hf4  1  0.803803  0.607630  0.550069  1
  Hf  Hf5  1  0.392370  0.196197  0.550069  1
  Hf  Hf6  1  0.803244  0.196756  0.949266  1
  Hf  Hf7  1  0.803803  0.607630  0.949931  1
  Hf  Hf8  1  0.392370  0.196197  0.949931  1
  Hf  Hf9  1  0.196275  0.803725  0.049579  1
  Hf  Hf10  1  0.197083  0.393536  0.049080  1
  Hf  Hf11  1  0.606464  0.802917  0.049080  1
  Hf  Hf12  1  0.540335  0.459665  0.250000  1
  Hf  Hf13  1  0.539873  0.080380  0.250000  1
  Hf  Hf14  1  0.919620  0.460127  0.250000  1
  Hf  Hf15  1  0.459763  0.540237  0.750000  1
  Hf  Hf16  1  0.459524  0.919301  0.750000  1
  Hf  Hf17  1  0.080699  0.540476  0.750000  1
  Ti  Ti18  1  0.000288  0.999712  0.500453  1
  Ti  Ti19  1  0.000288  0.999712  0.999547  1
  Re  Re20  1  0.887995  0.775579  0.250000  1
  Re  Re21  1  0.224421  0.112005  0.250000  1
  Re  Re22  1  0.111729  0.888271  0.750000  1
  Re  Re23  1  0.111916  0.223238  0.750000  1
  Re  Re24  1  0.776762  0.888084  0.750000  1
  Mo  Mo25  1  0.888704  0.111296  0.250000  1
  P  P26  1  0.333179  0.666821  0.250000  1
  P  P27  1  0.666428  0.333572  0.750000  1
