# generated using pymatgen
data_Tb2Er18Sn11Sb5
_symmetry_space_group_name_H-M   'P 1'
_cell_length_a   8.07083818
_cell_length_b   8.08242103
_cell_length_c   15.28145100
_cell_angle_alpha   90.20609713
_cell_angle_beta   90.27825787
_cell_angle_gamma   89.77504743
_symmetry_Int_Tables_number   1
_chemical_formula_structural   Tb2Er18Sn11Sb5
_chemical_formula_sum   'Tb2 Er18 Sn11 Sb5'
_cell_volume   996.81245105
_cell_formula_units_Z   1
loop_
 _symmetry_equiv_pos_site_id
 _symmetry_equiv_pos_as_xyz
  1  'x, y, z'
loop_
 _atom_site_type_symbol
 _atom_site_label
 _atom_site_symmetry_multiplicity
 _atom_site_fract_x
 _atom_site_fract_y
 _atom_site_fract_z
 _atom_site_occupancy
  Tb  Tb0  1  0.537487  0.326026  0.602193  1
  Tb  Tb1  1  0.043952  0.177200  0.896336  1
  Er  Er2  1  0.385627  0.839408  0.880143  1
  Er  Er3  1  0.883619  0.661173  0.621076  1
  Er  Er4  1  0.617165  0.159394  0.378477  1
  Er  Er5  1  0.115240  0.338396  0.121415  1
  Er  Er6  1  0.615664  0.160724  0.120521  1
  Er  Er7  1  0.117292  0.337818  0.379050  1
  Er  Er8  1  0.381980  0.839346  0.621437  1
  Er  Er9  1  0.884499  0.660817  0.878862  1
  Er  Er10  1  0.553930  0.334462  0.892215  1
  Er  Er11  1  0.051968  0.171139  0.606592  1
  Er  Er12  1  0.448594  0.671135  0.393644  1
  Er  Er13  1  0.948283  0.826748  0.106866  1
  Er  Er14  1  0.453082  0.665760  0.107168  1
  Er  Er15  1  0.961124  0.826205  0.396754  1
  Er  Er16  1  0.214741  0.502322  0.747234  1
  Er  Er17  1  0.714989  0.000268  0.749611  1
  Er  Er18  1  0.785062  0.497788  0.248620  1
  Er  Er19  1  0.285505  0.999924  0.252820  1
  Sn  Sn20  1  0.219505  0.530898  0.542611  1
  Sn  Sn21  1  0.279732  0.028319  0.456635  1
  Sn  Sn22  1  0.776249  0.473443  0.043339  1
  Sn  Sn23  1  0.580074  0.627453  0.749785  1
  Sn  Sn24  1  0.080295  0.875023  0.751828  1
  Sn  Sn25  1  0.419766  0.372593  0.249568  1
  Sn  Sn26  1  0.920109  0.124613  0.249906  1
  Sn  Sn27  1  0.352365  0.145564  0.752148  1
  Sn  Sn28  1  0.851709  0.355565  0.748428  1
  Sn  Sn29  1  0.648162  0.853096  0.250236  1
  Sn  Sn30  1  0.146714  0.644678  0.249662  1
  Sb  Sb31  1  0.270554  0.018073  0.046978  1
  Sb  Sb32  1  0.772310  0.476970  0.454069  1
  Sb  Sb33  1  0.728430  0.976778  0.544989  1
  Sb  Sb34  1  0.228542  0.523227  0.954639  1
  Sb  Sb35  1  0.725683  0.977659  0.954146  1
