# generated using pymatgen
data_Nd6NbNi17P12
_symmetry_space_group_name_H-M   'P 1'
_cell_length_a   3.85461000
_cell_length_b   10.71884300
_cell_length_c   12.50503600
_cell_angle_alpha   90.00000000
_cell_angle_beta   90.00000000
_cell_angle_gamma   90.00000000
_symmetry_Int_Tables_number   1
_chemical_formula_structural   Nd6NbNi17P12
_chemical_formula_sum   'Nd6 Nb1 Ni17 P12'
_cell_volume   516.67006491
_cell_formula_units_Z   1
loop_
 _symmetry_equiv_pos_site_id
 _symmetry_equiv_pos_as_xyz
  1  'x, y, z'
loop_
 _atom_site_type_symbol
 _atom_site_label
 _atom_site_symmetry_multiplicity
 _atom_site_fract_x
 _atom_site_fract_y
 _atom_site_fract_z
 _atom_site_occupancy
  Nd  Nd0  1  0.000000  0.500000  0.522611  1
  Nd  Nd1  1  0.500000  0.000000  0.482379  1
  Nd  Nd2  1  0.500000  0.817139  0.206688  1
  Nd  Nd3  1  0.500000  0.182861  0.206688  1
  Nd  Nd4  1  0.000000  0.685948  0.795878  1
  Nd  Nd5  1  0.000000  0.314052  0.795878  1
  Nb  Nb6  1  0.500000  0.500000  0.148965  1
  Ni  Ni7  1  0.000000  0.000000  0.841049  1
  Ni  Ni8  1  0.500000  0.500000  0.701773  1
  Ni  Ni9  1  0.000000  0.000000  0.300993  1
  Ni  Ni10  1  0.000000  0.500000  0.982356  1
  Ni  Ni11  1  0.500000  0.000000  0.017785  1
  Ni  Ni12  1  0.500000  0.326131  0.990321  1
  Ni  Ni13  1  0.500000  0.673869  0.990321  1
  Ni  Ni14  1  0.000000  0.160179  0.003403  1
  Ni  Ni15  1  0.000000  0.839821  0.003403  1
  Ni  Ni16  1  0.500000  0.300576  0.427476  1
  Ni  Ni17  1  0.500000  0.699424  0.427476  1
  Ni  Ni18  1  0.000000  0.198537  0.574062  1
  Ni  Ni19  1  0.000000  0.801463  0.574062  1
  Ni  Ni20  1  0.500000  0.881606  0.712216  1
  Ni  Ni21  1  0.500000  0.118394  0.712216  1
  Ni  Ni22  1  0.000000  0.618090  0.289418  1
  Ni  Ni23  1  0.000000  0.381910  0.289418  1
  P  P24  1  0.500000  0.500000  0.882352  1
  P  P25  1  0.000000  0.000000  0.122064  1
  P  P26  1  0.500000  0.500000  0.345732  1
  P  P27  1  0.000000  0.000000  0.660848  1
  P  P28  1  0.500000  0.308403  0.613958  1
  P  P29  1  0.500000  0.691597  0.613958  1
  P  P30  1  0.000000  0.190154  0.388767  1
  P  P31  1  0.000000  0.809846  0.388767  1
  P  P32  1  0.500000  0.853911  0.893741  1
  P  P33  1  0.500000  0.146089  0.893741  1
  P  P34  1  0.000000  0.658449  0.099623  1
  P  P35  1  0.000000  0.341551  0.099623  1
