# generated using pymatgen
data_TbNd(PN3)2
_symmetry_space_group_name_H-M   'P 1'
_cell_length_a   7.29638606
_cell_length_b   7.29638530
_cell_length_c   4.85579243
_cell_angle_alpha   88.88060962
_cell_angle_beta   88.88060138
_cell_angle_gamma   102.61278755
_symmetry_Int_Tables_number   1
_chemical_formula_structural   TbNd(PN3)2
_chemical_formula_sum   'Tb2 Nd2 P4 N12'
_cell_volume   252.14747418
_cell_formula_units_Z   2
loop_
 _symmetry_equiv_pos_site_id
 _symmetry_equiv_pos_as_xyz
  1  'x, y, z'
loop_
 _atom_site_type_symbol
 _atom_site_label
 _atom_site_symmetry_multiplicity
 _atom_site_fract_x
 _atom_site_fract_y
 _atom_site_fract_z
 _atom_site_occupancy
  Tb  Tb0  1  0.296156  0.703844  0.750000  1
  Tb  Tb1  1  0.703844  0.296156  0.250000  1
  Nd  Nd2  1  0.098005  0.901995  0.250000  1
  Nd  Nd3  1  0.901995  0.098005  0.750000  1
  P  P4  1  0.375593  0.229628  0.809880  1
  P  P5  1  0.624407  0.770372  0.190120  1
  P  P6  1  0.770372  0.624407  0.690120  1
  P  P7  1  0.229628  0.375593  0.309880  1
  N  N8  1  0.974215  0.753486  0.739221  1
  N  N9  1  0.766750  0.396991  0.776856  1
  N  N10  1  0.753486  0.974215  0.239221  1
  N  N11  1  0.233250  0.603009  0.223144  1
  N  N12  1  0.025785  0.246514  0.260779  1
  N  N13  1  0.246514  0.025785  0.760779  1
  N  N14  1  0.603009  0.233250  0.723144  1
  N  N15  1  0.611591  0.712858  0.860520  1
  N  N16  1  0.388409  0.287142  0.139480  1
  N  N17  1  0.396991  0.766750  0.276856  1
  N  N18  1  0.712858  0.611591  0.360520  1
  N  N19  1  0.287142  0.388409  0.639480  1
