# generated using pymatgen
data_Hf3ZnSn2Ir2Rh
_symmetry_space_group_name_H-M   'P 1'
_cell_length_a   7.57216803
_cell_length_b   7.57216745
_cell_length_c   3.33009200
_cell_angle_alpha   90.00000000
_cell_angle_beta   90.00000000
_cell_angle_gamma   120.47841717
_symmetry_Int_Tables_number   1
_chemical_formula_structural   Hf3ZnSn2Ir2Rh
_chemical_formula_sum   'Hf3 Zn1 Sn2 Ir2 Rh1'
_cell_volume   164.55587622
_cell_formula_units_Z   1
loop_
 _symmetry_equiv_pos_site_id
 _symmetry_equiv_pos_as_xyz
  1  'x, y, z'
loop_
 _atom_site_type_symbol
 _atom_site_label
 _atom_site_symmetry_multiplicity
 _atom_site_fract_x
 _atom_site_fract_y
 _atom_site_fract_z
 _atom_site_occupancy
  Hf  Hf0  1  0.412883  0.412883  0.500000  1
  Hf  Hf1  1  0.608233  0.975609  0.500000  1
  Hf  Hf2  1  0.975609  0.608233  0.500000  1
  Zn  Zn3  1  0.723404  0.723404  0.000000  1
  Sn  Sn4  1  0.274892  0.001601  0.000000  1
  Sn  Sn5  1  0.001601  0.274892  0.000000  1
  Ir  Ir6  1  0.670276  0.339378  0.000000  1
  Ir  Ir7  1  0.339378  0.670276  0.000000  1
  Rh  Rh8  1  0.993723  0.993723  0.500000  1
