# generated using pymatgen
data_Hf6Al6Ir2PdPt3
_symmetry_space_group_name_H-M   'P 1'
_cell_length_a   7.13913000
_cell_length_b   7.13913092
_cell_length_c   7.14252500
_cell_angle_alpha   90.00000000
_cell_angle_beta   90.00000000
_cell_angle_gamma   119.99999575
_symmetry_Int_Tables_number   1
_chemical_formula_structural   Hf6Al6Ir2PdPt3
_chemical_formula_sum   'Hf6 Al6 Ir2 Pd1 Pt3'
_cell_volume   315.26303772
_cell_formula_units_Z   1
loop_
 _symmetry_equiv_pos_site_id
 _symmetry_equiv_pos_as_xyz
  1  'x, y, z'
loop_
 _atom_site_type_symbol
 _atom_site_label
 _atom_site_symmetry_multiplicity
 _atom_site_fract_x
 _atom_site_fract_y
 _atom_site_fract_z
 _atom_site_occupancy
  Hf  Hf0  1  0.583444  0.989348  0.750000  1
  Hf  Hf1  1  0.010652  0.594097  0.750000  1
  Hf  Hf2  1  0.405903  0.416556  0.750000  1
  Hf  Hf3  1  0.977690  0.586657  0.250000  1
  Hf  Hf4  1  0.608967  0.022310  0.250000  1
  Hf  Hf5  1  0.413343  0.391033  0.250000  1
  Al  Al6  1  0.739366  0.741198  0.998671  1
  Al  Al7  1  0.258802  0.998169  0.998671  1
  Al  Al8  1  0.001831  0.260634  0.998671  1
  Al  Al9  1  0.739366  0.741198  0.501329  1
  Al  Al10  1  0.258802  0.998169  0.501329  1
  Al  Al11  1  0.001831  0.260634  0.501329  1
  Ir  Ir12  1  0.666667  0.333333  0.982001  1
  Ir  Ir13  1  0.666667  0.333333  0.517999  1
  Pd  Pd14  1  0.000000  0.000000  0.750000  1
  Pt  Pt15  1  0.000000  0.000000  0.250000  1
  Pt  Pt16  1  0.333333  0.666667  0.469994  1
  Pt  Pt17  1  0.333333  0.666667  0.030007  1
