# generated using pymatgen
data_Dy4Nb(ReN4)3
_symmetry_space_group_name_H-M   'P 1'
_cell_length_a   7.38952649
_cell_length_b   7.44926290
_cell_length_c   6.33272665
_cell_angle_alpha   72.39033982
_cell_angle_beta   73.14841686
_cell_angle_gamma   81.55868674
_symmetry_Int_Tables_number   1
_chemical_formula_structural   Dy4Nb(ReN4)3
_chemical_formula_sum   'Dy4 Nb1 Re3 N12'
_cell_volume   317.32380372
_cell_formula_units_Z   1
loop_
 _symmetry_equiv_pos_site_id
 _symmetry_equiv_pos_as_xyz
  1  'x, y, z'
loop_
 _atom_site_type_symbol
 _atom_site_label
 _atom_site_symmetry_multiplicity
 _atom_site_fract_x
 _atom_site_fract_y
 _atom_site_fract_z
 _atom_site_occupancy
  Dy  Dy0  1  0.908742  0.091502  0.751332  1
  Dy  Dy1  1  0.096312  0.908208  0.247342  1
  Dy  Dy2  1  0.705352  0.277074  0.253402  1
  Dy  Dy3  1  0.286528  0.710419  0.751911  1
  Nb  Nb4  1  0.624190  0.796360  0.280940  1
  Re  Re5  1  0.201265  0.378176  0.217924  1
  Re  Re6  1  0.377015  0.206198  0.719280  1
  Re  Re7  1  0.795862  0.618880  0.785439  1
  N  N8  1  0.664155  0.615947  0.080970  1
  N  N9  1  0.370465  0.878119  0.351617  1
  N  N10  1  0.358388  0.331699  0.419338  1
  N  N11  1  0.128342  0.627768  0.157178  1
  N  N12  1  0.003478  0.223937  0.334347  1
  N  N13  1  0.792352  0.002818  0.146862  1
  N  N14  1  0.226228  0.005081  0.837192  1
  N  N15  1  0.629502  0.137756  0.656070  1
  N  N16  1  0.330930  0.361805  0.918797  1
  N  N17  1  0.886822  0.381140  0.823896  1
  N  N18  1  0.626502  0.663201  0.604423  1
  N  N19  1  0.987572  0.783908  0.661741  1
