# generated using pymatgen
data_Y13Ho3MgCo4Hg3
_symmetry_space_group_name_H-M   'P 1'
_cell_length_a   9.49250655
_cell_length_b   9.49321544
_cell_length_c   9.49321700
_cell_angle_alpha   59.99999806
_cell_angle_beta   59.99752767
_cell_angle_gamma   59.99752831
_symmetry_Int_Tables_number   1
_chemical_formula_structural   Y13Ho3MgCo4Hg3
_chemical_formula_sum   'Y13 Ho3 Mg1 Co4 Hg3'
_cell_volume   604.89001915
_cell_formula_units_Z   1
loop_
 _symmetry_equiv_pos_site_id
 _symmetry_equiv_pos_as_xyz
  1  'x, y, z'
loop_
 _atom_site_type_symbol
 _atom_site_label
 _atom_site_symmetry_multiplicity
 _atom_site_fract_x
 _atom_site_fract_y
 _atom_site_fract_z
 _atom_site_occupancy
  Y  Y0  1  0.951292  0.349569  0.349569  1
  Y  Y1  1  0.809968  0.189451  0.189451  1
  Y  Y2  1  0.185769  0.813268  0.813268  1
  Y  Y3  1  0.185769  0.813268  0.187694  1
  Y  Y4  1  0.809968  0.189451  0.811131  1
  Y  Y5  1  0.185769  0.187694  0.813268  1
  Y  Y6  1  0.809968  0.811131  0.189451  1
  Y  Y7  1  0.937044  0.562332  0.562332  1
  Y  Y8  1  0.561076  0.938054  0.938054  1
  Y  Y9  1  0.561076  0.938054  0.562816  1
  Y  Y10  1  0.937044  0.562332  0.938293  1
  Y  Y11  1  0.561076  0.562816  0.938054  1
  Y  Y12  1  0.937044  0.938293  0.562332  1
  Ho  Ho13  1  0.347486  0.345317  0.345317  1
  Ho  Ho14  1  0.347486  0.345317  0.961881  1
  Ho  Ho15  1  0.347486  0.961881  0.345317  1
  Mg  Mg16  1  0.286538  0.571154  0.571154  1
  Co  Co17  1  0.140600  0.142519  0.142519  1
  Co  Co18  1  0.140600  0.142519  0.574361  1
  Co  Co19  1  0.140600  0.574361  0.142519  1
  Co  Co20  1  0.572924  0.142358  0.142358  1
  Hg  Hg21  1  0.581139  0.585297  0.585297  1
  Hg  Hg22  1  0.581139  0.585297  0.248268  1
  Hg  Hg23  1  0.581139  0.248268  0.585297  1
