# generated using pymatgen
data_Sr4HfZr2MoO12
_symmetry_space_group_name_H-M   'P 1'
_cell_length_a   5.81909155
_cell_length_b   5.85124827
_cell_length_c   8.24413436
_cell_angle_alpha   89.72225322
_cell_angle_beta   90.23998909
_cell_angle_gamma   90.29995998
_symmetry_Int_Tables_number   1
_chemical_formula_structural   Sr4HfZr2MoO12
_chemical_formula_sum   'Sr4 Hf1 Zr2 Mo1 O12'
_cell_volume   280.69453572
_cell_formula_units_Z   1
loop_
 _symmetry_equiv_pos_site_id
 _symmetry_equiv_pos_as_xyz
  1  'x, y, z'
loop_
 _atom_site_type_symbol
 _atom_site_label
 _atom_site_symmetry_multiplicity
 _atom_site_fract_x
 _atom_site_fract_y
 _atom_site_fract_z
 _atom_site_occupancy
  Sr  Sr0  1  0.005245  0.529806  0.248101  1
  Sr  Sr1  1  0.507403  0.973789  0.751526  1
  Sr  Sr2  1  0.492597  0.026211  0.248474  1
  Sr  Sr3  1  0.994755  0.470194  0.751899  1
  Hf  Hf4  1  0.500000  0.500000  0.500000  1
  Zr  Zr5  1  0.500000  0.500000  0.000000  1
  Zr  Zr6  1  0.000000  0.000000  0.500000  1
  Mo  Mo7  1  0.000000  0.000000  0.000000  1
  O  O8  1  0.217011  0.286434  0.462166  1
  O  O9  1  0.713482  0.217410  0.537749  1
  O  O10  1  0.281330  0.781552  0.034669  1
  O  O11  1  0.786910  0.723259  0.964036  1
  O  O12  1  0.782989  0.713566  0.537834  1
  O  O13  1  0.286518  0.782590  0.462251  1
  O  O14  1  0.718670  0.218448  0.965331  1
  O  O15  1  0.213090  0.276741  0.035964  1
  O  O16  1  0.928130  0.986181  0.247341  1
  O  O17  1  0.430011  0.514011  0.747962  1
  O  O18  1  0.569989  0.485989  0.252038  1
  O  O19  1  0.071870  0.013819  0.752659  1
