# generated using pymatgen
data_YHo3Cr4(Fe4P3)4
_symmetry_space_group_name_H-M   'P 1'
_cell_length_a   3.65414600
_cell_length_b   10.35025401
_cell_length_c   11.84379601
_cell_angle_alpha   89.99507427
_cell_angle_beta   90.00000000
_cell_angle_gamma   90.00000000
_symmetry_Int_Tables_number   1
_chemical_formula_structural   YHo3Cr4(Fe4P3)4
_chemical_formula_sum   'Y1 Ho3 Cr4 Fe16 P12'
_cell_volume   447.94822573
_cell_formula_units_Z   1
loop_
 _symmetry_equiv_pos_site_id
 _symmetry_equiv_pos_as_xyz
  1  'x, y, z'
loop_
 _atom_site_type_symbol
 _atom_site_label
 _atom_site_symmetry_multiplicity
 _atom_site_fract_x
 _atom_site_fract_y
 _atom_site_fract_z
 _atom_site_occupancy
  Y  Y0  1  0.250000  0.581456  0.704796  1
  Ho  Ho1  1  0.250000  0.918671  0.204685  1
  Ho  Ho2  1  0.750000  0.418565  0.295232  1
  Ho  Ho3  1  0.750000  0.081295  0.795366  1
  Cr  Cr4  1  0.250000  0.702894  0.989195  1
  Cr  Cr5  1  0.250000  0.797271  0.488793  1
  Cr  Cr6  1  0.750000  0.297086  0.011096  1
  Cr  Cr7  1  0.750000  0.202707  0.510774  1
  Fe  Fe8  1  0.250000  0.405329  0.490599  1
  Fe  Fe9  1  0.250000  0.094699  0.991003  1
  Fe  Fe10  1  0.750000  0.594766  0.508539  1
  Fe  Fe11  1  0.750000  0.905347  0.009219  1
  Fe  Fe12  1  0.250000  0.218179  0.176133  1
  Fe  Fe13  1  0.250000  0.281708  0.676210  1
  Fe  Fe14  1  0.750000  0.782148  0.824025  1
  Fe  Fe15  1  0.750000  0.718239  0.323848  1
  Fe  Fe16  1  0.250000  0.875104  0.701889  1
  Fe  Fe17  1  0.250000  0.625175  0.201880  1
  Fe  Fe18  1  0.750000  0.125260  0.297995  1
  Fe  Fe19  1  0.750000  0.374357  0.798370  1
  Fe  Fe20  1  0.250000  0.463339  0.932774  1
  Fe  Fe21  1  0.250000  0.036356  0.432324  1
  Fe  Fe22  1  0.750000  0.536300  0.067793  1
  Fe  Fe23  1  0.750000  0.963724  0.567441  1
  P  P24  1  0.250000  0.422987  0.113244  1
  P  P25  1  0.250000  0.076834  0.613000  1
  P  P26  1  0.750000  0.576864  0.887524  1
  P  P27  1  0.750000  0.923077  0.386873  1
  P  P28  1  0.250000  0.264927  0.871138  1
  P  P29  1  0.250000  0.235068  0.370817  1
  P  P30  1  0.750000  0.735055  0.129134  1
  P  P31  1  0.750000  0.765517  0.628758  1
  P  P32  1  0.250000  0.596908  0.394255  1
  P  P33  1  0.250000  0.903202  0.894604  1
  P  P34  1  0.750000  0.402703  0.605093  1
  P  P35  1  0.750000  0.096880  0.105579  1
