# generated using pymatgen
data_LiAl(SbO3)4
_symmetry_space_group_name_H-M   'P 1'
_cell_length_a   4.69170300
_cell_length_b   9.37244100
_cell_length_c   9.23648800
_cell_angle_alpha   90.00000000
_cell_angle_beta   90.00000000
_cell_angle_gamma   90.00000000
_symmetry_Int_Tables_number   1
_chemical_formula_structural   LiAl(SbO3)4
_chemical_formula_sum   'Li2 Al2 Sb8 O24'
_cell_volume   406.15340415
_cell_formula_units_Z   2
loop_
 _symmetry_equiv_pos_site_id
 _symmetry_equiv_pos_as_xyz
  1  'x, y, z'
loop_
 _atom_site_type_symbol
 _atom_site_label
 _atom_site_symmetry_multiplicity
 _atom_site_fract_x
 _atom_site_fract_y
 _atom_site_fract_z
 _atom_site_occupancy
  Li  Li0  1  0.000002  0.502448  0.000000  1
  Li  Li1  1  0.500002  0.747552  0.500000  1
  Al  Al2  1  0.001496  0.998367  0.000000  1
  Al  Al3  1  0.501496  0.251633  0.500000  1
  Sb  Sb4  1  0.995298  0.998406  0.332594  1
  Sb  Sb5  1  0.007152  0.502155  0.330770  1
  Sb  Sb6  1  0.495298  0.251594  0.832594  1
  Sb  Sb7  1  0.507152  0.747845  0.830770  1
  Sb  Sb8  1  0.495298  0.251594  0.167406  1
  Sb  Sb9  1  0.507152  0.747845  0.169230  1
  Sb  Sb10  1  0.995298  0.998406  0.667406  1
  Sb  Sb11  1  0.007152  0.502155  0.669230  1
  O  O12  1  0.296531  0.145727  0.000000  1
  O  O13  1  0.313193  0.661415  0.000000  1
  O  O14  1  0.208754  0.396118  0.500000  1
  O  O15  1  0.184027  0.907285  0.500000  1
  O  O16  1  0.796531  0.104273  0.500000  1
  O  O17  1  0.813193  0.588585  0.500000  1
  O  O18  1  0.684027  0.342715  0.000000  1
  O  O19  1  0.708754  0.853882  0.000000  1
  O  O20  1  0.313148  0.150762  0.338610  1
  O  O21  1  0.296493  0.656219  0.328902  1
  O  O22  1  0.190397  0.395389  0.828373  1
  O  O23  1  0.195511  0.909684  0.838724  1
  O  O24  1  0.813148  0.099238  0.838610  1
  O  O25  1  0.796493  0.593781  0.828902  1
  O  O26  1  0.813148  0.099238  0.161390  1
  O  O27  1  0.796493  0.593781  0.171098  1
  O  O28  1  0.190397  0.395389  0.171627  1
  O  O29  1  0.195511  0.909684  0.161276  1
  O  O30  1  0.695511  0.340316  0.338724  1
  O  O31  1  0.690397  0.854611  0.328373  1
  O  O32  1  0.313148  0.150762  0.661390  1
  O  O33  1  0.296493  0.656219  0.671098  1
  O  O34  1  0.695511  0.340316  0.661276  1
  O  O35  1  0.690397  0.854611  0.671627  1
