# generated using pymatgen
data_HfGa4NiAg
_symmetry_space_group_name_H-M   'P 1'
_cell_length_a   4.23411500
_cell_length_b   4.23411500
_cell_length_c   6.50166800
_cell_angle_alpha   90.00000000
_cell_angle_beta   90.00000000
_cell_angle_gamma   90.00000000
_symmetry_Int_Tables_number   1
_chemical_formula_structural   HfGa4NiAg
_chemical_formula_sum   'Hf1 Ga4 Ni1 Ag1'
_cell_volume   116.56014737
_cell_formula_units_Z   1
loop_
 _symmetry_equiv_pos_site_id
 _symmetry_equiv_pos_as_xyz
  1  'x, y, z'
loop_
 _atom_site_type_symbol
 _atom_site_label
 _atom_site_symmetry_multiplicity
 _atom_site_fract_x
 _atom_site_fract_y
 _atom_site_fract_z
 _atom_site_occupancy
  Hf  Hf0  1  0.000000  0.000000  0.000000  1
  Ga  Ga1  1  0.000000  0.500000  0.295873  1
  Ga  Ga2  1  0.000000  0.500000  0.704127  1
  Ga  Ga3  1  0.500000  0.000000  0.295873  1
  Ga  Ga4  1  0.500000  0.000000  0.704127  1
  Ni  Ni5  1  0.000000  0.000000  0.500000  1
  Ag  Ag6  1  0.500000  0.500000  0.000000  1
