# generated using pymatgen
data_Dy8B24Os3Ru
_symmetry_space_group_name_H-M   'P 1'
_cell_length_a   3.65882700
_cell_length_b   9.16166288
_cell_length_c   11.53943604
_cell_angle_alpha   89.96644614
_cell_angle_beta   90.00000000
_cell_angle_gamma   90.00000000
_symmetry_Int_Tables_number   1
_chemical_formula_structural   Dy8B24Os3Ru
_chemical_formula_sum   'Dy8 B24 Os3 Ru1'
_cell_volume   386.81267099
_cell_formula_units_Z   1
loop_
 _symmetry_equiv_pos_site_id
 _symmetry_equiv_pos_as_xyz
  1  'x, y, z'
loop_
 _atom_site_type_symbol
 _atom_site_label
 _atom_site_symmetry_multiplicity
 _atom_site_fract_x
 _atom_site_fract_y
 _atom_site_fract_z
 _atom_site_occupancy
  Dy  Dy0  1  0.000000  0.322481  0.413839  1
  Dy  Dy1  1  0.000000  0.677250  0.585991  1
  Dy  Dy2  1  0.000000  0.822616  0.086228  1
  Dy  Dy3  1  0.000000  0.177379  0.913778  1
  Dy  Dy4  1  0.000000  0.943761  0.372969  1
  Dy  Dy5  1  0.000000  0.056086  0.627846  1
  Dy  Dy6  1  0.000000  0.443763  0.127053  1
  Dy  Dy7  1  0.000000  0.556955  0.872464  1
  B  B8  1  0.500000  0.553855  0.433147  1
  B  B9  1  0.500000  0.446252  0.567063  1
  B  B10  1  0.500000  0.053664  0.066757  1
  B  B11  1  0.500000  0.945983  0.932936  1
  B  B12  1  0.500000  0.747516  0.419866  1
  B  B13  1  0.500000  0.252533  0.580209  1
  B  B14  1  0.500000  0.247351  0.080122  1
  B  B15  1  0.500000  0.752662  0.919946  1
  B  B16  1  0.500000  0.790673  0.266562  1
  B  B17  1  0.500000  0.209297  0.733504  1
  B  B18  1  0.500000  0.290640  0.233446  1
  B  B19  1  0.500000  0.709502  0.766470  1
  B  B20  1  0.500000  0.631787  0.185614  1
  B  B21  1  0.500000  0.368239  0.814335  1
  B  B22  1  0.500000  0.131727  0.314362  1
  B  B23  1  0.500000  0.868061  0.685480  1
  B  B24  1  0.500000  0.983233  0.212819  1
  B  B25  1  0.500000  0.016560  0.787093  1
  B  B26  1  0.500000  0.483282  0.287216  1
  B  B27  1  0.500000  0.516831  0.712928  1
  B  B28  1  0.500000  0.608780  0.030130  1
  B  B29  1  0.500000  0.391384  0.969749  1
  B  B30  1  0.500000  0.108498  0.469968  1
  B  B31  1  0.500000  0.891319  0.530270  1
  Os  Os32  1  0.000000  0.637135  0.321546  1
  Os  Os33  1  0.000000  0.362922  0.678230  1
  Os  Os34  1  0.000000  0.137173  0.178637  1
  Ru  Ru35  1  0.000000  0.862851  0.821425  1
