# generated using pymatgen
data_Ba12Sc3InAs12
_symmetry_space_group_name_H-M   'P 1'
_cell_length_a   4.70291900
_cell_length_b   13.95190246
_cell_length_c   14.92922614
_cell_angle_alpha   90.20369539
_cell_angle_beta   90.00000000
_cell_angle_gamma   90.00000000
_symmetry_Int_Tables_number   1
_chemical_formula_structural   Ba12Sc3InAs12
_chemical_formula_sum   'Ba12 Sc3 In1 As12'
_cell_volume   979.57001398
_cell_formula_units_Z   1
loop_
 _symmetry_equiv_pos_site_id
 _symmetry_equiv_pos_as_xyz
  1  'x, y, z'
loop_
 _atom_site_type_symbol
 _atom_site_label
 _atom_site_symmetry_multiplicity
 _atom_site_fract_x
 _atom_site_fract_y
 _atom_site_fract_z
 _atom_site_occupancy
  Ba  Ba0  1  0.250000  0.418642  0.102576  1
  Ba  Ba1  1  0.250000  0.139364  0.999501  1
  Ba  Ba2  1  0.250000  0.226451  0.297188  1
  Ba  Ba3  1  0.750000  0.277850  0.796390  1
  Ba  Ba4  1  0.750000  0.359880  0.500043  1
  Ba  Ba5  1  0.250000  0.920176  0.397372  1
  Ba  Ba6  1  0.750000  0.773190  0.703333  1
  Ba  Ba7  1  0.750000  0.864910  0.994199  1
  Ba  Ba8  1  0.250000  0.726095  0.201101  1
  Ba  Ba9  1  0.750000  0.078718  0.606078  1
  Ba  Ba10  1  0.750000  0.581390  0.899230  1
  Ba  Ba11  1  0.250000  0.640015  0.499184  1
  Sc  Sc12  1  0.750000  0.549707  0.295384  1
  Sc  Sc13  1  0.750000  0.049373  0.205357  1
  Sc  Sc14  1  0.250000  0.451802  0.704610  1
  In  In15  1  0.250000  0.945435  0.795642  1
  As  As16  1  0.750000  0.224937  0.132308  1
  As  As17  1  0.750000  0.726029  0.367622  1
  As  As18  1  0.750000  0.585873  0.121396  1
  As  As19  1  0.250000  0.275351  0.632371  1
  As  As20  1  0.250000  0.765047  0.871216  1
  As  As21  1  0.750000  0.087979  0.379912  1
  As  As22  1  0.250000  0.909381  0.615956  1
  As  As23  1  0.250000  0.414197  0.879250  1
  As  As24  1  0.750000  0.043459  0.850464  1
  As  As25  1  0.250000  0.464939  0.347071  1
  As  As26  1  0.250000  0.964949  0.152262  1
  As  As27  1  0.750000  0.534861  0.652985  1
