# generated using pymatgen
data_Mn3V17(Si2P)4
_symmetry_space_group_name_H-M   'P 1'
_cell_length_a   6.90649041
_cell_length_b   6.90649126
_cell_length_c   13.10435900
_cell_angle_alpha   90.00000000
_cell_angle_beta   90.00000000
_cell_angle_gamma   140.18471428
_symmetry_Int_Tables_number   1
_chemical_formula_structural   Mn3V17(Si2P)4
_chemical_formula_sum   'Mn3 V17 Si8 P4'
_cell_volume   400.24332336
_cell_formula_units_Z   1
loop_
 _symmetry_equiv_pos_site_id
 _symmetry_equiv_pos_as_xyz
  1  'x, y, z'
loop_
 _atom_site_type_symbol
 _atom_site_label
 _atom_site_symmetry_multiplicity
 _atom_site_fract_x
 _atom_site_fract_y
 _atom_site_fract_z
 _atom_site_occupancy
  Mn  Mn0  1  0.506442  0.506442  0.000000  1
  Mn  Mn1  1  0.493146  0.493146  0.500000  1
  Mn  Mn2  1  0.996111  0.996111  0.000000  1
  V  V3  1  0.067299  0.428215  0.402747  1
  V  V4  1  0.569779  0.931840  0.904969  1
  V  V5  1  0.428215  0.067299  0.597253  1
  V  V6  1  0.931840  0.569779  0.095031  1
  V  V7  1  0.852046  0.651047  0.674072  1
  V  V8  1  0.349579  0.151369  0.173020  1
  V  V9  1  0.651047  0.852046  0.325928  1
  V  V10  1  0.151369  0.349579  0.826980  1
  V  V11  1  0.651047  0.852046  0.674072  1
  V  V12  1  0.151369  0.349579  0.173020  1
  V  V13  1  0.852046  0.651047  0.325928  1
  V  V14  1  0.349579  0.151369  0.826980  1
  V  V15  1  0.428215  0.067299  0.402747  1
  V  V16  1  0.931840  0.569779  0.904969  1
  V  V17  1  0.067299  0.428215  0.597253  1
  V  V18  1  0.569779  0.931840  0.095031  1
  V  V19  1  0.004709  0.004709  0.500000  1
  Si  Si20  1  0.250577  0.750029  0.751019  1
  Si  Si21  1  0.750029  0.250577  0.248981  1
  Si  Si22  1  0.750029  0.250577  0.751019  1
  Si  Si23  1  0.250577  0.750029  0.248981  1
  Si  Si24  1  0.254007  0.254007  0.665178  1
  Si  Si25  1  0.752110  0.752110  0.162527  1
  Si  Si26  1  0.254007  0.254007  0.334822  1
  Si  Si27  1  0.752110  0.752110  0.837473  1
  P  P28  1  0.580307  0.900005  0.500000  1
  P  P29  1  0.094546  0.408938  0.000000  1
  P  P30  1  0.900005  0.580307  0.500000  1
  P  P31  1  0.408938  0.094546  0.000000  1
