# generated using pymatgen
data_Li3Zr6Zn20P
_symmetry_space_group_name_H-M   'P 1'
_cell_length_a   8.79205198
_cell_length_b   8.79205583
_cell_length_c   8.81651000
_cell_angle_alpha   59.90777627
_cell_angle_beta   59.90795004
_cell_angle_gamma   59.85781378
_symmetry_Int_Tables_number   1
_chemical_formula_structural   Li3Zr6Zn20P
_chemical_formula_sum   'Li3 Zr6 Zn20 P1'
_cell_volume   480.71603838
_cell_formula_units_Z   1
loop_
 _symmetry_equiv_pos_site_id
 _symmetry_equiv_pos_as_xyz
  1  'x, y, z'
loop_
 _atom_site_type_symbol
 _atom_site_label
 _atom_site_symmetry_multiplicity
 _atom_site_fract_x
 _atom_site_fract_y
 _atom_site_fract_z
 _atom_site_occupancy
  Li  Li0  1  0.633347  0.122277  0.122180  1
  Li  Li1  1  0.122281  0.633343  0.122182  1
  Li  Li2  1  0.000931  0.000928  0.999072  1
  Zr  Zr3  1  0.707046  0.295796  0.294767  1
  Zr  Zr4  1  0.707045  0.295809  0.702379  1
  Zr  Zr5  1  0.702102  0.702098  0.297905  1
  Zr  Zr6  1  0.295806  0.707039  0.702382  1
  Zr  Zr7  1  0.295792  0.707044  0.294771  1
  Zr  Zr8  1  0.291354  0.291362  0.708640  1
  Zn  Zn9  1  0.119222  0.119219  0.640409  1
  Zn  Zn10  1  0.119218  0.119220  0.121158  1
  Zn  Zn11  1  0.363458  0.875357  0.880592  1
  Zn  Zn12  1  0.875353  0.363462  0.880593  1
  Zn  Zn13  1  0.879066  0.879069  0.357911  1
  Zn  Zn14  1  0.879072  0.879074  0.883955  1
  Zn  Zn15  1  0.502294  0.002370  0.998892  1
  Zn  Zn16  1  0.502295  0.002373  0.496444  1
  Zn  Zn17  1  0.499263  0.499261  0.000737  1
  Zn  Zn18  1  0.002373  0.502296  0.496444  1
  Zn  Zn19  1  0.002369  0.502295  0.998892  1
  Zn  Zn20  1  0.000351  0.000352  0.499651  1
  Zn  Zn21  1  0.001989  0.335717  0.331147  1
  Zn  Zn22  1  0.335721  0.001983  0.331149  1
  Zn  Zn23  1  0.333090  0.333089  0.004022  1
  Zn  Zn24  1  0.333092  0.333091  0.329797  1
  Zn  Zn25  1  0.996078  0.667615  0.668157  1
  Zn  Zn26  1  0.667610  0.996083  0.668157  1
  Zn  Zn27  1  0.667482  0.667485  0.997693  1
  Zn  Zn28  1  0.667483  0.667485  0.667343  1
  P  P29  1  0.497415  0.497412  0.502579  1
