# generated using pymatgen
data_Dy3Y3In2C
_symmetry_space_group_name_H-M   'P 1'
_cell_length_a   6.94049786
_cell_length_b   6.94049754
_cell_length_c   6.94103101
_cell_angle_alpha   60.00255141
_cell_angle_beta   60.00255132
_cell_angle_gamma   60.00000712
_symmetry_Int_Tables_number   1
_chemical_formula_structural   Dy3Y3In2C
_chemical_formula_sum   'Dy3 Y3 In2 C1'
_cell_volume   236.43239761
_cell_formula_units_Z   1
loop_
 _symmetry_equiv_pos_site_id
 _symmetry_equiv_pos_as_xyz
  1  'x, y, z'
loop_
 _atom_site_type_symbol
 _atom_site_label
 _atom_site_symmetry_multiplicity
 _atom_site_fract_x
 _atom_site_fract_y
 _atom_site_fract_z
 _atom_site_occupancy
  Dy  Dy0  1  0.244935  0.244935  0.755072  1
  Dy  Dy1  1  0.755057  0.244933  0.755074  1
  Dy  Dy2  1  0.244933  0.755057  0.755074  1
  Y  Y3  1  0.754668  0.754668  0.245337  1
  Y  Y4  1  0.754667  0.245326  0.245337  1
  Y  Y5  1  0.245326  0.754667  0.245337  1
  In  In6  1  0.249991  0.249991  0.250026  1
  In  In7  1  0.749987  0.749987  0.750036  1
  C  C8  1  0.000432  0.000432  0.998703  1
