# generated using pymatgen
data_Tb4Al24CuPd7Pt
_symmetry_space_group_name_H-M   'P 1'
_cell_length_a   7.54643228
_cell_length_b   7.55150943
_cell_length_c   13.14218503
_cell_angle_alpha   84.51931958
_cell_angle_beta   100.93939575
_cell_angle_gamma   119.83680058
_symmetry_Int_Tables_number   1
_chemical_formula_structural   Tb4Al24CuPd7Pt
_chemical_formula_sum   'Tb4 Al24 Cu1 Pd7 Pt1'
_cell_volume   637.85324559
_cell_formula_units_Z   1
loop_
 _symmetry_equiv_pos_site_id
 _symmetry_equiv_pos_as_xyz
  1  'x, y, z'
loop_
 _atom_site_type_symbol
 _atom_site_label
 _atom_site_symmetry_multiplicity
 _atom_site_fract_x
 _atom_site_fract_y
 _atom_site_fract_z
 _atom_site_occupancy
  Tb  Tb0  1  0.437813  0.830287  0.807787  1
  Tb  Tb1  1  0.562122  0.168414  0.191921  1
  Tb  Tb2  1  0.767064  0.501808  0.807474  1
  Tb  Tb3  1  0.231274  0.498094  0.191863  1
  Al  Al4  1  0.481959  0.166512  0.944888  1
  Al  Al5  1  0.518268  0.833625  0.055229  1
  Al  Al6  1  0.020581  0.165800  0.561655  1
  Al  Al7  1  0.978234  0.833527  0.437115  1
  Al  Al8  1  0.353879  0.832370  0.559897  1
  Al  Al9  1  0.645330  0.166455  0.439842  1
  Al  Al10  1  0.617117  0.835002  0.329906  1
  Al  Al11  1  0.382785  0.168140  0.670301  1
  Al  Al12  1  0.059432  0.492662  0.670308  1
  Al  Al13  1  0.943577  0.507021  0.329776  1
  Al  Al14  1  0.728887  0.838160  0.668824  1
  Al  Al15  1  0.268702  0.159317  0.331075  1
  Al  Al16  1  0.147860  0.499985  0.944956  1
  Al  Al17  1  0.851918  0.500131  0.054985  1
  Al  Al18  1  0.817693  0.832904  0.954935  1
  Al  Al19  1  0.182611  0.167077  0.045638  1
  Al  Al20  1  0.312978  0.499683  0.441748  1
  Al  Al21  1  0.686433  0.499778  0.559984  1
  Al  Al22  1  0.102950  0.835978  0.184223  1
  Al  Al23  1  0.897983  0.164466  0.815983  1
  Al  Al24  1  0.308164  0.370727  0.812941  1
  Al  Al25  1  0.692713  0.630994  0.185200  1
  Al  Al26  1  0.103453  0.959480  0.815558  1
  Al  Al27  1  0.897663  0.041522  0.184400  1
  Cu  Cu28  1  0.388947  0.508297  0.639084  1
  Pd  Pd29  1  0.171362  0.828479  0.999347  1
  Pd  Pd30  1  0.828542  0.171723  0.999911  1
  Pd  Pd31  1  0.295122  0.832426  0.363144  1
  Pd  Pd32  1  0.704974  0.166747  0.637355  1
  Pd  Pd33  1  0.046517  0.824900  0.636947  1
  Pd  Pd34  1  0.953773  0.175508  0.363027  1
  Pd  Pd35  1  0.499561  0.499873  0.999567  1
  Pt  Pt36  1  0.611758  0.492134  0.363209  1
