# generated using pymatgen
data_Zr10Tl2In3Ga2Sn
_symmetry_space_group_name_H-M   'P 1'
_cell_length_a   8.79343044
_cell_length_b   8.79006592
_cell_length_c   5.91670900
_cell_angle_alpha   90.00000000
_cell_angle_beta   90.00000000
_cell_angle_gamma   119.86888695
_symmetry_Int_Tables_number   1
_chemical_formula_structural   Zr10Tl2In3Ga2Sn
_chemical_formula_sum   'Zr10 Tl2 In3 Ga2 Sn1'
_cell_volume   396.58252469
_cell_formula_units_Z   1
loop_
 _symmetry_equiv_pos_site_id
 _symmetry_equiv_pos_as_xyz
  1  'x, y, z'
loop_
 _atom_site_type_symbol
 _atom_site_label
 _atom_site_symmetry_multiplicity
 _atom_site_fract_x
 _atom_site_fract_y
 _atom_site_fract_z
 _atom_site_occupancy
  Zr  Zr0  1  0.000121  0.264620  0.250000  1
  Zr  Zr1  1  0.736366  0.997103  0.750000  1
  Zr  Zr2  1  0.737753  0.736600  0.250000  1
  Zr  Zr3  1  0.666972  0.334543  0.500986  1
  Zr  Zr4  1  0.997340  0.736289  0.750000  1
  Zr  Zr5  1  0.264375  0.264238  0.750000  1
  Zr  Zr6  1  0.333349  0.666089  0.999080  1
  Zr  Zr7  1  0.666972  0.334543  0.999014  1
  Zr  Zr8  1  0.333349  0.666089  0.500920  1
  Zr  Zr9  1  0.263176  0.998899  0.250000  1
  Tl  Tl10  1  0.614272  0.000665  0.250000  1
  Tl  Tl11  1  0.384407  0.384278  0.250000  1
  In  In12  1  0.384309  0.999026  0.750000  1
  In  In13  1  0.000817  0.615046  0.250000  1
  In  In14  1  0.998888  0.384717  0.750000  1
  Ga  Ga15  1  0.001658  0.001476  0.000968  1
  Ga  Ga16  1  0.001658  0.001476  0.499032  1
  Sn  Sn17  1  0.614219  0.614303  0.750000  1
