# generated using pymatgen
data_NaTa3(Co4P3)2
_symmetry_space_group_name_H-M   'P 1'
_cell_length_a   11.98976800
_cell_length_b   11.98976828
_cell_length_c   3.58388000
_cell_angle_alpha   90.00000000
_cell_angle_beta   90.00000000
_cell_angle_gamma   119.99999922
_symmetry_Int_Tables_number   1
_chemical_formula_structural   NaTa3(Co4P3)2
_chemical_formula_sum   'Na2 Ta6 Co16 P12'
_cell_volume   446.17544380
_cell_formula_units_Z   2
loop_
 _symmetry_equiv_pos_site_id
 _symmetry_equiv_pos_as_xyz
  1  'x, y, z'
loop_
 _atom_site_type_symbol
 _atom_site_label
 _atom_site_symmetry_multiplicity
 _atom_site_fract_x
 _atom_site_fract_y
 _atom_site_fract_z
 _atom_site_occupancy
  Na  Na0  1  0.333333  0.666667  0.000000  1
  Na  Na1  1  0.666667  0.333333  0.000000  1
  Ta  Ta2  1  0.820830  0.000000  0.500000  1
  Ta  Ta3  1  0.000000  0.820830  0.500000  1
  Ta  Ta4  1  0.179170  0.179170  0.500000  1
  Ta  Ta5  1  0.444234  0.000000  0.000000  1
  Ta  Ta6  1  0.000000  0.444234  0.000000  1
  Ta  Ta7  1  0.555766  0.555766  0.000000  1
  Co  Co8  1  0.274913  0.000000  0.500000  1
  Co  Co9  1  0.000000  0.274913  0.500000  1
  Co  Co10  1  0.725087  0.725087  0.500000  1
  Co  Co11  1  0.637581  0.809934  0.000000  1
  Co  Co12  1  0.190066  0.827647  0.000000  1
  Co  Co13  1  0.172353  0.362419  0.000000  1
  Co  Co14  1  0.362419  0.172353  0.000000  1
  Co  Co15  1  0.809934  0.637581  0.000000  1
  Co  Co16  1  0.827647  0.190066  0.000000  1
  Co  Co17  1  0.525380  0.875886  0.500000  1
  Co  Co18  1  0.124114  0.649494  0.500000  1
  Co  Co19  1  0.350506  0.474620  0.500000  1
  Co  Co20  1  0.474620  0.350506  0.500000  1
  Co  Co21  1  0.875886  0.525380  0.500000  1
  Co  Co22  1  0.649494  0.124114  0.500000  1
  Co  Co23  1  0.000000  0.000000  0.000000  1
  P  P24  1  0.171256  0.000000  0.000000  1
  P  P25  1  0.000000  0.171256  0.000000  1
  P  P26  1  0.828744  0.828744  0.000000  1
  P  P27  1  0.516570  0.687094  0.500000  1
  P  P28  1  0.312906  0.829477  0.500000  1
  P  P29  1  0.170523  0.483430  0.500000  1
  P  P30  1  0.483430  0.170523  0.500000  1
  P  P31  1  0.687094  0.516570  0.500000  1
  P  P32  1  0.829477  0.312906  0.500000  1
  P  P33  1  0.649632  0.000000  0.000000  1
  P  P34  1  0.000000  0.649632  0.000000  1
  P  P35  1  0.350368  0.350368  0.000000  1
