# generated using pymatgen
data_Ho2TmCdAg3Ge2
_symmetry_space_group_name_H-M   'P 1'
_cell_length_a   7.28063105
_cell_length_b   7.28364265
_cell_length_c   4.18578900
_cell_angle_alpha   90.00000000
_cell_angle_beta   90.00000000
_cell_angle_gamma   120.01368700
_symmetry_Int_Tables_number   1
_chemical_formula_structural   Ho2TmCdAg3Ge2
_chemical_formula_sum   'Ho2 Tm1 Cd1 Ag3 Ge2'
_cell_volume   192.20545262
_cell_formula_units_Z   1
loop_
 _symmetry_equiv_pos_site_id
 _symmetry_equiv_pos_as_xyz
  1  'x, y, z'
loop_
 _atom_site_type_symbol
 _atom_site_label
 _atom_site_symmetry_multiplicity
 _atom_site_fract_x
 _atom_site_fract_y
 _atom_site_fract_z
 _atom_site_occupancy
  Ho  Ho0  1  0.425088  0.425246  0.500000  1
  Ho  Ho1  1  0.574912  0.000159  0.500000  1
  Tm  Tm2  1  0.000000  0.574685  0.500000  1
  Cd  Cd3  1  0.000000  0.999307  0.500000  1
  Ag  Ag4  1  0.741289  0.740857  0.000000  1
  Ag  Ag5  1  0.258711  0.999568  0.000000  1
  Ag  Ag6  1  0.000000  0.259651  0.000000  1
  Ge  Ge7  1  0.667812  0.334169  0.000000  1
  Ge  Ge8  1  0.332188  0.666358  0.000000  1
