# generated using pymatgen
data_DyTm3Lu4(CoB6)4
_symmetry_space_group_name_H-M   'P 1'
_cell_length_a   3.51518800
_cell_length_b   9.01191800
_cell_length_c   11.37172410
_cell_angle_alpha   90.00858595
_cell_angle_beta   90.00000000
_cell_angle_gamma   90.00000000
_symmetry_Int_Tables_number   1
_chemical_formula_structural   DyTm3Lu4(CoB6)4
_chemical_formula_sum   'Dy1 Tm3 Lu4 Co4 B24'
_cell_volume   360.24013610
_cell_formula_units_Z   1
loop_
 _symmetry_equiv_pos_site_id
 _symmetry_equiv_pos_as_xyz
  1  'x, y, z'
loop_
 _atom_site_type_symbol
 _atom_site_label
 _atom_site_symmetry_multiplicity
 _atom_site_fract_x
 _atom_site_fract_y
 _atom_site_fract_z
 _atom_site_occupancy
  Dy  Dy0  1  0.000000  0.675746  0.585302  1
  Tm  Tm1  1  0.000000  0.823976  0.085241  1
  Tm  Tm2  1  0.000000  0.175962  0.914820  1
  Tm  Tm3  1  0.000000  0.323975  0.414612  1
  Lu  Lu4  1  0.000000  0.443810  0.129152  1
  Lu  Lu5  1  0.000000  0.555926  0.871062  1
  Lu  Lu6  1  0.000000  0.944171  0.370490  1
  Lu  Lu7  1  0.000000  0.056521  0.629308  1
  Co  Co8  1  0.000000  0.140300  0.180166  1
  Co  Co9  1  0.000000  0.860096  0.820085  1
  Co  Co10  1  0.000000  0.640312  0.319018  1
  Co  Co11  1  0.000000  0.359074  0.680686  1
  B  B12  1  0.500000  0.053830  0.066965  1
  B  B13  1  0.500000  0.946183  0.933104  1
  B  B14  1  0.500000  0.553347  0.432166  1
  B  B15  1  0.500000  0.445418  0.567030  1
  B  B16  1  0.500000  0.247953  0.081889  1
  B  B17  1  0.500000  0.751874  0.918454  1
  B  B18  1  0.500000  0.748233  0.417118  1
  B  B19  1  0.500000  0.251806  0.581824  1
  B  B20  1  0.500000  0.292801  0.235802  1
  B  B21  1  0.500000  0.707614  0.764973  1
  B  B22  1  0.500000  0.793065  0.263694  1
  B  B23  1  0.500000  0.207198  0.736072  1
  B  B24  1  0.500000  0.133747  0.316058  1
  B  B25  1  0.500000  0.867136  0.684409  1
  B  B26  1  0.500000  0.633588  0.183922  1
  B  B27  1  0.500000  0.366138  0.816407  1
  B  B28  1  0.500000  0.485144  0.288093  1
  B  B29  1  0.500000  0.513557  0.712125  1
  B  B30  1  0.500000  0.985633  0.211552  1
  B  B31  1  0.500000  0.014806  0.788490  1
  B  B32  1  0.500000  0.105991  0.471431  1
  B  B33  1  0.500000  0.895284  0.528228  1
  B  B34  1  0.500000  0.606074  0.028742  1
  B  B35  1  0.500000  0.393710  0.971510  1
