# generated using pymatgen
data_La2Dy3Pb4
_symmetry_space_group_name_H-M   'P 1'
_cell_length_a   8.38046000
_cell_length_b   8.43470700
_cell_length_c   16.03453200
_cell_angle_alpha   90.00000000
_cell_angle_beta   90.00000000
_cell_angle_gamma   90.00000000
_symmetry_Int_Tables_number   1
_chemical_formula_structural   La2Dy3Pb4
_chemical_formula_sum   'La8 Dy12 Pb16'
_cell_volume   1133.42854798
_cell_formula_units_Z   4
loop_
 _symmetry_equiv_pos_site_id
 _symmetry_equiv_pos_as_xyz
  1  'x, y, z'
loop_
 _atom_site_type_symbol
 _atom_site_label
 _atom_site_symmetry_multiplicity
 _atom_site_fract_x
 _atom_site_fract_y
 _atom_site_fract_z
 _atom_site_occupancy
  La  La0  1  0.029526  0.178744  0.099145  1
  La  La1  1  0.529526  0.321256  0.400855  1
  La  La2  1  0.470474  0.678744  0.900855  1
  La  La3  1  0.970474  0.821256  0.599145  1
  La  La4  1  0.970474  0.821256  0.900855  1
  La  La5  1  0.470474  0.678744  0.599145  1
  La  La6  1  0.529526  0.321256  0.099145  1
  La  La7  1  0.029526  0.178744  0.400855  1
  Dy  Dy8  1  0.874559  0.658928  0.120378  1
  Dy  Dy9  1  0.374559  0.841072  0.379622  1
  Dy  Dy10  1  0.625441  0.158928  0.879622  1
  Dy  Dy11  1  0.125441  0.341072  0.620378  1
  Dy  Dy12  1  0.125441  0.341072  0.879622  1
  Dy  Dy13  1  0.625441  0.158928  0.620378  1
  Dy  Dy14  1  0.374559  0.841072  0.120378  1
  Dy  Dy15  1  0.874559  0.658928  0.379622  1
  Dy  Dy16  1  0.707214  0.993706  0.250000  1
  Dy  Dy17  1  0.207214  0.506294  0.250000  1
  Dy  Dy18  1  0.792786  0.493706  0.750000  1
  Dy  Dy19  1  0.292786  0.006294  0.750000  1
  Pb  Pb20  1  0.070800  0.869004  0.250000  1
  Pb  Pb21  1  0.570800  0.630996  0.250000  1
  Pb  Pb22  1  0.429200  0.369004  0.750000  1
  Pb  Pb23  1  0.929200  0.130996  0.750000  1
  Pb  Pb24  1  0.839854  0.355449  0.250000  1
  Pb  Pb25  1  0.339854  0.144551  0.250000  1
  Pb  Pb26  1  0.660146  0.855449  0.750000  1
  Pb  Pb27  1  0.160146  0.644551  0.750000  1
  Pb  Pb28  1  0.787511  0.462967  0.955763  1
  Pb  Pb29  1  0.287511  0.037033  0.544237  1
  Pb  Pb30  1  0.712489  0.962967  0.044237  1
  Pb  Pb31  1  0.212489  0.537033  0.455763  1
  Pb  Pb32  1  0.212489  0.537033  0.044237  1
  Pb  Pb33  1  0.712489  0.962967  0.455763  1
  Pb  Pb34  1  0.287511  0.037033  0.955763  1
  Pb  Pb35  1  0.787511  0.462967  0.544237  1
