# generated using pymatgen
data_TbYbTm2(ReN3)4
_symmetry_space_group_name_H-M   'P 1'
_cell_length_a   7.31491725
_cell_length_b   7.31491760
_cell_length_c   6.23312203
_cell_angle_alpha   73.60333132
_cell_angle_beta   73.60334959
_cell_angle_gamma   82.69483180
_symmetry_Int_Tables_number   1
_chemical_formula_structural   TbYbTm2(ReN3)4
_chemical_formula_sum   'Tb1 Yb1 Tm2 Re4 N12'
_cell_volume   306.53668892
_cell_formula_units_Z   1
loop_
 _symmetry_equiv_pos_site_id
 _symmetry_equiv_pos_as_xyz
  1  'x, y, z'
loop_
 _atom_site_type_symbol
 _atom_site_label
 _atom_site_symmetry_multiplicity
 _atom_site_fract_x
 _atom_site_fract_y
 _atom_site_fract_z
 _atom_site_occupancy
  Tb  Tb0  1  0.292565  0.707435  0.750000  1
  Yb  Yb1  1  0.705684  0.294316  0.250000  1
  Tm  Tm2  1  0.910108  0.089892  0.750000  1
  Tm  Tm3  1  0.089816  0.910184  0.250000  1
  Re  Re4  1  0.622131  0.796596  0.269414  1
  Re  Re5  1  0.203404  0.377869  0.230586  1
  Re  Re6  1  0.379841  0.201222  0.730147  1
  Re  Re7  1  0.798778  0.620159  0.769853  1
  N  N8  1  0.342526  0.361544  0.932562  1
  N  N9  1  0.009578  0.214726  0.347193  1
  N  N10  1  0.785274  0.990422  0.152807  1
  N  N11  1  0.215621  0.004327  0.844829  1
  N  N12  1  0.654466  0.644484  0.062481  1
  N  N13  1  0.882165  0.375960  0.828315  1
  N  N14  1  0.121856  0.627496  0.163960  1
  N  N15  1  0.995673  0.784379  0.655171  1
  N  N16  1  0.372504  0.878144  0.336040  1
  N  N17  1  0.638456  0.657474  0.567438  1
  N  N18  1  0.624040  0.117835  0.671685  1
  N  N19  1  0.355516  0.345534  0.437519  1
