# generated using pymatgen
data_Dy10IrPtPb6
_symmetry_space_group_name_H-M   'P 1'
_cell_length_a   9.24816000
_cell_length_b   9.24816043
_cell_length_c   6.86692100
_cell_angle_alpha   90.00000000
_cell_angle_beta   90.00000000
_cell_angle_gamma   119.99999845
_symmetry_Int_Tables_number   1
_chemical_formula_structural   Dy10IrPtPb6
_chemical_formula_sum   'Dy10 Ir1 Pt1 Pb6'
_cell_volume   508.63164829
_cell_formula_units_Z   1
loop_
 _symmetry_equiv_pos_site_id
 _symmetry_equiv_pos_as_xyz
  1  'x, y, z'
loop_
 _atom_site_type_symbol
 _atom_site_label
 _atom_site_symmetry_multiplicity
 _atom_site_fract_x
 _atom_site_fract_y
 _atom_site_fract_z
 _atom_site_occupancy
  Dy  Dy0  1  0.239269  0.000000  0.242534  1
  Dy  Dy1  1  0.760731  0.000000  0.757466  1
  Dy  Dy2  1  0.000000  0.239269  0.242534  1
  Dy  Dy3  1  0.000000  0.760731  0.757466  1
  Dy  Dy4  1  0.760731  0.760731  0.242534  1
  Dy  Dy5  1  0.239269  0.239269  0.757466  1
  Dy  Dy6  1  0.333333  0.666667  0.000000  1
  Dy  Dy7  1  0.666667  0.333333  0.000000  1
  Dy  Dy8  1  0.666667  0.333333  0.500000  1
  Dy  Dy9  1  0.333333  0.666667  0.500000  1
  Ir  Ir10  1  0.000000  0.000000  0.000000  1
  Pt  Pt11  1  0.000000  0.000000  0.500000  1
  Pb  Pb12  1  0.596599  0.000000  0.251176  1
  Pb  Pb13  1  0.403401  0.000000  0.748824  1
  Pb  Pb14  1  0.000000  0.596599  0.251176  1
  Pb  Pb15  1  0.000000  0.403401  0.748824  1
  Pb  Pb16  1  0.403401  0.403401  0.251176  1
  Pb  Pb17  1  0.596599  0.596599  0.748824  1
