# generated using pymatgen
data_YbTm3AlOs7
_symmetry_space_group_name_H-M   'P 1'
_cell_length_a   5.33749200
_cell_length_b   5.33748956
_cell_length_c   8.62235700
_cell_angle_alpha   90.00000000
_cell_angle_beta   90.00000000
_cell_angle_gamma   119.99999034
_symmetry_Int_Tables_number   1
_chemical_formula_structural   YbTm3AlOs7
_chemical_formula_sum   'Yb1 Tm3 Al1 Os7'
_cell_volume   212.73108244
_cell_formula_units_Z   1
loop_
 _symmetry_equiv_pos_site_id
 _symmetry_equiv_pos_as_xyz
  1  'x, y, z'
loop_
 _atom_site_type_symbol
 _atom_site_label
 _atom_site_symmetry_multiplicity
 _atom_site_fract_x
 _atom_site_fract_y
 _atom_site_fract_z
 _atom_site_occupancy
  Yb  Yb0  1  0.333333  0.666667  0.063509  1
  Tm  Tm1  1  0.333333  0.666667  0.425487  1
  Tm  Tm2  1  0.666667  0.333333  0.570682  1
  Tm  Tm3  1  0.666667  0.333333  0.938882  1
  Al  Al4  1  0.000000  0.000000  0.501610  1
  Os  Os5  1  0.000000  0.000000  0.998901  1
  Os  Os6  1  0.829165  0.170835  0.252540  1
  Os  Os7  1  0.829165  0.658330  0.252540  1
  Os  Os8  1  0.341670  0.170835  0.252540  1
  Os  Os9  1  0.171898  0.828102  0.747770  1
  Os  Os10  1  0.171898  0.343796  0.747770  1
  Os  Os11  1  0.656204  0.828102  0.747770  1
