# generated using pymatgen
data_Dy3Y3ScCo17P12
_symmetry_space_group_name_H-M   'P 1'
_cell_length_a   3.71562000
_cell_length_b   10.59697202
_cell_length_c   12.29659902
_cell_angle_alpha   90.00687277
_cell_angle_beta   90.00000000
_cell_angle_gamma   90.00000000
_symmetry_Int_Tables_number   1
_chemical_formula_structural   Dy3Y3ScCo17P12
_chemical_formula_sum   'Dy3 Y3 Sc1 Co17 P12'
_cell_volume   484.17023575
_cell_formula_units_Z   1
loop_
 _symmetry_equiv_pos_site_id
 _symmetry_equiv_pos_as_xyz
  1  'x, y, z'
loop_
 _atom_site_type_symbol
 _atom_site_label
 _atom_site_symmetry_multiplicity
 _atom_site_fract_x
 _atom_site_fract_y
 _atom_site_fract_z
 _atom_site_occupancy
  Dy  Dy0  1  0.500000  0.821376  0.207250  1
  Dy  Dy1  1  0.000000  0.682530  0.795793  1
  Dy  Dy2  1  0.000000  0.317522  0.795854  1
  Y  Y3  1  0.000000  0.499952  0.527594  1
  Y  Y4  1  0.500000  0.999980  0.477879  1
  Y  Y5  1  0.500000  0.178962  0.207121  1
  Sc  Sc6  1  0.500000  0.500044  0.152522  1
  Co  Co7  1  0.000000  0.000004  0.837317  1
  Co  Co8  1  0.500000  0.500035  0.703719  1
  Co  Co9  1  0.000000  0.999596  0.295881  1
  Co  Co10  1  0.000000  0.500084  0.984537  1
  Co  Co11  1  0.500000  0.999903  0.013092  1
  Co  Co12  1  0.500000  0.326788  0.989571  1
  Co  Co13  1  0.500000  0.673245  0.989739  1
  Co  Co14  1  0.000000  0.161974  0.001291  1
  Co  Co15  1  0.000000  0.837887  0.001290  1
  Co  Co16  1  0.500000  0.294609  0.434358  1
  Co  Co17  1  0.500000  0.705544  0.434234  1
  Co  Co18  1  0.000000  0.202158  0.570716  1
  Co  Co19  1  0.000000  0.797857  0.570635  1
  Co  Co20  1  0.500000  0.880383  0.707890  1
  Co  Co21  1  0.500000  0.119609  0.707939  1
  Co  Co22  1  0.000000  0.622456  0.296509  1
  Co  Co23  1  0.000000  0.377663  0.296616  1
  P  P24  1  0.500000  0.500059  0.883195  1
  P  P25  1  0.000000  0.999799  0.115892  1
  P  P26  1  0.500000  0.500027  0.357694  1
  P  P27  1  0.000000  0.999988  0.655382  1
  P  P28  1  0.500000  0.308933  0.618078  1
  P  P29  1  0.500000  0.691113  0.618007  1
  P  P30  1  0.000000  0.189114  0.386373  1
  P  P31  1  0.000000  0.810693  0.386212  1
  P  P32  1  0.500000  0.851729  0.888991  1
  P  P33  1  0.500000  0.148216  0.889009  1
  P  P34  1  0.000000  0.663386  0.101064  1
  P  P35  1  0.000000  0.336784  0.100750  1
