# generated using pymatgen
data_Pr10RuPt5
_symmetry_space_group_name_H-M   'P 1'
_cell_length_a   11.47348200
_cell_length_b   11.47348200
_cell_length_c   6.71853500
_cell_angle_alpha   90.00000000
_cell_angle_beta   90.00000000
_cell_angle_gamma   90.00000000
_symmetry_Int_Tables_number   1
_chemical_formula_structural   Pr10RuPt5
_chemical_formula_sum   'Pr20 Ru2 Pt10'
_cell_volume   884.43324970
_cell_formula_units_Z   2
loop_
 _symmetry_equiv_pos_site_id
 _symmetry_equiv_pos_as_xyz
  1  'x, y, z'
loop_
 _atom_site_type_symbol
 _atom_site_label
 _atom_site_symmetry_multiplicity
 _atom_site_fract_x
 _atom_site_fract_y
 _atom_site_fract_z
 _atom_site_occupancy
  Pr  Pr0  1  0.297897  0.088161  0.379749  1
  Pr  Pr1  1  0.297897  0.911839  0.879749  1
  Pr  Pr2  1  0.702103  0.088161  0.879749  1
  Pr  Pr3  1  0.702103  0.911839  0.379749  1
  Pr  Pr4  1  0.588161  0.797897  0.879749  1
  Pr  Pr5  1  0.588161  0.202103  0.379749  1
  Pr  Pr6  1  0.411839  0.797897  0.379749  1
  Pr  Pr7  1  0.411839  0.202103  0.879749  1
  Pr  Pr8  1  0.207081  0.407857  0.621925  1
  Pr  Pr9  1  0.207081  0.592143  0.121925  1
  Pr  Pr10  1  0.792919  0.407857  0.121925  1
  Pr  Pr11  1  0.792919  0.592143  0.621925  1
  Pr  Pr12  1  0.907857  0.707081  0.121925  1
  Pr  Pr13  1  0.907857  0.292919  0.621925  1
  Pr  Pr14  1  0.092143  0.707081  0.621925  1
  Pr  Pr15  1  0.092143  0.292919  0.121925  1
  Pr  Pr16  1  0.000000  0.000000  0.495538  1
  Pr  Pr17  1  0.000000  0.000000  0.995538  1
  Pr  Pr18  1  0.500000  0.500000  0.995538  1
  Pr  Pr19  1  0.500000  0.500000  0.495538  1
  Ru  Ru20  1  0.500000  0.000000  0.124287  1
  Ru  Ru21  1  0.500000  0.000000  0.624287  1
  Pt  Pt22  1  0.847939  0.154746  0.248384  1
  Pt  Pt23  1  0.847939  0.845254  0.748384  1
  Pt  Pt24  1  0.152061  0.154746  0.748384  1
  Pt  Pt25  1  0.152061  0.845254  0.248384  1
  Pt  Pt26  1  0.654746  0.347939  0.748384  1
  Pt  Pt27  1  0.654746  0.652061  0.248384  1
  Pt  Pt28  1  0.345254  0.347939  0.248384  1
  Pt  Pt29  1  0.345254  0.652061  0.748384  1
  Pt  Pt30  1  0.000000  0.500000  0.884412  1
  Pt  Pt31  1  0.000000  0.500000  0.384412  1
