# generated using pymatgen
data_Li6Gd2PuN6
_symmetry_space_group_name_H-M   'P 1'
_cell_length_a   5.92501100
_cell_length_b   5.92501121
_cell_length_c   5.32661900
_cell_angle_alpha   90.00000000
_cell_angle_beta   90.00000000
_cell_angle_gamma   120.00000440
_symmetry_Int_Tables_number   1
_chemical_formula_structural   Li6Gd2PuN6
_chemical_formula_sum   'Li6 Gd2 Pu1 N6'
_cell_volume   161.94240468
_cell_formula_units_Z   1
loop_
 _symmetry_equiv_pos_site_id
 _symmetry_equiv_pos_as_xyz
  1  'x, y, z'
loop_
 _atom_site_type_symbol
 _atom_site_label
 _atom_site_symmetry_multiplicity
 _atom_site_fract_x
 _atom_site_fract_y
 _atom_site_fract_z
 _atom_site_occupancy
  Li  Li0  1  0.979739  0.649594  0.605836  1
  Li  Li1  1  0.350406  0.330146  0.605836  1
  Li  Li2  1  0.669854  0.020261  0.605836  1
  Li  Li3  1  0.004522  0.337186  0.392048  1
  Li  Li4  1  0.662814  0.667336  0.392048  1
  Li  Li5  1  0.332664  0.995478  0.392048  1
  Gd  Gd6  1  0.000000  0.000000  0.998776  1
  Gd  Gd7  1  0.333333  0.666667  0.993280  1
  Pu  Pu8  1  0.666667  0.333333  0.005328  1
  N  N9  1  0.972414  0.639228  0.230846  1
  N  N10  1  0.360772  0.333185  0.230846  1
  N  N11  1  0.666815  0.027586  0.230846  1
  N  N12  1  0.969838  0.333530  0.772143  1
  N  N13  1  0.666470  0.636308  0.772143  1
  N  N14  1  0.363692  0.030162  0.772143  1
