# generated using pymatgen
data_LiTb5Al17Si7Os8
_symmetry_space_group_name_H-M   'P 1'
_cell_length_a   8.68996829
_cell_length_b   8.66446987
_cell_length_c   9.52245000
_cell_angle_alpha   90.00012859
_cell_angle_beta   90.00003827
_cell_angle_gamma   120.32194625
_symmetry_Int_Tables_number   1
_chemical_formula_structural   LiTb5Al17Si7Os8
_chemical_formula_sum   'Li1 Tb5 Al17 Si7 Os8'
_cell_volume   618.90137149
_cell_formula_units_Z   1
loop_
 _symmetry_equiv_pos_site_id
 _symmetry_equiv_pos_as_xyz
  1  'x, y, z'
loop_
 _atom_site_type_symbol
 _atom_site_label
 _atom_site_symmetry_multiplicity
 _atom_site_fract_x
 _atom_site_fract_y
 _atom_site_fract_z
 _atom_site_occupancy
  Li  Li0  1  0.774791  0.211253  0.750006  1
  Tb  Tb1  1  0.191337  0.384091  0.249999  1
  Tb  Tb2  1  0.811799  0.622956  0.750000  1
  Tb  Tb3  1  0.615026  0.809123  0.249999  1
  Tb  Tb4  1  0.381190  0.185651  0.749999  1
  Tb  Tb5  1  0.198329  0.803637  0.250000  1
  Al  Al6  1  0.164395  0.329984  0.578844  1
  Al  Al7  1  0.833570  0.667231  0.421243  1
  Al  Al8  1  0.671875  0.837681  0.580078  1
  Al  Al9  1  0.833577  0.667248  0.078750  1
  Al  Al10  1  0.334278  0.166746  0.422713  1
  Al  Al11  1  0.164398  0.329996  0.921146  1
  Al  Al12  1  0.166020  0.831102  0.579902  1
  Al  Al13  1  0.334282  0.166750  0.077281  1
  Al  Al14  1  0.836276  0.163312  0.434833  1
  Al  Al15  1  0.671880  0.837687  0.919915  1
  Al  Al16  1  0.836269  0.163310  0.065163  1
  Al  Al17  1  0.166014  0.831101  0.920094  1
  Al  Al18  1  0.116018  0.553378  0.750004  1
  Al  Al19  1  0.565360  0.434375  0.249997  1
  Al  Al20  1  0.436373  0.567461  0.749998  1
  Al  Al21  1  0.001649  0.996440  0.250004  1
  Al  Al22  1  0.982103  0.020605  0.750002  1
  Si  Si23  1  0.335423  0.662881  0.039276  1
  Si  Si24  1  0.669801  0.334297  0.954381  1
  Si  Si25  1  0.669806  0.334297  0.545620  1
  Si  Si26  1  0.335427  0.662883  0.460721  1
  Si  Si27  1  0.571376  0.126928  0.249998  1
  Si  Si28  1  0.442441  0.876284  0.749998  1
  Si  Si29  1  0.872211  0.427612  0.250008  1
  Os  Os30  1  0.501235  0.999845  0.001444  1
  Os  Os31  1  0.000192  0.499415  0.008377  1
  Os  Os32  1  0.501227  0.999853  0.498547  1
  Os  Os33  1  0.502077  0.500108  0.000043  1
  Os  Os34  1  0.000244  0.499443  0.491693  1
  Os  Os35  1  0.502096  0.500127  0.499923  1
  Os  Os36  1  0.004824  0.997482  0.999553  1
  Os  Os37  1  0.004813  0.997426  0.500450  1
