# generated using pymatgen
data_Pa4B16Mo3W
_symmetry_space_group_name_H-M   'P 1'
_cell_length_a   3.72024900
_cell_length_b   5.98737112
_cell_length_c   11.62328300
_cell_angle_alpha   90.01171298
_cell_angle_beta   90.00000000
_cell_angle_gamma   90.00000000
_symmetry_Int_Tables_number   1
_chemical_formula_structural   Pa4B16Mo3W
_chemical_formula_sum   'Pa4 B16 Mo3 W1'
_cell_volume   258.90294461
_cell_formula_units_Z   1
loop_
 _symmetry_equiv_pos_site_id
 _symmetry_equiv_pos_as_xyz
  1  'x, y, z'
loop_
 _atom_site_type_symbol
 _atom_site_label
 _atom_site_symmetry_multiplicity
 _atom_site_fract_x
 _atom_site_fract_y
 _atom_site_fract_z
 _atom_site_occupancy
  Pa  Pa0  1  0.000000  0.626485  0.350135  1
  Pa  Pa1  1  0.000000  0.373524  0.650328  1
  Pa  Pa2  1  0.000000  0.126690  0.151125  1
  Pa  Pa3  1  0.000000  0.873561  0.848762  1
  B  B4  1  0.500000  0.789132  0.187202  1
  B  B5  1  0.500000  0.211038  0.812905  1
  B  B6  1  0.500000  0.288999  0.313118  1
  B  B7  1  0.500000  0.710912  0.686938  1
  B  B8  1  0.500000  0.865637  0.031364  1
  B  B9  1  0.500000  0.134363  0.968253  1
  B  B10  1  0.500000  0.365484  0.468479  1
  B  B11  1  0.500000  0.634435  0.531701  1
  B  B12  1  0.500000  0.886724  0.453752  1
  B  B13  1  0.500000  0.113398  0.546415  1
  B  B14  1  0.500000  0.386227  0.046274  1
  B  B15  1  0.500000  0.613565  0.953337  1
  B  B16  1  0.500000  0.974127  0.307643  1
  B  B17  1  0.500000  0.026106  0.692500  1
  B  B18  1  0.500000  0.473802  0.192501  1
  B  B19  1  0.500000  0.525894  0.807324  1
  Mo  Mo20  1  0.000000  0.366509  0.909349  1
  Mo  Mo21  1  0.000000  0.133518  0.409281  1
  Mo  Mo22  1  0.000000  0.866385  0.590942  1
  W  W23  1  0.000000  0.633483  0.090374  1
