# generated using pymatgen
data_Tb2ZrSc(Ga3Rh)6
_symmetry_space_group_name_H-M   'P 1'
_cell_length_a   7.53564801
_cell_length_b   7.52105080
_cell_length_c   9.44899600
_cell_angle_alpha   90.00000000
_cell_angle_beta   90.00000000
_cell_angle_gamma   119.84434368
_symmetry_Int_Tables_number   1
_chemical_formula_structural   Tb2ZrSc(Ga3Rh)6
_chemical_formula_sum   'Tb2 Zr1 Sc1 Ga18 Rh6'
_cell_volume   464.50936882
_cell_formula_units_Z   1
loop_
 _symmetry_equiv_pos_site_id
 _symmetry_equiv_pos_as_xyz
  1  'x, y, z'
loop_
 _atom_site_type_symbol
 _atom_site_label
 _atom_site_symmetry_multiplicity
 _atom_site_fract_x
 _atom_site_fract_y
 _atom_site_fract_z
 _atom_site_occupancy
  Tb  Tb0  1  0.004205  0.330123  0.750000  1
  Tb  Tb1  1  0.331037  0.003908  0.750000  1
  Zr  Zr2  1  0.996888  0.669005  0.250000  1
  Sc  Sc3  1  0.670659  0.998824  0.250000  1
  Ga  Ga4  1  0.120754  0.120837  0.250000  1
  Ga  Ga5  1  0.871301  0.871519  0.750000  1
  Ga  Ga6  1  0.995863  0.334220  0.086387  1
  Ga  Ga7  1  0.999843  0.665154  0.924393  1
  Ga  Ga8  1  0.999843  0.665154  0.575607  1
  Ga  Ga9  1  0.334977  0.997015  0.413395  1
  Ga  Ga10  1  0.995863  0.334220  0.413613  1
  Ga  Ga11  1  0.665460  0.999081  0.574977  1
  Ga  Ga12  1  0.665460  0.999081  0.925023  1
  Ga  Ga13  1  0.334977  0.997015  0.086605  1
  Ga  Ga14  1  0.333832  0.333537  0.561633  1
  Ga  Ga15  1  0.670049  0.671101  0.427075  1
  Ga  Ga16  1  0.670049  0.671101  0.072925  1
  Ga  Ga17  1  0.333832  0.333537  0.938367  1
  Ga  Ga18  1  0.338495  0.552449  0.250000  1
  Ga  Ga19  1  0.661797  0.453634  0.750000  1
  Ga  Ga20  1  0.553144  0.339653  0.250000  1
  Ga  Ga21  1  0.452352  0.660831  0.750000  1
  Rh  Rh22  1  0.672339  0.329070  0.001921  1
  Rh  Rh23  1  0.327160  0.671454  0.002494  1
  Rh  Rh24  1  0.327160  0.671454  0.497506  1
  Rh  Rh25  1  0.672339  0.329070  0.498079  1
  Rh  Rh26  1  0.000161  0.998976  0.001889  1
  Rh  Rh27  1  0.000161  0.998976  0.498111  1
