# generated using pymatgen
data_YbCe(CN2)3
_symmetry_space_group_name_H-M   'P 1'
_cell_length_a   6.55705652
_cell_length_b   6.55705913
_cell_length_c   10.76445672
_cell_angle_alpha   89.99999970
_cell_angle_beta   107.73229083
_cell_angle_gamma   59.99999484
_symmetry_Int_Tables_number   1
_chemical_formula_structural   YbCe(CN2)3
_chemical_formula_sum   'Yb2 Ce2 C6 N12'
_cell_volume   375.20720937
_cell_formula_units_Z   2
loop_
 _symmetry_equiv_pos_site_id
 _symmetry_equiv_pos_as_xyz
  1  'x, y, z'
loop_
 _atom_site_type_symbol
 _atom_site_label
 _atom_site_symmetry_multiplicity
 _atom_site_fract_x
 _atom_site_fract_y
 _atom_site_fract_z
 _atom_site_occupancy
  Yb  Yb0  1  0.671297  0.164351  0.506945  1
  Yb  Yb1  1  0.328703  0.335649  0.993055  1
  Ce  Ce2  1  0.671443  0.664278  0.007165  1
  Ce  Ce3  1  0.328556  0.835721  0.492835  1
  C  C4  1  0.195913  0.250001  0.250000  1
  C  C5  1  0.500001  0.554085  0.250000  1
  C  C6  1  0.804086  0.945914  0.250000  1
  C  C7  1  0.208576  0.041424  0.750000  1
  C  C8  1  0.500000  0.458576  0.750000  1
  C  C9  1  0.791423  0.750001  0.750000  1
  N  N10  1  0.086772  0.360771  0.134777  1
  N  N11  1  0.495549  0.552456  0.134777  1
  N  N12  1  0.687234  0.951995  0.134777  1
  N  N13  1  0.312766  0.139229  0.365223  1
  N  N14  1  0.504451  0.548005  0.365223  1
  N  N15  1  0.913228  0.947543  0.365223  1
  N  N16  1  0.099965  0.045608  0.633356  1
  N  N17  1  0.487783  0.466610  0.633356  1
  N  N18  1  0.678965  0.854426  0.633356  1
  N  N19  1  0.321035  0.033391  0.866644  1
  N  N20  1  0.512217  0.454392  0.866644  1
  N  N21  1  0.900035  0.645573  0.866644  1
