# generated using pymatgen
data_Eu3YLu4(WO6)4
_symmetry_space_group_name_H-M   'P 1'
_cell_length_a   5.42883900
_cell_length_b   7.68604712
_cell_length_c   11.40465410
_cell_angle_alpha   75.87450198
_cell_angle_beta   90.00000000
_cell_angle_gamma   90.00000000
_symmetry_Int_Tables_number   1
_chemical_formula_structural   Eu3YLu4(WO6)4
_chemical_formula_sum   'Eu3 Y1 Lu4 W4 O24'
_cell_volume   461.48539211
_cell_formula_units_Z   1
loop_
 _symmetry_equiv_pos_site_id
 _symmetry_equiv_pos_as_xyz
  1  'x, y, z'
loop_
 _atom_site_type_symbol
 _atom_site_label
 _atom_site_symmetry_multiplicity
 _atom_site_fract_x
 _atom_site_fract_y
 _atom_site_fract_z
 _atom_site_occupancy
  Eu  Eu0  1  0.254003  0.000000  0.750000  1
  Eu  Eu1  1  0.316962  0.500000  0.750000  1
  Eu  Eu2  1  0.684810  0.500000  0.250000  1
  Y  Y3  1  0.745403  0.000000  0.250000  1
  Lu  Lu4  1  0.182450  0.793267  0.079798  1
  Lu  Lu5  1  0.182450  0.206733  0.420202  1
  Lu  Lu6  1  0.817110  0.206754  0.922153  1
  Lu  Lu7  1  0.817110  0.793246  0.577847  1
  W  W8  1  0.744182  0.724097  0.887152  1
  W  W9  1  0.255872  0.725850  0.385760  1
  W  W10  1  0.744182  0.275903  0.612848  1
  W  W11  1  0.255872  0.274150  0.114240  1
  O  O12  1  0.541043  0.159732  0.066668  1
  O  O13  1  0.049155  0.057021  0.101909  1
  O  O14  1  0.011359  0.716966  0.769049  1
  O  O15  1  0.461511  0.161514  0.564378  1
  O  O16  1  0.349940  0.488813  0.388832  1
  O  O17  1  0.947300  0.059221  0.599113  1
  O  O18  1  0.550048  0.789677  0.726499  1
  O  O19  1  0.452211  0.793843  0.225521  1
  O  O20  1  0.140473  0.638977  0.547299  1
  O  O21  1  0.049155  0.942979  0.398091  1
  O  O22  1  0.461511  0.838486  0.935622  1
  O  O23  1  0.452211  0.206157  0.274479  1
  O  O24  1  0.860481  0.363060  0.451764  1
  O  O25  1  0.649872  0.487227  0.889582  1
  O  O26  1  0.349940  0.511187  0.111168  1
  O  O27  1  0.947300  0.940779  0.900887  1
  O  O28  1  0.541043  0.840268  0.433332  1
  O  O29  1  0.986402  0.281429  0.231075  1
  O  O30  1  0.550048  0.210323  0.773501  1
  O  O31  1  0.860481  0.636940  0.048236  1
  O  O32  1  0.011359  0.283034  0.730951  1
  O  O33  1  0.140473  0.361023  0.952701  1
  O  O34  1  0.986402  0.718571  0.268925  1
  O  O35  1  0.649872  0.512773  0.610418  1
