# generated using pymatgen
data_Dy3Y5Sc11Si16Hg
_symmetry_space_group_name_H-M   'P 1'
_cell_length_a   7.06929694
_cell_length_b   7.40136147
_cell_length_c   14.03526156
_cell_angle_alpha   90.00053575
_cell_angle_beta   89.96771748
_cell_angle_gamma   89.96346479
_symmetry_Int_Tables_number   1
_chemical_formula_structural   Dy3Y5Sc11Si16Hg
_chemical_formula_sum   'Dy3 Y5 Sc11 Si16 Hg1'
_cell_volume   734.35861228
_cell_formula_units_Z   1
loop_
 _symmetry_equiv_pos_site_id
 _symmetry_equiv_pos_as_xyz
  1  'x, y, z'
loop_
 _atom_site_type_symbol
 _atom_site_label
 _atom_site_symmetry_multiplicity
 _atom_site_fract_x
 _atom_site_fract_y
 _atom_site_fract_z
 _atom_site_occupancy
  Dy  Dy0  1  0.010103  0.174093  0.403113  1
  Dy  Dy1  1  0.511263  0.323940  0.402790  1
  Dy  Dy2  1  0.484591  0.673194  0.598292  1
  Y  Y3  1  0.010009  0.173723  0.096795  1
  Y  Y4  1  0.990724  0.817237  0.901763  1
  Y  Y5  1  0.484856  0.673034  0.901834  1
  Y  Y6  1  0.990749  0.817245  0.598213  1
  Y  Y7  1  0.510779  0.323985  0.097073  1
  Sc  Sc8  1  0.838374  0.498089  0.250178  1
  Sc  Sc9  1  0.339808  0.002916  0.250118  1
  Sc  Sc10  1  0.657643  0.998433  0.749861  1
  Sc  Sc11  1  0.325592  0.183273  0.625819  1
  Sc  Sc12  1  0.671509  0.823791  0.375115  1
  Sc  Sc13  1  0.169645  0.679902  0.373177  1
  Sc  Sc14  1  0.671406  0.823746  0.124933  1
  Sc  Sc15  1  0.838043  0.325205  0.625855  1
  Sc  Sc16  1  0.325662  0.183411  0.874016  1
  Sc  Sc17  1  0.837943  0.325129  0.874036  1
  Sc  Sc18  1  0.169424  0.679825  0.126867  1
  Si  Si19  1  0.027410  0.096199  0.750061  1
  Si  Si20  1  0.967381  0.886850  0.250122  1
  Si  Si21  1  0.467100  0.617640  0.250117  1
  Si  Si22  1  0.544629  0.378840  0.749919  1
  Si  Si23  1  0.291644  0.888813  0.749796  1
  Si  Si24  1  0.713198  0.127752  0.250279  1
  Si  Si25  1  0.212598  0.373668  0.250287  1
  Si  Si26  1  0.769479  0.630537  0.749888  1
  Si  Si27  1  0.162134  0.459089  0.528289  1
  Si  Si28  1  0.842227  0.535816  0.461728  1
  Si  Si29  1  0.344243  0.966106  0.462223  1
  Si  Si30  1  0.842728  0.536450  0.038272  1
  Si  Si31  1  0.657012  0.033581  0.540511  1
  Si  Si32  1  0.161699  0.459136  0.971584  1
  Si  Si33  1  0.656996  0.033618  0.959360  1
  Si  Si34  1  0.344496  0.965608  0.037821  1
  Hg  Hg35  1  0.156901  0.510128  0.749895  1
