# generated using pymatgen
data_U4BHRu12C
_symmetry_space_group_name_H-M   'P 1'
_cell_length_a   4.11979800
_cell_length_b   4.11979800
_cell_length_c   16.21938900
_cell_angle_alpha   90.00000000
_cell_angle_beta   90.00000000
_cell_angle_gamma   90.00000000
_symmetry_Int_Tables_number   1
_chemical_formula_structural   U4BHRu12C
_chemical_formula_sum   'U4 B1 H1 Ru12 C1'
_cell_volume   275.28740045
_cell_formula_units_Z   1
loop_
 _symmetry_equiv_pos_site_id
 _symmetry_equiv_pos_as_xyz
  1  'x, y, z'
loop_
 _atom_site_type_symbol
 _atom_site_label
 _atom_site_symmetry_multiplicity
 _atom_site_fract_x
 _atom_site_fract_y
 _atom_site_fract_z
 _atom_site_occupancy
  U  U0  1  0.000000  0.000000  0.881478  1
  U  U1  1  0.000000  0.000000  0.115290  1
  U  U2  1  0.000000  0.000000  0.380382  1
  U  U3  1  0.000000  0.000000  0.622568  1
  B  B4  1  0.500000  0.500000  0.753647  1
  H  H5  1  0.500000  0.500000  0.500109  1
  Ru  Ru6  1  0.500000  0.500000  0.881098  1
  Ru  Ru7  1  0.500000  0.500000  0.122454  1
  Ru  Ru8  1  0.500000  0.500000  0.373545  1
  Ru  Ru9  1  0.500000  0.500000  0.623150  1
  Ru  Ru10  1  0.500000  0.000000  0.000741  1
  Ru  Ru11  1  0.500000  0.000000  0.249089  1
  Ru  Ru12  1  0.500000  0.000000  0.499150  1
  Ru  Ru13  1  0.500000  0.000000  0.750970  1
  Ru  Ru14  1  0.000000  0.500000  0.000741  1
  Ru  Ru15  1  0.000000  0.500000  0.249089  1
  Ru  Ru16  1  0.000000  0.500000  0.499150  1
  Ru  Ru17  1  0.000000  0.500000  0.750970  1
  C  C18  1  0.500000  0.500000  0.246378  1
