# generated using pymatgen
data_Tb11Y5Cd4(CoNi)2
_symmetry_space_group_name_H-M   'P 1'
_cell_length_a   9.55390416
_cell_length_b   9.55579025
_cell_length_c   9.56710112
_cell_angle_alpha   59.95734247
_cell_angle_beta   59.97024024
_cell_angle_gamma   59.93434121
_symmetry_Int_Tables_number   1
_chemical_formula_structural   Tb11Y5Cd4(CoNi)2
_chemical_formula_sum   'Tb11 Y5 Cd4 Co2 Ni2'
_cell_volume   616.96312742
_cell_formula_units_Z   1
loop_
 _symmetry_equiv_pos_site_id
 _symmetry_equiv_pos_as_xyz
  1  'x, y, z'
loop_
 _atom_site_type_symbol
 _atom_site_label
 _atom_site_symmetry_multiplicity
 _atom_site_fract_x
 _atom_site_fract_y
 _atom_site_fract_z
 _atom_site_occupancy
  Tb  Tb0  1  0.596789  0.596905  0.599463  1
  Tb  Tb1  1  0.596916  0.596888  0.206779  1
  Tb  Tb2  1  0.596004  0.207908  0.597969  1
  Tb  Tb3  1  0.207984  0.595881  0.598057  1
  Tb  Tb4  1  0.064438  0.437951  0.439737  1
  Tb  Tb5  1  0.437953  0.064575  0.057846  1
  Tb  Tb6  1  0.438010  0.064523  0.439562  1
  Tb  Tb7  1  0.064521  0.438018  0.057836  1
  Tb  Tb8  1  0.438806  0.438732  0.061233  1
  Tb  Tb9  1  0.061169  0.061130  0.438852  1
  Tb  Tb10  1  0.187350  0.811304  0.814406  1
  Y  Y11  1  0.811228  0.187392  0.187061  1
  Y  Y12  1  0.811370  0.187268  0.814418  1
  Y  Y13  1  0.187152  0.811352  0.187114  1
  Y  Y14  1  0.812983  0.813040  0.187036  1
  Y  Y15  1  0.187384  0.187558  0.812507  1
  Cd  Cd16  1  0.829795  0.829969  0.831231  1
  Cd  Cd17  1  0.830001  0.829931  0.508890  1
  Cd  Cd18  1  0.831159  0.505858  0.831471  1
  Cd  Cd19  1  0.505979  0.831082  0.831525  1
  Co  Co20  1  0.392784  0.392727  0.390772  1
  Co  Co21  1  0.392797  0.392664  0.823737  1
  Ni  Ni22  1  0.392579  0.824841  0.391187  1
  Ni  Ni23  1  0.824849  0.392501  0.391315  1
