# generated using pymatgen
data_Pr17Lu3(Ga5Pb)2
_symmetry_space_group_name_H-M   'P 1'
_cell_length_a   7.97992200
_cell_length_b   7.97992200
_cell_length_c   14.67129600
_cell_angle_alpha   90.00000000
_cell_angle_beta   90.00000000
_cell_angle_gamma   90.00000000
_symmetry_Int_Tables_number   1
_chemical_formula_structural   Pr17Lu3(Ga5Pb)2
_chemical_formula_sum   'Pr17 Lu3 Ga10 Pb2'
_cell_volume   934.25573388
_cell_formula_units_Z   1
loop_
 _symmetry_equiv_pos_site_id
 _symmetry_equiv_pos_as_xyz
  1  'x, y, z'
loop_
 _atom_site_type_symbol
 _atom_site_label
 _atom_site_symmetry_multiplicity
 _atom_site_fract_x
 _atom_site_fract_y
 _atom_site_fract_z
 _atom_site_occupancy
  Pr  Pr0  1  0.819467  0.839043  0.611045  1
  Pr  Pr1  1  0.177220  0.836319  0.100719  1
  Pr  Pr2  1  0.162108  0.823702  0.387799  1
  Pr  Pr3  1  0.837892  0.176298  0.387799  1
  Pr  Pr4  1  0.676298  0.662108  0.387799  1
  Pr  Pr5  1  0.660957  0.319467  0.611045  1
  Pr  Pr6  1  0.339043  0.680533  0.611045  1
  Pr  Pr7  1  0.663681  0.677220  0.100719  1
  Pr  Pr8  1  0.683592  0.341981  0.899374  1
  Pr  Pr9  1  0.841981  0.816408  0.899374  1
  Pr  Pr10  1  0.323702  0.337892  0.387799  1
  Pr  Pr11  1  0.180533  0.160957  0.611045  1
  Pr  Pr12  1  0.822780  0.163681  0.100719  1
  Pr  Pr13  1  0.316408  0.658019  0.899374  1
  Pr  Pr14  1  0.336319  0.322780  0.100719  1
  Pr  Pr15  1  0.158019  0.183592  0.899374  1
  Pr  Pr16  1  0.500000  0.000000  0.795513  1
  Lu  Lu17  1  0.000000  0.500000  0.741494  1
  Lu  Lu18  1  0.000000  0.500000  0.220096  1
  Lu  Lu19  1  0.500000  0.000000  0.248791  1
  Ga  Ga20  1  0.624247  0.373847  0.245883  1
  Ga  Ga21  1  0.119197  0.872479  0.751924  1
  Ga  Ga22  1  0.372479  0.380803  0.751924  1
  Ga  Ga23  1  0.375753  0.626153  0.245883  1
  Ga  Ga24  1  0.873847  0.875753  0.245883  1
  Ga  Ga25  1  0.627521  0.619197  0.751924  1
  Ga  Ga26  1  0.880803  0.127521  0.751924  1
  Ga  Ga27  1  0.500000  0.000000  0.006056  1
  Ga  Ga28  1  0.126153  0.124247  0.245883  1
  Ga  Ga29  1  0.000000  0.500000  0.007909  1
  Pb  Pb30  1  0.000000  0.500000  0.509997  1
  Pb  Pb31  1  0.500000  0.000000  0.483168  1
