# generated using pymatgen
data_Ho2MnNiRu2
_symmetry_space_group_name_H-M   'P 1'
_cell_length_a   5.13503604
_cell_length_b   5.36772727
_cell_length_c   5.36772674
_cell_angle_alpha   59.13446597
_cell_angle_beta   59.17815657
_cell_angle_gamma   59.17815533
_symmetry_Int_Tables_number   1
_chemical_formula_structural   Ho2MnNiRu2
_chemical_formula_sum   'Ho2 Mn1 Ni1 Ru2'
_cell_volume   102.62457745
_cell_formula_units_Z   1
loop_
 _symmetry_equiv_pos_site_id
 _symmetry_equiv_pos_as_xyz
  1  'x, y, z'
loop_
 _atom_site_type_symbol
 _atom_site_label
 _atom_site_symmetry_multiplicity
 _atom_site_fract_x
 _atom_site_fract_y
 _atom_site_fract_z
 _atom_site_occupancy
  Ho  Ho0  1  0.123064  0.125061  0.125061  1
  Ho  Ho1  1  0.876936  0.874939  0.874939  1
  Mn  Mn2  1  0.000000  0.500000  0.500000  1
  Ni  Ni3  1  0.500000  0.500000  0.500000  1
  Ru  Ru4  1  0.500000  0.000000  0.500000  1
  Ru  Ru5  1  0.500000  0.500000  0.000000  1
