# generated using pymatgen
data_CsTb2YS5
_symmetry_space_group_name_H-M   'P 1'
_cell_length_a   4.02887400
_cell_length_b   12.05863700
_cell_length_c   21.52725400
_cell_angle_alpha   90.00000000
_cell_angle_beta   90.00000000
_cell_angle_gamma   90.00000000
_symmetry_Int_Tables_number   1
_chemical_formula_structural   CsTb2YS5
_chemical_formula_sum   'Cs4 Tb8 Y4 S20'
_cell_volume   1045.85274902
_cell_formula_units_Z   4
loop_
 _symmetry_equiv_pos_site_id
 _symmetry_equiv_pos_as_xyz
  1  'x, y, z'
loop_
 _atom_site_type_symbol
 _atom_site_label
 _atom_site_symmetry_multiplicity
 _atom_site_fract_x
 _atom_site_fract_y
 _atom_site_fract_z
 _atom_site_occupancy
  Cs  Cs0  1  0.250000  0.853949  0.093118  1
  Cs  Cs1  1  0.750000  0.146051  0.906882  1
  Cs  Cs2  1  0.750000  0.353949  0.406882  1
  Cs  Cs3  1  0.250000  0.646051  0.593118  1
  Tb  Tb4  1  0.750000  0.797470  0.825502  1
  Tb  Tb5  1  0.250000  0.202530  0.174498  1
  Tb  Tb6  1  0.250000  0.297470  0.674498  1
  Tb  Tb7  1  0.750000  0.702530  0.325502  1
  Tb  Tb8  1  0.250000  0.957958  0.697526  1
  Tb  Tb9  1  0.750000  0.042042  0.302474  1
  Tb  Tb10  1  0.750000  0.457958  0.802474  1
  Tb  Tb11  1  0.250000  0.542042  0.197526  1
  Y  Y12  1  0.750000  0.391075  0.053015  1
  Y  Y13  1  0.250000  0.608925  0.946985  1
  Y  Y14  1  0.250000  0.891075  0.446985  1
  Y  Y15  1  0.750000  0.108925  0.553015  1
  S  S16  1  0.250000  0.951445  0.568658  1
  S  S17  1  0.750000  0.048555  0.431342  1
  S  S18  1  0.750000  0.451445  0.931342  1
  S  S19  1  0.250000  0.548555  0.068658  1
  S  S20  1  0.750000  0.761791  0.951497  1
  S  S21  1  0.250000  0.238209  0.048503  1
  S  S22  1  0.250000  0.261791  0.548503  1
  S  S23  1  0.750000  0.738209  0.451497  1
  S  S24  1  0.250000  0.946793  0.824348  1
  S  S25  1  0.750000  0.053207  0.175652  1
  S  S26  1  0.750000  0.446793  0.675652  1
  S  S27  1  0.250000  0.553207  0.324348  1
  S  S28  1  0.750000  0.126079  0.682684  1
  S  S29  1  0.250000  0.873921  0.317316  1
  S  S30  1  0.250000  0.626079  0.817316  1
  S  S31  1  0.750000  0.373921  0.182684  1
  S  S32  1  0.750000  0.689987  0.198807  1
  S  S33  1  0.250000  0.310013  0.801193  1
  S  S34  1  0.250000  0.189987  0.301193  1
  S  S35  1  0.750000  0.810013  0.698807  1
