# generated using pymatgen
data_Tm2LuMg3Si2Au
_symmetry_space_group_name_H-M   'P 1'
_cell_length_a   7.17148000
_cell_length_b   7.15249067
_cell_length_c   4.25914500
_cell_angle_alpha   90.00000000
_cell_angle_beta   90.00000000
_cell_angle_gamma   120.08788169
_symmetry_Int_Tables_number   1
_chemical_formula_structural   Tm2LuMg3Si2Au
_chemical_formula_sum   'Tm2 Lu1 Mg3 Si2 Au1'
_cell_volume   189.03136737
_cell_formula_units_Z   1
loop_
 _symmetry_equiv_pos_site_id
 _symmetry_equiv_pos_as_xyz
  1  'x, y, z'
loop_
 _atom_site_type_symbol
 _atom_site_label
 _atom_site_symmetry_multiplicity
 _atom_site_fract_x
 _atom_site_fract_y
 _atom_site_fract_z
 _atom_site_occupancy
  Tm  Tm0  1  0.000610  0.582134  0.000000  1
  Tm  Tm1  1  0.418475  0.417866  0.000000  1
  Lu  Lu2  1  0.582485  0.000000  0.000000  1
  Mg  Mg3  1  0.247848  0.000000  0.500000  1
  Mg  Mg4  1  0.999540  0.247137  0.500000  1
  Mg  Mg5  1  0.752403  0.752863  0.500000  1
  Si  Si6  1  0.333849  0.667651  0.500000  1
  Si  Si7  1  0.666199  0.332349  0.500000  1
  Au  Au8  1  0.998591  0.000000  0.000000  1
