# generated using pymatgen
data_Ho4Tm6HgSb5
_symmetry_space_group_name_H-M   'P 1'
_cell_length_a   8.88161900
_cell_length_b   8.88586131
_cell_length_c   6.31644700
_cell_angle_alpha   90.00000000
_cell_angle_beta   90.00000000
_cell_angle_gamma   119.92402821
_symmetry_Int_Tables_number   1
_chemical_formula_structural   Ho4Tm6HgSb5
_chemical_formula_sum   'Ho4 Tm6 Hg1 Sb5'
_cell_volume   432.04314574
_cell_formula_units_Z   1
loop_
 _symmetry_equiv_pos_site_id
 _symmetry_equiv_pos_as_xyz
  1  'x, y, z'
loop_
 _atom_site_type_symbol
 _atom_site_label
 _atom_site_symmetry_multiplicity
 _atom_site_fract_x
 _atom_site_fract_y
 _atom_site_fract_z
 _atom_site_occupancy
  Ho  Ho0  1  0.754241  0.756266  0.250000  1
  Ho  Ho1  1  0.997383  0.243923  0.250000  1
  Ho  Ho2  1  0.246492  0.239304  0.750000  1
  Ho  Ho3  1  0.242391  0.999293  0.250000  1
  Tm  Tm4  1  0.334541  0.671052  0.999676  1
  Tm  Tm5  1  0.662926  0.328419  0.500310  1
  Tm  Tm6  1  0.662926  0.328419  0.999690  1
  Tm  Tm7  1  0.334541  0.671052  0.500324  1
  Tm  Tm8  1  0.756576  0.000465  0.750000  1
  Tm  Tm9  1  0.008472  0.762157  0.750000  1
  Hg  Hg10  1  0.393984  0.999100  0.750000  1
  Sb  Sb11  1  0.389639  0.392466  0.250000  1
  Sb  Sb12  1  0.996661  0.606749  0.250000  1
  Sb  Sb13  1  0.000691  0.391946  0.750000  1
  Sb  Sb14  1  0.611511  0.609599  0.750000  1
  Sb  Sb15  1  0.607026  0.999788  0.250000  1
