# generated using pymatgen
data_TbYbNi7
_symmetry_space_group_name_H-M   'P 1'
_cell_length_a   4.90068525
_cell_length_b   4.90068492
_cell_length_c   12.26993654
_cell_angle_alpha   78.48041152
_cell_angle_beta   78.48041191
_cell_angle_gamma   59.99999891
_symmetry_Int_Tables_number   1
_chemical_formula_structural   TbYbNi7
_chemical_formula_sum   'Tb2 Yb2 Ni14'
_cell_volume   248.32554054
_cell_formula_units_Z   2
loop_
 _symmetry_equiv_pos_site_id
 _symmetry_equiv_pos_as_xyz
  1  'x, y, z'
loop_
 _atom_site_type_symbol
 _atom_site_label
 _atom_site_symmetry_multiplicity
 _atom_site_fract_x
 _atom_site_fract_y
 _atom_site_fract_z
 _atom_site_occupancy
  Tb  Tb0  1  0.947585  0.947585  0.157246  1
  Tb  Tb1  1  0.052415  0.052415  0.842754  1
  Yb  Yb2  1  0.850946  0.850946  0.447161  1
  Yb  Yb3  1  0.149054  0.149054  0.552839  1
  Ni  Ni4  1  0.500000  0.500000  0.500000  1
  Ni  Ni5  1  0.722247  0.722247  0.833258  1
  Ni  Ni6  1  0.277753  0.277753  0.166742  1
  Ni  Ni7  1  0.611468  0.611468  0.165596  1
  Ni  Ni8  1  0.388532  0.388532  0.834404  1
  Ni  Ni9  1  0.000000  0.500000  0.000000  1
  Ni  Ni10  1  0.500000  0.000000  0.000000  1
  Ni  Ni11  1  0.500000  0.500000  0.000000  1
  Ni  Ni12  1  0.389289  0.389289  0.331479  1
  Ni  Ni13  1  0.889943  0.389289  0.331479  1
  Ni  Ni14  1  0.389289  0.889943  0.331479  1
  Ni  Ni15  1  0.610711  0.610711  0.668521  1
  Ni  Ni16  1  0.110057  0.610711  0.668521  1
  Ni  Ni17  1  0.610711  0.110057  0.668521  1
