# generated using pymatgen
data_KU2F8
_symmetry_space_group_name_H-M   'P 1'
_cell_length_a   6.63758059
_cell_length_b   6.62884438
_cell_length_c   4.49188966
_cell_angle_alpha   95.43712667
_cell_angle_beta   95.44174419
_cell_angle_gamma   113.62287240
_symmetry_Int_Tables_number   1
_chemical_formula_structural   KU2F8
_chemical_formula_sum   'K1 U2 F8'
_cell_volume   178.34330047
_cell_formula_units_Z   1
loop_
 _symmetry_equiv_pos_site_id
 _symmetry_equiv_pos_as_xyz
  1  'x, y, z'
loop_
 _atom_site_type_symbol
 _atom_site_label
 _atom_site_symmetry_multiplicity
 _atom_site_fract_x
 _atom_site_fract_y
 _atom_site_fract_z
 _atom_site_occupancy
  K  K0  1  0.000000  0.000000  0.000000  1
  U  U1  1  0.676827  0.323665  0.501249  1
  U  U2  1  0.323174  0.676336  0.498753  1
  F  F3  1  0.736941  0.261083  0.001157  1
  F  F4  1  0.263058  0.738916  0.998843  1
  F  F5  1  0.396357  0.397821  0.229541  1
  F  F6  1  0.953195  0.664648  0.436326  1
  F  F7  1  0.664648  0.953506  0.439535  1
  F  F8  1  0.335352  0.046493  0.560465  1
  F  F9  1  0.046804  0.335352  0.563674  1
  F  F10  1  0.603642  0.602178  0.770459  1
