# generated using pymatgen
data_Sr2Tb(Si3Pd10)2
_symmetry_space_group_name_H-M   'P 1'
_cell_length_a   8.79080523
_cell_length_b   8.79080462
_cell_length_c   8.79080500
_cell_angle_alpha   60.00000233
_cell_angle_beta   60.00000462
_cell_angle_gamma   60.00000079
_symmetry_Int_Tables_number   1
_chemical_formula_structural   Sr2Tb(Si3Pd10)2
_chemical_formula_sum   'Sr2 Tb1 Si6 Pd20'
_cell_volume   480.36456068
_cell_formula_units_Z   1
loop_
 _symmetry_equiv_pos_site_id
 _symmetry_equiv_pos_as_xyz
  1  'x, y, z'
loop_
 _atom_site_type_symbol
 _atom_site_label
 _atom_site_symmetry_multiplicity
 _atom_site_fract_x
 _atom_site_fract_y
 _atom_site_fract_z
 _atom_site_occupancy
  Sr  Sr0  1  0.250000  0.250000  0.250000  1
  Sr  Sr1  1  0.750000  0.750000  0.750000  1
  Tb  Tb2  1  0.000000  0.000000  0.000000  1
  Si  Si3  1  0.731963  0.268037  0.268037  1
  Si  Si4  1  0.268037  0.731963  0.731963  1
  Si  Si5  1  0.268037  0.731963  0.268037  1
  Si  Si6  1  0.731963  0.268037  0.731963  1
  Si  Si7  1  0.268037  0.268037  0.731963  1
  Si  Si8  1  0.731963  0.731963  0.268037  1
  Pd  Pd9  1  0.386630  0.386630  0.386630  1
  Pd  Pd10  1  0.613370  0.613370  0.613370  1
  Pd  Pd11  1  0.386630  0.386630  0.840111  1
  Pd  Pd12  1  0.386630  0.840111  0.386630  1
  Pd  Pd13  1  0.613370  0.613370  0.159889  1
  Pd  Pd14  1  0.613370  0.159889  0.613370  1
  Pd  Pd15  1  0.840111  0.386630  0.386630  1
  Pd  Pd16  1  0.159889  0.613370  0.613370  1
  Pd  Pd17  1  0.343370  0.000000  0.000000  1
  Pd  Pd18  1  0.656630  0.000000  0.000000  1
  Pd  Pd19  1  0.000000  0.343370  0.656630  1
  Pd  Pd20  1  0.000000  0.656630  0.343370  1
  Pd  Pd21  1  0.000000  0.343370  0.000000  1
  Pd  Pd22  1  0.656630  0.000000  0.343370  1
  Pd  Pd23  1  0.000000  0.656630  0.000000  1
  Pd  Pd24  1  0.343370  0.000000  0.656630  1
  Pd  Pd25  1  0.000000  0.000000  0.343370  1
  Pd  Pd26  1  0.000000  0.000000  0.656630  1
  Pd  Pd27  1  0.656630  0.343370  0.000000  1
  Pd  Pd28  1  0.343370  0.656630  0.000000  1
