# generated using pymatgen
data_NdZr4UF22
_symmetry_space_group_name_H-M   'P 1'
_cell_length_a   8.50505928
_cell_length_b   8.50505970
_cell_length_c   8.50505952
_cell_angle_alpha   124.61396780
_cell_angle_beta   106.46169279
_cell_angle_gamma   98.54471996
_symmetry_Int_Tables_number   1
_chemical_formula_structural   NdZr4UF22
_chemical_formula_sum   'Nd1 Zr4 U1 F22'
_cell_volume   446.66757388
_cell_formula_units_Z   1
loop_
 _symmetry_equiv_pos_site_id
 _symmetry_equiv_pos_as_xyz
  1  'x, y, z'
loop_
 _atom_site_type_symbol
 _atom_site_label
 _atom_site_symmetry_multiplicity
 _atom_site_fract_x
 _atom_site_fract_y
 _atom_site_fract_z
 _atom_site_occupancy
  Nd  Nd0  1  0.750000  0.250000  0.500000  1
  Zr  Zr1  1  0.180814  0.134421  0.315338  1
  Zr  Zr2  1  0.819083  0.865476  0.684662  1
  Zr  Zr3  1  0.680917  0.365579  0.046393  1
  Zr  Zr4  1  0.319186  0.634524  0.953607  1
  U  U5  1  0.250000  0.750000  0.500000  1
  F  F6  1  0.206491  0.396112  0.341547  1
  F  F7  1  0.793520  0.603806  0.658177  1
  F  F8  1  0.054565  0.864943  0.658453  1
  F  F9  1  0.445435  0.103888  0.810378  1
  F  F10  1  0.945629  0.135343  0.341823  1
  F  F11  1  0.554371  0.896194  0.189714  1
  F  F12  1  0.293509  0.635057  0.189622  1
  F  F13  1  0.706480  0.364657  0.810286  1
  F  F14  1  0.000061  0.000061  0.000000  1
  F  F15  1  0.499939  0.499939  0.000000  1
  F  F16  1  0.280626  0.370524  0.651083  1
  F  F17  1  0.719440  0.629543  0.348917  1
  F  F18  1  0.780560  0.129476  0.910103  1
  F  F19  1  0.219374  0.870457  0.089897  1
  F  F20  1  0.453580  0.238413  0.417858  1
  F  F21  1  0.546431  0.761512  0.582222  1
  F  F22  1  0.820555  0.035722  0.582142  1
  F  F23  1  0.679445  0.261587  0.215167  1
  F  F24  1  0.179290  0.964209  0.417778  1
  F  F25  1  0.320710  0.738488  0.784919  1
  F  F26  1  0.046420  0.464278  0.784833  1
  F  F27  1  0.953569  0.535791  0.215081  1
