# generated using pymatgen
data_Tm5MnCo5
_symmetry_space_group_name_H-M   'P 1'
_cell_length_a   5.41114340
_cell_length_b   5.41114292
_cell_length_c   20.29305000
_cell_angle_alpha   90.00000000
_cell_angle_beta   90.00000000
_cell_angle_gamma   137.18994461
_symmetry_Int_Tables_number   1
_chemical_formula_structural   Tm5MnCo5
_chemical_formula_sum   'Tm10 Mn2 Co10'
_cell_volume   403.79376798
_cell_formula_units_Z   2
loop_
 _symmetry_equiv_pos_site_id
 _symmetry_equiv_pos_as_xyz
  1  'x, y, z'
loop_
 _atom_site_type_symbol
 _atom_site_label
 _atom_site_symmetry_multiplicity
 _atom_site_fract_x
 _atom_site_fract_y
 _atom_site_fract_z
 _atom_site_occupancy
  Tm  Tm0  1  0.289460  0.710540  0.250000  1
  Tm  Tm1  1  0.292135  0.707865  0.065617  1
  Tm  Tm2  1  0.997382  0.002618  0.843194  1
  Tm  Tm3  1  0.710540  0.289460  0.750000  1
  Tm  Tm4  1  0.707865  0.292135  0.565617  1
  Tm  Tm5  1  0.002618  0.997382  0.343194  1
  Tm  Tm6  1  0.997382  0.002618  0.656806  1
  Tm  Tm7  1  0.707865  0.292135  0.934383  1
  Tm  Tm8  1  0.002618  0.997382  0.156806  1
  Tm  Tm9  1  0.292135  0.707865  0.434383  1
  Mn  Mn10  1  0.000000  0.000000  0.500000  1
  Mn  Mn11  1  0.000000  0.000000  0.000000  1
  Co  Co12  1  0.293670  0.706330  0.654386  1
  Co  Co13  1  0.579407  0.420593  0.442662  1
  Co  Co14  1  0.415881  0.584119  0.750000  1
  Co  Co15  1  0.420593  0.579407  0.942662  1
  Co  Co16  1  0.584119  0.415881  0.250000  1
  Co  Co17  1  0.420593  0.579407  0.557338  1
  Co  Co18  1  0.706330  0.293670  0.345614  1
  Co  Co19  1  0.706330  0.293670  0.154386  1
  Co  Co20  1  0.579407  0.420593  0.057338  1
  Co  Co21  1  0.293670  0.706330  0.845614  1
