# generated using pymatgen
data_Yb3Y2Lu(Si3Ru)8
_symmetry_space_group_name_H-M   'P 1'
_cell_length_a   10.14603229
_cell_length_b   10.14600643
_cell_length_c   8.13941005
_cell_angle_alpha   89.95741583
_cell_angle_beta   90.03803310
_cell_angle_gamma   132.67691356
_symmetry_Int_Tables_number   1
_chemical_formula_structural   Yb3Y2Lu(Si3Ru)8
_chemical_formula_sum   'Yb3 Y2 Lu1 Si24 Ru8'
_cell_volume   616.00247365
_cell_formula_units_Z   1
loop_
 _symmetry_equiv_pos_site_id
 _symmetry_equiv_pos_as_xyz
  1  'x, y, z'
loop_
 _atom_site_type_symbol
 _atom_site_label
 _atom_site_symmetry_multiplicity
 _atom_site_fract_x
 _atom_site_fract_y
 _atom_site_fract_z
 _atom_site_occupancy
  Yb  Yb0  1  0.001108  0.501105  0.249989  1
  Yb  Yb1  1  0.499046  0.999050  0.750009  1
  Yb  Yb2  1  0.997972  0.497961  0.750008  1
  Y  Y3  1  0.499567  0.499574  0.500252  1
  Y  Y4  1  0.500477  0.000489  0.249997  1
  Lu  Lu5  1  0.999510  0.999550  0.999758  1
  Si  Si6  1  0.291982  0.704896  0.998196  1
  Si  Si7  1  0.794263  0.207427  0.500730  1
  Si  Si8  1  0.707480  0.294198  0.999273  1
  Si  Si9  1  0.204838  0.792049  0.501791  1
  Si  Si10  1  0.832402  0.834603  0.332771  1
  Si  Si11  1  0.163831  0.167916  0.667593  1
  Si  Si12  1  0.668797  0.664724  0.833290  1
  Si  Si13  1  0.333718  0.331537  0.166364  1
  Si  Si14  1  0.623300  0.389463  0.227013  1
  Si  Si15  1  0.611575  0.376659  0.772120  1
  Si  Si16  1  0.111236  0.876698  0.728208  1
  Si  Si17  1  0.123433  0.889913  0.272632  1
  Si  Si18  1  0.376575  0.611521  0.772208  1
  Si  Si19  1  0.389666  0.623597  0.226924  1
  Si  Si20  1  0.889737  0.123164  0.272560  1
  Si  Si21  1  0.876794  0.111298  0.728283  1
  Si  Si22  1  0.845627  0.610677  0.003999  1
  Si  Si23  1  0.389569  0.156191  0.995317  1
  Si  Si24  1  0.889832  0.655076  0.504741  1
  Si  Si25  1  0.344026  0.109922  0.494801  1
  Si  Si26  1  0.154800  0.389166  0.995172  1
  Si  Si27  1  0.610599  0.844308  0.005272  1
  Si  Si28  1  0.110013  0.345344  0.496109  1
  Si  Si29  1  0.656487  0.890230  0.504592  1
  Ru  Ru30  1  0.170088  0.833081  0.001260  1
  Ru  Ru31  1  0.667843  0.330558  0.498625  1
  Ru  Ru32  1  0.831139  0.167295  0.001345  1
  Ru  Ru33  1  0.332552  0.670653  0.498702  1
  Ru  Ru34  1  0.627307  0.627660  0.125585  1
  Ru  Ru35  1  0.371964  0.373116  0.873885  1
  Ru  Ru36  1  0.874297  0.873148  0.627459  1
  Ru  Ru37  1  0.126550  0.126186  0.373165  1
