# generated using pymatgen
data_Nb(OsCl6)5
_symmetry_space_group_name_H-M   'P 1'
_cell_length_a   13.43106667
_cell_length_b   13.45657473
_cell_length_c   6.39033095
_cell_angle_alpha   89.39749139
_cell_angle_beta   89.24450918
_cell_angle_gamma   85.97478811
_symmetry_Int_Tables_number   1
_chemical_formula_structural   Nb(OsCl6)5
_chemical_formula_sum   'Nb1 Os5 Cl30'
_cell_volume   1151.96142957
_cell_formula_units_Z   1
loop_
 _symmetry_equiv_pos_site_id
 _symmetry_equiv_pos_as_xyz
  1  'x, y, z'
loop_
 _atom_site_type_symbol
 _atom_site_label
 _atom_site_symmetry_multiplicity
 _atom_site_fract_x
 _atom_site_fract_y
 _atom_site_fract_z
 _atom_site_occupancy
  Nb  Nb0  1  0.223106  0.443474  0.474589  1
  Os  Os1  1  0.437170  0.229430  0.474639  1
  Os  Os2  1  0.767891  0.565181  0.525557  1
  Os  Os3  1  0.564895  0.768607  0.525515  1
  Os  Os4  1  0.101805  0.898921  0.999670  1
  Os  Os5  1  0.897879  0.101712  0.999764  1
  Cl  Cl6  1  0.527514  0.327299  0.259192  1
  Cl  Cl7  1  0.668500  0.477082  0.740765  1
  Cl  Cl8  1  0.476224  0.669287  0.740602  1
  Cl  Cl9  1  0.332034  0.525008  0.256906  1
  Cl  Cl10  1  0.569378  0.197684  0.684535  1
  Cl  Cl11  1  0.798359  0.433843  0.313438  1
  Cl  Cl12  1  0.867900  0.233204  0.783848  1
  Cl  Cl13  1  0.766021  0.132042  0.215743  1
  Cl  Cl14  1  0.131620  0.767605  0.216756  1
  Cl  Cl15  1  0.233510  0.868846  0.783016  1
  Cl  Cl16  1  0.997281  0.189835  0.206917  1
  Cl  Cl17  1  0.809761  0.002429  0.792809  1
  Cl  Cl18  1  0.002711  0.809971  0.793052  1
  Cl  Cl19  1  0.190084  0.997685  0.207210  1
  Cl  Cl20  1  0.048245  0.048141  0.795527  1
  Cl  Cl21  1  0.951438  0.952123  0.203708  1
  Cl  Cl22  1  0.288256  0.282522  0.274772  1
  Cl  Cl23  1  0.714663  0.715162  0.725260  1
  Cl  Cl24  1  0.093165  0.465527  0.249180  1
  Cl  Cl25  1  0.535147  0.899895  0.737639  1
  Cl  Cl26  1  0.899320  0.535651  0.738424  1
  Cl  Cl27  1  0.467862  0.097662  0.262874  1
  Cl  Cl28  1  0.141361  0.334888  0.692303  1
  Cl  Cl29  1  0.664677  0.856236  0.309854  1
  Cl  Cl30  1  0.857136  0.664198  0.310658  1
  Cl  Cl31  1  0.338629  0.139731  0.690059  1
  Cl  Cl32  1  0.384244  0.378434  0.674531  1
  Cl  Cl33  1  0.618392  0.618480  0.325697  1
  Cl  Cl34  1  0.200607  0.573289  0.700537  1
  Cl  Cl35  1  0.433212  0.798917  0.314453  1
