# generated using pymatgen
data_Pr4ScP12Ir4Ru15
_symmetry_space_group_name_H-M   'P 1'
_cell_length_a   12.63799428
_cell_length_b   12.63744380
_cell_length_c   4.00397900
_cell_angle_alpha   90.00000000
_cell_angle_beta   90.00000000
_cell_angle_gamma   119.87840903
_symmetry_Int_Tables_number   1
_chemical_formula_structural   Pr4ScP12Ir4Ru15
_chemical_formula_sum   'Pr4 Sc1 P12 Ir4 Ru15'
_cell_volume   554.48604786
_cell_formula_units_Z   1
loop_
 _symmetry_equiv_pos_site_id
 _symmetry_equiv_pos_as_xyz
  1  'x, y, z'
loop_
 _atom_site_type_symbol
 _atom_site_label
 _atom_site_symmetry_multiplicity
 _atom_site_fract_x
 _atom_site_fract_y
 _atom_site_fract_z
 _atom_site_occupancy
  Pr  Pr0  1  0.331912  0.665347  0.000000  1
  Pr  Pr1  1  0.665132  0.331890  0.000000  1
  Pr  Pr2  1  0.813888  0.999326  0.500000  1
  Pr  Pr3  1  0.001298  0.814553  0.500000  1
  Sc  Sc4  1  0.188957  0.188811  0.500000  1
  P  P5  1  0.185180  0.000905  0.000000  1
  P  P6  1  0.005789  0.187543  0.000000  1
  P  P7  1  0.813938  0.815459  0.000000  1
  P  P8  1  0.170447  0.475625  0.500000  1
  P  P9  1  0.522453  0.693009  0.500000  1
  P  P10  1  0.305388  0.831070  0.500000  1
  P  P11  1  0.686917  0.519177  0.500000  1
  P  P12  1  0.833935  0.310840  0.500000  1
  P  P13  1  0.478878  0.167083  0.500000  1
  P  P14  1  0.622988  0.996649  0.000000  1
  P  P15  1  0.003406  0.626690  0.000000  1
  P  P16  1  0.370156  0.374253  0.000000  1
  Ir  Ir17  1  0.808693  0.623728  0.000000  1
  Ir  Ir18  1  0.817067  0.192293  0.000000  1
  Ir  Ir19  1  0.368368  0.186488  0.000000  1
  Ir  Ir20  1  0.005127  0.005277  0.000000  1
  Ru  Ru21  1  0.448541  0.008210  0.000000  1
  Ru  Ru22  1  0.997466  0.443630  0.000000  1
  Ru  Ru23  1  0.555439  0.550180  0.000000  1
  Ru  Ru24  1  0.365024  0.487441  0.500000  1
  Ru  Ru25  1  0.509334  0.877119  0.500000  1
  Ru  Ru26  1  0.122645  0.633511  0.500000  1
  Ru  Ru27  1  0.872240  0.509126  0.500000  1
  Ru  Ru28  1  0.638696  0.127072  0.500000  1
  Ru  Ru29  1  0.487167  0.359797  0.500000  1
  Ru  Ru30  1  0.183584  0.373800  0.000000  1
  Ru  Ru31  1  0.621166  0.803268  0.000000  1
  Ru  Ru32  1  0.197551  0.819755  0.000000  1
  Ru  Ru33  1  0.284610  0.004997  0.500000  1
  Ru  Ru34  1  0.001440  0.282728  0.500000  1
  Ru  Ru35  1  0.715180  0.713351  0.500000  1
