# generated using pymatgen
data_Hf17Si16Mo3
_symmetry_space_group_name_H-M   'P 1'
_cell_length_a   6.97441403
_cell_length_b   6.97441403
_cell_length_c   12.76246964
_cell_angle_alpha   90.13480196
_cell_angle_beta   89.86519804
_cell_angle_gamma   89.89048966
_symmetry_Int_Tables_number   1
_chemical_formula_structural   Hf17Si16Mo3
_chemical_formula_sum   'Hf17 Si16 Mo3'
_cell_volume   620.79322808
_cell_formula_units_Z   1
loop_
 _symmetry_equiv_pos_site_id
 _symmetry_equiv_pos_as_xyz
  1  'x, y, z'
loop_
 _atom_site_type_symbol
 _atom_site_label
 _atom_site_symmetry_multiplicity
 _atom_site_fract_x
 _atom_site_fract_y
 _atom_site_fract_z
 _atom_site_occupancy
  Hf  Hf0  1  0.175054  0.175054  0.000000  1
  Hf  Hf1  1  0.496338  0.155229  0.529270  1
  Hf  Hf2  1  0.503592  0.846522  0.031259  1
  Hf  Hf3  1  0.654586  0.002328  0.281850  1
  Hf  Hf4  1  0.346299  0.995848  0.780211  1
  Hf  Hf5  1  0.846522  0.503592  0.968741  1
  Hf  Hf6  1  0.155229  0.496338  0.470730  1
  Hf  Hf7  1  0.002328  0.654586  0.718150  1
  Hf  Hf8  1  0.995848  0.346299  0.219789  1
  Hf  Hf9  1  0.498047  0.356155  0.127376  1
  Hf  Hf10  1  0.502352  0.644386  0.625787  1
  Hf  Hf11  1  0.854292  0.000138  0.873602  1
  Hf  Hf12  1  0.144562  0.995621  0.377521  1
  Hf  Hf13  1  0.644386  0.502352  0.374213  1
  Hf  Hf14  1  0.356155  0.498047  0.872624  1
  Hf  Hf15  1  0.000138  0.854292  0.126398  1
  Hf  Hf16  1  0.995621  0.144562  0.622479  1
  Si  Si17  1  0.795084  0.146907  0.071559  1
  Si  Si18  1  0.202803  0.852306  0.572225  1
  Si  Si19  1  0.647097  0.702915  0.821892  1
  Si  Si20  1  0.352612  0.296398  0.322837  1
  Si  Si21  1  0.852306  0.202803  0.427775  1
  Si  Si22  1  0.146907  0.795084  0.928441  1
  Si  Si23  1  0.702915  0.647097  0.178108  1
  Si  Si24  1  0.296398  0.352612  0.677163  1
  Si  Si25  1  0.551701  0.199326  0.933299  1
  Si  Si26  1  0.454045  0.801956  0.434502  1
  Si  Si27  1  0.697593  0.952870  0.683143  1
  Si  Si28  1  0.304822  0.043522  0.186019  1
  Si  Si29  1  0.801956  0.454045  0.565498  1
  Si  Si30  1  0.199326  0.551701  0.066701  1
  Si  Si31  1  0.952870  0.697593  0.316857  1
  Si  Si32  1  0.043522  0.304822  0.813981  1
  Mo  Mo33  1  0.675713  0.325857  0.747966  1
  Mo  Mo34  1  0.325857  0.675713  0.252034  1
  Mo  Mo35  1  0.825121  0.825121  0.500000  1
