# generated using pymatgen
data_Ho5ErCo16(MoP6)2
_symmetry_space_group_name_H-M   'P 1'
_cell_length_a   3.71139700
_cell_length_b   10.54397378
_cell_length_c   12.21948005
_cell_angle_alpha   89.93350418
_cell_angle_beta   90.00000000
_cell_angle_gamma   90.00000000
_symmetry_Int_Tables_number   1
_chemical_formula_structural   Ho5ErCo16(MoP6)2
_chemical_formula_sum   'Ho5 Er1 Co16 Mo2 P12'
_cell_volume   478.18303474
_cell_formula_units_Z   1
loop_
 _symmetry_equiv_pos_site_id
 _symmetry_equiv_pos_as_xyz
  1  'x, y, z'
loop_
 _atom_site_type_symbol
 _atom_site_label
 _atom_site_symmetry_multiplicity
 _atom_site_fract_x
 _atom_site_fract_y
 _atom_site_fract_z
 _atom_site_occupancy
  Ho  Ho0  1  0.000000  0.499927  0.524625  1
  Ho  Ho1  1  0.500000  0.000023  0.475316  1
  Ho  Ho2  1  0.500000  0.180977  0.204951  1
  Ho  Ho3  1  0.000000  0.680820  0.794732  1
  Ho  Ho4  1  0.000000  0.318949  0.795141  1
  Er  Er5  1  0.500000  0.819205  0.205133  1
  Co  Co6  1  0.000000  0.500606  0.986628  1
  Co  Co7  1  0.500000  0.999344  0.013686  1
  Co  Co8  1  0.500000  0.295910  0.431567  1
  Co  Co9  1  0.500000  0.704064  0.431231  1
  Co  Co10  1  0.000000  0.203992  0.568446  1
  Co  Co11  1  0.000000  0.795981  0.568180  1
  Co  Co12  1  0.500000  0.877916  0.706261  1
  Co  Co13  1  0.500000  0.122008  0.706553  1
  Co  Co14  1  0.000000  0.622407  0.293366  1
  Co  Co15  1  0.000000  0.378070  0.293556  1
  Co  Co16  1  0.500000  0.332616  0.990367  1
  Co  Co17  1  0.500000  0.667867  0.990450  1
  Co  Co18  1  0.000000  0.167273  0.009866  1
  Co  Co19  1  0.000000  0.832238  0.009999  1
  Co  Co20  1  0.500000  0.500035  0.701328  1
  Co  Co21  1  0.000000  0.999771  0.298524  1
  Mo  Mo22  1  0.500000  0.500180  0.156722  1
  Mo  Mo23  1  0.000000  0.999871  0.843347  1
  P  P24  1  0.500000  0.311495  0.616088  1
  P  P25  1  0.500000  0.688407  0.615732  1
  P  P26  1  0.000000  0.188380  0.383932  1
  P  P27  1  0.000000  0.811722  0.383601  1
  P  P28  1  0.500000  0.500109  0.880833  1
  P  P29  1  0.000000  0.999672  0.119441  1
  P  P30  1  0.500000  0.844383  0.892369  1
  P  P31  1  0.500000  0.155401  0.893014  1
  P  P32  1  0.000000  0.655876  0.107856  1
  P  P33  1  0.000000  0.344539  0.107168  1
  P  P34  1  0.500000  0.499907  0.350097  1
  P  P35  1  0.000000  0.000061  0.649893  1
