# generated using pymatgen
data_RbPt2F9
_symmetry_space_group_name_H-M   'P 1'
_cell_length_a   5.59288055
_cell_length_b   10.32020825
_cell_length_c   9.87994465
_cell_angle_alpha   128.66476554
_cell_angle_beta   103.27482605
_cell_angle_gamma   80.40718077
_symmetry_Int_Tables_number   1
_chemical_formula_structural   RbPt2F9
_chemical_formula_sum   'Rb2 Pt4 F18'
_cell_volume   433.17366032
_cell_formula_units_Z   2
loop_
 _symmetry_equiv_pos_site_id
 _symmetry_equiv_pos_as_xyz
  1  'x, y, z'
loop_
 _atom_site_type_symbol
 _atom_site_label
 _atom_site_symmetry_multiplicity
 _atom_site_fract_x
 _atom_site_fract_y
 _atom_site_fract_z
 _atom_site_occupancy
  Rb  Rb0  1  0.541318  0.772971  0.664761  1
  Rb  Rb1  1  0.458682  0.227029  0.335239  1
  Pt  Pt2  1  0.675418  0.771836  0.138262  1
  Pt  Pt3  1  0.324582  0.228164  0.861738  1
  Pt  Pt4  1  0.889801  0.437679  0.185859  1
  Pt  Pt5  1  0.110199  0.562321  0.814141  1
  F  F6  1  0.356581  0.644206  0.037094  1
  F  F7  1  0.643419  0.355794  0.962906  1
  F  F8  1  0.448062  0.123059  0.972050  1
  F  F9  1  0.551938  0.876941  0.027950  1
  F  F10  1  0.836578  0.576133  0.928551  1
  F  F11  1  0.163422  0.423867  0.071449  1
  F  F12  1  0.131154  0.525970  0.396990  1
  F  F13  1  0.868846  0.474030  0.603010  1
  F  F14  1  0.975669  0.220084  0.124823  1
  F  F15  1  0.024331  0.779916  0.875177  1
  F  F16  1  0.483671  0.053509  0.665326  1
  F  F17  1  0.516329  0.946491  0.334674  1
  F  F18  1  0.366736  0.534029  0.694757  1
  F  F19  1  0.633264  0.465971  0.305243  1
  F  F20  1  0.030129  0.104344  0.753648  1
  F  F21  1  0.969871  0.895656  0.246352  1
  F  F22  1  0.194737  0.323663  0.727870  1
  F  F23  1  0.805263  0.676337  0.272130  1
