# generated using pymatgen
data_Ac7La(AgGe)8
_symmetry_space_group_name_H-M   'P 1'
_cell_length_a   9.31383300
_cell_length_b   9.31383326
_cell_length_c   7.88269200
_cell_angle_alpha   90.00000000
_cell_angle_beta   90.00000000
_cell_angle_gamma   120.00000262
_symmetry_Int_Tables_number   1
_chemical_formula_structural   Ac7La(AgGe)8
_chemical_formula_sum   'Ac7 La1 Ag8 Ge8'
_cell_volume   592.19138279
_cell_formula_units_Z   1
loop_
 _symmetry_equiv_pos_site_id
 _symmetry_equiv_pos_as_xyz
  1  'x, y, z'
loop_
 _atom_site_type_symbol
 _atom_site_label
 _atom_site_symmetry_multiplicity
 _atom_site_fract_x
 _atom_site_fract_y
 _atom_site_fract_z
 _atom_site_occupancy
  Ac  Ac0  1  0.489002  0.510993  0.499027  1
  Ac  Ac1  1  0.489037  0.978021  0.499027  1
  Ac  Ac2  1  0.021962  0.510968  0.498997  1
  Ac  Ac3  1  0.512065  0.487937  0.999951  1
  Ac  Ac4  1  0.512041  0.024083  0.999965  1
  Ac  Ac5  1  0.975929  0.487955  0.999959  1
  Ac  Ac6  1  0.999957  0.999978  0.493199  1
  La  La7  1  0.000005  0.000053  0.991927  1
  Ag  Ag8  1  0.834389  0.165646  0.726477  1
  Ag  Ag9  1  0.834342  0.668682  0.726472  1
  Ag  Ag10  1  0.331271  0.165667  0.726440  1
  Ag  Ag11  1  0.165713  0.834376  0.213953  1
  Ag  Ag12  1  0.165646  0.331322  0.213894  1
  Ag  Ag13  1  0.668632  0.834332  0.213883  1
  Ag  Ag14  1  0.666659  0.333360  0.288493  1
  Ag  Ag15  1  0.333372  0.666688  0.785484  1
  Ge  Ge16  1  0.834613  0.165440  0.280061  1
  Ge  Ge17  1  0.834569  0.669152  0.280041  1
  Ge  Ge18  1  0.330832  0.165407  0.280161  1
  Ge  Ge19  1  0.164878  0.835057  0.791760  1
  Ge  Ge20  1  0.164946  0.329829  0.791795  1
  Ge  Ge21  1  0.670137  0.835053  0.791860  1
  Ge  Ge22  1  0.666686  0.333363  0.724077  1
  Ge  Ge23  1  0.333321  0.666638  0.241105  1
