# generated using pymatgen
data_Tb3Yb(Si2Ir)2
_symmetry_space_group_name_H-M   'P 1'
_cell_length_a   5.77389456
_cell_length_b   5.77389558
_cell_length_c   10.09977581
_cell_angle_alpha   62.72600433
_cell_angle_beta   62.72599835
_cell_angle_gamma   43.12247336
_symmetry_Int_Tables_number   1
_chemical_formula_structural   Tb3Yb(Si2Ir)2
_chemical_formula_sum   'Tb3 Yb1 Si4 Ir2'
_cell_volume   200.28019380
_cell_formula_units_Z   1
loop_
 _symmetry_equiv_pos_site_id
 _symmetry_equiv_pos_as_xyz
  1  'x, y, z'
loop_
 _atom_site_type_symbol
 _atom_site_label
 _atom_site_symmetry_multiplicity
 _atom_site_fract_x
 _atom_site_fract_y
 _atom_site_fract_z
 _atom_site_occupancy
  Tb  Tb0  1  0.006322  0.006322  0.320011  1
  Tb  Tb1  1  0.181325  0.181325  0.890860  1
  Tb  Tb2  1  0.993629  0.993629  0.678170  1
  Yb  Yb3  1  0.813302  0.813302  0.109190  1
  Si  Si4  1  0.495710  0.495710  0.874185  1
  Si  Si5  1  0.359813  0.359813  0.564788  1
  Si  Si6  1  0.503981  0.503981  0.123137  1
  Si  Si7  1  0.644638  0.644638  0.437365  1
  Ir  Ir8  1  0.728406  0.728406  0.625478  1
  Ir  Ir9  1  0.272874  0.272874  0.376814  1
