# generated using pymatgen
data_Ba8IrW3O20
_symmetry_space_group_name_H-M   'P 1'
_cell_length_a   5.79531300
_cell_length_b   7.55617702
_cell_length_c   11.73688059
_cell_angle_alpha   89.94042193
_cell_angle_beta   90.00000000
_cell_angle_gamma   90.00000000
_symmetry_Int_Tables_number   1
_chemical_formula_structural   Ba8IrW3O20
_chemical_formula_sum   'Ba8 Ir1 W3 O20'
_cell_volume   513.96254595
_cell_formula_units_Z   1
loop_
 _symmetry_equiv_pos_site_id
 _symmetry_equiv_pos_as_xyz
  1  'x, y, z'
loop_
 _atom_site_type_symbol
 _atom_site_label
 _atom_site_symmetry_multiplicity
 _atom_site_fract_x
 _atom_site_fract_y
 _atom_site_fract_z
 _atom_site_occupancy
  Ba  Ba0  1  0.750000  0.176171  0.581332  1
  Ba  Ba1  1  0.250000  0.838007  0.417566  1
  Ba  Ba2  1  0.750000  0.670347  0.916513  1
  Ba  Ba3  1  0.250000  0.326942  0.084151  1
  Ba  Ba4  1  0.250000  0.019378  0.783167  1
  Ba  Ba5  1  0.750000  0.978254  0.214751  1
  Ba  Ba6  1  0.250000  0.517258  0.715363  1
  Ba  Ba7  1  0.750000  0.475801  0.286442  1
  Ir  Ir8  1  0.250000  0.331244  0.439175  1
  W  W9  1  0.750000  0.675998  0.563957  1
  W  W10  1  0.250000  0.824403  0.063597  1
  W  W11  1  0.750000  0.174961  0.935758  1
  O  O12  1  0.490887  0.676400  0.112716  1
  O  O13  1  0.991262  0.323128  0.887165  1
  O  O14  1  0.009070  0.179277  0.387311  1
  O  O15  1  0.509311  0.822792  0.613168  1
  O  O16  1  0.508738  0.323128  0.887165  1
  O  O17  1  0.009113  0.676400  0.112716  1
  O  O18  1  0.990689  0.822792  0.613168  1
  O  O19  1  0.490930  0.179277  0.387311  1
  O  O20  1  0.750000  0.274045  0.092239  1
  O  O21  1  0.250000  0.724923  0.907168  1
  O  O22  1  0.750000  0.775980  0.407840  1
  O  O23  1  0.250000  0.217267  0.592344  1
  O  O24  1  0.999750  0.500101  0.500215  1
  O  O25  1  0.500250  0.500101  0.500215  1
  O  O26  1  0.500129  0.999499  0.000000  1
  O  O27  1  0.999871  0.999499  0.000000  1
  O  O28  1  0.250000  0.468221  0.301996  1
  O  O29  1  0.750000  0.528586  0.695815  1
  O  O30  1  0.250000  0.970633  0.196027  1
  O  O31  1  0.750000  0.029186  0.803646  1
