# generated using pymatgen
data_TbEr3(GaRh)4
_symmetry_space_group_name_H-M   'P 1'
_cell_length_a   4.28921400
_cell_length_b   6.81925091
_cell_length_c   7.79247431
_cell_angle_alpha   89.81416530
_cell_angle_beta   90.00000000
_cell_angle_gamma   90.00000000
_symmetry_Int_Tables_number   1
_chemical_formula_structural   TbEr3(GaRh)4
_chemical_formula_sum   'Tb1 Er3 Ga4 Rh4'
_cell_volume   227.92264709
_cell_formula_units_Z   1
loop_
 _symmetry_equiv_pos_site_id
 _symmetry_equiv_pos_as_xyz
  1  'x, y, z'
loop_
 _atom_site_type_symbol
 _atom_site_label
 _atom_site_symmetry_multiplicity
 _atom_site_fract_x
 _atom_site_fract_y
 _atom_site_fract_z
 _atom_site_occupancy
  Tb  Tb0  1  0.250000  0.973838  0.309624  1
  Er  Er1  1  0.250000  0.473501  0.189975  1
  Er  Er2  1  0.750000  0.026914  0.692052  1
  Er  Er3  1  0.750000  0.526134  0.808735  1
  Ga  Ga4  1  0.250000  0.344528  0.571087  1
  Ga  Ga5  1  0.250000  0.842330  0.928258  1
  Ga  Ga6  1  0.750000  0.655718  0.429499  1
  Ga  Ga7  1  0.750000  0.158246  0.070716  1
  Rh  Rh8  1  0.250000  0.232765  0.892826  1
  Rh  Rh9  1  0.250000  0.732498  0.608545  1
  Rh  Rh10  1  0.750000  0.764748  0.105530  1
  Rh  Rh11  1  0.750000  0.268781  0.393154  1
