# generated using pymatgen
data_Sr9Sm(PN5)2
_symmetry_space_group_name_H-M   'P 1'
_cell_length_a   7.50087447
_cell_length_b   7.50087420
_cell_length_c   8.65506987
_cell_angle_alpha   76.55255835
_cell_angle_beta   76.55255807
_cell_angle_gamma   95.61646235
_symmetry_Int_Tables_number   1
_chemical_formula_structural   Sr9Sm(PN5)2
_chemical_formula_sum   'Sr9 Sm1 P2 N10'
_cell_volume   454.64391587
_cell_formula_units_Z   1
loop_
 _symmetry_equiv_pos_site_id
 _symmetry_equiv_pos_as_xyz
  1  'x, y, z'
loop_
 _atom_site_type_symbol
 _atom_site_label
 _atom_site_symmetry_multiplicity
 _atom_site_fract_x
 _atom_site_fract_y
 _atom_site_fract_z
 _atom_site_occupancy
  Sr  Sr0  1  0.600316  0.600316  0.630175  1
  Sr  Sr1  1  0.676333  0.676333  0.999289  1
  Sr  Sr2  1  0.327730  0.327730  0.995451  1
  Sr  Sr3  1  0.925783  0.925783  0.198168  1
  Sr  Sr4  1  0.072777  0.072777  0.798458  1
  Sr  Sr5  1  0.552124  0.088052  0.760529  1
  Sr  Sr6  1  0.915113  0.444739  0.240958  1
  Sr  Sr7  1  0.444739  0.915113  0.240958  1
  Sr  Sr8  1  0.088052  0.552124  0.760529  1
  Sm  Sm9  1  0.416637  0.416637  0.361682  1
  P  P10  1  0.757483  0.241558  0.002581  1
  P  P11  1  0.241558  0.757483  0.002581  1
  N  N12  1  0.648219  0.648219  0.323653  1
  N  N13  1  0.341856  0.341856  0.652962  1
  N  N14  1  0.720661  0.022709  0.989804  1
  N  N15  1  0.976466  0.275752  0.017374  1
  N  N16  1  0.275752  0.976466  0.017374  1
  N  N17  1  0.022709  0.720661  0.989804  1
  N  N18  1  0.391638  0.727197  0.837184  1
  N  N19  1  0.272668  0.604192  0.171649  1
  N  N20  1  0.604192  0.272668  0.171649  1
  N  N21  1  0.727197  0.391638  0.837184  1
