# generated using pymatgen
data_Nd4Co2O9
_symmetry_space_group_name_H-M   'P 1'
_cell_length_a   11.07774200
_cell_length_b   7.81794406
_cell_length_c   11.65171100
_cell_angle_alpha   71.00150075
_cell_angle_beta   90.00000000
_cell_angle_gamma   90.00000000
_symmetry_Int_Tables_number   1
_chemical_formula_structural   Nd4Co2O9
_chemical_formula_sum   'Nd16 Co8 O36'
_cell_volume   954.12986818
_cell_formula_units_Z   4
loop_
 _symmetry_equiv_pos_site_id
 _symmetry_equiv_pos_as_xyz
  1  'x, y, z'
loop_
 _atom_site_type_symbol
 _atom_site_label
 _atom_site_symmetry_multiplicity
 _atom_site_fract_x
 _atom_site_fract_y
 _atom_site_fract_z
 _atom_site_occupancy
  Nd  Nd0  1  0.606508  0.480665  0.279145  1
  Nd  Nd1  1  0.893492  0.480665  0.779145  1
  Nd  Nd2  1  0.124461  0.335905  0.568365  1
  Nd  Nd3  1  0.092706  0.022089  0.200029  1
  Nd  Nd4  1  0.592706  0.977911  0.299971  1
  Nd  Nd5  1  0.875539  0.664095  0.431635  1
  Nd  Nd6  1  0.407294  0.022089  0.700029  1
  Nd  Nd7  1  0.375539  0.335905  0.068365  1
  Nd  Nd8  1  0.379805  0.832934  0.090760  1
  Nd  Nd9  1  0.120195  0.832934  0.590760  1
  Nd  Nd10  1  0.393492  0.519335  0.720855  1
  Nd  Nd11  1  0.624461  0.664095  0.931635  1
  Nd  Nd12  1  0.106508  0.519335  0.220855  1
  Nd  Nd13  1  0.907294  0.977911  0.799971  1
  Nd  Nd14  1  0.620195  0.167066  0.909240  1
  Nd  Nd15  1  0.879805  0.167066  0.409240  1
  Co  Co16  1  0.816481  0.786467  0.123082  1
  Co  Co17  1  0.319405  0.655320  0.386909  1
  Co  Co18  1  0.180595  0.655320  0.886909  1
  Co  Co19  1  0.680595  0.344680  0.613091  1
  Co  Co20  1  0.819405  0.344680  0.113091  1
  Co  Co21  1  0.683519  0.786467  0.623082  1
  Co  Co22  1  0.316481  0.213533  0.376918  1
  Co  Co23  1  0.183519  0.213533  0.876918  1
  O  O24  1  0.244027  0.432243  0.386558  1
  O  O25  1  0.773454  0.362525  0.961220  1
  O  O26  1  0.225402  0.779466  0.248950  1
  O  O27  1  0.994125  0.078464  0.602724  1
  O  O28  1  0.487620  0.567361  0.102695  1
  O  O29  1  0.968866  0.288592  0.186678  1
  O  O30  1  0.228855  0.240416  0.229805  1
  O  O31  1  0.473658  0.215847  0.330399  1
  O  O32  1  0.531134  0.288592  0.686678  1
  O  O33  1  0.494125  0.921536  0.897276  1
  O  O34  1  0.274598  0.779466  0.748950  1
  O  O35  1  0.728855  0.759584  0.270195  1
  O  O36  1  0.726546  0.362525  0.461220  1
  O  O37  1  0.271145  0.240416  0.729805  1
  O  O38  1  0.012380  0.567361  0.602695  1
  O  O39  1  0.266275  0.077099  0.526665  1
  O  O40  1  0.526342  0.784153  0.669601  1
  O  O41  1  0.233725  0.077099  0.026665  1
  O  O42  1  0.026342  0.215847  0.830399  1
  O  O43  1  0.226546  0.637475  0.038780  1
  O  O44  1  0.255973  0.432243  0.886558  1
  O  O45  1  0.005875  0.921536  0.397276  1
  O  O46  1  0.273454  0.637475  0.538780  1
  O  O47  1  0.987620  0.432639  0.397305  1
  O  O48  1  0.733725  0.922901  0.473335  1
  O  O49  1  0.766275  0.922901  0.973335  1
  O  O50  1  0.031134  0.711408  0.813322  1
  O  O51  1  0.725402  0.220534  0.251050  1
  O  O52  1  0.771145  0.759584  0.770195  1
  O  O53  1  0.973658  0.784153  0.169601  1
  O  O54  1  0.774598  0.220534  0.751050  1
  O  O55  1  0.468866  0.711408  0.313322  1
  O  O56  1  0.505875  0.078464  0.102724  1
  O  O57  1  0.755973  0.567757  0.613442  1
  O  O58  1  0.744027  0.567757  0.113442  1
  O  O59  1  0.512380  0.432639  0.897305  1
