# generated using pymatgen
data_TmTh3(Ga3Ir)6
_symmetry_space_group_name_H-M   'P 1'
_cell_length_a   7.69202725
_cell_length_b   7.69888765
_cell_length_c   9.47926200
_cell_angle_alpha   90.00000000
_cell_angle_beta   90.00000000
_cell_angle_gamma   119.84618893
_symmetry_Int_Tables_number   1
_chemical_formula_structural   TmTh3(Ga3Ir)6
_chemical_formula_sum   'Tm1 Th3 Ga18 Ir6'
_cell_volume   486.90584136
_cell_formula_units_Z   1
loop_
 _symmetry_equiv_pos_site_id
 _symmetry_equiv_pos_as_xyz
  1  'x, y, z'
loop_
 _atom_site_type_symbol
 _atom_site_label
 _atom_site_symmetry_multiplicity
 _atom_site_fract_x
 _atom_site_fract_y
 _atom_site_fract_z
 _atom_site_occupancy
  Tm  Tm0  1  0.330634  0.003980  0.250000  1
  Th  Th1  1  0.996810  0.669260  0.750000  1
  Th  Th2  1  0.002640  0.331107  0.250000  1
  Th  Th3  1  0.668420  0.996250  0.750000  1
  Ga  Ga4  1  0.134104  0.132240  0.750000  1
  Ga  Ga5  1  0.871927  0.869917  0.250000  1
  Ga  Ga6  1  0.004067  0.334517  0.578965  1
  Ga  Ga7  1  0.003122  0.672025  0.417324  1
  Ga  Ga8  1  0.003122  0.672025  0.082676  1
  Ga  Ga9  1  0.334366  0.003131  0.926582  1
  Ga  Ga10  1  0.004067  0.334517  0.921035  1
  Ga  Ga11  1  0.659225  0.996905  0.082662  1
  Ga  Ga12  1  0.659225  0.996905  0.417338  1
  Ga  Ga13  1  0.334366  0.003131  0.573418  1
  Ga  Ga14  1  0.336038  0.330459  0.066121  1
  Ga  Ga15  1  0.663220  0.663245  0.939102  1
  Ga  Ga16  1  0.663220  0.663245  0.560898  1
  Ga  Ga17  1  0.336038  0.330459  0.433879  1
  Ga  Ga18  1  0.339568  0.541584  0.750000  1
  Ga  Ga19  1  0.657973  0.452500  0.250000  1
  Ga  Ga20  1  0.541023  0.337734  0.750000  1
  Ga  Ga21  1  0.456634  0.663045  0.250000  1
  Ir  Ir22  1  0.675028  0.329685  0.500378  1
  Ir  Ir23  1  0.327293  0.670958  0.500212  1
  Ir  Ir24  1  0.327293  0.670958  0.999788  1
  Ir  Ir25  1  0.675028  0.329685  0.999622  1
  Ir  Ir26  1  0.997774  0.000266  0.500475  1
  Ir  Ir27  1  0.997774  0.000266  0.999525  1
