# generated using pymatgen
data_Y2Co3Si6Ir7
_symmetry_space_group_name_H-M   'P 1'
_cell_length_a   3.85378800
_cell_length_b   10.85749395
_cell_length_c   12.48574426
_cell_angle_alpha   89.90737356
_cell_angle_beta   90.00000000
_cell_angle_gamma   90.00000000
_symmetry_Int_Tables_number   1
_chemical_formula_structural   Y2Co3Si6Ir7
_chemical_formula_sum   'Y4 Co6 Si12 Ir14'
_cell_volume   522.43382066
_cell_formula_units_Z   2
loop_
 _symmetry_equiv_pos_site_id
 _symmetry_equiv_pos_as_xyz
  1  'x, y, z'
loop_
 _atom_site_type_symbol
 _atom_site_label
 _atom_site_symmetry_multiplicity
 _atom_site_fract_x
 _atom_site_fract_y
 _atom_site_fract_z
 _atom_site_occupancy
  Y  Y0  1  0.250000  0.916421  0.209357  1
  Y  Y1  1  0.750000  0.083579  0.790643  1
  Y  Y2  1  0.750000  0.413942  0.293037  1
  Y  Y3  1  0.250000  0.586058  0.706963  1
  Co  Co4  1  0.750000  0.114262  0.304280  1
  Co  Co5  1  0.250000  0.885738  0.695720  1
  Co  Co6  1  0.250000  0.033072  0.433544  1
  Co  Co7  1  0.750000  0.966928  0.566456  1
  Co  Co8  1  0.750000  0.532707  0.065161  1
  Co  Co9  1  0.250000  0.467293  0.934839  1
  Si  Si10  1  0.250000  0.071683  0.609089  1
  Si  Si11  1  0.750000  0.928317  0.390911  1
  Si  Si12  1  0.750000  0.581840  0.892800  1
  Si  Si13  1  0.250000  0.418160  0.107200  1
  Si  Si14  1  0.250000  0.224282  0.373025  1
  Si  Si15  1  0.750000  0.775718  0.626975  1
  Si  Si16  1  0.750000  0.727281  0.127325  1
  Si  Si17  1  0.250000  0.272719  0.872675  1
  Si  Si18  1  0.250000  0.900303  0.884817  1
  Si  Si19  1  0.750000  0.099697  0.115183  1
  Si  Si20  1  0.750000  0.398092  0.609598  1
  Si  Si21  1  0.250000  0.601908  0.390402  1
  Ir  Ir22  1  0.250000  0.795893  0.491246  1
  Ir  Ir23  1  0.750000  0.204107  0.508754  1
  Ir  Ir24  1  0.750000  0.293606  0.015419  1
  Ir  Ir25  1  0.250000  0.706394  0.984581  1
  Ir  Ir26  1  0.250000  0.093791  0.985548  1
  Ir  Ir27  1  0.750000  0.906209  0.014452  1
  Ir  Ir28  1  0.750000  0.594739  0.514367  1
  Ir  Ir29  1  0.250000  0.405261  0.485633  1
  Ir  Ir30  1  0.250000  0.271860  0.677122  1
  Ir  Ir31  1  0.750000  0.728140  0.322878  1
  Ir  Ir32  1  0.750000  0.780817  0.817322  1
  Ir  Ir33  1  0.250000  0.219183  0.182678  1
  Ir  Ir34  1  0.250000  0.611216  0.197876  1
  Ir  Ir35  1  0.750000  0.388784  0.802124  1
