# generated using pymatgen
data_Er2Si3(AsRh3)4
_symmetry_space_group_name_H-M   'P 1'
_cell_length_a   9.89078400
_cell_length_b   9.89078469
_cell_length_c   3.87645600
_cell_angle_alpha   90.00000000
_cell_angle_beta   90.00000000
_cell_angle_gamma   119.99999770
_symmetry_Int_Tables_number   1
_chemical_formula_structural   Er2Si3(AsRh3)4
_chemical_formula_sum   'Er2 Si3 As4 Rh12'
_cell_volume   328.41801056
_cell_formula_units_Z   1
loop_
 _symmetry_equiv_pos_site_id
 _symmetry_equiv_pos_as_xyz
  1  'x, y, z'
loop_
 _atom_site_type_symbol
 _atom_site_label
 _atom_site_symmetry_multiplicity
 _atom_site_fract_x
 _atom_site_fract_y
 _atom_site_fract_z
 _atom_site_occupancy
  Er  Er0  1  0.333333  0.666667  0.244424  1
  Er  Er1  1  0.666667  0.333333  0.743964  1
  Si  Si2  1  0.404233  0.112996  0.243027  1
  Si  Si3  1  0.708763  0.595767  0.243027  1
  Si  Si4  1  0.887004  0.291237  0.243027  1
  As  As5  1  0.000000  0.000000  0.624834  1
  As  As6  1  0.595227  0.882492  0.745659  1
  As  As7  1  0.287265  0.404773  0.745659  1
  As  As8  1  0.117508  0.712735  0.745659  1
  Rh  Rh9  1  0.450521  0.378829  0.242534  1
  Rh  Rh10  1  0.928309  0.549479  0.242534  1
  Rh  Rh11  1  0.621171  0.071691  0.242534  1
  Rh  Rh12  1  0.557751  0.615392  0.744668  1
  Rh  Rh13  1  0.057641  0.442249  0.744668  1
  Rh  Rh14  1  0.384608  0.942359  0.744668  1
  Rh  Rh15  1  0.146571  0.887687  0.244731  1
  Rh  Rh16  1  0.741117  0.853429  0.244731  1
  Rh  Rh17  1  0.112313  0.258883  0.244731  1
  Rh  Rh18  1  0.848619  0.124986  0.741640  1
  Rh  Rh19  1  0.276367  0.151381  0.741640  1
  Rh  Rh20  1  0.875014  0.723633  0.741640  1
