# generated using pymatgen
data_La5Nd7Os2I17
_symmetry_space_group_name_H-M   'P 1'
_cell_length_a   10.15102671
_cell_length_b   12.29734018
_cell_length_c   12.16647627
_cell_angle_alpha   74.12203525
_cell_angle_beta   74.97559914
_cell_angle_gamma   65.17865472
_symmetry_Int_Tables_number   1
_chemical_formula_structural   La5Nd7Os2I17
_chemical_formula_sum   'La5 Nd7 Os2 I17'
_cell_volume   1307.59774180
_cell_formula_units_Z   1
loop_
 _symmetry_equiv_pos_site_id
 _symmetry_equiv_pos_as_xyz
  1  'x, y, z'
loop_
 _atom_site_type_symbol
 _atom_site_label
 _atom_site_symmetry_multiplicity
 _atom_site_fract_x
 _atom_site_fract_y
 _atom_site_fract_z
 _atom_site_occupancy
  La  La0  1  0.446742  0.329993  0.988498  1
  La  La1  1  0.591873  0.757887  0.281611  1
  La  La2  1  0.819466  0.190021  0.585590  1
  La  La3  1  0.171732  0.811534  0.424537  1
  La  La4  1  0.142763  0.714722  0.148657  1
  Nd  Nd5  1  0.455638  0.485846  0.322567  1
  Nd  Nd6  1  0.558432  0.670526  0.005391  1
  Nd  Nd7  1  0.271514  0.989945  0.104517  1
  Nd  Nd8  1  0.865106  0.288146  0.851445  1
  Nd  Nd9  1  0.400766  0.240262  0.716206  1
  Nd  Nd10  1  0.725237  0.013593  0.896102  1
  Nd  Nd11  1  0.547141  0.510063  0.675929  1
  Os  Os12  1  0.365891  0.739085  0.213893  1
  Os  Os13  1  0.632969  0.261238  0.787136  1
  I  I14  1  0.053623  0.104303  0.323678  1
  I  I15  1  0.467816  0.948129  0.843228  1
  I  I16  1  0.428568  0.811432  0.541144  1
  I  I17  1  0.566291  0.187145  0.462221  1
  I  I18  1  0.843315  0.708749  0.040767  1
  I  I19  1  0.224193  0.420819  0.242354  1
  I  I20  1  0.688645  0.373531  0.100609  1
  I  I21  1  0.530383  0.051205  0.156935  1
  I  I22  1  0.740724  0.470044  0.417373  1
  I  I23  1  0.884480  0.786012  0.369906  1
  I  I24  1  0.944968  0.894299  0.680794  1
  I  I25  1  0.156876  0.289876  0.954105  1
  I  I26  1  0.321489  0.633505  0.893522  1
  I  I27  1  0.999870  0.002542  0.999438  1
  I  I28  1  0.113709  0.213171  0.633883  1
  I  I29  1  0.780195  0.577204  0.756770  1
  I  I30  1  0.259587  0.525173  0.581196  1
