# generated using pymatgen
data_Ca4Ac7Nd9Si16
_symmetry_space_group_name_H-M   'P 1'
_cell_length_a   8.08321346
_cell_length_b   8.09283389
_cell_length_c   15.36456000
_cell_angle_alpha   90.13808488
_cell_angle_beta   89.93338468
_cell_angle_gamma   90.14923323
_symmetry_Int_Tables_number   1
_chemical_formula_structural   Ca4Ac7Nd9Si16
_chemical_formula_sum   'Ca4 Ac7 Nd9 Si16'
_cell_volume   1005.08265306
_cell_formula_units_Z   1
loop_
 _symmetry_equiv_pos_site_id
 _symmetry_equiv_pos_as_xyz
  1  'x, y, z'
loop_
 _atom_site_type_symbol
 _atom_site_label
 _atom_site_symmetry_multiplicity
 _atom_site_fract_x
 _atom_site_fract_y
 _atom_site_fract_z
 _atom_site_occupancy
  Ca  Ca0  1  0.309060  0.312876  0.000051  1
  Ca  Ca1  1  0.187843  0.808616  0.248463  1
  Ca  Ca2  1  0.810397  0.190256  0.750975  1
  Ca  Ca3  1  0.689143  0.689175  0.499349  1
  Ac  Ac4  1  0.370385  0.011919  0.449970  1
  Ac  Ac5  1  0.486537  0.871471  0.702050  1
  Ac  Ac6  1  0.512714  0.129449  0.200928  1
  Ac  Ac7  1  0.869017  0.486333  0.296015  1
  Ac  Ac8  1  0.127888  0.514420  0.800256  1
  Ac  Ac9  1  0.630956  0.987134  0.954156  1
  Ac  Ac10  1  0.012037  0.370842  0.548165  1
  Nd  Nd11  1  0.994302  0.621352  0.053049  1
  Nd  Nd12  1  0.126057  0.986078  0.877885  1
  Nd  Nd13  1  0.513665  0.627779  0.125734  1
  Nd  Nd14  1  0.486541  0.372125  0.626519  1
  Nd  Nd15  1  0.629947  0.515156  0.875437  1
  Nd  Nd16  1  0.372522  0.486970  0.372223  1
  Nd  Nd17  1  0.872203  0.012033  0.374963  1
  Nd  Nd18  1  0.987646  0.125996  0.123055  1
  Nd  Nd19  1  0.012945  0.873200  0.623534  1
  Si  Si20  1  0.202600  0.163372  0.701774  1
  Si  Si21  1  0.331661  0.699488  0.952791  1
  Si  Si22  1  0.662130  0.296289  0.449849  1
  Si  Si23  1  0.710081  0.344359  0.051621  1
  Si  Si24  1  0.296892  0.662526  0.548882  1
  Si  Si25  1  0.799732  0.834843  0.196475  1
  Si  Si26  1  0.161804  0.203973  0.298113  1
  Si  Si27  1  0.835619  0.799276  0.798902  1
  Si  Si28  1  0.280091  0.914245  0.060806  1
  Si  Si29  1  0.583196  0.784240  0.308270  1
  Si  Si30  1  0.419235  0.215625  0.811669  1
  Si  Si31  1  0.784090  0.581597  0.689641  1
  Si  Si32  1  0.213121  0.420453  0.188116  1
  Si  Si33  1  0.714409  0.081169  0.559947  1
  Si  Si34  1  0.922803  0.291211  0.941480  1
  Si  Si35  1  0.080728  0.714156  0.438893  1
