# generated using pymatgen
data_Pr19NdSi15Pt
_symmetry_space_group_name_H-M   'P 1'
_cell_length_a   7.93788779
_cell_length_b   7.93506326
_cell_length_c   15.31442934
_cell_angle_alpha   89.97309666
_cell_angle_beta   89.75050692
_cell_angle_gamma   90.10417816
_symmetry_Int_Tables_number   1
_chemical_formula_structural   Pr19NdSi15Pt
_chemical_formula_sum   'Pr19 Nd1 Si15 Pt1'
_cell_volume   964.60893926
_cell_formula_units_Z   1
loop_
 _symmetry_equiv_pos_site_id
 _symmetry_equiv_pos_as_xyz
  1  'x, y, z'
loop_
 _atom_site_type_symbol
 _atom_site_label
 _atom_site_symmetry_multiplicity
 _atom_site_fract_x
 _atom_site_fract_y
 _atom_site_fract_z
 _atom_site_occupancy
  Pr  Pr0  1  0.191098  0.808854  0.249825  1
  Pr  Pr1  1  0.814462  0.187326  0.750410  1
  Pr  Pr2  1  0.692251  0.688079  0.499703  1
  Pr  Pr3  1  0.374904  0.010740  0.448269  1
  Pr  Pr4  1  0.490514  0.874416  0.698674  1
  Pr  Pr5  1  0.510300  0.123475  0.197922  1
  Pr  Pr6  1  0.876604  0.488950  0.300569  1
  Pr  Pr7  1  0.122821  0.511817  0.801225  1
  Pr  Pr8  1  0.625778  0.988251  0.948858  1
  Pr  Pr9  1  0.005310  0.376044  0.551449  1
  Pr  Pr10  1  0.988865  0.625123  0.051759  1
  Pr  Pr11  1  0.133325  0.986280  0.875323  1
  Pr  Pr12  1  0.516921  0.630326  0.125996  1
  Pr  Pr13  1  0.477165  0.365318  0.627636  1
  Pr  Pr14  1  0.627598  0.516888  0.874146  1
  Pr  Pr15  1  0.372431  0.483063  0.373294  1
  Pr  Pr16  1  0.872153  0.019652  0.375867  1
  Pr  Pr17  1  0.982274  0.127173  0.124531  1
  Pr  Pr18  1  0.021274  0.874947  0.623803  1
  Nd  Nd19  1  0.306558  0.306795  0.999292  1
  Si  Si20  1  0.332846  0.695400  0.951074  1
  Si  Si21  1  0.664425  0.303350  0.451486  1
  Si  Si22  1  0.697201  0.334792  0.049384  1
  Si  Si23  1  0.304739  0.668398  0.547967  1
  Si  Si24  1  0.804777  0.832368  0.202237  1
  Si  Si25  1  0.167967  0.197426  0.298479  1
  Si  Si26  1  0.834146  0.803009  0.798838  1
  Si  Si27  1  0.288577  0.922663  0.058925  1
  Si  Si28  1  0.579038  0.787559  0.309829  1
  Si  Si29  1  0.428993  0.208230  0.812878  1
  Si  Si30  1  0.785740  0.579884  0.690411  1
  Si  Si31  1  0.212450  0.422135  0.190042  1
  Si  Si32  1  0.705908  0.075130  0.558354  1
  Si  Si33  1  0.920956  0.289033  0.941719  1
  Si  Si34  1  0.079076  0.714076  0.441123  1
  Pt  Pt35  1  0.190554  0.173026  0.698703  1
