# generated using pymatgen
data_Pr2Er6Si12IrRh3
_symmetry_space_group_name_H-M   'P 1'
_cell_length_a   8.18610900
_cell_length_b   8.18610845
_cell_length_c   7.99241400
_cell_angle_alpha   90.00000000
_cell_angle_beta   90.00000000
_cell_angle_gamma   119.99999820
_symmetry_Int_Tables_number   1
_chemical_formula_structural   Pr2Er6Si12IrRh3
_chemical_formula_sum   'Pr2 Er6 Si12 Ir1 Rh3'
_cell_volume   463.83511928
_cell_formula_units_Z   1
loop_
 _symmetry_equiv_pos_site_id
 _symmetry_equiv_pos_as_xyz
  1  'x, y, z'
loop_
 _atom_site_type_symbol
 _atom_site_label
 _atom_site_symmetry_multiplicity
 _atom_site_fract_x
 _atom_site_fract_y
 _atom_site_fract_z
 _atom_site_occupancy
  Pr  Pr0  1  0.000000  0.000000  0.249148  1
  Pr  Pr1  1  0.000000  0.000000  0.750283  1
  Er  Er2  1  0.492470  0.507530  0.250313  1
  Er  Er3  1  0.492470  0.984940  0.250313  1
  Er  Er4  1  0.015060  0.507530  0.250313  1
  Er  Er5  1  0.508782  0.491218  0.749710  1
  Er  Er6  1  0.982435  0.491218  0.749710  1
  Er  Er7  1  0.508782  0.017565  0.749710  1
  Si  Si8  1  0.831745  0.168255  0.502142  1
  Si  Si9  1  0.831745  0.663492  0.502142  1
  Si  Si10  1  0.336508  0.168255  0.502142  1
  Si  Si11  1  0.831182  0.168818  0.997045  1
  Si  Si12  1  0.831182  0.662366  0.997045  1
  Si  Si13  1  0.337634  0.168818  0.997045  1
  Si  Si14  1  0.168996  0.831004  0.002346  1
  Si  Si15  1  0.662008  0.831004  0.002346  1
  Si  Si16  1  0.168996  0.337992  0.002346  1
  Si  Si17  1  0.169045  0.830955  0.497485  1
  Si  Si18  1  0.661910  0.830955  0.497485  1
  Si  Si19  1  0.169045  0.338090  0.497485  1
  Ir  Ir20  1  0.666667  0.333333  0.465963  1
  Rh  Rh21  1  0.666667  0.333333  0.037881  1
  Rh  Rh22  1  0.333333  0.666667  0.963716  1
  Rh  Rh23  1  0.333333  0.666667  0.535885  1
