# generated using pymatgen
data_Ca6ThNi4Sn13
_symmetry_space_group_name_H-M   'P 1'
_cell_length_a   11.28368900
_cell_length_b   11.28368900
_cell_length_c   4.65162000
_cell_angle_alpha   90.00000000
_cell_angle_beta   90.00000000
_cell_angle_gamma   90.00000000
_symmetry_Int_Tables_number   1
_chemical_formula_structural   Ca6ThNi4Sn13
_chemical_formula_sum   'Ca6 Th1 Ni4 Sn13'
_cell_volume   592.25187519
_cell_formula_units_Z   1
loop_
 _symmetry_equiv_pos_site_id
 _symmetry_equiv_pos_as_xyz
  1  'x, y, z'
loop_
 _atom_site_type_symbol
 _atom_site_label
 _atom_site_symmetry_multiplicity
 _atom_site_fract_x
 _atom_site_fract_y
 _atom_site_fract_z
 _atom_site_occupancy
  Ca  Ca0  1  0.837419  0.170106  0.000000  1
  Ca  Ca1  1  0.829894  0.837419  0.000000  1
  Ca  Ca2  1  0.162581  0.829894  0.000000  1
  Ca  Ca3  1  0.170106  0.162581  0.000000  1
  Ca  Ca4  1  0.000000  0.500000  0.000000  1
  Ca  Ca5  1  0.500000  0.000000  0.000000  1
  Th  Th6  1  0.500000  0.500000  0.500000  1
  Ni  Ni7  1  0.773800  0.618255  0.500000  1
  Ni  Ni8  1  0.381745  0.773800  0.500000  1
  Ni  Ni9  1  0.618255  0.226200  0.500000  1
  Ni  Ni10  1  0.226200  0.381745  0.500000  1
  Sn  Sn11  1  0.018299  0.284437  0.500000  1
  Sn  Sn12  1  0.981701  0.715563  0.500000  1
  Sn  Sn13  1  0.214921  0.612014  0.500000  1
  Sn  Sn14  1  0.577343  0.306009  0.000000  1
  Sn  Sn15  1  0.693991  0.577343  0.000000  1
  Sn  Sn16  1  0.785079  0.387986  0.500000  1
  Sn  Sn17  1  0.715563  0.018299  0.500000  1
  Sn  Sn18  1  0.000000  0.000000  0.500000  1
  Sn  Sn19  1  0.284437  0.981701  0.500000  1
  Sn  Sn20  1  0.422657  0.693991  0.000000  1
  Sn  Sn21  1  0.612014  0.785079  0.500000  1
  Sn  Sn22  1  0.306009  0.422657  0.000000  1
  Sn  Sn23  1  0.387986  0.214921  0.500000  1
