# generated using pymatgen
data_Hf6CuSnBi
_symmetry_space_group_name_H-M   'P 1'
_cell_length_a   3.70833300
_cell_length_b   7.76310599
_cell_length_c   7.76310700
_cell_angle_alpha   120.00000003
_cell_angle_beta   90.00000000
_cell_angle_gamma   90.00000000
_symmetry_Int_Tables_number   1
_chemical_formula_structural   Hf6CuSnBi
_chemical_formula_sum   'Hf6 Cu1 Sn1 Bi1'
_cell_volume   193.54432665
_cell_formula_units_Z   1
loop_
 _symmetry_equiv_pos_site_id
 _symmetry_equiv_pos_as_xyz
  1  'x, y, z'
loop_
 _atom_site_type_symbol
 _atom_site_label
 _atom_site_symmetry_multiplicity
 _atom_site_fract_x
 _atom_site_fract_y
 _atom_site_fract_z
 _atom_site_occupancy
  Hf  Hf0  1  0.500000  0.760871  0.757332  1
  Hf  Hf1  1  0.500000  0.996461  0.239129  1
  Hf  Hf2  1  0.500000  0.242668  0.003539  1
  Hf  Hf3  1  0.000000  0.394187  0.388306  1
  Hf  Hf4  1  0.000000  0.994119  0.605813  1
  Hf  Hf5  1  0.000000  0.611694  0.005881  1
  Cu  Cu6  1  0.000000  0.000000  0.000000  1
  Sn  Sn7  1  0.500000  0.666667  0.333333  1
  Bi  Bi8  1  0.500000  0.333333  0.666667  1
