# generated using pymatgen
data_La3ReH12Os
_symmetry_space_group_name_H-M   'P 1'
_cell_length_a   4.99803200
_cell_length_b   4.99803091
_cell_length_c   8.82398600
_cell_angle_alpha   90.00000000
_cell_angle_beta   90.00000000
_cell_angle_gamma   119.99999398
_symmetry_Int_Tables_number   1
_chemical_formula_structural   La3ReH12Os
_chemical_formula_sum   'La3 Re1 H12 Os1'
_cell_volume   190.89450999
_cell_formula_units_Z   1
loop_
 _symmetry_equiv_pos_site_id
 _symmetry_equiv_pos_as_xyz
  1  'x, y, z'
loop_
 _atom_site_type_symbol
 _atom_site_label
 _atom_site_symmetry_multiplicity
 _atom_site_fract_x
 _atom_site_fract_y
 _atom_site_fract_z
 _atom_site_occupancy
  La  La0  1  0.000000  0.000000  0.968037  1
  La  La1  1  0.666667  0.333333  0.352768  1
  La  La2  1  0.333333  0.666667  0.640745  1
  Re  Re3  1  0.666667  0.333333  0.759236  1
  H  H4  1  0.169850  0.830150  0.362294  1
  H  H5  1  0.660297  0.830150  0.362294  1
  H  H6  1  0.169850  0.339703  0.362294  1
  H  H7  1  0.832341  0.167659  0.640436  1
  H  H8  1  0.335320  0.167659  0.640436  1
  H  H9  1  0.832341  0.664680  0.640436  1
  H  H10  1  0.499915  0.999830  0.877942  1
  H  H11  1  0.499915  0.500085  0.877942  1
  H  H12  1  0.000170  0.500085  0.877942  1
  H  H13  1  0.489897  0.979796  0.129105  1
  H  H14  1  0.489897  0.510103  0.129105  1
  H  H15  1  0.020204  0.510103  0.129105  1
  Os  Os16  1  0.333333  0.666667  0.249883  1
