# generated using pymatgen
data_La12Tc(AuBr4)3
_symmetry_space_group_name_H-M   'P 1'
_cell_length_a   10.74635122
_cell_length_b   10.74635062
_cell_length_c   10.74634974
_cell_angle_alpha   108.87940111
_cell_angle_beta   108.87940251
_cell_angle_gamma   108.87939892
_symmetry_Int_Tables_number   1
_chemical_formula_structural   La12Tc(AuBr4)3
_chemical_formula_sum   'La12 Tc1 Au3 Br12'
_cell_volume   975.71860285
_cell_formula_units_Z   1
loop_
 _symmetry_equiv_pos_site_id
 _symmetry_equiv_pos_as_xyz
  1  'x, y, z'
loop_
 _atom_site_type_symbol
 _atom_site_label
 _atom_site_symmetry_multiplicity
 _atom_site_fract_x
 _atom_site_fract_y
 _atom_site_fract_z
 _atom_site_occupancy
  La  La0  1  0.260586  0.750000  0.239414  1
  La  La1  1  0.488692  0.750000  0.011308  1
  La  La2  1  0.241869  0.470140  0.475063  1
  La  La3  1  0.024937  0.029860  0.258131  1
  La  La4  1  0.239414  0.260586  0.750000  1
  La  La5  1  0.011308  0.488692  0.750000  1
  La  La6  1  0.475063  0.241869  0.470140  1
  La  La7  1  0.258131  0.024937  0.029860  1
  La  La8  1  0.750000  0.239414  0.260586  1
  La  La9  1  0.750000  0.011308  0.488692  1
  La  La10  1  0.470140  0.475063  0.241869  1
  La  La11  1  0.029860  0.258131  0.024937  1
  Tc  Tc12  1  0.250000  0.250000  0.250000  1
  Au  Au13  1  0.499361  0.000639  0.250000  1
  Au  Au14  1  0.250000  0.499361  0.000639  1
  Au  Au15  1  0.000639  0.250000  0.499361  1
  Br  Br16  1  0.250000  0.996270  0.503730  1
  Br  Br17  1  0.502403  0.502961  0.753018  1
  Br  Br18  1  0.250000  0.748732  0.751268  1
  Br  Br19  1  0.997597  0.746982  0.997039  1
  Br  Br20  1  0.996270  0.503730  0.250000  1
  Br  Br21  1  0.746982  0.997039  0.997597  1
  Br  Br22  1  0.748732  0.751268  0.250000  1
  Br  Br23  1  0.502961  0.753018  0.502403  1
  Br  Br24  1  0.503730  0.250000  0.996270  1
  Br  Br25  1  0.753018  0.502403  0.502961  1
  Br  Br26  1  0.751268  0.250000  0.748732  1
  Br  Br27  1  0.997039  0.997597  0.746982  1
