# generated using pymatgen
data_Li8Tm8Sn7Bi
_symmetry_space_group_name_H-M   'P 1'
_cell_length_a   9.36026394
_cell_length_b   9.36026460
_cell_length_c   7.12964896
_cell_angle_alpha   90.07325720
_cell_angle_beta   89.92674203
_cell_angle_gamma   119.98912690
_symmetry_Int_Tables_number   1
_chemical_formula_structural   Li8Tm8Sn7Bi
_chemical_formula_sum   'Li8 Tm8 Sn7 Bi1'
_cell_volume   541.03093651
_cell_formula_units_Z   1
loop_
 _symmetry_equiv_pos_site_id
 _symmetry_equiv_pos_as_xyz
  1  'x, y, z'
loop_
 _atom_site_type_symbol
 _atom_site_label
 _atom_site_symmetry_multiplicity
 _atom_site_fract_x
 _atom_site_fract_y
 _atom_site_fract_z
 _atom_site_occupancy
  Li  Li0  1  0.830065  0.664893  0.711788  1
  Li  Li1  1  0.833269  0.166731  0.712825  1
  Li  Li2  1  0.334979  0.665021  0.822047  1
  Li  Li3  1  0.666649  0.333351  0.321258  1
  Li  Li4  1  0.666373  0.833235  0.212625  1
  Li  Li5  1  0.166765  0.333627  0.212625  1
  Li  Li6  1  0.166757  0.833243  0.214197  1
  Li  Li7  1  0.335107  0.169935  0.711788  1
  Tm  Tm8  1  0.997573  0.002427  0.003946  1
  Tm  Tm9  1  0.998122  0.001878  0.497780  1
  Tm  Tm10  1  0.511394  0.488606  0.006538  1
  Tm  Tm11  1  0.020037  0.506833  0.503209  1
  Tm  Tm12  1  0.493167  0.979963  0.503209  1
  Tm  Tm13  1  0.515832  0.024615  0.009657  1
  Tm  Tm14  1  0.975385  0.484168  0.009657  1
  Tm  Tm15  1  0.488636  0.511364  0.506145  1
  Sn  Sn16  1  0.666858  0.333142  0.740683  1
  Sn  Sn17  1  0.332843  0.667157  0.240815  1
  Sn  Sn18  1  0.833303  0.166697  0.269505  1
  Sn  Sn19  1  0.166303  0.333301  0.769869  1
  Sn  Sn20  1  0.333089  0.165889  0.269717  1
  Sn  Sn21  1  0.834111  0.666911  0.269717  1
  Sn  Sn22  1  0.666699  0.833697  0.769869  1
  Bi  Bi23  1  0.166684  0.833316  0.768533  1
