# generated using pymatgen
data_Li4Yb3ScSi8
_symmetry_space_group_name_H-M   'P 1'
_cell_length_a   3.77386600
_cell_length_b   7.79533460
_cell_length_c   10.28815010
_cell_angle_alpha   90.15769603
_cell_angle_beta   90.00000000
_cell_angle_gamma   90.00000000
_symmetry_Int_Tables_number   1
_chemical_formula_structural   Li4Yb3ScSi8
_chemical_formula_sum   'Li4 Yb3 Sc1 Si8'
_cell_volume   302.66129325
_cell_formula_units_Z   1
loop_
 _symmetry_equiv_pos_site_id
 _symmetry_equiv_pos_as_xyz
  1  'x, y, z'
loop_
 _atom_site_type_symbol
 _atom_site_label
 _atom_site_symmetry_multiplicity
 _atom_site_fract_x
 _atom_site_fract_y
 _atom_site_fract_z
 _atom_site_occupancy
  Li  Li0  1  0.250000  0.983982  0.390313  1
  Li  Li1  1  0.250000  0.498292  0.109142  1
  Li  Li2  1  0.750000  0.003557  0.604742  1
  Li  Li3  1  0.750000  0.504066  0.888077  1
  Yb  Yb4  1  0.250000  0.140426  0.865166  1
  Yb  Yb5  1  0.250000  0.631551  0.635340  1
  Yb  Yb6  1  0.750000  0.866147  0.139719  1
  Sc  Sc7  1  0.750000  0.376925  0.367384  1
  Si  Si8  1  0.250000  0.235991  0.552798  1
  Si  Si9  1  0.250000  0.734073  0.932300  1
  Si  Si10  1  0.750000  0.753881  0.432292  1
  Si  Si11  1  0.750000  0.275369  0.078839  1
  Si  Si12  1  0.250000  0.643540  0.324058  1
  Si  Si13  1  0.250000  0.172361  0.190798  1
  Si  Si14  1  0.750000  0.338838  0.665407  1
  Si  Si15  1  0.750000  0.841002  0.823624  1
