# generated using pymatgen
data_Cs4Ba2HfP4
_symmetry_space_group_name_H-M   'P 1'
_cell_length_a   10.98877340
_cell_length_b   10.98877505
_cell_length_c   8.05871202
_cell_angle_alpha   87.61958678
_cell_angle_beta   87.61957285
_cell_angle_gamma   119.42626611
_symmetry_Int_Tables_number   1
_chemical_formula_structural   Cs4Ba2HfP4
_chemical_formula_sum   'Cs8 Ba4 Hf2 P8'
_cell_volume   844.69291237
_cell_formula_units_Z   2
loop_
 _symmetry_equiv_pos_site_id
 _symmetry_equiv_pos_as_xyz
  1  'x, y, z'
loop_
 _atom_site_type_symbol
 _atom_site_label
 _atom_site_symmetry_multiplicity
 _atom_site_fract_x
 _atom_site_fract_y
 _atom_site_fract_z
 _atom_site_occupancy
  Cs  Cs0  1  0.473888  0.939270  0.390083  1
  Cs  Cs1  1  0.939270  0.473888  0.890083  1
  Cs  Cs2  1  0.869724  0.725136  0.158014  1
  Cs  Cs3  1  0.258965  0.123681  0.241611  1
  Cs  Cs4  1  0.858156  0.142673  0.191071  1
  Cs  Cs5  1  0.123681  0.258965  0.741611  1
  Cs  Cs6  1  0.725136  0.869724  0.658014  1
  Cs  Cs7  1  0.142673  0.858156  0.691071  1
  Ba  Ba8  1  0.075889  0.535170  0.401254  1
  Ba  Ba9  1  0.475840  0.532648  0.377291  1
  Ba  Ba10  1  0.535170  0.075889  0.901254  1
  Ba  Ba11  1  0.532648  0.475840  0.877291  1
  Hf  Hf12  1  0.663033  0.336609  0.488836  1
  Hf  Hf13  1  0.336609  0.663033  0.988836  1
  P  P14  1  0.631108  0.327262  0.174693  1
  P  P15  1  0.327262  0.631108  0.674693  1
  P  P16  1  0.219178  0.419760  0.137022  1
  P  P17  1  0.588200  0.786826  0.067390  1
  P  P18  1  0.219996  0.796799  0.090401  1
  P  P19  1  0.786826  0.588200  0.567390  1
  P  P20  1  0.419760  0.219178  0.637022  1
  P  P21  1  0.796799  0.219996  0.590401  1
