# generated using pymatgen
data_Fe2SnBr8
_symmetry_space_group_name_H-M   'P 1'
_cell_length_a   7.79730700
_cell_length_b   7.98106969
_cell_length_c   14.59353915
_cell_angle_alpha   87.34363166
_cell_angle_beta   90.00000000
_cell_angle_gamma   90.00000000
_symmetry_Int_Tables_number   1
_chemical_formula_structural   Fe2SnBr8
_chemical_formula_sum   'Fe4 Sn2 Br16'
_cell_volume   907.19248878
_cell_formula_units_Z   2
loop_
 _symmetry_equiv_pos_site_id
 _symmetry_equiv_pos_as_xyz
  1  'x, y, z'
loop_
 _atom_site_type_symbol
 _atom_site_label
 _atom_site_symmetry_multiplicity
 _atom_site_fract_x
 _atom_site_fract_y
 _atom_site_fract_z
 _atom_site_occupancy
  Fe  Fe0  1  0.934425  0.218653  0.579033  1
  Fe  Fe1  1  0.065575  0.218653  0.079033  1
  Fe  Fe2  1  0.571207  0.639080  0.779657  1
  Fe  Fe3  1  0.428793  0.639080  0.279657  1
  Sn  Sn4  1  0.754025  0.073027  0.811706  1
  Sn  Sn5  1  0.245975  0.073027  0.311706  1
  Br  Br6  1  0.427583  0.615773  0.643650  1
  Br  Br7  1  0.572417  0.615773  0.143650  1
  Br  Br8  1  0.862092  0.735281  0.759754  1
  Br  Br9  1  0.137908  0.735281  0.259754  1
  Br  Br10  1  0.937873  0.472059  0.498389  1
  Br  Br11  1  0.062127  0.472059  0.998389  1
  Br  Br12  1  0.921554  0.005955  0.999385  1
  Br  Br13  1  0.078446  0.005955  0.499385  1
  Br  Br14  1  0.647450  0.130532  0.618085  1
  Br  Br15  1  0.352550  0.130532  0.118085  1
  Br  Br16  1  0.563997  0.384113  0.870907  1
  Br  Br17  1  0.436003  0.384113  0.370907  1
  Br  Br18  1  0.448965  0.861622  0.863489  1
  Br  Br19  1  0.551035  0.861622  0.363489  1
  Br  Br20  1  0.936610  0.231307  0.228146  1
  Br  Br21  1  0.063390  0.231307  0.728146  1
