# generated using pymatgen
data_Nd2Dy14Cd4Ni3Ir
_symmetry_space_group_name_H-M   'P 1'
_cell_length_a   9.61571500
_cell_length_b   9.61571499
_cell_length_c   9.62285944
_cell_angle_alpha   59.95529823
_cell_angle_beta   59.95530740
_cell_angle_gamma   59.70007511
_symmetry_Int_Tables_number   1
_chemical_formula_structural   Nd2Dy14Cd4Ni3Ir
_chemical_formula_sum   'Nd2 Dy14 Cd4 Ni3 Ir1'
_cell_volume   627.28631003
_cell_formula_units_Z   1
loop_
 _symmetry_equiv_pos_site_id
 _symmetry_equiv_pos_as_xyz
  1  'x, y, z'
loop_
 _atom_site_type_symbol
 _atom_site_label
 _atom_site_symmetry_multiplicity
 _atom_site_fract_x
 _atom_site_fract_y
 _atom_site_fract_z
 _atom_site_occupancy
  Nd  Nd0  1  0.817797  0.817797  0.184615  1
  Nd  Nd1  1  0.186045  0.186045  0.811698  1
  Dy  Dy2  1  0.596534  0.596534  0.598484  1
  Dy  Dy3  1  0.600213  0.600213  0.205489  1
  Dy  Dy4  1  0.601164  0.204972  0.599934  1
  Dy  Dy5  1  0.204972  0.601164  0.599934  1
  Dy  Dy6  1  0.059051  0.438457  0.438640  1
  Dy  Dy7  1  0.436999  0.061345  0.060885  1
  Dy  Dy8  1  0.438457  0.059051  0.438640  1
  Dy  Dy9  1  0.061345  0.436999  0.060885  1
  Dy  Dy10  1  0.438494  0.438494  0.058725  1
  Dy  Dy11  1  0.061387  0.061387  0.434629  1
  Dy  Dy12  1  0.187702  0.813389  0.813704  1
  Dy  Dy13  1  0.807889  0.189710  0.188997  1
  Dy  Dy14  1  0.813389  0.187702  0.813704  1
  Dy  Dy15  1  0.189710  0.807889  0.188997  1
  Cd  Cd16  1  0.831373  0.831373  0.828326  1
  Cd  Cd17  1  0.830676  0.830676  0.508970  1
  Cd  Cd18  1  0.827578  0.507726  0.831375  1
  Cd  Cd19  1  0.507726  0.827578  0.831375  1
  Ni  Ni20  1  0.392922  0.392922  0.824954  1
  Ni  Ni21  1  0.389890  0.824918  0.393342  1
  Ni  Ni22  1  0.824918  0.389890  0.393342  1
  Ir  Ir23  1  0.393773  0.393773  0.390361  1
