# generated using pymatgen
data_Tb12FeCo3SnPt
_symmetry_space_group_name_H-M   'P 1'
_cell_length_a   8.39251909
_cell_length_b   8.39251834
_cell_length_c   8.39230152
_cell_angle_alpha   111.39583596
_cell_angle_beta   110.66685138
_cell_angle_gamma   106.39609055
_symmetry_Int_Tables_number   1
_chemical_formula_structural   Tb12FeCo3SnPt
_chemical_formula_sum   'Tb12 Fe1 Co3 Sn1 Pt1'
_cell_volume   454.03152243
_cell_formula_units_Z   1
loop_
 _symmetry_equiv_pos_site_id
 _symmetry_equiv_pos_as_xyz
  1  'x, y, z'
loop_
 _atom_site_type_symbol
 _atom_site_label
 _atom_site_symmetry_multiplicity
 _atom_site_fract_x
 _atom_site_fract_y
 _atom_site_fract_z
 _atom_site_occupancy
  Tb  Tb0  1  0.410270  0.211696  0.198584  1
  Tb  Tb1  1  0.589046  0.788048  0.800987  1
  Tb  Tb2  1  0.012939  0.211942  0.800987  1
  Tb  Tb3  1  0.986886  0.788313  0.198584  1
  Tb  Tb4  1  0.186918  0.291734  0.478652  1
  Tb  Tb5  1  0.812842  0.707239  0.520081  1
  Tb  Tb6  1  0.186887  0.708246  0.895133  1
  Tb  Tb7  1  0.812876  0.292781  0.105658  1
  Tb  Tb8  1  0.311795  0.619435  0.304303  1
  Tb  Tb9  1  0.684853  0.380571  0.692342  1
  Tb  Tb10  1  0.311772  0.007490  0.692342  1
  Tb  Tb11  1  0.684868  0.992509  0.304303  1
  Fe  Fe12  1  0.388633  0.999968  0.388601  1
  Co  Co13  1  0.622023  0.000037  0.622059  1
  Co  Co14  1  0.109441  0.610166  0.499272  1
  Co  Co15  1  0.889106  0.389831  0.499272  1
  Sn  Sn16  1  0.499367  0.499999  0.999366  1
  Pt  Pt17  1  0.999479  0.999997  0.999476  1
