# generated using pymatgen
data_Ho9Er(Bi2Sb)2
_symmetry_space_group_name_H-M   'P 1'
_cell_length_a   8.15712700
_cell_length_b   9.43775600
_cell_length_c   11.94613800
_cell_angle_alpha   89.99691654
_cell_angle_beta   90.00000000
_cell_angle_gamma   90.00000000
_symmetry_Int_Tables_number   1
_chemical_formula_structural   Ho9Er(Bi2Sb)2
_chemical_formula_sum   'Ho18 Er2 Bi8 Sb4'
_cell_volume   919.67312609
_cell_formula_units_Z   2
loop_
 _symmetry_equiv_pos_site_id
 _symmetry_equiv_pos_as_xyz
  1  'x, y, z'
loop_
 _atom_site_type_symbol
 _atom_site_label
 _atom_site_symmetry_multiplicity
 _atom_site_fract_x
 _atom_site_fract_y
 _atom_site_fract_z
 _atom_site_occupancy
  Ho  Ho0  1  0.353786  0.749995  0.214168  1
  Ho  Ho1  1  0.853786  0.750005  0.285832  1
  Ho  Ho2  1  0.646091  0.249951  0.785784  1
  Ho  Ho3  1  0.146091  0.250049  0.714216  1
  Ho  Ho4  1  0.311001  0.063280  0.941819  1
  Ho  Ho5  1  0.811001  0.436720  0.558181  1
  Ho  Ho6  1  0.310856  0.436775  0.941790  1
  Ho  Ho7  1  0.810856  0.063225  0.558210  1
  Ho  Ho8  1  0.689109  0.936623  0.058170  1
  Ho  Ho9  1  0.189109  0.563377  0.441830  1
  Ho  Ho10  1  0.473249  0.249924  0.488280  1
  Ho  Ho11  1  0.973249  0.250076  0.011720  1
  Ho  Ho12  1  0.526495  0.750082  0.511677  1
  Ho  Ho13  1  0.026495  0.749918  0.988323  1
  Ho  Ho14  1  0.316021  0.250010  0.217644  1
  Ho  Ho15  1  0.816021  0.249990  0.282356  1
  Ho  Ho16  1  0.683962  0.749935  0.782388  1
  Ho  Ho17  1  0.183962  0.750065  0.717612  1
  Er  Er18  1  0.688983  0.563624  0.058231  1
  Er  Er19  1  0.188983  0.936376  0.441769  1
  Bi  Bi20  1  0.566007  0.996060  0.325490  1
  Bi  Bi21  1  0.066007  0.503940  0.174510  1
  Bi  Bi22  1  0.433981  0.496131  0.674575  1
  Bi  Bi23  1  0.933981  0.003869  0.825425  1
  Bi  Bi24  1  0.433998  0.003914  0.674493  1
  Bi  Bi25  1  0.933998  0.496086  0.825507  1
  Bi  Bi26  1  0.566133  0.503965  0.325409  1
  Bi  Bi27  1  0.066133  0.996035  0.174591  1
  Sb  Sb28  1  0.406413  0.749828  0.958340  1
  Sb  Sb29  1  0.906413  0.750172  0.541660  1
  Sb  Sb30  1  0.593917  0.250503  0.041840  1
  Sb  Sb31  1  0.093917  0.249497  0.458160  1
