# generated using pymatgen
data_Th4Co7Ni7B6
_symmetry_space_group_name_H-M   'P 1'
_cell_length_a   5.04386855
_cell_length_b   5.04386861
_cell_length_c   13.32944300
_cell_angle_alpha   90.00000000
_cell_angle_beta   90.00000000
_cell_angle_gamma   120.24522531
_symmetry_Int_Tables_number   1
_chemical_formula_structural   Th4Co7Ni7B6
_chemical_formula_sum   'Th4 Co7 Ni7 B6'
_cell_volume   292.94877117
_cell_formula_units_Z   1
loop_
 _symmetry_equiv_pos_site_id
 _symmetry_equiv_pos_as_xyz
  1  'x, y, z'
loop_
 _atom_site_type_symbol
 _atom_site_label
 _atom_site_symmetry_multiplicity
 _atom_site_fract_x
 _atom_site_fract_y
 _atom_site_fract_z
 _atom_site_occupancy
  Th  Th0  1  0.000000  0.000000  0.260791  1
  Th  Th1  1  0.000000  0.000000  0.500403  1
  Th  Th2  1  0.000000  0.000000  0.996976  1
  Th  Th3  1  0.000000  0.000000  0.739724  1
  Co  Co4  1  0.500000  0.500000  0.382789  1
  Co  Co5  1  0.500000  0.500000  0.617642  1
  Co  Co6  1  0.500000  0.000000  0.383476  1
  Co  Co7  1  0.000000  0.500000  0.383476  1
  Co  Co8  1  0.500000  0.500000  0.841476  1
  Co  Co9  1  0.500000  0.000000  0.616412  1
  Co  Co10  1  0.000000  0.500000  0.616412  1
  Ni  Ni11  1  0.500000  0.500000  0.155173  1
  Ni  Ni12  1  0.000000  0.500000  0.845673  1
  Ni  Ni13  1  0.500000  0.000000  0.155215  1
  Ni  Ni14  1  0.500000  0.000000  0.845673  1
  Ni  Ni15  1  0.000000  0.500000  0.155215  1
  Ni  Ni16  1  0.664520  0.335480  0.000009  1
  Ni  Ni17  1  0.335480  0.664520  0.000009  1
  B  B18  1  0.333182  0.666818  0.269488  1
  B  B19  1  0.666445  0.333555  0.500420  1
  B  B20  1  0.333646  0.666354  0.731820  1
  B  B21  1  0.666818  0.333182  0.269488  1
  B  B22  1  0.666354  0.333646  0.731820  1
  B  B23  1  0.333555  0.666445  0.500420  1
