# generated using pymatgen
data_DyHo5In2F20
_symmetry_space_group_name_H-M   'P 1'
_cell_length_a   8.25304557
_cell_length_b   8.25993041
_cell_length_c   8.25992887
_cell_angle_alpha   59.94486682
_cell_angle_beta   60.02756502
_cell_angle_gamma   60.02755854
_symmetry_Int_Tables_number   1
_chemical_formula_structural   DyHo5In2F20
_chemical_formula_sum   'Dy1 Ho5 In2 F20'
_cell_volume   398.15420480
_cell_formula_units_Z   1
loop_
 _symmetry_equiv_pos_site_id
 _symmetry_equiv_pos_as_xyz
  1  'x, y, z'
loop_
 _atom_site_type_symbol
 _atom_site_label
 _atom_site_symmetry_multiplicity
 _atom_site_fract_x
 _atom_site_fract_y
 _atom_site_fract_z
 _atom_site_occupancy
  Dy  Dy0  1  0.759215  0.240785  0.240785  1
  Ho  Ho1  1  0.240884  0.759116  0.759116  1
  Ho  Ho2  1  0.240810  0.759190  0.240916  1
  Ho  Ho3  1  0.759084  0.240916  0.759190  1
  Ho  Ho4  1  0.240810  0.240916  0.759190  1
  Ho  Ho5  1  0.759084  0.759190  0.240916  1
  In  In6  1  0.249633  0.250367  0.250367  1
  In  In7  1  0.749633  0.750367  0.750367  1
  F  F8  1  0.828528  0.499951  0.499951  1
  F  F9  1  0.171571  0.499951  0.499951  1
  F  F10  1  0.500049  0.828429  0.171472  1
  F  F11  1  0.500049  0.171472  0.828429  1
  F  F12  1  0.500027  0.828547  0.499973  1
  F  F13  1  0.171453  0.499973  0.828547  1
  F  F14  1  0.499073  0.171045  0.500927  1
  F  F15  1  0.828955  0.500927  0.171045  1
  F  F16  1  0.500027  0.499973  0.828547  1
  F  F17  1  0.499073  0.500927  0.171045  1
  F  F18  1  0.171453  0.828547  0.499973  1
  F  F19  1  0.828955  0.171045  0.500927  1
  F  F20  1  0.111381  0.110086  0.110086  1
  F  F21  1  0.889587  0.889506  0.889506  1
  F  F22  1  0.110494  0.110413  0.668598  1
  F  F23  1  0.110494  0.668598  0.110413  1
  F  F24  1  0.889914  0.888619  0.331553  1
  F  F25  1  0.889914  0.331553  0.888619  1
  F  F26  1  0.668447  0.110086  0.110086  1
  F  F27  1  0.331402  0.889506  0.889506  1
