# generated using pymatgen
data_HoLu3Ga18Ir5Pd
_symmetry_space_group_name_H-M   'P 1'
_cell_length_a   7.58041957
_cell_length_b   7.57926272
_cell_length_c   9.44633928
_cell_angle_alpha   89.98595430
_cell_angle_beta   89.98896324
_cell_angle_gamma   119.89016895
_symmetry_Int_Tables_number   1
_chemical_formula_structural   HoLu3Ga18Ir5Pd
_chemical_formula_sum   'Ho1 Lu3 Ga18 Ir5 Pd1'
_cell_volume   470.53715173
_cell_formula_units_Z   1
loop_
 _symmetry_equiv_pos_site_id
 _symmetry_equiv_pos_as_xyz
  1  'x, y, z'
loop_
 _atom_site_type_symbol
 _atom_site_label
 _atom_site_symmetry_multiplicity
 _atom_site_fract_x
 _atom_site_fract_y
 _atom_site_fract_z
 _atom_site_occupancy
  Ho  Ho0  1  0.330491  0.003105  0.748653  1
  Lu  Lu1  1  0.996658  0.669210  0.251430  1
  Lu  Lu2  1  0.002301  0.330181  0.748283  1
  Lu  Lu3  1  0.669794  0.997642  0.251759  1
  Ga  Ga4  1  0.127692  0.126448  0.250026  1
  Ga  Ga5  1  0.872871  0.871986  0.749987  1
  Ga  Ga6  1  0.000610  0.334213  0.083245  1
  Ga  Ga7  1  0.003803  0.667055  0.917198  1
  Ga  Ga8  1  0.000962  0.664579  0.581064  1
  Ga  Ga9  1  0.334690  0.998348  0.418138  1
  Ga  Ga10  1  0.998442  0.334886  0.418079  1
  Ga  Ga11  1  0.665822  0.001689  0.581475  1
  Ga  Ga12  1  0.666524  0.999600  0.917212  1
  Ga  Ga13  1  0.332255  0.995636  0.083559  1
  Ga  Ga14  1  0.330652  0.331532  0.565294  1
  Ga  Ga15  1  0.669051  0.669164  0.434509  1
  Ga  Ga16  1  0.668856  0.671478  0.069587  1
  Ga  Ga17  1  0.328449  0.331834  0.930597  1
  Ga  Ga18  1  0.340363  0.548652  0.250468  1
  Ga  Ga19  1  0.660661  0.453661  0.748654  1
  Ga  Ga20  1  0.546930  0.339853  0.251343  1
  Ga  Ga21  1  0.451377  0.659442  0.749495  1
  Ir  Ir22  1  0.329057  0.671166  0.000249  1
  Ir  Ir23  1  0.327965  0.672031  0.499694  1
  Ir  Ir24  1  0.672059  0.328242  0.499773  1
  Ir  Ir25  1  0.000289  0.999368  0.000285  1
  Ir  Ir26  1  0.999238  0.000271  0.499686  1
  Pd  Pd27  1  0.672137  0.328727  0.000261  1
