# generated using pymatgen
data_CsY6(CI6)2
_symmetry_space_group_name_H-M   'P 1'
_cell_length_a   9.54686101
_cell_length_b   9.57881876
_cell_length_c   9.89846439
_cell_angle_alpha   72.86315304
_cell_angle_beta   72.38475921
_cell_angle_gamma   73.39896907
_symmetry_Int_Tables_number   1
_chemical_formula_structural   CsY6(CI6)2
_chemical_formula_sum   'Cs1 Y6 C2 I12'
_cell_volume   805.02113986
_cell_formula_units_Z   1
loop_
 _symmetry_equiv_pos_site_id
 _symmetry_equiv_pos_as_xyz
  1  'x, y, z'
loop_
 _atom_site_type_symbol
 _atom_site_label
 _atom_site_symmetry_multiplicity
 _atom_site_fract_x
 _atom_site_fract_y
 _atom_site_fract_z
 _atom_site_occupancy
  Cs  Cs0  1  0.000000  0.500000  0.999999  1
  Y  Y1  1  0.469336  0.105588  0.197504  1
  Y  Y2  1  0.759657  0.031546  0.413559  1
  Y  Y3  1  0.584884  0.743663  0.475480  1
  Y  Y4  1  0.415116  0.256338  0.524521  1
  Y  Y5  1  0.240343  0.968454  0.586440  1
  Y  Y6  1  0.530664  0.894412  0.802496  1
  C  C7  1  0.492116  0.024472  0.426974  1
  C  C8  1  0.507884  0.975529  0.573025  1
  I  I9  1  0.790578  0.151490  0.082444  1
  I  I10  1  0.576440  0.784316  0.141840  1
  I  I11  1  0.353548  0.427722  0.223007  1
  I  I12  1  0.134958  0.066713  0.294801  1
  I  I13  1  0.916603  0.723592  0.358013  1
  I  I14  1  0.711209  0.359362  0.434916  1
  I  I15  1  0.288792  0.640638  0.565083  1
  I  I16  1  0.083397  0.276408  0.641988  1
  I  I17  1  0.865043  0.933287  0.705198  1
  I  I18  1  0.646452  0.572277  0.776994  1
  I  I19  1  0.423560  0.215683  0.858160  1
  I  I20  1  0.209423  0.848509  0.917556  1
