# generated using pymatgen
data_GdZr4Sn3
_symmetry_space_group_name_H-M   'P 1'
_cell_length_a   8.60693900
_cell_length_b   8.66439922
_cell_length_c   5.89513500
_cell_angle_alpha   90.00000000
_cell_angle_beta   90.00000000
_cell_angle_gamma   120.22109190
_symmetry_Int_Tables_number   1
_chemical_formula_structural   GdZr4Sn3
_chemical_formula_sum   'Gd2 Zr8 Sn6'
_cell_volume   379.87411194
_cell_formula_units_Z   2
loop_
 _symmetry_equiv_pos_site_id
 _symmetry_equiv_pos_as_xyz
  1  'x, y, z'
loop_
 _atom_site_type_symbol
 _atom_site_label
 _atom_site_symmetry_multiplicity
 _atom_site_fract_x
 _atom_site_fract_y
 _atom_site_fract_z
 _atom_site_occupancy
  Gd  Gd0  1  0.237951  0.238661  0.750000  1
  Gd  Gd1  1  0.237951  0.999290  0.250000  1
  Zr  Zr2  1  0.997879  0.748774  0.750000  1
  Zr  Zr3  1  0.997879  0.249104  0.250000  1
  Zr  Zr4  1  0.754896  0.755642  0.250000  1
  Zr  Zr5  1  0.754896  0.999254  0.750000  1
  Zr  Zr6  1  0.335962  0.667982  0.500000  1
  Zr  Zr7  1  0.669021  0.334510  0.000000  1
  Zr  Zr8  1  0.669021  0.334510  0.500000  1
  Zr  Zr9  1  0.335962  0.667982  0.000000  1
  Sn  Sn10  1  0.395362  0.997222  0.750000  1
  Sn  Sn11  1  0.395362  0.398140  0.250000  1
  Sn  Sn12  1  0.998617  0.604679  0.250000  1
  Sn  Sn13  1  0.998617  0.393938  0.750000  1
  Sn  Sn14  1  0.610312  0.610153  0.750000  1
  Sn  Sn15  1  0.610312  0.000159  0.250000  1
