# generated using pymatgen
data_Ho2Lu(Co3P2)3
_symmetry_space_group_name_H-M   'P 1'
_cell_length_a   3.67807600
_cell_length_b   10.47738300
_cell_length_c   12.12595000
_cell_angle_alpha   90.00000000
_cell_angle_beta   90.00000000
_cell_angle_gamma   90.00000000
_symmetry_Int_Tables_number   1
_chemical_formula_structural   Ho2Lu(Co3P2)3
_chemical_formula_sum   'Ho4 Lu2 Co18 P12'
_cell_volume   467.29301761
_cell_formula_units_Z   2
loop_
 _symmetry_equiv_pos_site_id
 _symmetry_equiv_pos_as_xyz
  1  'x, y, z'
loop_
 _atom_site_type_symbol
 _atom_site_label
 _atom_site_symmetry_multiplicity
 _atom_site_fract_x
 _atom_site_fract_y
 _atom_site_fract_z
 _atom_site_occupancy
  Ho  Ho0  1  0.000000  0.500000  0.521954  1
  Ho  Ho1  1  0.500000  0.000000  0.477089  1
  Ho  Ho2  1  0.000000  0.682586  0.794248  1
  Ho  Ho3  1  0.000000  0.317414  0.794248  1
  Lu  Lu4  1  0.500000  0.818105  0.206104  1
  Lu  Lu5  1  0.500000  0.181895  0.206104  1
  Co  Co6  1  0.000000  0.500000  0.987361  1
  Co  Co7  1  0.500000  0.000000  0.015333  1
  Co  Co8  1  0.500000  0.297092  0.429509  1
  Co  Co9  1  0.500000  0.702908  0.429509  1
  Co  Co10  1  0.000000  0.202556  0.568595  1
  Co  Co11  1  0.000000  0.797444  0.568595  1
  Co  Co12  1  0.500000  0.879150  0.709409  1
  Co  Co13  1  0.500000  0.120850  0.709409  1
  Co  Co14  1  0.000000  0.621876  0.289526  1
  Co  Co15  1  0.000000  0.378124  0.289526  1
  Co  Co16  1  0.500000  0.332500  0.995476  1
  Co  Co17  1  0.500000  0.667500  0.995476  1
  Co  Co18  1  0.000000  0.166294  0.006619  1
  Co  Co19  1  0.000000  0.833706  0.006619  1
  Co  Co20  1  0.500000  0.500000  0.159141  1
  Co  Co21  1  0.000000  0.000000  0.840984  1
  Co  Co22  1  0.500000  0.500000  0.703442  1
  Co  Co23  1  0.000000  0.000000  0.295903  1
  P  P24  1  0.500000  0.310808  0.615692  1
  P  P25  1  0.500000  0.689192  0.615692  1
  P  P26  1  0.000000  0.188673  0.382295  1
  P  P27  1  0.000000  0.811327  0.382295  1
  P  P28  1  0.500000  0.500000  0.883295  1
  P  P29  1  0.000000  0.000000  0.118921  1
  P  P30  1  0.500000  0.847922  0.893102  1
  P  P31  1  0.500000  0.152078  0.893102  1
  P  P32  1  0.000000  0.654226  0.107975  1
  P  P33  1  0.000000  0.345774  0.107975  1
  P  P34  1  0.500000  0.500000  0.343996  1
  P  P35  1  0.000000  0.000000  0.655478  1
