# generated using pymatgen
data_Zr9Ta2Os2O3
_symmetry_space_group_name_H-M   'P 1'
_cell_length_a   8.61832300
_cell_length_b   8.67522509
_cell_length_c   8.64209100
_cell_angle_alpha   90.00000000
_cell_angle_beta   90.00000000
_cell_angle_gamma   119.78327269
_symmetry_Int_Tables_number   1
_chemical_formula_structural   Zr9Ta2Os2O3
_chemical_formula_sum   'Zr18 Ta4 Os4 O6'
_cell_volume   560.78617609
_cell_formula_units_Z   2
loop_
 _symmetry_equiv_pos_site_id
 _symmetry_equiv_pos_as_xyz
  1  'x, y, z'
loop_
 _atom_site_type_symbol
 _atom_site_label
 _atom_site_symmetry_multiplicity
 _atom_site_fract_x
 _atom_site_fract_y
 _atom_site_fract_z
 _atom_site_occupancy
  Zr  Zr0  1  0.453082  0.906162  0.250000  1
  Zr  Zr1  1  0.546918  0.093838  0.750000  1
  Zr  Zr2  1  0.093826  0.546885  0.250000  1
  Zr  Zr3  1  0.906174  0.453115  0.750000  1
  Zr  Zr4  1  0.453059  0.546885  0.250000  1
  Zr  Zr5  1  0.546941  0.453115  0.750000  1
  Zr  Zr6  1  0.203591  0.407181  0.563115  1
  Zr  Zr7  1  0.796409  0.592819  0.436885  1
  Zr  Zr8  1  0.590103  0.794817  0.562295  1
  Zr  Zr9  1  0.796409  0.592819  0.063115  1
  Zr  Zr10  1  0.409897  0.205183  0.437705  1
  Zr  Zr11  1  0.203591  0.407181  0.936885  1
  Zr  Zr12  1  0.204715  0.794817  0.562295  1
  Zr  Zr13  1  0.409897  0.205183  0.062295  1
  Zr  Zr14  1  0.795285  0.205183  0.437705  1
  Zr  Zr15  1  0.590103  0.794817  0.937705  1
  Zr  Zr16  1  0.795285  0.205183  0.062295  1
  Zr  Zr17  1  0.204715  0.794817  0.937705  1
  Ta  Ta18  1  0.109556  0.219111  0.250000  1
  Ta  Ta19  1  0.890444  0.780889  0.750000  1
  Ta  Ta20  1  0.000000  0.000000  0.000000  1
  Ta  Ta21  1  0.000000  0.000000  0.500000  1
  Os  Os22  1  0.775789  0.887708  0.250000  1
  Os  Os23  1  0.224211  0.112292  0.750000  1
  Os  Os24  1  0.111921  0.887708  0.250000  1
  Os  Os25  1  0.888079  0.112292  0.750000  1
  O  O26  1  0.500000  0.000000  0.000000  1
  O  O27  1  0.000000  0.500000  0.000000  1
  O  O28  1  0.500000  0.000000  0.500000  1
  O  O29  1  0.500000  0.500000  0.000000  1
  O  O30  1  0.000000  0.500000  0.500000  1
  O  O31  1  0.500000  0.500000  0.500000  1
