# generated using pymatgen
data_TbY(Tm2Rh9)2
_symmetry_space_group_name_H-M   'P 1'
_cell_length_a   5.24668800
_cell_length_b   5.24668915
_cell_length_c   17.54030400
_cell_angle_alpha   90.00000000
_cell_angle_beta   90.00000000
_cell_angle_gamma   119.99998013
_symmetry_Int_Tables_number   1
_chemical_formula_structural   TbY(Tm2Rh9)2
_chemical_formula_sum   'Tb1 Y1 Tm4 Rh18'
_cell_volume   418.15607278
_cell_formula_units_Z   1
loop_
 _symmetry_equiv_pos_site_id
 _symmetry_equiv_pos_as_xyz
  1  'x, y, z'
loop_
 _atom_site_type_symbol
 _atom_site_label
 _atom_site_symmetry_multiplicity
 _atom_site_fract_x
 _atom_site_fract_y
 _atom_site_fract_z
 _atom_site_occupancy
  Tb  Tb0  1  0.333333  0.666667  0.750000  1
  Y  Y1  1  0.666667  0.333333  0.250000  1
  Tm  Tm2  1  0.333333  0.666667  0.958029  1
  Tm  Tm3  1  0.666667  0.333333  0.041733  1
  Tm  Tm4  1  0.666667  0.333333  0.458267  1
  Tm  Tm5  1  0.333333  0.666667  0.541971  1
  Rh  Rh6  1  0.167453  0.832547  0.375264  1
  Rh  Rh7  1  0.167453  0.334907  0.375264  1
  Rh  Rh8  1  0.665093  0.832547  0.375264  1
  Rh  Rh9  1  0.832585  0.167415  0.625008  1
  Rh  Rh10  1  0.832585  0.665169  0.625008  1
  Rh  Rh11  1  0.334831  0.167415  0.625008  1
  Rh  Rh12  1  0.832585  0.167415  0.874992  1
  Rh  Rh13  1  0.832585  0.665169  0.874992  1
  Rh  Rh14  1  0.334831  0.167415  0.874992  1
  Rh  Rh15  1  0.167453  0.832547  0.124736  1
  Rh  Rh16  1  0.167453  0.334907  0.124736  1
  Rh  Rh17  1  0.665093  0.832547  0.124736  1
  Rh  Rh18  1  0.333333  0.666667  0.250000  1
  Rh  Rh19  1  0.666667  0.333333  0.750000  1
  Rh  Rh20  1  0.000000  0.000000  0.250000  1
  Rh  Rh21  1  0.000000  0.000000  0.750000  1
  Rh  Rh22  1  0.000000  0.000000  0.500112  1
  Rh  Rh23  1  0.000000  0.000000  0.999888  1
