# generated using pymatgen
data_HoTm4Co19Si11P
_symmetry_space_group_name_H-M   'P 1'
_cell_length_a   12.10214533
_cell_length_b   12.13601676
_cell_length_c   3.71153800
_cell_angle_alpha   90.00000000
_cell_angle_beta   90.00000000
_cell_angle_gamma   120.08908858
_symmetry_Int_Tables_number   1
_chemical_formula_structural   HoTm4Co19Si11P
_chemical_formula_sum   'Ho1 Tm4 Co19 Si11 P1'
_cell_volume   471.66375157
_cell_formula_units_Z   1
loop_
 _symmetry_equiv_pos_site_id
 _symmetry_equiv_pos_as_xyz
  1  'x, y, z'
loop_
 _atom_site_type_symbol
 _atom_site_label
 _atom_site_symmetry_multiplicity
 _atom_site_fract_x
 _atom_site_fract_y
 _atom_site_fract_z
 _atom_site_occupancy
  Ho  Ho0  1  0.667310  0.333482  0.000000  1
  Tm  Tm1  1  0.332686  0.666145  0.000000  1
  Tm  Tm2  1  0.184799  0.185827  0.500000  1
  Tm  Tm3  1  0.815238  0.001033  0.500000  1
  Tm  Tm4  1  0.999981  0.813943  0.500000  1
  Co  Co5  1  0.823739  0.197171  0.000000  1
  Co  Co6  1  0.802776  0.622762  0.000000  1
  Co  Co7  1  0.377140  0.180058  0.000000  1
  Co  Co8  1  0.197361  0.819810  0.000000  1
  Co  Co9  1  0.622525  0.802766  0.000000  1
  Co  Co10  1  0.176438  0.373737  0.000000  1
  Co  Co11  1  0.558383  0.558772  0.000000  1
  Co  Co12  1  0.441640  0.000454  0.000000  1
  Co  Co13  1  0.999987  0.441626  0.000000  1
  Co  Co14  1  0.645221  0.123736  0.500000  1
  Co  Co15  1  0.877000  0.520433  0.500000  1
  Co  Co16  1  0.478787  0.356147  0.500000  1
  Co  Co17  1  0.123356  0.643457  0.500000  1
  Co  Co18  1  0.520890  0.877012  0.500000  1
  Co  Co19  1  0.354731  0.478810  0.500000  1
  Co  Co20  1  0.718625  0.718666  0.500000  1
  Co  Co21  1  0.281280  0.999853  0.500000  1
  Co  Co22  1  0.000117  0.278035  0.500000  1
  Co  Co23  1  0.000003  0.004833  0.000000  1
  Si  Si24  1  0.370120  0.370528  0.000000  1
  Si  Si25  1  0.629892  0.000451  0.000000  1
  Si  Si26  1  0.999962  0.629402  0.000000  1
  Si  Si27  1  0.840285  0.318310  0.500000  1
  Si  Si28  1  0.682339  0.521727  0.500000  1
  Si  Si29  1  0.478782  0.161023  0.500000  1
  Si  Si30  1  0.317700  0.838958  0.500000  1
  Si  Si31  1  0.520724  0.682147  0.500000  1
  Si  Si32  1  0.160165  0.478462  0.500000  1
  Si  Si33  1  0.817673  0.817464  0.000000  1
  Si  Si34  1  0.182292  0.999740  0.000000  1
  P  P35  1  0.000051  0.183219  0.000000  1
