# generated using pymatgen
data_Y2Lu4Si2Os
_symmetry_space_group_name_H-M   'P 1'
_cell_length_a   7.61401429
_cell_length_b   7.61401434
_cell_length_c   4.30165300
_cell_angle_alpha   90.00000000
_cell_angle_beta   90.00000000
_cell_angle_gamma   120.12157653
_symmetry_Int_Tables_number   1
_chemical_formula_structural   Y2Lu4Si2Os
_chemical_formula_sum   'Y2 Lu4 Si2 Os1'
_cell_volume   215.70490999
_cell_formula_units_Z   1
loop_
 _symmetry_equiv_pos_site_id
 _symmetry_equiv_pos_as_xyz
  1  'x, y, z'
loop_
 _atom_site_type_symbol
 _atom_site_label
 _atom_site_symmetry_multiplicity
 _atom_site_fract_x
 _atom_site_fract_y
 _atom_site_fract_z
 _atom_site_occupancy
  Y  Y0  1  0.405028  0.000526  0.000000  1
  Y  Y1  1  0.000526  0.405028  0.000000  1
  Lu  Lu2  1  0.598338  0.598338  0.000000  1
  Lu  Lu3  1  0.749657  0.998585  0.499999  1
  Lu  Lu4  1  0.250745  0.250745  0.499999  1
  Lu  Lu5  1  0.998585  0.749657  0.499999  1
  Si  Si6  1  0.665763  0.334623  0.499999  1
  Si  Si7  1  0.334623  0.665763  0.499999  1
  Os  Os8  1  0.996736  0.996736  0.000000  1
