# generated using pymatgen
data_Np6Ti2SnSb9
_symmetry_space_group_name_H-M   'P 1'
_cell_length_a   9.15268700
_cell_length_b   9.15268772
_cell_length_c   6.13833900
_cell_angle_alpha   90.00000000
_cell_angle_beta   90.00000000
_cell_angle_gamma   120.00000100
_symmetry_Int_Tables_number   1
_chemical_formula_structural   Np6Ti2SnSb9
_chemical_formula_sum   'Np6 Ti2 Sn1 Sb9'
_cell_volume   445.32671852
_cell_formula_units_Z   1
loop_
 _symmetry_equiv_pos_site_id
 _symmetry_equiv_pos_as_xyz
  1  'x, y, z'
loop_
 _atom_site_type_symbol
 _atom_site_label
 _atom_site_symmetry_multiplicity
 _atom_site_fract_x
 _atom_site_fract_y
 _atom_site_fract_z
 _atom_site_occupancy
  Np  Np0  1  0.386602  0.999475  0.750875  1
  Np  Np1  1  0.386602  0.387127  0.249125  1
  Np  Np2  1  0.000525  0.613398  0.249125  1
  Np  Np3  1  0.000525  0.387127  0.750875  1
  Np  Np4  1  0.612873  0.613398  0.750875  1
  Np  Np5  1  0.612873  0.999475  0.249125  1
  Ti  Ti6  1  0.000000  0.000000  0.000000  1
  Ti  Ti7  1  0.000000  0.000000  0.500000  1
  Sn  Sn8  1  0.666667  0.333333  0.500000  1
  Sb  Sb9  1  0.333333  0.666667  0.000000  1
  Sb  Sb10  1  0.740166  0.001037  0.748692  1
  Sb  Sb11  1  0.740166  0.739129  0.251308  1
  Sb  Sb12  1  0.333333  0.666667  0.500000  1
  Sb  Sb13  1  0.666667  0.333333  0.000000  1
  Sb  Sb14  1  0.260871  0.001037  0.251308  1
  Sb  Sb15  1  0.260871  0.259834  0.748692  1
  Sb  Sb16  1  0.998963  0.739129  0.748692  1
  Sb  Sb17  1  0.998963  0.259834  0.251308  1
