# generated using pymatgen
data_Cr2P(Pd3Pt)2
_symmetry_space_group_name_H-M   'P 1'
_cell_length_a   3.93591600
_cell_length_b   3.93591600
_cell_length_c   10.81073000
_cell_angle_alpha   90.00000000
_cell_angle_beta   90.00000000
_cell_angle_gamma   90.00000000
_symmetry_Int_Tables_number   1
_chemical_formula_structural   Cr2P(Pd3Pt)2
_chemical_formula_sum   'Cr2 P1 Pd6 Pt2'
_cell_volume   167.47371849
_cell_formula_units_Z   1
loop_
 _symmetry_equiv_pos_site_id
 _symmetry_equiv_pos_as_xyz
  1  'x, y, z'
loop_
 _atom_site_type_symbol
 _atom_site_label
 _atom_site_symmetry_multiplicity
 _atom_site_fract_x
 _atom_site_fract_y
 _atom_site_fract_z
 _atom_site_occupancy
  Cr  Cr0  1  0.500000  0.500000  0.824361  1
  Cr  Cr1  1  0.500000  0.500000  0.175639  1
  P  P2  1  0.000000  0.000000  0.500000  1
  Pd  Pd3  1  0.500000  0.000000  0.631491  1
  Pd  Pd4  1  0.000000  0.500000  0.631491  1
  Pd  Pd5  1  0.500000  0.000000  0.368509  1
  Pd  Pd6  1  0.000000  0.500000  0.368509  1
  Pd  Pd7  1  0.000000  0.000000  0.816003  1
  Pd  Pd8  1  0.000000  0.000000  0.183997  1
  Pt  Pt9  1  0.500000  0.000000  0.000000  1
  Pt  Pt10  1  0.000000  0.500000  0.000000  1
