# generated using pymatgen
data_Hf2V(NiAs)4
_symmetry_space_group_name_H-M   'P 1'
_cell_length_a   6.19644607
_cell_length_b   3.77095400
_cell_length_c   7.20380840
_cell_angle_alpha   90.00000000
_cell_angle_beta   90.18098989
_cell_angle_gamma   90.00000000
_symmetry_Int_Tables_number   1
_chemical_formula_structural   Hf2V(NiAs)4
_chemical_formula_sum   'Hf2 V1 Ni4 As4'
_cell_volume   168.32704340
_cell_formula_units_Z   1
loop_
 _symmetry_equiv_pos_site_id
 _symmetry_equiv_pos_as_xyz
  1  'x, y, z'
loop_
 _atom_site_type_symbol
 _atom_site_label
 _atom_site_symmetry_multiplicity
 _atom_site_fract_x
 _atom_site_fract_y
 _atom_site_fract_z
 _atom_site_occupancy
  Hf  Hf0  1  0.464945  0.749998  0.312267  1
  Hf  Hf1  1  0.534634  0.249998  0.691301  1
  V  V2  1  0.975317  0.749998  0.186214  1
  Ni  Ni3  1  0.634853  0.249998  0.061358  1
  Ni  Ni4  1  0.153237  0.249998  0.438700  1
  Ni  Ni5  1  0.852596  0.749998  0.564332  1
  Ni  Ni6  1  0.372835  0.749998  0.942757  1
  As  As7  1  0.231018  0.249998  0.103169  1
  As  As8  1  0.775110  0.249998  0.371123  1
  As  As9  1  0.225600  0.749998  0.635989  1
  As  As10  1  0.777822  0.749998  0.890053  1
