# generated using pymatgen
data_Nd16Er4Si11Ir
_symmetry_space_group_name_H-M   'P 1'
_cell_length_a   11.40434530
_cell_length_b   11.40434530
_cell_length_c   6.53466287
_cell_angle_alpha   89.58163975
_cell_angle_beta   89.58163975
_cell_angle_gamma   89.83609965
_symmetry_Int_Tables_number   1
_chemical_formula_structural   Nd16Er4Si11Ir
_chemical_formula_sum   'Nd16 Er4 Si11 Ir1'
_cell_volume   849.84365676
_cell_formula_units_Z   1
loop_
 _symmetry_equiv_pos_site_id
 _symmetry_equiv_pos_as_xyz
  1  'x, y, z'
loop_
 _atom_site_type_symbol
 _atom_site_label
 _atom_site_symmetry_multiplicity
 _atom_site_fract_x
 _atom_site_fract_y
 _atom_site_fract_z
 _atom_site_occupancy
  Nd  Nd0  1  0.284828  0.088972  0.355287  1
  Nd  Nd1  1  0.296288  0.908708  0.857549  1
  Nd  Nd2  1  0.709848  0.086751  0.852827  1
  Nd  Nd3  1  0.717025  0.910109  0.354202  1
  Nd  Nd4  1  0.583287  0.793723  0.856463  1
  Nd  Nd5  1  0.590968  0.217180  0.352984  1
  Nd  Nd6  1  0.408735  0.781724  0.361999  1
  Nd  Nd7  1  0.413402  0.210955  0.853756  1
  Nd  Nd8  1  0.206277  0.416713  0.643537  1
  Nd  Nd9  1  0.218276  0.591265  0.138001  1
  Nd  Nd10  1  0.782820  0.409032  0.147016  1
  Nd  Nd11  1  0.789045  0.586598  0.646244  1
  Nd  Nd12  1  0.911028  0.715172  0.144713  1
  Nd  Nd13  1  0.913249  0.290152  0.647173  1
  Nd  Nd14  1  0.091292  0.703712  0.642451  1
  Nd  Nd15  1  0.089891  0.282975  0.145798  1
  Er  Er16  1  0.999148  0.999073  0.500828  1
  Er  Er17  1  0.000927  0.000852  0.999172  1
  Er  Er18  1  0.497575  0.508879  0.998423  1
  Er  Er19  1  0.491121  0.502425  0.501577  1
  Si  Si20  1  0.847512  0.152488  0.250000  1
  Si  Si21  1  0.848295  0.845855  0.751737  1
  Si  Si22  1  0.154145  0.151705  0.748263  1
  Si  Si23  1  0.150742  0.849258  0.250000  1
  Si  Si24  1  0.651120  0.348880  0.750000  1
  Si  Si25  1  0.654340  0.652201  0.250226  1
  Si  Si26  1  0.347799  0.345660  0.249774  1
  Si  Si27  1  0.501690  0.002275  0.123805  1
  Si  Si28  1  0.501888  0.002431  0.573569  1
  Si  Si29  1  0.997569  0.498112  0.926431  1
  Si  Si30  1  0.997725  0.498310  0.376195  1
  Ir  Ir31  1  0.352143  0.647857  0.750000  1
