# generated using pymatgen
data_Pa3Sb(PO4)6
_symmetry_space_group_name_H-M   'P 1'
_cell_length_a   9.59739344
_cell_length_b   9.59739367
_cell_length_c   9.59739264
_cell_angle_alpha   58.12302160
_cell_angle_beta   58.12301888
_cell_angle_gamma   58.12302033
_symmetry_Int_Tables_number   1
_chemical_formula_structural   Pa3Sb(PO4)6
_chemical_formula_sum   'Pa3 Sb1 P6 O24'
_cell_volume   598.19739319
_cell_formula_units_Z   1
loop_
 _symmetry_equiv_pos_site_id
 _symmetry_equiv_pos_as_xyz
  1  'x, y, z'
loop_
 _atom_site_type_symbol
 _atom_site_label
 _atom_site_symmetry_multiplicity
 _atom_site_fract_x
 _atom_site_fract_y
 _atom_site_fract_z
 _atom_site_occupancy
  Pa  Pa0  1  0.857239  0.857239  0.857239  1
  Pa  Pa1  1  0.643314  0.643314  0.643314  1
  Pa  Pa2  1  0.357108  0.357108  0.357108  1
  Sb  Sb3  1  0.142337  0.142337  0.142337  1
  P  P4  1  0.966486  0.248095  0.531764  1
  P  P5  1  0.531764  0.966486  0.248095  1
  P  P6  1  0.248095  0.531764  0.966486  1
  P  P7  1  0.747789  0.466532  0.037187  1
  P  P8  1  0.466532  0.037187  0.747789  1
  P  P9  1  0.037187  0.747789  0.466532  1
  O  O10  1  0.879781  0.703414  0.510989  1
  O  O11  1  0.703414  0.510989  0.879781  1
  O  O12  1  0.949838  0.078624  0.694984  1
  O  O13  1  0.510989  0.879781  0.703414  1
  O  O14  1  0.800399  0.403554  0.581875  1
  O  O15  1  0.980905  0.237760  0.372505  1
  O  O16  1  0.694984  0.949838  0.078624  1
  O  O17  1  0.581875  0.800399  0.403554  1
  O  O18  1  0.403554  0.581875  0.800399  1
  O  O19  1  0.772380  0.631805  0.004400  1
  O  O20  1  0.907413  0.304200  0.052583  1
  O  O21  1  0.631805  0.004400  0.772380  1
  O  O22  1  0.372505  0.980905  0.237760  1
  O  O23  1  0.078624  0.694984  0.949838  1
  O  O24  1  0.237760  0.372505  0.980905  1
  O  O25  1  0.581749  0.444164  0.203155  1
  O  O26  1  0.444164  0.203155  0.581749  1
  O  O27  1  0.304200  0.052583  0.907413  1
  O  O28  1  0.004400  0.772380  0.631805  1
  O  O29  1  0.203155  0.581749  0.444164  1
  O  O30  1  0.499916  0.128931  0.276827  1
  O  O31  1  0.052583  0.907413  0.304200  1
  O  O32  1  0.276827  0.499916  0.128931  1
  O  O33  1  0.128931  0.276827  0.499916  1
