# generated using pymatgen
data_Tb2Dy3Bi2Pt
_symmetry_space_group_name_H-M   'P 1'
_cell_length_a   8.09389700
_cell_length_b   9.06768700
_cell_length_c   12.45883700
_cell_angle_alpha   90.00000000
_cell_angle_beta   90.00000000
_cell_angle_gamma   90.00000000
_symmetry_Int_Tables_number   1
_chemical_formula_structural   Tb2Dy3Bi2Pt
_chemical_formula_sum   'Tb8 Dy12 Bi8 Pt4'
_cell_volume   914.39048462
_cell_formula_units_Z   4
loop_
 _symmetry_equiv_pos_site_id
 _symmetry_equiv_pos_as_xyz
  1  'x, y, z'
loop_
 _atom_site_type_symbol
 _atom_site_label
 _atom_site_symmetry_multiplicity
 _atom_site_fract_x
 _atom_site_fract_y
 _atom_site_fract_z
 _atom_site_occupancy
  Tb  Tb0  1  0.838791  0.750000  0.790229  1
  Tb  Tb1  1  0.161209  0.250000  0.209771  1
  Tb  Tb2  1  0.338791  0.250000  0.709771  1
  Tb  Tb3  1  0.661209  0.750000  0.290229  1
  Tb  Tb4  1  0.370744  0.750000  0.697490  1
  Tb  Tb5  1  0.629256  0.250000  0.302510  1
  Tb  Tb6  1  0.870744  0.250000  0.802510  1
  Tb  Tb7  1  0.129256  0.750000  0.197490  1
  Dy  Dy8  1  0.949737  0.750000  0.500028  1
  Dy  Dy9  1  0.050263  0.250000  0.499972  1
  Dy  Dy10  1  0.449737  0.250000  0.999972  1
  Dy  Dy11  1  0.550263  0.750000  0.000028  1
  Dy  Dy12  1  0.679462  0.045732  0.566828  1
  Dy  Dy13  1  0.320538  0.954268  0.433172  1
  Dy  Dy14  1  0.179462  0.954268  0.933172  1
  Dy  Dy15  1  0.320538  0.545732  0.433172  1
  Dy  Dy16  1  0.820538  0.045732  0.066828  1
  Dy  Dy17  1  0.679462  0.454268  0.566828  1
  Dy  Dy18  1  0.820538  0.454268  0.066828  1
  Dy  Dy19  1  0.179462  0.545732  0.933172  1
  Bi  Bi20  1  0.568884  0.491336  0.827384  1
  Bi  Bi21  1  0.431116  0.508664  0.172616  1
  Bi  Bi22  1  0.068884  0.508664  0.672616  1
  Bi  Bi23  1  0.431116  0.991336  0.172616  1
  Bi  Bi24  1  0.931116  0.491336  0.327384  1
  Bi  Bi25  1  0.568884  0.008664  0.827384  1
  Bi  Bi26  1  0.931116  0.008664  0.327384  1
  Bi  Bi27  1  0.068884  0.991336  0.672616  1
  Pt  Pt28  1  0.574711  0.750000  0.511487  1
  Pt  Pt29  1  0.425289  0.250000  0.488513  1
  Pt  Pt30  1  0.074711  0.250000  0.988513  1
  Pt  Pt31  1  0.925289  0.750000  0.011487  1
