# generated using pymatgen
data_KGd(PSe3)2
_symmetry_space_group_name_H-M   'P 1'
_cell_length_a   7.57230300
_cell_length_b   6.82096252
_cell_length_c   10.72268200
_cell_angle_alpha   86.99909657
_cell_angle_beta   90.00000000
_cell_angle_gamma   90.00000000
_symmetry_Int_Tables_number   1
_chemical_formula_structural   KGd(PSe3)2
_chemical_formula_sum   'K2 Gd2 P4 Se12'
_cell_volume   553.07129749
_cell_formula_units_Z   2
loop_
 _symmetry_equiv_pos_site_id
 _symmetry_equiv_pos_as_xyz
  1  'x, y, z'
loop_
 _atom_site_type_symbol
 _atom_site_label
 _atom_site_symmetry_multiplicity
 _atom_site_fract_x
 _atom_site_fract_y
 _atom_site_fract_z
 _atom_site_occupancy
  K  K0  1  0.047457  0.312301  0.495299  1
  K  K1  1  0.547457  0.687699  0.504701  1
  Gd  Gd2  1  0.260826  0.214272  0.998149  1
  Gd  Gd3  1  0.760826  0.785728  0.001851  1
  P  P4  1  0.752451  0.322807  0.828719  1
  P  P5  1  0.252451  0.677193  0.171281  1
  P  P6  1  0.030608  0.797869  0.285727  1
  P  P7  1  0.530608  0.202131  0.714273  1
  Se  Se8  1  0.630596  0.367413  0.016260  1
  Se  Se9  1  0.122086  0.831149  0.473648  1
  Se  Se10  1  0.952634  0.082530  0.832484  1
  Se  Se11  1  0.816992  0.586919  0.263311  1
  Se  Se12  1  0.348853  0.394597  0.250787  1
  Se  Se13  1  0.316992  0.413081  0.736689  1
  Se  Se14  1  0.450996  0.936881  0.833838  1
  Se  Se15  1  0.950996  0.063119  0.166162  1
  Se  Se16  1  0.622086  0.168851  0.526352  1
  Se  Se17  1  0.130596  0.632587  0.983740  1
  Se  Se18  1  0.452634  0.917470  0.167516  1
  Se  Se19  1  0.848853  0.605403  0.749213  1
