# generated using pymatgen
data_NdLu7(Si3Pd)4
_symmetry_space_group_name_H-M   'P 1'
_cell_length_a   8.15302700
_cell_length_b   8.15301219
_cell_length_c   8.07376100
_cell_angle_alpha   90.00000000
_cell_angle_beta   90.00000000
_cell_angle_gamma   120.00002356
_symmetry_Int_Tables_number   1
_chemical_formula_structural   NdLu7(Si3Pd)4
_chemical_formula_sum   'Nd1 Lu7 Si12 Pd4'
_cell_volume   464.77567493
_cell_formula_units_Z   1
loop_
 _symmetry_equiv_pos_site_id
 _symmetry_equiv_pos_as_xyz
  1  'x, y, z'
loop_
 _atom_site_type_symbol
 _atom_site_label
 _atom_site_symmetry_multiplicity
 _atom_site_fract_x
 _atom_site_fract_y
 _atom_site_fract_z
 _atom_site_occupancy
  Nd  Nd0  1  0.000064  0.000032  0.250000  1
  Lu  Lu1  1  0.498875  0.501175  0.750000  1
  Lu  Lu2  1  0.501395  0.498601  0.250000  1
  Lu  Lu3  1  0.002334  0.501169  0.750000  1
  Lu  Lu4  1  0.997244  0.498622  0.250000  1
  Lu  Lu5  1  0.498871  0.997700  0.750000  1
  Lu  Lu6  1  0.501395  0.002790  0.250000  1
  Lu  Lu7  1  0.000049  0.000024  0.750000  1
  Si  Si8  1  0.833760  0.166047  0.994759  1
  Si  Si9  1  0.166175  0.833925  0.995008  1
  Si  Si10  1  0.332176  0.166087  0.994904  1
  Si  Si11  1  0.166175  0.833925  0.504992  1
  Si  Si12  1  0.667806  0.833903  0.994862  1
  Si  Si13  1  0.833760  0.166047  0.505241  1
  Si  Si14  1  0.833760  0.667713  0.994759  1
  Si  Si15  1  0.667806  0.833903  0.505138  1
  Si  Si16  1  0.166176  0.332252  0.995008  1
  Si  Si17  1  0.332176  0.166087  0.505096  1
  Si  Si18  1  0.166176  0.332252  0.504992  1
  Si  Si19  1  0.833760  0.667713  0.505241  1
  Pd  Pd20  1  0.666683  0.333343  0.997384  1
  Pd  Pd21  1  0.333351  0.666674  0.004434  1
  Pd  Pd22  1  0.333351  0.666674  0.495566  1
  Pd  Pd23  1  0.666683  0.333343  0.502616  1
