# generated using pymatgen
data_Ho3SnPt(RhPb)2
_symmetry_space_group_name_H-M   'P 1'
_cell_length_a   7.67117712
_cell_length_b   7.70701593
_cell_length_c   3.85629400
_cell_angle_alpha   90.00000000
_cell_angle_beta   90.00000000
_cell_angle_gamma   119.71412819
_symmetry_Int_Tables_number   1
_chemical_formula_structural   Ho3SnPt(RhPb)2
_chemical_formula_sum   'Ho3 Sn1 Pt1 Rh2 Pb2'
_cell_volume   198.01262689
_cell_formula_units_Z   1
loop_
 _symmetry_equiv_pos_site_id
 _symmetry_equiv_pos_as_xyz
  1  'x, y, z'
loop_
 _atom_site_type_symbol
 _atom_site_label
 _atom_site_symmetry_multiplicity
 _atom_site_fract_x
 _atom_site_fract_y
 _atom_site_fract_z
 _atom_site_occupancy
  Ho  Ho0  1  0.998928  0.402019  0.000000  1
  Ho  Ho1  1  0.592860  0.602077  0.000000  1
  Ho  Ho2  1  0.405651  0.995473  0.000000  1
  Sn  Sn3  1  0.735974  0.996038  0.500000  1
  Pt  Pt4  1  0.669503  0.325705  0.500000  1
  Rh  Rh5  1  0.344065  0.674653  0.500000  1
  Rh  Rh6  1  0.988603  0.000321  0.000000  1
  Pb  Pb7  1  0.261400  0.265281  0.500000  1
  Pb  Pb8  1  0.003015  0.738433  0.500000  1
