# generated using pymatgen
data_Ho4ErIn4
_symmetry_space_group_name_H-M   'P 1'
_cell_length_a   9.24209400
_cell_length_b   9.24209384
_cell_length_c   6.66356000
_cell_angle_alpha   90.00000000
_cell_angle_beta   90.00000000
_cell_angle_gamma   120.00000058
_symmetry_Int_Tables_number   1
_chemical_formula_structural   Ho4ErIn4
_chemical_formula_sum   'Ho8 Er2 In8'
_cell_volume   492.92142660
_cell_formula_units_Z   2
loop_
 _symmetry_equiv_pos_site_id
 _symmetry_equiv_pos_as_xyz
  1  'x, y, z'
loop_
 _atom_site_type_symbol
 _atom_site_label
 _atom_site_symmetry_multiplicity
 _atom_site_fract_x
 _atom_site_fract_y
 _atom_site_fract_z
 _atom_site_occupancy
  Ho  Ho0  1  0.333333  0.666667  0.500000  1
  Ho  Ho1  1  0.666667  0.333333  0.500000  1
  Ho  Ho2  1  0.288815  0.000000  0.750433  1
  Ho  Ho3  1  0.711185  0.000000  0.249567  1
  Ho  Ho4  1  0.000000  0.288815  0.750433  1
  Ho  Ho5  1  0.000000  0.711185  0.249567  1
  Ho  Ho6  1  0.711185  0.711185  0.750433  1
  Ho  Ho7  1  0.288815  0.288815  0.249567  1
  Er  Er8  1  0.666667  0.333333  0.000000  1
  Er  Er9  1  0.333333  0.666667  0.000000  1
  In  In10  1  0.000000  0.000000  0.500000  1
  In  In11  1  0.000000  0.000000  0.000000  1
  In  In12  1  0.627151  0.000000  0.750712  1
  In  In13  1  0.372849  0.000000  0.249288  1
  In  In14  1  0.000000  0.627151  0.750712  1
  In  In15  1  0.000000  0.372849  0.249288  1
  In  In16  1  0.372849  0.372849  0.750712  1
  In  In17  1  0.627151  0.627151  0.249288  1
