# generated using pymatgen
data_Zr4Zn5Re3
_symmetry_space_group_name_H-M   'P 1'
_cell_length_a   5.25612600
_cell_length_b   5.25612544
_cell_length_c   8.63914300
_cell_angle_alpha   90.00000000
_cell_angle_beta   90.00000000
_cell_angle_gamma   120.00000350
_symmetry_Int_Tables_number   1
_chemical_formula_structural   Zr4Zn5Re3
_chemical_formula_sum   'Zr4 Zn5 Re3'
_cell_volume   206.69633136
_cell_formula_units_Z   1
loop_
 _symmetry_equiv_pos_site_id
 _symmetry_equiv_pos_as_xyz
  1  'x, y, z'
loop_
 _atom_site_type_symbol
 _atom_site_label
 _atom_site_symmetry_multiplicity
 _atom_site_fract_x
 _atom_site_fract_y
 _atom_site_fract_z
 _atom_site_occupancy
  Zr  Zr0  1  0.333333  0.666667  0.429815  1
  Zr  Zr1  1  0.666667  0.333333  0.557364  1
  Zr  Zr2  1  0.666667  0.333333  0.942636  1
  Zr  Zr3  1  0.333333  0.666667  0.070185  1
  Zn  Zn4  1  0.000000  0.000000  0.509113  1
  Zn  Zn5  1  0.000000  0.000000  0.990887  1
  Zn  Zn6  1  0.172417  0.827583  0.750000  1
  Zn  Zn7  1  0.172417  0.344833  0.750000  1
  Zn  Zn8  1  0.655167  0.827583  0.750000  1
  Re  Re9  1  0.830958  0.169042  0.250000  1
  Re  Re10  1  0.830958  0.661916  0.250000  1
  Re  Re11  1  0.338084  0.169042  0.250000  1
