# generated using pymatgen
data_LaNdAsPt8
_symmetry_space_group_name_H-M   'P 1'
_cell_length_a   9.29546910
_cell_length_b   9.30717218
_cell_length_c   4.33552200
_cell_angle_alpha   90.00000000
_cell_angle_beta   90.00000000
_cell_angle_gamma   145.44359448
_symmetry_Int_Tables_number   1
_chemical_formula_structural   LaNdAsPt8
_chemical_formula_sum   'La1 Nd1 As1 Pt8'
_cell_volume   212.75506584
_cell_formula_units_Z   1
loop_
 _symmetry_equiv_pos_site_id
 _symmetry_equiv_pos_as_xyz
  1  'x, y, z'
loop_
 _atom_site_type_symbol
 _atom_site_label
 _atom_site_symmetry_multiplicity
 _atom_site_fract_x
 _atom_site_fract_y
 _atom_site_fract_z
 _atom_site_occupancy
  La  La0  1  0.625543  0.376487  0.500000  1
  Nd  Nd1  1  0.375445  0.626024  0.500000  1
  As  As2  1  0.230641  0.229867  0.000000  1
  Pt  Pt3  1  0.103238  0.876036  0.000000  1
  Pt  Pt4  1  0.879913  0.106462  0.000000  1
  Pt  Pt5  1  0.488721  0.983503  0.000000  1
  Pt  Pt6  1  0.986595  0.488299  0.000000  1
  Pt  Pt7  1  0.196426  0.789858  0.500000  1
  Pt  Pt8  1  0.790779  0.195400  0.500000  1
  Pt  Pt9  1  0.987008  0.987996  0.500000  1
  Pt  Pt10  1  0.649291  0.653667  0.000000  1
