# generated using pymatgen
data_CsHoP2O7
_symmetry_space_group_name_H-M   'P 1'
_cell_length_a   5.63510349
_cell_length_b   5.63510300
_cell_length_c   12.61981900
_cell_angle_alpha   90.00000000
_cell_angle_beta   90.00000000
_cell_angle_gamma   117.54606984
_symmetry_Int_Tables_number   1
_chemical_formula_structural   CsHoP2O7
_chemical_formula_sum   'Cs2 Ho2 P4 O14'
_cell_volume   355.30706451
_cell_formula_units_Z   2
loop_
 _symmetry_equiv_pos_site_id
 _symmetry_equiv_pos_as_xyz
  1  'x, y, z'
loop_
 _atom_site_type_symbol
 _atom_site_label
 _atom_site_symmetry_multiplicity
 _atom_site_fract_x
 _atom_site_fract_y
 _atom_site_fract_z
 _atom_site_occupancy
  Cs  Cs0  1  0.691953  0.308047  0.250000  1
  Cs  Cs1  1  0.308047  0.691953  0.750000  1
  Ho  Ho2  1  0.000000  0.000000  0.000000  1
  Ho  Ho3  1  0.000000  0.000000  0.500000  1
  P  P4  1  0.350598  0.649402  0.372885  1
  P  P5  1  0.649402  0.350598  0.627115  1
  P  P6  1  0.350598  0.649402  0.127115  1
  P  P7  1  0.649402  0.350598  0.872885  1
  O  O8  1  0.344973  0.217884  0.613894  1
  O  O9  1  0.784730  0.215270  0.564911  1
  O  O10  1  0.655027  0.782116  0.386106  1
  O  O11  1  0.655027  0.782116  0.113894  1
  O  O12  1  0.215270  0.784730  0.435089  1
  O  O13  1  0.782116  0.655027  0.886106  1
  O  O14  1  0.215270  0.784730  0.064911  1
  O  O15  1  0.784730  0.215270  0.935089  1
  O  O16  1  0.782116  0.655027  0.613894  1
  O  O17  1  0.704919  0.295081  0.750000  1
  O  O18  1  0.217884  0.344973  0.386106  1
  O  O19  1  0.217884  0.344973  0.113894  1
  O  O20  1  0.295081  0.704919  0.250000  1
  O  O21  1  0.344973  0.217884  0.886106  1
