# generated using pymatgen
data_Sm3Ni6Sb5
_symmetry_space_group_name_H-M   'P 1'
_cell_length_a   4.26219700
_cell_length_b   9.88564700
_cell_length_c   12.80282400
_cell_angle_alpha   90.00000000
_cell_angle_beta   90.00000000
_cell_angle_gamma   90.00000000
_symmetry_Int_Tables_number   1
_chemical_formula_structural   Sm3Ni6Sb5
_chemical_formula_sum   'Sm6 Ni12 Sb10'
_cell_volume   539.44154787
_cell_formula_units_Z   2
loop_
 _symmetry_equiv_pos_site_id
 _symmetry_equiv_pos_as_xyz
  1  'x, y, z'
loop_
 _atom_site_type_symbol
 _atom_site_label
 _atom_site_symmetry_multiplicity
 _atom_site_fract_x
 _atom_site_fract_y
 _atom_site_fract_z
 _atom_site_occupancy
  Sm  Sm0  1  0.000000  0.244004  0.000000  1
  Sm  Sm1  1  0.500000  0.755996  0.500000  1
  Sm  Sm2  1  0.000000  0.249685  0.327157  1
  Sm  Sm3  1  0.500000  0.750315  0.172843  1
  Sm  Sm4  1  0.000000  0.249685  0.672843  1
  Sm  Sm5  1  0.500000  0.750315  0.827157  1
  Ni  Ni6  1  0.000000  0.996079  0.162315  1
  Ni  Ni7  1  0.500000  0.003921  0.337685  1
  Ni  Ni8  1  0.000000  0.996079  0.837685  1
  Ni  Ni9  1  0.500000  0.003921  0.662315  1
  Ni  Ni10  1  0.500000  0.989393  0.000000  1
  Ni  Ni11  1  0.000000  0.010607  0.500000  1
  Ni  Ni12  1  0.000000  0.613579  0.324445  1
  Ni  Ni13  1  0.500000  0.386421  0.175555  1
  Ni  Ni14  1  0.000000  0.613579  0.675555  1
  Ni  Ni15  1  0.500000  0.386421  0.824445  1
  Ni  Ni16  1  0.500000  0.499509  0.000000  1
  Ni  Ni17  1  0.000000  0.500491  0.500000  1
  Sb  Sb18  1  0.000000  0.516558  0.132966  1
  Sb  Sb19  1  0.500000  0.483442  0.367034  1
  Sb  Sb20  1  0.000000  0.516558  0.867034  1
  Sb  Sb21  1  0.500000  0.483442  0.632966  1
  Sb  Sb22  1  0.000000  0.867357  0.334590  1
  Sb  Sb23  1  0.500000  0.132643  0.165410  1
  Sb  Sb24  1  0.000000  0.867357  0.665410  1
  Sb  Sb25  1  0.500000  0.132643  0.834590  1
  Sb  Sb26  1  0.000000  0.847511  0.000000  1
  Sb  Sb27  1  0.500000  0.152489  0.500000  1
