# generated using pymatgen
data_Be8Cr2ReOs
_symmetry_space_group_name_H-M   'P 1'
_cell_length_a   4.28001400
_cell_length_b   4.28001549
_cell_length_c   7.00734700
_cell_angle_alpha   90.00000000
_cell_angle_beta   90.00000000
_cell_angle_gamma   120.00000391
_symmetry_Int_Tables_number   1
_chemical_formula_structural   Be8Cr2ReOs
_chemical_formula_sum   'Be8 Cr2 Re1 Os1'
_cell_volume   111.16671424
_cell_formula_units_Z   1
loop_
 _symmetry_equiv_pos_site_id
 _symmetry_equiv_pos_as_xyz
  1  'x, y, z'
loop_
 _atom_site_type_symbol
 _atom_site_label
 _atom_site_symmetry_multiplicity
 _atom_site_fract_x
 _atom_site_fract_y
 _atom_site_fract_z
 _atom_site_occupancy
  Be  Be0  1  0.169887  0.339773  0.751308  1
  Be  Be1  1  0.169887  0.830113  0.751308  1
  Be  Be2  1  0.339065  0.169533  0.249031  1
  Be  Be3  1  0.830467  0.660935  0.249031  1
  Be  Be4  1  0.000000  0.000000  0.998960  1
  Be  Be5  1  0.660227  0.830113  0.751308  1
  Be  Be6  1  0.830467  0.169533  0.249031  1
  Be  Be7  1  0.000000  0.000000  0.500989  1
  Cr  Cr8  1  0.333333  0.666667  0.062258  1
  Cr  Cr9  1  0.666667  0.333333  0.559202  1
  Re  Re10  1  0.333333  0.666667  0.439383  1
  Os  Os11  1  0.666667  0.333333  0.938191  1
