# generated using pymatgen
data_Ca8Zr5Al8(SnO12)3
_symmetry_space_group_name_H-M   'P 1'
_cell_length_a   9.17249829
_cell_length_b   5.58882814
_cell_length_c   15.15556950
_cell_angle_alpha   89.99042352
_cell_angle_beta   89.92267959
_cell_angle_gamma   90.02381564
_symmetry_Int_Tables_number   1
_chemical_formula_structural   Ca8Zr5Al8(SnO12)3
_chemical_formula_sum   'Ca8 Zr5 Al8 Sn3 O36'
_cell_volume   776.92700239
_cell_formula_units_Z   1
loop_
 _symmetry_equiv_pos_site_id
 _symmetry_equiv_pos_as_xyz
  1  'x, y, z'
loop_
 _atom_site_type_symbol
 _atom_site_label
 _atom_site_symmetry_multiplicity
 _atom_site_fract_x
 _atom_site_fract_y
 _atom_site_fract_z
 _atom_site_occupancy
  Ca  Ca0  1  0.064301  0.363210  0.144546  1
  Ca  Ca1  1  0.435855  0.863109  0.144517  1
  Ca  Ca2  1  0.934777  0.362811  0.355633  1
  Ca  Ca3  1  0.564774  0.863482  0.355783  1
  Ca  Ca4  1  0.434280  0.137855  0.645979  1
  Ca  Ca5  1  0.067691  0.636549  0.644708  1
  Ca  Ca6  1  0.566441  0.135765  0.853686  1
  Ca  Ca7  1  0.933922  0.637907  0.854803  1
  Zr  Zr8  1  0.652755  0.361392  0.166648  1
  Zr  Zr9  1  0.847401  0.861350  0.166649  1
  Zr  Zr10  1  0.347591  0.360847  0.332807  1
  Zr  Zr11  1  0.152490  0.860555  0.333067  1
  Zr  Zr12  1  0.848945  0.136712  0.670132  1
  Al  Al13  1  0.340897  0.308912  0.027935  1
  Al  Al14  1  0.159821  0.808318  0.027920  1
  Al  Al15  1  0.658442  0.309201  0.472925  1
  Al  Al16  1  0.839794  0.807350  0.472861  1
  Al  Al17  1  0.159267  0.191769  0.527914  1
  Al  Al18  1  0.342667  0.692361  0.528563  1
  Al  Al19  1  0.842499  0.190958  0.970858  1
  Al  Al20  1  0.657148  0.690816  0.970641  1
  Sn  Sn21  1  0.652488  0.636083  0.665289  1
  Sn  Sn22  1  0.157668  0.134680  0.835494  1
  Sn  Sn23  1  0.345630  0.634013  0.833281  1
  O  O24  1  0.510151  0.231342  0.073758  1
  O  O25  1  0.990140  0.731220  0.073704  1
  O  O26  1  0.227057  0.079431  0.071247  1
  O  O27  1  0.273151  0.579141  0.071637  1
  O  O28  1  0.839373  0.192391  0.088642  1
  O  O29  1  0.660806  0.692695  0.088538  1
  O  O30  1  0.663576  0.032649  0.227427  1
  O  O31  1  0.836638  0.532361  0.227271  1
  O  O32  1  0.999857  0.026547  0.249821  1
  O  O33  1  0.500221  0.527156  0.249620  1
  O  O34  1  0.336502  0.032387  0.272100  1
  O  O35  1  0.163627  0.532590  0.272161  1
  O  O36  1  0.161338  0.192814  0.410390  1
  O  O37  1  0.338971  0.692613  0.410809  1
  O  O38  1  0.772391  0.079032  0.429448  1
  O  O39  1  0.726863  0.578365  0.427890  1
  O  O40  1  0.489760  0.231374  0.425699  1
  O  O41  1  0.009434  0.731576  0.426043  1
  O  O42  1  0.989477  0.265306  0.575414  1
  O  O43  1  0.511721  0.776187  0.574376  1
  O  O44  1  0.272587  0.422057  0.571739  1
  O  O45  1  0.227039  0.920974  0.571578  1
  O  O46  1  0.659256  0.314095  0.590809  1
  O  O47  1  0.836746  0.805870  0.590618  1
  O  O48  1  0.831273  0.470506  0.728317  1
  O  O49  1  0.663241  0.963428  0.727109  1
  O  O50  1  0.499346  0.469209  0.749950  1
  O  O51  1  0.001276  0.976933  0.752145  1
  O  O52  1  0.167049  0.465398  0.772607  1
  O  O53  1  0.332545  0.965886  0.772597  1
  O  O54  1  0.338344  0.309104  0.909542  1
  O  O55  1  0.162868  0.808409  0.909740  1
  O  O56  1  0.727767  0.420653  0.927889  1
  O  O57  1  0.772332  0.920921  0.927705  1
  O  O58  1  0.012455  0.272095  0.924550  1
  O  O59  1  0.487277  0.771289  0.924476  1
