# generated using pymatgen
data_Pr4DySi2Pb
_symmetry_space_group_name_H-M   'P 1'
_cell_length_a   7.83692840
_cell_length_b   7.83692918
_cell_length_c   9.35976734
_cell_angle_alpha   114.74938059
_cell_angle_beta   114.74937579
_cell_angle_gamma   89.99999351
_symmetry_Int_Tables_number   1
_chemical_formula_structural   Pr4DySi2Pb
_chemical_formula_sum   'Pr8 Dy2 Si4 Pb2'
_cell_volume   463.27044443
_cell_formula_units_Z   2
loop_
 _symmetry_equiv_pos_site_id
 _symmetry_equiv_pos_as_xyz
  1  'x, y, z'
loop_
 _atom_site_type_symbol
 _atom_site_label
 _atom_site_symmetry_multiplicity
 _atom_site_fract_x
 _atom_site_fract_y
 _atom_site_fract_z
 _atom_site_occupancy
  Pr  Pr0  1  0.962693  0.811438  0.274131  1
  Pr  Pr1  1  0.311438  0.462693  0.274131  1
  Pr  Pr2  1  0.811438  0.311438  0.274131  1
  Pr  Pr3  1  0.462693  0.962693  0.274131  1
  Pr  Pr4  1  0.037307  0.188562  0.725869  1
  Pr  Pr5  1  0.688562  0.537307  0.725869  1
  Pr  Pr6  1  0.188562  0.688562  0.725869  1
  Pr  Pr7  1  0.537307  0.037307  0.725869  1
  Dy  Dy8  1  0.500000  0.500000  0.000000  1
  Dy  Dy9  1  0.000000  0.000000  0.000000  1
  Si  Si10  1  0.620859  0.879141  0.000000  1
  Si  Si11  1  0.379141  0.120859  0.000000  1
  Si  Si12  1  0.879141  0.379141  0.000000  1
  Si  Si13  1  0.120859  0.620859  0.000000  1
  Pb  Pb14  1  0.750000  0.750000  0.500000  1
  Pb  Pb15  1  0.250000  0.250000  0.500000  1
