# generated using pymatgen
data_Nd15Ho5Si15Os
_symmetry_space_group_name_H-M   'P 1'
_cell_length_a   7.59386243
_cell_length_b   7.94086307
_cell_length_c   14.97618193
_cell_angle_alpha   89.96956192
_cell_angle_beta   89.88653952
_cell_angle_gamma   90.19736744
_symmetry_Int_Tables_number   1
_chemical_formula_structural   Nd15Ho5Si15Os
_chemical_formula_sum   'Nd15 Ho5 Si15 Os1'
_cell_volume   903.08379378
_cell_formula_units_Z   1
loop_
 _symmetry_equiv_pos_site_id
 _symmetry_equiv_pos_as_xyz
  1  'x, y, z'
loop_
 _atom_site_type_symbol
 _atom_site_label
 _atom_site_symmetry_multiplicity
 _atom_site_fract_x
 _atom_site_fract_y
 _atom_site_fract_z
 _atom_site_occupancy
  Nd  Nd0  1  0.465068  0.687100  0.899592  1
  Nd  Nd1  1  0.965066  0.815669  0.900893  1
  Nd  Nd2  1  0.198214  0.674842  0.127357  1
  Nd  Nd3  1  0.681896  0.814564  0.124512  1
  Nd  Nd4  1  0.309893  0.179725  0.876012  1
  Nd  Nd5  1  0.197001  0.674125  0.374459  1
  Nd  Nd6  1  0.034574  0.184817  0.098462  1
  Nd  Nd7  1  0.311275  0.180805  0.623157  1
  Nd  Nd8  1  0.530217  0.323216  0.400997  1
  Nd  Nd9  1  0.809930  0.322397  0.877156  1
  Nd  Nd10  1  0.965604  0.815847  0.598114  1
  Nd  Nd11  1  0.466454  0.687694  0.599048  1
  Nd  Nd12  1  0.032606  0.184134  0.402570  1
  Nd  Nd13  1  0.682081  0.814769  0.375913  1
  Nd  Nd14  1  0.529627  0.323432  0.099568  1
  Ho  Ho15  1  0.142408  0.517470  0.749566  1
  Ho  Ho16  1  0.810282  0.324087  0.623251  1
  Ho  Ho17  1  0.846315  0.485808  0.250100  1
  Ho  Ho18  1  0.363242  0.015759  0.250222  1
  Ho  Ho19  1  0.639334  0.985838  0.749497  1
  Si  Si20  1  0.243924  0.364393  0.250369  1
  Si  Si21  1  0.862281  0.521324  0.461130  1
  Si  Si22  1  0.517986  0.403419  0.747518  1
  Si  Si23  1  0.635776  0.024720  0.957541  1
  Si  Si24  1  0.006077  0.102794  0.747419  1
  Si  Si25  1  0.759962  0.625023  0.747847  1
  Si  Si26  1  0.749976  0.123701  0.250264  1
  Si  Si27  1  0.361358  0.977228  0.459242  1
  Si  Si28  1  0.988840  0.904735  0.250357  1
  Si  Si29  1  0.359236  0.976314  0.041086  1
  Si  Si30  1  0.641271  0.029616  0.542951  1
  Si  Si31  1  0.141570  0.474858  0.959305  1
  Si  Si32  1  0.135743  0.472377  0.542566  1
  Si  Si33  1  0.867615  0.524335  0.042050  1
  Si  Si34  1  0.255771  0.871790  0.749331  1
  Os  Os35  1  0.491524  0.591274  0.250581  1
