# generated using pymatgen
data_Tm4MnCo2Ru5
_symmetry_space_group_name_H-M   'P 1'
_cell_length_a   5.13607800
_cell_length_b   5.25343253
_cell_length_c   8.81158700
_cell_angle_alpha   90.00000000
_cell_angle_beta   90.00000000
_cell_angle_gamma   121.02113927
_symmetry_Int_Tables_number   1
_chemical_formula_structural   Tm4MnCo2Ru5
_chemical_formula_sum   'Tm4 Mn1 Co2 Ru5'
_cell_volume   203.75026411
_cell_formula_units_Z   1
loop_
 _symmetry_equiv_pos_site_id
 _symmetry_equiv_pos_as_xyz
  1  'x, y, z'
loop_
 _atom_site_type_symbol
 _atom_site_label
 _atom_site_symmetry_multiplicity
 _atom_site_fract_x
 _atom_site_fract_y
 _atom_site_fract_z
 _atom_site_occupancy
  Tm  Tm0  1  0.333813  0.666750  0.433115  1
  Tm  Tm1  1  0.664974  0.331569  0.565893  1
  Tm  Tm2  1  0.664974  0.331569  0.934107  1
  Tm  Tm3  1  0.333813  0.666750  0.066885  1
  Mn  Mn4  1  0.665535  0.829605  0.750000  1
  Co  Co5  1  0.830502  0.167086  0.250000  1
  Co  Co6  1  0.169626  0.832261  0.750000  1
  Ru  Ru7  1  0.996317  0.997420  0.503512  1
  Ru  Ru8  1  0.996317  0.997420  0.996488  1
  Ru  Ru9  1  0.824227  0.653845  0.250000  1
  Ru  Ru10  1  0.338001  0.169391  0.250000  1
  Ru  Ru11  1  0.181904  0.356329  0.750000  1
