# generated using pymatgen
data_Al12Co7Si4Ni
_symmetry_space_group_name_H-M   'P 1'
_cell_length_a   7.58303287
_cell_length_b   7.58303307
_cell_length_c   7.58303243
_cell_angle_alpha   60.13045095
_cell_angle_beta   60.13044937
_cell_angle_gamma   60.13045145
_symmetry_Int_Tables_number   1
_chemical_formula_structural   Al12Co7Si4Ni
_chemical_formula_sum   'Al12 Co7 Si4 Ni1'
_cell_volume   309.23976762
_cell_formula_units_Z   1
loop_
 _symmetry_equiv_pos_site_id
 _symmetry_equiv_pos_as_xyz
  1  'x, y, z'
loop_
 _atom_site_type_symbol
 _atom_site_label
 _atom_site_symmetry_multiplicity
 _atom_site_fract_x
 _atom_site_fract_y
 _atom_site_fract_z
 _atom_site_occupancy
  Al  Al0  1  0.801094  0.801094  0.200994  1
  Al  Al1  1  0.197624  0.197624  0.801183  1
  Al  Al2  1  0.801094  0.200994  0.801094  1
  Al  Al3  1  0.197624  0.801183  0.197624  1
  Al  Al4  1  0.200994  0.801094  0.801094  1
  Al  Al5  1  0.801183  0.197624  0.197624  1
  Al  Al6  1  0.449671  0.449671  0.049646  1
  Al  Al7  1  0.052039  0.052039  0.446095  1
  Al  Al8  1  0.449671  0.049646  0.449671  1
  Al  Al9  1  0.052039  0.446095  0.052039  1
  Al  Al10  1  0.049646  0.449671  0.449671  1
  Al  Al11  1  0.446095  0.052039  0.052039  1
  Co  Co12  1  0.775703  0.408535  0.408535  1
  Co  Co13  1  0.408535  0.775703  0.408535  1
  Co  Co14  1  0.408535  0.408535  0.775703  1
  Co  Co15  1  0.407165  0.407165  0.407165  1
  Co  Co16  1  0.475595  0.842957  0.842957  1
  Co  Co17  1  0.842957  0.475595  0.842957  1
  Co  Co18  1  0.842957  0.842957  0.475595  1
  Si  Si19  1  0.128093  0.622384  0.622384  1
  Si  Si20  1  0.622384  0.128093  0.622384  1
  Si  Si21  1  0.622384  0.622384  0.128093  1
  Si  Si22  1  0.626067  0.626067  0.626067  1
  Ni  Ni23  1  0.840847  0.840847  0.840847  1
