# generated using pymatgen
data_Nd5Th5(Pb3C)2
_symmetry_space_group_name_H-M   'P 1'
_cell_length_a   9.46305000
_cell_length_b   9.51424979
_cell_length_c   6.53333900
_cell_angle_alpha   90.00000000
_cell_angle_beta   90.00000000
_cell_angle_gamma   120.17913069
_symmetry_Int_Tables_number   1
_chemical_formula_structural   Nd5Th5(Pb3C)2
_chemical_formula_sum   'Nd5 Th5 Pb6 C2'
_cell_volume   508.49274038
_cell_formula_units_Z   1
loop_
 _symmetry_equiv_pos_site_id
 _symmetry_equiv_pos_as_xyz
  1  'x, y, z'
loop_
 _atom_site_type_symbol
 _atom_site_label
 _atom_site_symmetry_multiplicity
 _atom_site_fract_x
 _atom_site_fract_y
 _atom_site_fract_z
 _atom_site_occupancy
  Nd  Nd0  1  0.665396  0.331272  0.999816  1
  Nd  Nd1  1  0.334604  0.665877  0.999816  1
  Nd  Nd2  1  0.334604  0.665877  0.500184  1
  Nd  Nd3  1  0.665396  0.331272  0.500184  1
  Nd  Nd4  1  0.000000  0.776105  0.250000  1
  Th  Th5  1  0.784888  0.785838  0.750000  1
  Th  Th6  1  0.215112  0.000950  0.750000  1
  Th  Th7  1  0.000000  0.218808  0.750000  1
  Th  Th8  1  0.215197  0.213657  0.250000  1
  Th  Th9  1  0.784803  0.998462  0.250000  1
  Pb  Pb10  1  0.402340  0.401708  0.750000  1
  Pb  Pb11  1  0.597660  0.999368  0.750000  1
  Pb  Pb12  1  0.000000  0.601001  0.750000  1
  Pb  Pb13  1  0.601124  0.598780  0.250000  1
  Pb  Pb14  1  0.398876  0.997656  0.250000  1
  Pb  Pb15  1  0.000000  0.399475  0.250000  1
  C  C16  1  0.000000  0.006946  0.995902  1
  C  C17  1  0.000000  0.006946  0.504098  1
