# generated using pymatgen
data_Tb4Fe16Mo3P12W
_symmetry_space_group_name_H-M   'P 1'
_cell_length_a   3.71823600
_cell_length_b   10.43159701
_cell_length_c   12.04808615
_cell_angle_alpha   89.81228144
_cell_angle_beta   90.00000000
_cell_angle_gamma   90.00000000
_symmetry_Int_Tables_number   1
_chemical_formula_structural   Tb4Fe16Mo3P12W
_chemical_formula_sum   'Tb4 Fe16 Mo3 P12 W1'
_cell_volume   467.30829062
_cell_formula_units_Z   1
loop_
 _symmetry_equiv_pos_site_id
 _symmetry_equiv_pos_as_xyz
  1  'x, y, z'
loop_
 _atom_site_type_symbol
 _atom_site_label
 _atom_site_symmetry_multiplicity
 _atom_site_fract_x
 _atom_site_fract_y
 _atom_site_fract_z
 _atom_site_occupancy
  Tb  Tb0  1  0.250000  0.583546  0.708640  1
  Tb  Tb1  1  0.250000  0.916773  0.208692  1
  Tb  Tb2  1  0.750000  0.416943  0.291081  1
  Tb  Tb3  1  0.750000  0.083192  0.791399  1
  Fe  Fe4  1  0.250000  0.411137  0.493072  1
  Fe  Fe5  1  0.250000  0.089213  0.992890  1
  Fe  Fe6  1  0.750000  0.588997  0.506993  1
  Fe  Fe7  1  0.750000  0.909572  0.007360  1
  Fe  Fe8  1  0.250000  0.216772  0.176859  1
  Fe  Fe9  1  0.250000  0.282944  0.676877  1
  Fe  Fe10  1  0.750000  0.782320  0.824040  1
  Fe  Fe11  1  0.750000  0.717150  0.323216  1
  Fe  Fe12  1  0.250000  0.877723  0.700323  1
  Fe  Fe13  1  0.250000  0.622334  0.199833  1
  Fe  Fe14  1  0.750000  0.122557  0.299456  1
  Fe  Fe15  1  0.750000  0.377672  0.799891  1
  Fe  Fe16  1  0.250000  0.464042  0.933509  1
  Fe  Fe17  1  0.250000  0.036342  0.433402  1
  Fe  Fe18  1  0.750000  0.536820  0.066108  1
  Fe  Fe19  1  0.750000  0.963902  0.566381  1
  Mo  Mo20  1  0.250000  0.793455  0.488483  1
  Mo  Mo21  1  0.750000  0.293705  0.011667  1
  Mo  Mo22  1  0.750000  0.206577  0.511583  1
  P  P23  1  0.250000  0.424549  0.112828  1
  P  P24  1  0.250000  0.075075  0.612760  1
  P  P25  1  0.750000  0.575017  0.886734  1
  P  P26  1  0.750000  0.924822  0.387201  1
  P  P27  1  0.250000  0.267897  0.866059  1
  P  P28  1  0.250000  0.232141  0.365903  1
  P  P29  1  0.750000  0.732247  0.134375  1
  P  P30  1  0.750000  0.768515  0.634697  1
  P  P31  1  0.250000  0.596096  0.387015  1
  P  P32  1  0.250000  0.905026  0.887241  1
  P  P33  1  0.750000  0.403982  0.612853  1
  P  P34  1  0.750000  0.095313  0.111956  1
  W  W35  1  0.250000  0.705634  0.988621  1
