# generated using pymatgen
data_Co2NiP2Ru
_symmetry_space_group_name_H-M   'P 1'
_cell_length_a   3.60336400
_cell_length_b   5.65640300
_cell_length_c   6.66748400
_cell_angle_alpha   90.00000000
_cell_angle_beta   90.00000000
_cell_angle_gamma   90.00000000
_symmetry_Int_Tables_number   1
_chemical_formula_structural   Co2NiP2Ru
_chemical_formula_sum   'Co4 Ni2 P4 Ru2'
_cell_volume   135.89718522
_cell_formula_units_Z   2
loop_
 _symmetry_equiv_pos_site_id
 _symmetry_equiv_pos_as_xyz
  1  'x, y, z'
loop_
 _atom_site_type_symbol
 _atom_site_label
 _atom_site_symmetry_multiplicity
 _atom_site_fract_x
 _atom_site_fract_y
 _atom_site_fract_z
 _atom_site_occupancy
  Co  Co0  1  0.250000  0.144605  0.571459  1
  Co  Co1  1  0.250000  0.644605  0.928541  1
  Co  Co2  1  0.750000  0.858248  0.440317  1
  Co  Co3  1  0.750000  0.358248  0.059683  1
  Ni  Ni4  1  0.750000  0.965732  0.835146  1
  Ni  Ni5  1  0.750000  0.465732  0.664854  1
  P  P6  1  0.250000  0.760797  0.623153  1
  P  P7  1  0.250000  0.260797  0.876847  1
  P  P8  1  0.750000  0.240518  0.380442  1
  P  P9  1  0.750000  0.740518  0.119558  1
  Ru  Ru10  1  0.250000  0.030099  0.172291  1
  Ru  Ru11  1  0.250000  0.530099  0.327709  1
