# generated using pymatgen
data_Yb9Pr8Ho3Sn16
_symmetry_space_group_name_H-M   'P 1'
_cell_length_a   7.98276084
_cell_length_b   8.47156093
_cell_length_c   15.96920982
_cell_angle_alpha   89.94418834
_cell_angle_beta   89.90187061
_cell_angle_gamma   89.95708539
_symmetry_Int_Tables_number   1
_chemical_formula_structural   Yb9Pr8Ho3Sn16
_chemical_formula_sum   'Yb9 Pr8 Ho3 Sn16'
_cell_volume   1079.93848949
_cell_formula_units_Z   1
loop_
 _symmetry_equiv_pos_site_id
 _symmetry_equiv_pos_as_xyz
  1  'x, y, z'
loop_
 _atom_site_type_symbol
 _atom_site_label
 _atom_site_symmetry_multiplicity
 _atom_site_fract_x
 _atom_site_fract_y
 _atom_site_fract_z
 _atom_site_occupancy
  Yb  Yb0  1  0.329208  0.830395  0.877009  1
  Yb  Yb1  1  0.829111  0.669923  0.623072  1
  Yb  Yb2  1  0.670304  0.170731  0.377274  1
  Yb  Yb3  1  0.171018  0.330273  0.123499  1
  Yb  Yb4  1  0.669901  0.169821  0.123124  1
  Yb  Yb5  1  0.160869  0.502379  0.749673  1
  Yb  Yb6  1  0.660589  0.997614  0.750402  1
  Yb  Yb7  1  0.838925  0.495768  0.248491  1
  Yb  Yb8  1  0.341940  0.002915  0.249660  1
  Pr  Pr9  1  0.491676  0.315030  0.904781  1
  Pr  Pr10  1  0.991259  0.184222  0.596017  1
  Pr  Pr11  1  0.509147  0.684447  0.404626  1
  Pr  Pr12  1  0.008835  0.815594  0.096387  1
  Pr  Pr13  1  0.508042  0.685444  0.095955  1
  Pr  Pr14  1  0.006256  0.815820  0.403914  1
  Pr  Pr15  1  0.492276  0.316028  0.595747  1
  Pr  Pr16  1  0.991991  0.183965  0.903916  1
  Ho  Ho17  1  0.167634  0.327839  0.375643  1
  Ho  Ho18  1  0.330423  0.828796  0.623920  1
  Ho  Ho19  1  0.830228  0.670627  0.875616  1
  Sn  Sn20  1  0.330169  0.036957  0.039654  1
  Sn  Sn21  1  0.832983  0.462365  0.459617  1
  Sn  Sn22  1  0.666751  0.962685  0.540512  1
  Sn  Sn23  1  0.166657  0.537789  0.959428  1
  Sn  Sn24  1  0.672399  0.960535  0.960057  1
  Sn  Sn25  1  0.174568  0.538760  0.537549  1
  Sn  Sn26  1  0.324863  0.038257  0.461736  1
  Sn  Sn27  1  0.829196  0.464925  0.037730  1
  Sn  Sn28  1  0.531363  0.611889  0.751939  1
  Sn  Sn29  1  0.031166  0.889659  0.748731  1
  Sn  Sn30  1  0.467223  0.392890  0.252457  1
  Sn  Sn31  1  0.970545  0.108315  0.250122  1
  Sn  Sn32  1  0.287578  0.138702  0.748870  1
  Sn  Sn33  1  0.786720  0.361313  0.750915  1
  Sn  Sn34  1  0.715511  0.859182  0.250355  1
  Sn  Sn35  1  0.212677  0.638147  0.251602  1
