# generated using pymatgen
data_Y5Tm3(Ga5Ir9)2
_symmetry_space_group_name_H-M   'P 1'
_cell_length_a   5.56702700
_cell_length_b   5.56702642
_cell_length_c   23.63025400
_cell_angle_alpha   90.00000000
_cell_angle_beta   90.00000000
_cell_angle_gamma   119.99998563
_symmetry_Int_Tables_number   1
_chemical_formula_structural   Y5Tm3(Ga5Ir9)2
_chemical_formula_sum   'Y5 Tm3 Ga10 Ir18'
_cell_volume   634.22841317
_cell_formula_units_Z   1
loop_
 _symmetry_equiv_pos_site_id
 _symmetry_equiv_pos_as_xyz
  1  'x, y, z'
loop_
 _atom_site_type_symbol
 _atom_site_label
 _atom_site_symmetry_multiplicity
 _atom_site_fract_x
 _atom_site_fract_y
 _atom_site_fract_z
 _atom_site_occupancy
  Y  Y0  1  0.333333  0.666667  0.970442  1
  Y  Y1  1  0.333333  0.666667  0.677526  1
  Y  Y2  1  0.666667  0.333333  0.322409  1
  Y  Y3  1  0.666667  0.333333  0.177610  1
  Y  Y4  1  0.333333  0.666667  0.821982  1
  Tm  Tm5  1  0.333333  0.666667  0.529483  1
  Tm  Tm6  1  0.666667  0.333333  0.470431  1
  Tm  Tm7  1  0.666667  0.333333  0.029864  1
  Ga  Ga8  1  0.000000  0.000000  0.000029  1
  Ga  Ga9  1  0.000000  0.000000  0.499975  1
  Ga  Ga10  1  0.333333  0.666667  0.167952  1
  Ga  Ga11  1  0.666667  0.333333  0.831986  1
  Ga  Ga12  1  0.666667  0.333333  0.667793  1
  Ga  Ga13  1  0.333333  0.666667  0.332214  1
  Ga  Ga14  1  0.000000  0.000000  0.165041  1
  Ga  Ga15  1  0.000000  0.000000  0.835098  1
  Ga  Ga16  1  0.000000  0.000000  0.664641  1
  Ga  Ga17  1  0.000000  0.000000  0.335352  1
  Ir  Ir18  1  0.170657  0.341312  0.083103  1
  Ir  Ir19  1  0.829026  0.658053  0.916975  1
  Ir  Ir20  1  0.658688  0.829343  0.083103  1
  Ir  Ir21  1  0.828961  0.657923  0.582591  1
  Ir  Ir22  1  0.341947  0.170974  0.916975  1
  Ir  Ir23  1  0.171048  0.342095  0.417401  1
  Ir  Ir24  1  0.170657  0.829343  0.083103  1
  Ir  Ir25  1  0.342077  0.171039  0.582591  1
  Ir  Ir26  1  0.829026  0.170974  0.916975  1
  Ir  Ir27  1  0.657905  0.828952  0.417401  1
  Ir  Ir28  1  0.828961  0.171039  0.582591  1
  Ir  Ir29  1  0.171048  0.828952  0.417401  1
  Ir  Ir30  1  0.165098  0.330193  0.250096  1
  Ir  Ir31  1  0.834981  0.669963  0.749892  1
  Ir  Ir32  1  0.669807  0.834902  0.250096  1
  Ir  Ir33  1  0.330037  0.165019  0.749892  1
  Ir  Ir34  1  0.165098  0.834902  0.250096  1
  Ir  Ir35  1  0.834981  0.165019  0.749892  1
