# generated using pymatgen
data_Ta2Nb2InC3
_symmetry_space_group_name_H-M   'P 1'
_cell_length_a   3.17502300
_cell_length_b   3.17502362
_cell_length_c   24.97795500
_cell_angle_alpha   90.00000000
_cell_angle_beta   90.00000000
_cell_angle_gamma   120.00000398
_symmetry_Int_Tables_number   1
_chemical_formula_structural   Ta2Nb2InC3
_chemical_formula_sum   'Ta4 Nb4 In2 C6'
_cell_volume   218.06267180
_cell_formula_units_Z   2
loop_
 _symmetry_equiv_pos_site_id
 _symmetry_equiv_pos_as_xyz
  1  'x, y, z'
loop_
 _atom_site_type_symbol
 _atom_site_label
 _atom_site_symmetry_multiplicity
 _atom_site_fract_x
 _atom_site_fract_y
 _atom_site_fract_z
 _atom_site_occupancy
  Ta  Ta0  1  0.333333  0.666667  0.446502  1
  Ta  Ta1  1  0.666667  0.333333  0.946502  1
  Ta  Ta2  1  0.666667  0.333333  0.553498  1
  Ta  Ta3  1  0.333333  0.666667  0.053498  1
  Nb  Nb4  1  0.000000  0.000000  0.348137  1
  Nb  Nb5  1  0.000000  0.000000  0.848137  1
  Nb  Nb6  1  0.000000  0.000000  0.651863  1
  Nb  Nb7  1  0.000000  0.000000  0.151863  1
  In  In8  1  0.666667  0.333333  0.750000  1
  In  In9  1  0.333333  0.666667  0.250000  1
  C  C10  1  0.666667  0.333333  0.395861  1
  C  C11  1  0.333333  0.666667  0.895861  1
  C  C12  1  0.333333  0.666667  0.604139  1
  C  C13  1  0.000000  0.000000  0.000000  1
  C  C14  1  0.666667  0.333333  0.104139  1
  C  C15  1  0.000000  0.000000  0.500000  1
