# generated using pymatgen
data_Sr3EuGa4(SiO7)2
_symmetry_space_group_name_H-M   'P 1'
_cell_length_a   5.39562503
_cell_length_b   8.08406682
_cell_length_c   8.07371567
_cell_angle_alpha   89.84268577
_cell_angle_beta   90.11522001
_cell_angle_gamma   90.17358305
_symmetry_Int_Tables_number   1
_chemical_formula_structural   Sr3EuGa4(SiO7)2
_chemical_formula_sum   'Sr3 Eu1 Ga4 Si2 O14'
_cell_volume   352.16046992
_cell_formula_units_Z   1
loop_
 _symmetry_equiv_pos_site_id
 _symmetry_equiv_pos_as_xyz
  1  'x, y, z'
loop_
 _atom_site_type_symbol
 _atom_site_label
 _atom_site_symmetry_multiplicity
 _atom_site_fract_x
 _atom_site_fract_y
 _atom_site_fract_z
 _atom_site_occupancy
  Sr  Sr0  1  0.514607  0.827618  0.343067  1
  Sr  Sr1  1  0.485548  0.672432  0.842434  1
  Sr  Sr2  1  0.502458  0.153897  0.666733  1
  Eu  Eu3  1  0.496002  0.347281  0.166195  1
  Ga  Ga4  1  0.000786  0.496226  0.500558  1
  Ga  Ga5  1  0.999517  0.003864  0.000438  1
  Ga  Ga6  1  0.972042  0.641549  0.141896  1
  Ga  Ga7  1  0.027998  0.857921  0.641666  1
  Si  Si8  1  0.952962  0.357987  0.859097  1
  Si  Si9  1  0.047177  0.142652  0.357764  1
  O  O10  1  0.172187  0.005190  0.485044  1
  O  O11  1  0.826041  0.494702  0.985863  1
  O  O12  1  0.188487  0.319114  0.413448  1
  O  O13  1  0.812117  0.181478  0.914646  1
  O  O14  1  0.199778  0.664423  0.581428  1
  O  O15  1  0.800965  0.835491  0.081951  1
  O  O16  1  0.795389  0.569843  0.331615  1
  O  O17  1  0.203323  0.928824  0.832110  1
  O  O18  1  0.821348  0.401352  0.676965  1
  O  O19  1  0.180482  0.099463  0.176334  1
  O  O20  1  0.306337  0.633208  0.141577  1
  O  O21  1  0.694322  0.863696  0.640304  1
  O  O22  1  0.252815  0.354339  0.860963  1
  O  O23  1  0.747313  0.147451  0.357910  1
