# generated using pymatgen
data_Tm4In2Hg3Ir
_symmetry_space_group_name_H-M   'P 1'
_cell_length_a   8.06011900
_cell_length_b   8.06011905
_cell_length_c   7.25370700
_cell_angle_alpha   90.00000000
_cell_angle_beta   90.00000000
_cell_angle_gamma   90.98541480
_symmetry_Int_Tables_number   1
_chemical_formula_structural   Tm4In2Hg3Ir
_chemical_formula_sum   'Tm8 In4 Hg6 Ir2'
_cell_volume   471.17114364
_cell_formula_units_Z   2
loop_
 _symmetry_equiv_pos_site_id
 _symmetry_equiv_pos_as_xyz
  1  'x, y, z'
loop_
 _atom_site_type_symbol
 _atom_site_label
 _atom_site_symmetry_multiplicity
 _atom_site_fract_x
 _atom_site_fract_y
 _atom_site_fract_z
 _atom_site_occupancy
  Tm  Tm0  1  0.174526  0.125550  0.000000  1
  Tm  Tm1  1  0.874450  0.825474  0.000000  1
  Tm  Tm2  1  0.653121  0.346879  0.500000  1
  Tm  Tm3  1  0.316072  0.683928  0.500000  1
  Tm  Tm4  1  0.676368  0.323632  0.000000  1
  Tm  Tm5  1  0.299366  0.700634  0.000000  1
  Tm  Tm6  1  0.857565  0.809281  0.500000  1
  Tm  Tm7  1  0.190719  0.142435  0.500000  1
  In  In8  1  0.497614  0.998660  0.253733  1
  In  In9  1  0.497614  0.998660  0.746267  1
  In  In10  1  0.001340  0.502386  0.253733  1
  In  In11  1  0.001340  0.502386  0.746267  1
  Hg  Hg12  1  0.360297  0.377995  0.227460  1
  Hg  Hg13  1  0.622005  0.639703  0.772540  1
  Hg  Hg14  1  0.622005  0.639703  0.227460  1
  Hg  Hg15  1  0.870238  0.129762  0.727936  1
  Hg  Hg16  1  0.870238  0.129762  0.272064  1
  Hg  Hg17  1  0.360297  0.377995  0.772540  1
  Ir  Ir18  1  0.127412  0.872588  0.263764  1
  Ir  Ir19  1  0.127412  0.872588  0.736236  1
