# generated using pymatgen
data_Pr8CdCo2Si12Hg
_symmetry_space_group_name_H-M   'P 1'
_cell_length_a   8.27436000
_cell_length_b   8.27436053
_cell_length_c   8.68062700
_cell_angle_alpha   90.00000000
_cell_angle_beta   90.00000000
_cell_angle_gamma   120.00000586
_symmetry_Int_Tables_number   1
_chemical_formula_structural   Pr8CdCo2Si12Hg
_chemical_formula_sum   'Pr8 Cd1 Co2 Si12 Hg1'
_cell_volume   514.69571645
_cell_formula_units_Z   1
loop_
 _symmetry_equiv_pos_site_id
 _symmetry_equiv_pos_as_xyz
  1  'x, y, z'
loop_
 _atom_site_type_symbol
 _atom_site_label
 _atom_site_symmetry_multiplicity
 _atom_site_fract_x
 _atom_site_fract_y
 _atom_site_fract_z
 _atom_site_occupancy
  Pr  Pr0  1  0.491938  0.508062  0.749803  1
  Pr  Pr1  1  0.492307  0.507693  0.250068  1
  Pr  Pr2  1  0.016123  0.508062  0.749803  1
  Pr  Pr3  1  0.015387  0.507693  0.250068  1
  Pr  Pr4  1  0.491938  0.983877  0.749803  1
  Pr  Pr5  1  0.492307  0.984613  0.250068  1
  Pr  Pr6  1  0.000000  0.000000  0.749824  1
  Pr  Pr7  1  0.000000  0.000000  0.250528  1
  Cd  Cd8  1  0.666667  0.333333  0.500652  1
  Co  Co9  1  0.333333  0.666667  0.000758  1
  Co  Co10  1  0.333333  0.666667  0.499067  1
  Si  Si11  1  0.843539  0.156461  0.000326  1
  Si  Si12  1  0.175639  0.824361  0.000045  1
  Si  Si13  1  0.312921  0.156461  0.000326  1
  Si  Si14  1  0.175570  0.824430  0.499764  1
  Si  Si15  1  0.648721  0.824361  0.000045  1
  Si  Si16  1  0.843115  0.156885  0.500184  1
  Si  Si17  1  0.843539  0.687079  0.000326  1
  Si  Si18  1  0.648861  0.824430  0.499764  1
  Si  Si19  1  0.175639  0.351279  0.000045  1
  Si  Si20  1  0.313770  0.156885  0.500184  1
  Si  Si21  1  0.175570  0.351139  0.499764  1
  Si  Si22  1  0.843115  0.686230  0.500184  1
  Hg  Hg23  1  0.666667  0.333333  0.998602  1
