# generated using pymatgen
data_Ba4Na2(MoH9)3
_symmetry_space_group_name_H-M   'P 1'
_cell_length_a   9.43429200
_cell_length_b   9.02208423
_cell_length_c   5.44666200
_cell_angle_alpha   90.00000000
_cell_angle_beta   90.00000000
_cell_angle_gamma   121.52324818
_symmetry_Int_Tables_number   1
_chemical_formula_structural   Ba4Na2(MoH9)3
_chemical_formula_sum   'Ba4 Na2 Mo3 H27'
_cell_volume   395.18856325
_cell_formula_units_Z   1
loop_
 _symmetry_equiv_pos_site_id
 _symmetry_equiv_pos_as_xyz
  1  'x, y, z'
loop_
 _atom_site_type_symbol
 _atom_site_label
 _atom_site_symmetry_multiplicity
 _atom_site_fract_x
 _atom_site_fract_y
 _atom_site_fract_z
 _atom_site_occupancy
  Ba  Ba0  1  0.251568  0.000000  0.500000  1
  Ba  Ba1  1  0.006773  0.592082  0.000000  1
  Ba  Ba2  1  0.414691  0.407918  0.000000  1
  Ba  Ba3  1  0.605507  0.000000  0.000000  1
  Na  Na4  1  0.997856  0.257924  0.500000  1
  Na  Na5  1  0.739932  0.742076  0.500000  1
  Mo  Mo6  1  0.678413  0.341902  0.500000  1
  Mo  Mo7  1  0.336509  0.658098  0.500000  1
  Mo  Mo8  1  0.983386  0.000000  0.000000  1
  H  H9  1  0.800976  0.315995  0.725126  1
  H  H10  1  0.703021  0.489087  0.736243  1
  H  H11  1  0.535043  0.217348  0.742567  1
  H  H12  1  0.213933  0.510913  0.263757  1
  H  H13  1  0.535043  0.217348  0.257433  1
  H  H14  1  0.800976  0.315995  0.274874  1
  H  H15  1  0.703021  0.489087  0.263757  1
  H  H16  1  0.317693  0.782652  0.742567  1
  H  H17  1  0.484981  0.684005  0.725126  1
  H  H18  1  0.174010  0.000000  0.000000  1
  H  H19  1  0.785017  0.810608  0.000000  1
  H  H20  1  0.974408  0.189392  0.000000  1
  H  H21  1  0.862104  0.000000  0.245114  1
  H  H22  1  0.124530  0.150379  0.777128  1
  H  H23  1  0.974151  0.849621  0.777128  1
  H  H24  1  0.974151  0.849621  0.222872  1
  H  H25  1  0.124530  0.150379  0.222872  1
  H  H26  1  0.862104  0.000000  0.754886  1
  H  H27  1  0.138283  0.629474  0.500000  1
  H  H28  1  0.506290  0.868722  0.500000  1
  H  H29  1  0.351506  0.474892  0.500000  1
  H  H30  1  0.508809  0.370526  0.500000  1
  H  H31  1  0.876614  0.525108  0.500000  1
  H  H32  1  0.637566  0.131278  0.500000  1
  H  H33  1  0.213933  0.510913  0.736243  1
  H  H34  1  0.317693  0.782652  0.257433  1
  H  H35  1  0.484981  0.684005  0.274874  1
