# generated using pymatgen
data_TbEr5(SnIr)6
_symmetry_space_group_name_H-M   'P 1'
_cell_length_a   7.45526269
_cell_length_b   7.45872741
_cell_length_c   7.88922400
_cell_angle_alpha   90.00000000
_cell_angle_beta   90.00000000
_cell_angle_gamma   120.03295949
_symmetry_Int_Tables_number   1
_chemical_formula_structural   TbEr5(SnIr)6
_chemical_formula_sum   'Tb1 Er5 Sn6 Ir6'
_cell_volume   379.79414969
_cell_formula_units_Z   1
loop_
 _symmetry_equiv_pos_site_id
 _symmetry_equiv_pos_as_xyz
  1  'x, y, z'
loop_
 _atom_site_type_symbol
 _atom_site_label
 _atom_site_symmetry_multiplicity
 _atom_site_fract_x
 _atom_site_fract_y
 _atom_site_fract_z
 _atom_site_occupancy
  Tb  Tb0  1  0.999332  0.405009  0.250000  1
  Er  Er1  1  0.405527  0.002450  0.250000  1
  Er  Er2  1  0.596582  0.595527  0.750000  1
  Er  Er3  1  0.594976  0.595952  0.250000  1
  Er  Er4  1  0.000791  0.404397  0.750000  1
  Er  Er5  1  0.403100  0.998180  0.750000  1
  Sn  Sn6  1  0.260764  0.259863  0.501002  1
  Sn  Sn7  1  0.260764  0.259863  0.998998  1
  Sn  Sn8  1  0.739046  0.998624  0.999085  1
  Sn  Sn9  1  0.000114  0.741604  0.499704  1
  Sn  Sn10  1  0.739046  0.998624  0.500915  1
  Sn  Sn11  1  0.000114  0.741604  0.000296  1
  Ir  Ir12  1  0.666734  0.333008  0.502837  1
  Ir  Ir13  1  0.666734  0.333008  0.997163  1
  Ir  Ir14  1  0.333232  0.666526  0.999095  1
  Ir  Ir15  1  0.333232  0.666526  0.500905  1
  Ir  Ir16  1  0.999964  0.999414  0.750000  1
  Ir  Ir17  1  0.999949  0.999818  0.250000  1
