# generated using pymatgen
data_Dy5Y15(Cd3Fe)2
_symmetry_space_group_name_H-M   'P 1'
_cell_length_a   9.60474972
_cell_length_b   9.60468407
_cell_length_c   9.79295634
_cell_angle_alpha   90.00000002
_cell_angle_beta   89.93140831
_cell_angle_gamma   119.99976622
_symmetry_Int_Tables_number   1
_chemical_formula_structural   Dy5Y15(Cd3Fe)2
_chemical_formula_sum   'Dy5 Y15 Cd6 Fe2'
_cell_volume   782.37361326
_cell_formula_units_Z   1
loop_
 _symmetry_equiv_pos_site_id
 _symmetry_equiv_pos_as_xyz
  1  'x, y, z'
loop_
 _atom_site_type_symbol
 _atom_site_label
 _atom_site_symmetry_multiplicity
 _atom_site_fract_x
 _atom_site_fract_y
 _atom_site_fract_z
 _atom_site_occupancy
  Dy  Dy0  1  0.212288  0.787384  0.435707  1
  Dy  Dy1  1  0.212288  0.424905  0.435707  1
  Dy  Dy2  1  0.575078  0.787540  0.435831  1
  Dy  Dy3  1  0.787675  0.212526  0.564323  1
  Dy  Dy4  1  0.787675  0.575147  0.564323  1
  Y  Y5  1  0.999671  0.999836  0.499871  1
  Y  Y6  1  0.000008  0.000004  0.000060  1
  Y  Y7  1  0.541611  0.458458  0.250380  1
  Y  Y8  1  0.541611  0.083153  0.250380  1
  Y  Y9  1  0.916763  0.458382  0.250547  1
  Y  Y10  1  0.458361  0.541781  0.749592  1
  Y  Y11  1  0.458361  0.916580  0.749592  1
  Y  Y12  1  0.083206  0.541603  0.749452  1
  Y  Y13  1  0.423878  0.211938  0.563483  1
  Y  Y14  1  0.788051  0.211908  0.936073  1
  Y  Y15  1  0.788051  0.576141  0.936073  1
  Y  Y16  1  0.424159  0.212079  0.936150  1
  Y  Y17  1  0.211940  0.787986  0.063972  1
  Y  Y18  1  0.211940  0.423957  0.063972  1
  Y  Y19  1  0.576061  0.788032  0.063918  1
  Cd  Cd20  1  0.885363  0.114688  0.249787  1
  Cd  Cd21  1  0.885363  0.770674  0.249787  1
  Cd  Cd22  1  0.229389  0.114694  0.249883  1
  Cd  Cd23  1  0.114673  0.885339  0.750162  1
  Cd  Cd24  1  0.114673  0.229335  0.750162  1
  Cd  Cd25  1  0.770657  0.885329  0.750252  1
  Fe  Fe26  1  0.333393  0.666697  0.252163  1
  Fe  Fe27  1  0.667811  0.333905  0.748396  1
