# generated using pymatgen
data_Er4Al17CuPd6
_symmetry_space_group_name_H-M   'P 1'
_cell_length_a   7.58708679
_cell_length_b   7.58708598
_cell_length_c   9.42818700
_cell_angle_alpha   90.00000000
_cell_angle_beta   90.00000000
_cell_angle_gamma   119.06235184
_symmetry_Int_Tables_number   1
_chemical_formula_structural   Er4Al17CuPd6
_chemical_formula_sum   'Er4 Al17 Cu1 Pd6'
_cell_volume   474.38963454
_cell_formula_units_Z   1
loop_
 _symmetry_equiv_pos_site_id
 _symmetry_equiv_pos_as_xyz
  1  'x, y, z'
loop_
 _atom_site_type_symbol
 _atom_site_label
 _atom_site_symmetry_multiplicity
 _atom_site_fract_x
 _atom_site_fract_y
 _atom_site_fract_z
 _atom_site_occupancy
  Er  Er0  1  0.991842  0.671098  0.250000  1
  Er  Er1  1  0.006522  0.328612  0.750000  1
  Er  Er2  1  0.671098  0.991842  0.250000  1
  Er  Er3  1  0.328612  0.006522  0.750000  1
  Al  Al4  1  0.866808  0.866808  0.750000  1
  Al  Al5  1  0.003101  0.327841  0.083699  1
  Al  Al6  1  0.000067  0.663266  0.923438  1
  Al  Al7  1  0.000067  0.663266  0.576562  1
  Al  Al8  1  0.327841  0.003101  0.416301  1
  Al  Al9  1  0.003101  0.327841  0.416301  1
  Al  Al10  1  0.663266  0.000067  0.576562  1
  Al  Al11  1  0.663266  0.000067  0.923438  1
  Al  Al12  1  0.327841  0.003101  0.083699  1
  Al  Al13  1  0.332349  0.332349  0.551090  1
  Al  Al14  1  0.667606  0.667606  0.442199  1
  Al  Al15  1  0.667606  0.667606  0.057801  1
  Al  Al16  1  0.332349  0.332349  0.948910  1
  Al  Al17  1  0.337998  0.544332  0.250000  1
  Al  Al18  1  0.659453  0.449659  0.750000  1
  Al  Al19  1  0.544332  0.337998  0.250000  1
  Al  Al20  1  0.449659  0.659453  0.750000  1
  Cu  Cu21  1  0.155400  0.155400  0.250000  1
  Pd  Pd22  1  0.674892  0.327844  0.000681  1
  Pd  Pd23  1  0.327844  0.674892  0.000681  1
  Pd  Pd24  1  0.327844  0.674892  0.499319  1
  Pd  Pd25  1  0.674892  0.327844  0.499319  1
  Pd  Pd26  1  0.997173  0.997173  0.994003  1
  Pd  Pd27  1  0.997173  0.997173  0.505997  1
