# generated using pymatgen
data_Sr3Nd(U2Se5)4
_symmetry_space_group_name_H-M   'P 1'
_cell_length_a   7.80313533
_cell_length_b   8.58580855
_cell_length_c   12.24095720
_cell_angle_alpha   89.61266265
_cell_angle_beta   90.13124308
_cell_angle_gamma   90.11093209
_symmetry_Int_Tables_number   1
_chemical_formula_structural   Sr3Nd(U2Se5)4
_chemical_formula_sum   'Sr3 Nd1 U8 Se20'
_cell_volume   820.07553107
_cell_formula_units_Z   1
loop_
 _symmetry_equiv_pos_site_id
 _symmetry_equiv_pos_as_xyz
  1  'x, y, z'
loop_
 _atom_site_type_symbol
 _atom_site_label
 _atom_site_symmetry_multiplicity
 _atom_site_fract_x
 _atom_site_fract_y
 _atom_site_fract_z
 _atom_site_occupancy
  Sr  Sr0  1  0.546338  0.506362  0.170843  1
  Sr  Sr1  1  0.953402  0.506297  0.670911  1
  Sr  Sr2  1  0.457220  0.493806  0.823402  1
  Nd  Nd3  1  0.044863  0.498253  0.332112  1
  U  U4  1  0.021292  0.001222  0.317795  1
  U  U5  1  0.515000  0.998814  0.181767  1
  U  U6  1  0.979814  0.001522  0.682276  1
  U  U7  1  0.478481  0.999443  0.817375  1
  U  U8  1  0.071270  0.749557  0.008421  1
  U  U9  1  0.574258  0.246121  0.488421  1
  U  U10  1  0.927260  0.246996  0.994332  1
  U  U11  1  0.430767  0.754503  0.509108  1
  Se  Se12  1  0.665431  0.953979  0.399337  1
  Se  Se13  1  0.162718  0.043559  0.098868  1
  Se  Se14  1  0.333974  0.046768  0.595885  1
  Se  Se15  1  0.834981  0.954974  0.902781  1
  Se  Se16  1  0.454648  0.778905  0.001146  1
  Se  Se17  1  0.959068  0.223301  0.495782  1
  Se  Se18  1  0.543778  0.218932  0.999623  1
  Se  Se19  1  0.045678  0.779564  0.498248  1
  Se  Se20  1  0.841701  0.763621  0.192321  1
  Se  Se21  1  0.329332  0.231041  0.312369  1
  Se  Se22  1  0.166044  0.228715  0.814123  1
  Se  Se23  1  0.667041  0.772818  0.688067  1
  Se  Se24  1  0.305542  0.756677  0.285108  1
  Se  Se25  1  0.809336  0.243747  0.220565  1
  Se  Se26  1  0.691192  0.235696  0.713469  1
  Se  Se27  1  0.193138  0.763524  0.781866  1
  Se  Se28  1  0.166779  0.459065  0.095009  1
  Se  Se29  1  0.689019  0.543663  0.422917  1
  Se  Se30  1  0.824709  0.540249  0.918448  1
  Se  Se31  1  0.315926  0.458305  0.567303  1
