# generated using pymatgen
data_Yb5(B5Rh7)2
_symmetry_space_group_name_H-M   'P 1'
_cell_length_a   15.22426873
_cell_length_b   14.70025208
_cell_length_c   5.56808997
_cell_angle_alpha   84.62927680
_cell_angle_beta   74.01653205
_cell_angle_gamma   21.35418313
_symmetry_Int_Tables_number   1
_chemical_formula_structural   Yb5(B5Rh7)2
_chemical_formula_sum   'Yb5 B10 Rh14'
_cell_volume   386.13615011
_cell_formula_units_Z   1
loop_
 _symmetry_equiv_pos_site_id
 _symmetry_equiv_pos_as_xyz
  1  'x, y, z'
loop_
 _atom_site_type_symbol
 _atom_site_label
 _atom_site_symmetry_multiplicity
 _atom_site_fract_x
 _atom_site_fract_y
 _atom_site_fract_z
 _atom_site_occupancy
  Yb  Yb0  1  0.709671  0.709671  0.290329  1
  Yb  Yb1  1  0.290329  0.290329  0.709671  1
  Yb  Yb2  1  0.604035  0.604035  0.395965  1
  Yb  Yb3  1  0.395965  0.395965  0.604035  1
  Yb  Yb4  1  0.500000  0.500000  0.500000  1
  B  B5  1  0.045378  0.361779  0.638221  1
  B  B6  1  0.954622  0.638221  0.361779  1
  B  B7  1  0.638221  0.954622  0.045378  1
  B  B8  1  0.361779  0.045378  0.954622  1
  B  B9  1  0.933958  0.269289  0.730711  1
  B  B10  1  0.066042  0.730711  0.269289  1
  B  B11  1  0.730711  0.066042  0.933958  1
  B  B12  1  0.269289  0.933958  0.066042  1
  B  B13  1  0.834759  0.165241  0.834759  1
  B  B14  1  0.165241  0.834759  0.165241  1
  Rh  Rh15  1  0.750000  0.750000  0.750000  1
  Rh  Rh16  1  0.250000  0.250000  0.250000  1
  Rh  Rh17  1  0.652224  0.652224  0.847776  1
  Rh  Rh18  1  0.847776  0.847776  0.652224  1
  Rh  Rh19  1  0.347776  0.347776  0.152224  1
  Rh  Rh20  1  0.152224  0.152224  0.347776  1
  Rh  Rh21  1  0.550806  0.550806  0.949194  1
  Rh  Rh22  1  0.949194  0.949194  0.550806  1
  Rh  Rh23  1  0.449194  0.449194  0.050806  1
  Rh  Rh24  1  0.050806  0.050806  0.449194  1
  Rh  Rh25  1  0.847651  0.847651  0.152349  1
  Rh  Rh26  1  0.152349  0.152349  0.847651  1
  Rh  Rh27  1  0.949275  0.949275  0.050725  1
  Rh  Rh28  1  0.050725  0.050725  0.949275  1
