# generated using pymatgen
data_Na4Ca2(IrO4)3
_symmetry_space_group_name_H-M   'P 1'
_cell_length_a   9.59408846
_cell_length_b   9.58219176
_cell_length_c   3.19869200
_cell_angle_alpha   90.00000000
_cell_angle_beta   90.00000000
_cell_angle_gamma   119.95898427
_symmetry_Int_Tables_number   1
_chemical_formula_structural   Na4Ca2(IrO4)3
_chemical_formula_sum   'Na4 Ca2 Ir3 O12'
_cell_volume   254.77157883
_cell_formula_units_Z   1
loop_
 _symmetry_equiv_pos_site_id
 _symmetry_equiv_pos_as_xyz
  1  'x, y, z'
loop_
 _atom_site_type_symbol
 _atom_site_label
 _atom_site_symmetry_multiplicity
 _atom_site_fract_x
 _atom_site_fract_y
 _atom_site_fract_z
 _atom_site_occupancy
  Na  Na0  1  0.000000  0.999807  0.000000  1
  Na  Na1  1  0.696533  0.999646  0.500000  1
  Na  Na2  1  0.000000  0.696699  0.500000  1
  Na  Na3  1  0.303467  0.303113  0.500000  1
  Ca  Ca4  1  0.333773  0.667315  0.500000  1
  Ca  Ca5  1  0.666227  0.333541  0.500000  1
  Ir  Ir6  1  0.328930  0.999982  0.000000  1
  Ir  Ir7  1  0.000000  0.328894  0.000000  1
  Ir  Ir8  1  0.671070  0.671052  0.000000  1
  O  O9  1  0.194731  0.000047  0.500000  1
  O  O10  1  0.000000  0.194548  0.500000  1
  O  O11  1  0.805269  0.805316  0.500000  1
  O  O12  1  0.457616  0.999927  0.500000  1
  O  O13  1  0.000000  0.457545  0.500000  1
  O  O14  1  0.542384  0.542310  0.500000  1
  O  O15  1  0.229503  0.448467  0.000000  1
  O  O16  1  0.551411  0.781453  0.000000  1
  O  O17  1  0.448589  0.230042  0.000000  1
  O  O18  1  0.218778  0.770056  0.000000  1
  O  O19  1  0.781222  0.551278  0.000000  1
  O  O20  1  0.770497  0.218964  0.000000  1
