# generated using pymatgen
data_MgTa(GaPt6)2
_symmetry_space_group_name_H-M   'P 1'
_cell_length_a   5.60457782
_cell_length_b   5.60457823
_cell_length_c   7.92799000
_cell_angle_alpha   90.00000000
_cell_angle_beta   90.00000000
_cell_angle_gamma   89.97993217
_symmetry_Int_Tables_number   1
_chemical_formula_structural   MgTa(GaPt6)2
_chemical_formula_sum   'Mg1 Ta1 Ga2 Pt12'
_cell_volume   249.02841602
_cell_formula_units_Z   1
loop_
 _symmetry_equiv_pos_site_id
 _symmetry_equiv_pos_as_xyz
  1  'x, y, z'
loop_
 _atom_site_type_symbol
 _atom_site_label
 _atom_site_symmetry_multiplicity
 _atom_site_fract_x
 _atom_site_fract_y
 _atom_site_fract_z
 _atom_site_occupancy
  Mg  Mg0  1  0.500000  0.000000  0.750133  1
  Ta  Ta1  1  0.000000  0.500000  0.750083  1
  Ga  Ga2  1  0.500000  0.000000  0.249998  1
  Ga  Ga3  1  0.000000  0.500000  0.249889  1
  Pt  Pt4  1  0.242755  0.257245  0.999351  1
  Pt  Pt5  1  0.758212  0.258212  0.500669  1
  Pt  Pt6  1  0.747562  0.247562  0.999678  1
  Pt  Pt7  1  0.757245  0.742755  0.999351  1
  Pt  Pt8  1  0.500000  0.500000  0.749949  1
  Pt  Pt9  1  0.253414  0.246586  0.500271  1
  Pt  Pt10  1  0.746586  0.753414  0.500271  1
  Pt  Pt11  1  0.241788  0.741788  0.500669  1
  Pt  Pt12  1  0.500000  0.500000  0.250030  1
  Pt  Pt13  1  0.000000  0.000000  0.749949  1
  Pt  Pt14  1  0.000000  0.000000  0.250030  1
  Pt  Pt15  1  0.252438  0.752438  0.999678  1
