# generated using pymatgen
data_Dy8Si16Mo11W
_symmetry_space_group_name_H-M   'P 1'
_cell_length_a   6.77995206
_cell_length_b   6.94661296
_cell_length_c   12.92788100
_cell_angle_alpha   90.00000000
_cell_angle_beta   90.00000000
_cell_angle_gamma   90.03032788
_symmetry_Int_Tables_number   1
_chemical_formula_structural   Dy8Si16Mo11W
_chemical_formula_sum   'Dy8 Si16 Mo11 W1'
_cell_volume   608.87341234
_cell_formula_units_Z   1
loop_
 _symmetry_equiv_pos_site_id
 _symmetry_equiv_pos_as_xyz
  1  'x, y, z'
loop_
 _atom_site_type_symbol
 _atom_site_label
 _atom_site_symmetry_multiplicity
 _atom_site_fract_x
 _atom_site_fract_y
 _atom_site_fract_z
 _atom_site_occupancy
  Dy  Dy0  1  0.496396  0.333388  0.094119  1
  Dy  Dy1  1  0.995849  0.167058  0.405981  1
  Dy  Dy2  1  0.503773  0.666786  0.593991  1
  Dy  Dy3  1  0.003874  0.833171  0.906044  1
  Dy  Dy4  1  0.503773  0.666786  0.906009  1
  Dy  Dy5  1  0.003874  0.833171  0.593956  1
  Dy  Dy6  1  0.496396  0.333388  0.405881  1
  Dy  Dy7  1  0.995849  0.167058  0.094019  1
  Si  Si8  1  0.804110  0.629673  0.750000  1
  Si  Si9  1  0.304161  0.870823  0.750000  1
  Si  Si10  1  0.196081  0.369320  0.250000  1
  Si  Si11  1  0.695893  0.130155  0.250000  1
  Si  Si12  1  0.535360  0.365152  0.750000  1
  Si  Si13  1  0.035757  0.135489  0.750000  1
  Si  Si14  1  0.464203  0.634662  0.250000  1
  Si  Si15  1  0.965079  0.866077  0.250000  1
  Si  Si16  1  0.659281  0.042655  0.547529  1
  Si  Si17  1  0.159036  0.457024  0.952347  1
  Si  Si18  1  0.340765  0.957082  0.047785  1
  Si  Si19  1  0.840417  0.542524  0.452493  1
  Si  Si20  1  0.340765  0.957082  0.452215  1
  Si  Si21  1  0.840417  0.542524  0.047507  1
  Si  Si22  1  0.659281  0.042655  0.952471  1
  Si  Si23  1  0.159036  0.457024  0.547653  1
  Mo  Mo24  1  0.666884  0.999674  0.750000  1
  Mo  Mo25  1  0.166913  0.500373  0.750000  1
  Mo  Mo26  1  0.333367  0.000317  0.250000  1
  Mo  Mo27  1  0.830771  0.336272  0.625521  1
  Mo  Mo28  1  0.331578  0.163990  0.874644  1
  Mo  Mo29  1  0.168427  0.663086  0.125583  1
  Mo  Mo30  1  0.669236  0.835922  0.374381  1
  Mo  Mo31  1  0.168427  0.663086  0.374417  1
  Mo  Mo32  1  0.669236  0.835922  0.125619  1
  Mo  Mo33  1  0.830771  0.336272  0.874479  1
  Mo  Mo34  1  0.331578  0.163990  0.625356  1
  W  W35  1  0.833384  0.500370  0.250000  1
