# generated using pymatgen
data_NaAc7Te8
_symmetry_space_group_name_H-M   'P 1'
_cell_length_a   9.45274035
_cell_length_b   9.45274028
_cell_length_c   9.45211205
_cell_angle_alpha   59.99779885
_cell_angle_beta   59.99779620
_cell_angle_gamma   60.00000148
_symmetry_Int_Tables_number   1
_chemical_formula_structural   NaAc7Te8
_chemical_formula_sum   'Na1 Ac7 Te8'
_cell_volume   597.19321392
_cell_formula_units_Z   1
loop_
 _symmetry_equiv_pos_site_id
 _symmetry_equiv_pos_as_xyz
  1  'x, y, z'
loop_
 _atom_site_type_symbol
 _atom_site_label
 _atom_site_symmetry_multiplicity
 _atom_site_fract_x
 _atom_site_fract_y
 _atom_site_fract_z
 _atom_site_occupancy
  Na  Na0  1  0.125000  0.125000  0.625000  1
  Ac  Ac1  1  0.625000  0.125000  0.625000  1
  Ac  Ac2  1  0.625000  0.625000  0.625000  1
  Ac  Ac3  1  0.125000  0.625000  0.625000  1
  Ac  Ac4  1  0.625000  0.625000  0.125000  1
  Ac  Ac5  1  0.125000  0.625000  0.125000  1
  Ac  Ac6  1  0.625000  0.125000  0.125000  1
  Ac  Ac7  1  0.125000  0.125000  0.125000  1
  Te  Te8  1  0.370545  0.879443  0.379467  1
  Te  Te9  1  0.879455  0.370557  0.870533  1
  Te  Te10  1  0.874961  0.874961  0.375117  1
  Te  Te11  1  0.879455  0.879455  0.870533  1
  Te  Te12  1  0.879443  0.370545  0.379467  1
  Te  Te13  1  0.375039  0.375039  0.874883  1
  Te  Te14  1  0.370545  0.370545  0.379467  1
  Te  Te15  1  0.370557  0.879455  0.870533  1
