# generated using pymatgen
data_TbPr8HoIr6
_symmetry_space_group_name_H-M   'P 1'
_cell_length_a   11.25724000
_cell_length_b   11.25724000
_cell_length_c   6.56852600
_cell_angle_alpha   90.00000000
_cell_angle_beta   90.00000000
_cell_angle_gamma   90.00000000
_symmetry_Int_Tables_number   1
_chemical_formula_structural   TbPr8HoIr6
_chemical_formula_sum   'Tb2 Pr16 Ho2 Ir12'
_cell_volume   832.39942907
_cell_formula_units_Z   2
loop_
 _symmetry_equiv_pos_site_id
 _symmetry_equiv_pos_as_xyz
  1  'x, y, z'
loop_
 _atom_site_type_symbol
 _atom_site_label
 _atom_site_symmetry_multiplicity
 _atom_site_fract_x
 _atom_site_fract_y
 _atom_site_fract_z
 _atom_site_occupancy
  Tb  Tb0  1  0.000000  0.000000  0.500000  1
  Tb  Tb1  1  0.000000  0.000000  0.000000  1
  Pr  Pr2  1  0.289081  0.087716  0.382000  1
  Pr  Pr3  1  0.289081  0.912284  0.882000  1
  Pr  Pr4  1  0.710919  0.087716  0.882000  1
  Pr  Pr5  1  0.710919  0.912284  0.382000  1
  Pr  Pr6  1  0.587662  0.788825  0.881950  1
  Pr  Pr7  1  0.587662  0.211175  0.381950  1
  Pr  Pr8  1  0.412338  0.788825  0.381950  1
  Pr  Pr9  1  0.412338  0.211175  0.881950  1
  Pr  Pr10  1  0.211175  0.412338  0.618050  1
  Pr  Pr11  1  0.211175  0.587662  0.118050  1
  Pr  Pr12  1  0.788825  0.412338  0.118050  1
  Pr  Pr13  1  0.788825  0.587662  0.618050  1
  Pr  Pr14  1  0.912284  0.710919  0.118000  1
  Pr  Pr15  1  0.912284  0.289081  0.618000  1
  Pr  Pr16  1  0.087716  0.710919  0.618000  1
  Pr  Pr17  1  0.087716  0.289081  0.118000  1
  Ho  Ho18  1  0.500000  0.500000  0.000000  1
  Ho  Ho19  1  0.500000  0.500000  0.500000  1
  Ir  Ir20  1  0.851729  0.148271  0.250000  1
  Ir  Ir21  1  0.851729  0.851729  0.750000  1
  Ir  Ir22  1  0.148271  0.148271  0.750000  1
  Ir  Ir23  1  0.148271  0.851729  0.250000  1
  Ir  Ir24  1  0.647514  0.352486  0.750000  1
  Ir  Ir25  1  0.647514  0.647514  0.250000  1
  Ir  Ir26  1  0.352486  0.352486  0.250000  1
  Ir  Ir27  1  0.352486  0.647514  0.750000  1
  Ir  Ir28  1  0.500000  0.000000  0.117733  1
  Ir  Ir29  1  0.500000  0.000000  0.617733  1
  Ir  Ir30  1  0.000000  0.500000  0.882267  1
  Ir  Ir31  1  0.000000  0.500000  0.382267  1
