# generated using pymatgen
data_VSb(P2O7)2
_symmetry_space_group_name_H-M   'P 1'
_cell_length_a   8.22641113
_cell_length_b   4.90859238
_cell_length_c   7.03959511
_cell_angle_alpha   73.40297423
_cell_angle_beta   89.16022956
_cell_angle_gamma   89.36916872
_symmetry_Int_Tables_number   1
_chemical_formula_structural   VSb(P2O7)2
_chemical_formula_sum   'V1 Sb1 P4 O14'
_cell_volume   272.38039034
_cell_formula_units_Z   1
loop_
 _symmetry_equiv_pos_site_id
 _symmetry_equiv_pos_as_xyz
  1  'x, y, z'
loop_
 _atom_site_type_symbol
 _atom_site_label
 _atom_site_symmetry_multiplicity
 _atom_site_fract_x
 _atom_site_fract_y
 _atom_site_fract_z
 _atom_site_occupancy
  V  V0  1  0.501742  0.215063  0.272239  1
  Sb  Sb1  1  0.001641  0.785118  0.726287  1
  P  P2  1  0.233449  0.229465  0.897876  1
  P  P3  1  0.814548  0.391472  0.489609  1
  P  P4  1  0.733831  0.762423  0.106456  1
  P  P5  1  0.319294  0.613421  0.504417  1
  O  O6  1  0.823198  0.589433  0.628142  1
  O  O7  1  0.844005  0.865330  0.916742  1
  O  O8  1  0.077568  0.412076  0.909652  1
  O  O9  1  0.349847  0.419837  0.729911  1
  O  O10  1  0.182759  0.964617  0.832868  1
  O  O11  1  0.862720  0.576373  0.269156  1
  O  O12  1  0.953268  0.165822  0.538838  1
  O  O13  1  0.322884  0.423033  0.369396  1
  O  O14  1  0.687950  0.022440  0.169338  1
  O  O15  1  0.646599  0.275093  0.496141  1
  O  O16  1  0.328087  0.138143  0.083799  1
  O  O17  1  0.140552  0.730072  0.507182  1
  O  O18  1  0.595160  0.575213  0.083186  1
  O  O19  1  0.443499  0.845556  0.468763  1
