# generated using pymatgen
data_La2Pr3Pb4
_symmetry_space_group_name_H-M   'P 1'
_cell_length_a   8.56194500
_cell_length_b   8.67320000
_cell_length_c   16.41586200
_cell_angle_alpha   90.00000000
_cell_angle_beta   90.00000000
_cell_angle_gamma   90.00000000
_symmetry_Int_Tables_number   1
_chemical_formula_structural   La2Pr3Pb4
_chemical_formula_sum   'La8 Pr12 Pb16'
_cell_volume   1219.03307011
_cell_formula_units_Z   4
loop_
 _symmetry_equiv_pos_site_id
 _symmetry_equiv_pos_as_xyz
  1  'x, y, z'
loop_
 _atom_site_type_symbol
 _atom_site_label
 _atom_site_symmetry_multiplicity
 _atom_site_fract_x
 _atom_site_fract_y
 _atom_site_fract_z
 _atom_site_occupancy
  La  La0  1  0.028674  0.179526  0.100880  1
  La  La1  1  0.528674  0.320474  0.399120  1
  La  La2  1  0.471326  0.679526  0.899120  1
  La  La3  1  0.971326  0.820474  0.600880  1
  La  La4  1  0.971326  0.820474  0.899120  1
  La  La5  1  0.471326  0.679526  0.600880  1
  La  La6  1  0.528674  0.320474  0.100880  1
  La  La7  1  0.028674  0.179526  0.399120  1
  Pr  Pr8  1  0.879257  0.659407  0.117822  1
  Pr  Pr9  1  0.379257  0.840593  0.382178  1
  Pr  Pr10  1  0.620743  0.159407  0.882178  1
  Pr  Pr11  1  0.120743  0.340593  0.617822  1
  Pr  Pr12  1  0.120743  0.340593  0.882178  1
  Pr  Pr13  1  0.620743  0.159407  0.617822  1
  Pr  Pr14  1  0.379257  0.840593  0.117822  1
  Pr  Pr15  1  0.879257  0.659407  0.382178  1
  Pr  Pr16  1  0.709649  0.996641  0.250000  1
  Pr  Pr17  1  0.209649  0.503359  0.250000  1
  Pr  Pr18  1  0.790351  0.496641  0.750000  1
  Pr  Pr19  1  0.290351  0.003359  0.750000  1
  Pb  Pb20  1  0.076180  0.876627  0.250000  1
  Pb  Pb21  1  0.576180  0.623373  0.250000  1
  Pb  Pb22  1  0.423820  0.376627  0.750000  1
  Pb  Pb23  1  0.923820  0.123373  0.750000  1
  Pb  Pb24  1  0.836610  0.355357  0.250000  1
  Pb  Pb25  1  0.336610  0.144643  0.250000  1
  Pb  Pb26  1  0.663390  0.855357  0.750000  1
  Pb  Pb27  1  0.163390  0.644643  0.750000  1
  Pb  Pb28  1  0.780360  0.466857  0.956318  1
  Pb  Pb29  1  0.280360  0.033143  0.543682  1
  Pb  Pb30  1  0.719640  0.966857  0.043682  1
  Pb  Pb31  1  0.219640  0.533143  0.456318  1
  Pb  Pb32  1  0.219640  0.533143  0.043682  1
  Pb  Pb33  1  0.719640  0.966857  0.456318  1
  Pb  Pb34  1  0.280360  0.033143  0.956318  1
  Pb  Pb35  1  0.780360  0.466857  0.543682  1
