# generated using pymatgen
data_HoEr8TmRu4
_symmetry_space_group_name_H-M   'P 1'
_cell_length_a   6.27786480
_cell_length_b   7.26111177
_cell_length_c   8.39469745
_cell_angle_alpha   96.79261775
_cell_angle_beta   111.99206481
_cell_angle_gamma   89.99944080
_symmetry_Int_Tables_number   1
_chemical_formula_structural   HoEr8TmRu4
_chemical_formula_sum   'Ho1 Er8 Tm1 Ru4'
_cell_volume   351.92348855
_cell_formula_units_Z   1
loop_
 _symmetry_equiv_pos_site_id
 _symmetry_equiv_pos_as_xyz
  1  'x, y, z'
loop_
 _atom_site_type_symbol
 _atom_site_label
 _atom_site_symmetry_multiplicity
 _atom_site_fract_x
 _atom_site_fract_y
 _atom_site_fract_z
 _atom_site_occupancy
  Ho  Ho0  1  0.791276  0.084064  0.813639  1
  Er  Er1  1  0.977688  0.415869  0.186276  1
  Er  Er2  1  0.208516  0.915511  0.186314  1
  Er  Er3  1  0.022338  0.584479  0.813836  1
  Er  Er4  1  0.205879  0.184383  0.565224  1
  Er  Er5  1  0.640701  0.315605  0.434754  1
  Er  Er6  1  0.793918  0.815423  0.434468  1
  Er  Er7  1  0.359371  0.684577  0.565377  1
  Er  Er8  1  0.419163  0.249934  0.000001  1
  Tm  Tm9  1  0.580517  0.750062  0.000086  1
  Ru  Ru10  1  0.603060  0.424157  0.780031  1
  Ru  Ru11  1  0.823112  0.076197  0.219928  1
  Ru  Ru12  1  0.397147  0.576504  0.220039  1
  Ru  Ru13  1  0.177312  0.923235  0.780026  1
