# generated using pymatgen
data_Tm20As2IrRu9
_symmetry_space_group_name_H-M   'P 1'
_cell_length_a   10.75071843
_cell_length_b   10.75071830
_cell_length_c   6.33463507
_cell_angle_alpha   89.90081569
_cell_angle_beta   89.90081991
_cell_angle_gamma   88.97921344
_symmetry_Int_Tables_number   1
_chemical_formula_structural   Tm20As2IrRu9
_chemical_formula_sum   'Tm20 As2 Ir1 Ru9'
_cell_volume   732.02575834
_cell_formula_units_Z   1
loop_
 _symmetry_equiv_pos_site_id
 _symmetry_equiv_pos_as_xyz
  1  'x, y, z'
loop_
 _atom_site_type_symbol
 _atom_site_label
 _atom_site_symmetry_multiplicity
 _atom_site_fract_x
 _atom_site_fract_y
 _atom_site_fract_z
 _atom_site_occupancy
  Tm  Tm0  1  0.288644  0.086028  0.375615  1
  Tm  Tm1  1  0.292292  0.913776  0.874849  1
  Tm  Tm2  1  0.701914  0.074862  0.871201  1
  Tm  Tm3  1  0.704384  0.907141  0.378604  1
  Tm  Tm4  1  0.586512  0.789325  0.875994  1
  Tm  Tm5  1  0.574794  0.201440  0.370565  1
  Tm  Tm6  1  0.413182  0.792535  0.375553  1
  Tm  Tm7  1  0.407070  0.204548  0.878870  1
  Tm  Tm8  1  0.210675  0.413488  0.624006  1
  Tm  Tm9  1  0.207465  0.586818  0.124447  1
  Tm  Tm10  1  0.798560  0.425206  0.129435  1
  Tm  Tm11  1  0.795452  0.592930  0.621130  1
  Tm  Tm12  1  0.913972  0.711356  0.124385  1
  Tm  Tm13  1  0.925138  0.298086  0.628799  1
  Tm  Tm14  1  0.086224  0.707708  0.625151  1
  Tm  Tm15  1  0.092859  0.295616  0.121396  1
  Tm  Tm16  1  0.001567  0.997672  0.501583  1
  Tm  Tm17  1  0.002328  0.998433  0.998417  1
  Tm  Tm18  1  0.498740  0.500950  0.002025  1
  Tm  Tm19  1  0.499050  0.501260  0.497975  1
  As  As20  1  0.840705  0.159295  0.250000  1
  As  As21  1  0.659827  0.340173  0.750000  1
  Ir  Ir22  1  0.345930  0.654070  0.750000  1
  Ru  Ru23  1  0.848300  0.849653  0.749798  1
  Ru  Ru24  1  0.150347  0.151700  0.750202  1
  Ru  Ru25  1  0.153921  0.846079  0.250000  1
  Ru  Ru26  1  0.650385  0.650005  0.250101  1
  Ru  Ru27  1  0.349995  0.349615  0.249899  1
  Ru  Ru28  1  0.498561  0.999439  0.122917  1
  Ru  Ru29  1  0.499659  0.999012  0.622917  1
  Ru  Ru30  1  0.000988  0.500341  0.877083  1
  Ru  Ru31  1  0.000561  0.501439  0.377083  1
