# generated using pymatgen
data_Rb3Ag(SnPb)2
_symmetry_space_group_name_H-M   'P 1'
_cell_length_a   6.96597000
_cell_length_b   7.06512000
_cell_length_c   13.76181600
_cell_angle_alpha   90.00000000
_cell_angle_beta   90.00000000
_cell_angle_gamma   90.00000000
_symmetry_Int_Tables_number   1
_chemical_formula_structural   Rb3Ag(SnPb)2
_chemical_formula_sum   'Rb6 Ag2 Sn4 Pb4'
_cell_volume   677.29347137
_cell_formula_units_Z   2
loop_
 _symmetry_equiv_pos_site_id
 _symmetry_equiv_pos_as_xyz
  1  'x, y, z'
loop_
 _atom_site_type_symbol
 _atom_site_label
 _atom_site_symmetry_multiplicity
 _atom_site_fract_x
 _atom_site_fract_y
 _atom_site_fract_z
 _atom_site_occupancy
  Rb  Rb0  1  0.542134  0.000000  0.000000  1
  Rb  Rb1  1  0.457866  0.500000  0.500000  1
  Rb  Rb2  1  0.812809  0.500000  0.752414  1
  Rb  Rb3  1  0.812809  0.500000  0.247586  1
  Rb  Rb4  1  0.187191  0.000000  0.747586  1
  Rb  Rb5  1  0.187191  0.000000  0.252414  1
  Ag  Ag6  1  0.666171  0.500000  0.000000  1
  Ag  Ag7  1  0.333829  0.000000  0.500000  1
  Sn  Sn8  1  0.317017  0.500000  0.886066  1
  Sn  Sn9  1  0.317017  0.500000  0.113934  1
  Sn  Sn10  1  0.682983  0.000000  0.386066  1
  Sn  Sn11  1  0.682983  0.000000  0.613934  1
  Pb  Pb12  1  0.029546  0.262742  0.000000  1
  Pb  Pb13  1  0.029546  0.737258  0.000000  1
  Pb  Pb14  1  0.970454  0.762742  0.500000  1
  Pb  Pb15  1  0.970454  0.237258  0.500000  1
