# generated using pymatgen
data_Zr4GaRh8Au3
_symmetry_space_group_name_H-M   'P 1'
_cell_length_a   5.85484502
_cell_length_b   5.85572978
_cell_length_c   7.60038100
_cell_angle_alpha   90.00582182
_cell_angle_beta   89.99586050
_cell_angle_gamma   89.95572525
_symmetry_Int_Tables_number   1
_chemical_formula_structural   Zr4GaRh8Au3
_chemical_formula_sum   'Zr4 Ga1 Rh8 Au3'
_cell_volume   260.57434885
_cell_formula_units_Z   1
loop_
 _symmetry_equiv_pos_site_id
 _symmetry_equiv_pos_as_xyz
  1  'x, y, z'
loop_
 _atom_site_type_symbol
 _atom_site_label
 _atom_site_symmetry_multiplicity
 _atom_site_fract_x
 _atom_site_fract_y
 _atom_site_fract_z
 _atom_site_occupancy
  Zr  Zr0  1  0.750010  0.250006  0.999997  1
  Zr  Zr1  1  0.249987  0.749994  0.999995  1
  Zr  Zr2  1  0.250021  0.749996  0.500000  1
  Zr  Zr3  1  0.749972  0.250000  0.499999  1
  Ga  Ga4  1  0.249991  0.250002  0.500009  1
  Rh  Rh5  1  0.496805  0.003213  0.256153  1
  Rh  Rh6  1  0.496743  0.496735  0.256269  1
  Rh  Rh7  1  0.003244  0.003258  0.256287  1
  Rh  Rh8  1  0.003196  0.496810  0.256178  1
  Rh  Rh9  1  0.003247  0.003239  0.743698  1
  Rh  Rh10  1  0.003194  0.496806  0.743814  1
  Rh  Rh11  1  0.496827  0.003191  0.743869  1
  Rh  Rh12  1  0.496778  0.496747  0.743739  1
  Au  Au13  1  0.249998  0.250006  0.999987  1
  Au  Au14  1  0.750003  0.750000  0.000000  1
  Au  Au15  1  0.749991  0.749995  0.500001  1
