# generated using pymatgen
data_NaDyAs4F24
_symmetry_space_group_name_H-M   'P 1'
_cell_length_a   9.63512833
_cell_length_b   9.63512757
_cell_length_c   9.63512800
_cell_angle_alpha   131.63550978
_cell_angle_beta   131.63550578
_cell_angle_gamma   70.80532206
_symmetry_Int_Tables_number   1
_chemical_formula_structural   NaDyAs4F24
_chemical_formula_sum   'Na1 Dy1 As4 F24'
_cell_volume   489.38352332
_cell_formula_units_Z   1
loop_
 _symmetry_equiv_pos_site_id
 _symmetry_equiv_pos_as_xyz
  1  'x, y, z'
loop_
 _atom_site_type_symbol
 _atom_site_label
 _atom_site_symmetry_multiplicity
 _atom_site_fract_x
 _atom_site_fract_y
 _atom_site_fract_z
 _atom_site_occupancy
  Na  Na0  1  0.750000  0.250000  0.500000  1
  Dy  Dy1  1  0.000000  0.000000  0.000000  1
  As  As2  1  0.780271  0.780271  0.000000  1
  As  As3  1  0.219729  0.219729  0.000000  1
  As  As4  1  0.972369  0.472369  0.500000  1
  As  As5  1  0.527631  0.027631  0.500000  1
  F  F6  1  0.868330  0.752676  0.203921  1
  F  F7  1  0.548756  0.664409  0.796079  1
  F  F8  1  0.412384  0.798057  0.308414  1
  F  F9  1  0.335591  0.131670  0.884348  1
  F  F10  1  0.247324  0.451244  0.115652  1
  F  F11  1  0.201943  0.510356  0.614327  1
  F  F12  1  0.644549  0.258356  0.686233  1
  F  F13  1  0.741644  0.427877  0.386194  1
  F  F14  1  0.041684  0.355451  0.613806  1
  F  F15  1  0.090087  0.273966  0.106752  1
  F  F16  1  0.167215  0.983334  0.893248  1
  F  F17  1  0.572123  0.958316  0.313767  1
  F  F18  1  0.726034  0.832785  0.816121  1
  F  F19  1  0.016666  0.909913  0.183879  1
  F  F20  1  0.302032  0.086312  0.328892  1
  F  F21  1  0.913688  0.242580  0.215721  1
  F  F22  1  0.026860  0.697968  0.784279  1
  F  F23  1  0.428878  0.272797  0.274574  1
  F  F24  1  0.998222  0.154302  0.725426  1
  F  F25  1  0.757420  0.973140  0.671108  1
  F  F26  1  0.727203  0.001778  0.156080  1
  F  F27  1  0.845698  0.571122  0.843920  1
  F  F28  1  0.489644  0.103969  0.691586  1
  F  F29  1  0.896031  0.587616  0.385673  1
