# generated using pymatgen
data_Hf3AlCo(SnIr)2
_symmetry_space_group_name_H-M   'P 1'
_cell_length_a   7.36167172
_cell_length_b   7.36167077
_cell_length_c   3.47495200
_cell_angle_alpha   90.00000000
_cell_angle_beta   90.00000000
_cell_angle_gamma   120.69959796
_symmetry_Int_Tables_number   1
_chemical_formula_structural   Hf3AlCo(SnIr)2
_chemical_formula_sum   'Hf3 Al1 Co1 Sn2 Ir2'
_cell_volume   161.92999413
_cell_formula_units_Z   1
loop_
 _symmetry_equiv_pos_site_id
 _symmetry_equiv_pos_as_xyz
  1  'x, y, z'
loop_
 _atom_site_type_symbol
 _atom_site_label
 _atom_site_symmetry_multiplicity
 _atom_site_fract_x
 _atom_site_fract_y
 _atom_site_fract_z
 _atom_site_occupancy
  Hf  Hf0  1  0.407079  0.407079  0.500000  1
  Hf  Hf1  1  0.606195  0.982507  0.500000  1
  Hf  Hf2  1  0.982507  0.606195  0.500000  1
  Al  Al3  1  0.742267  0.742267  0.000000  1
  Co  Co4  1  0.985318  0.985318  0.500000  1
  Sn  Sn5  1  0.257457  0.998876  0.000000  1
  Sn  Sn6  1  0.998876  0.257457  0.000000  1
  Ir  Ir7  1  0.671951  0.348349  0.000000  1
  Ir  Ir8  1  0.348349  0.671951  0.000000  1
