# generated using pymatgen
data_TbCe2Y7(Al2Ru3)2
_symmetry_space_group_name_H-M   'P 1'
_cell_length_a   8.49143441
_cell_length_b   8.39482969
_cell_length_c   8.36478516
_cell_angle_alpha   110.00848331
_cell_angle_beta   109.27962024
_cell_angle_gamma   110.27796793
_symmetry_Int_Tables_number   1
_chemical_formula_structural   TbCe2Y7(Al2Ru3)2
_chemical_formula_sum   'Tb1 Ce2 Y7 Al4 Ru6'
_cell_volume   452.34058731
_cell_formula_units_Z   1
loop_
 _symmetry_equiv_pos_site_id
 _symmetry_equiv_pos_as_xyz
  1  'x, y, z'
loop_
 _atom_site_type_symbol
 _atom_site_label
 _atom_site_symmetry_multiplicity
 _atom_site_fract_x
 _atom_site_fract_y
 _atom_site_fract_z
 _atom_site_occupancy
  Tb  Tb0  1  0.781422  0.785997  0.778857  1
  Ce  Ce1  1  0.944159  0.251100  0.195879  1
  Ce  Ce2  1  0.197783  0.943345  0.251658  1
  Y  Y3  1  0.316640  0.565476  0.753917  1
  Y  Y4  1  0.751126  0.316322  0.567444  1
  Y  Y5  1  0.567198  0.748567  0.312955  1
  Y  Y6  1  0.722304  0.503369  0.998816  1
  Y  Y7  1  0.998995  0.720309  0.505420  1
  Y  Y8  1  0.500981  0.991875  0.717016  1
  Y  Y9  1  0.254215  0.189255  0.933627  1
  Al  Al10  1  0.415823  0.410848  0.408787  1
  Al  Al11  1  0.091616  0.492422  0.996778  1
  Al  Al12  1  0.998286  0.091302  0.502823  1
  Al  Al13  1  0.502664  0.009890  0.094722  1
  Ru  Ru14  1  0.869265  0.117464  0.741481  1
  Ru  Ru15  1  0.755491  0.906055  0.123649  1
  Ru  Ru16  1  0.128157  0.764545  0.911430  1
  Ru  Ru17  1  0.222763  0.588191  0.361245  1
  Ru  Ru18  1  0.355750  0.219853  0.591911  1
  Ru  Ru19  1  0.625363  0.383816  0.251582  1
