# generated using pymatgen
data_La3Hg2Pd3Au
_symmetry_space_group_name_H-M   'P 1'
_cell_length_a   7.82165552
_cell_length_b   7.82165555
_cell_length_c   4.01573500
_cell_angle_alpha   90.00000000
_cell_angle_beta   90.00000000
_cell_angle_gamma   118.96745801
_symmetry_Int_Tables_number   1
_chemical_formula_structural   La3Hg2Pd3Au
_chemical_formula_sum   'La3 Hg2 Pd3 Au1'
_cell_volume   214.94052861
_cell_formula_units_Z   1
loop_
 _symmetry_equiv_pos_site_id
 _symmetry_equiv_pos_as_xyz
  1  'x, y, z'
loop_
 _atom_site_type_symbol
 _atom_site_label
 _atom_site_symmetry_multiplicity
 _atom_site_fract_x
 _atom_site_fract_y
 _atom_site_fract_z
 _atom_site_occupancy
  La  La0  1  0.407835  0.407835  0.500000  1
  La  La1  1  0.605797  0.991904  0.500000  1
  La  La2  1  0.991904  0.605797  0.500000  1
  Hg  Hg3  1  0.261951  0.002211  0.000000  1
  Hg  Hg4  1  0.002211  0.261951  0.000000  1
  Pd  Pd5  1  0.663532  0.328657  0.000000  1
  Pd  Pd6  1  0.328657  0.663532  0.000000  1
  Pd  Pd7  1  0.000530  0.000530  0.500000  1
  Au  Au8  1  0.737582  0.737582  0.000000  1
