# generated using pymatgen
data_Tm5Fe13Co4(P6Ru)2
_symmetry_space_group_name_H-M   'P 1'
_cell_length_a   11.97811578
_cell_length_b   11.97811568
_cell_length_c   3.69021800
_cell_angle_alpha   90.00000000
_cell_angle_beta   90.00000000
_cell_angle_gamma   120.27215697
_symmetry_Int_Tables_number   1
_chemical_formula_structural   Tm5Fe13Co4(P6Ru)2
_chemical_formula_sum   'Tm5 Fe13 Co4 P12 Ru2'
_cell_volume   457.25882459
_cell_formula_units_Z   1
loop_
 _symmetry_equiv_pos_site_id
 _symmetry_equiv_pos_as_xyz
  1  'x, y, z'
loop_
 _atom_site_type_symbol
 _atom_site_label
 _atom_site_symmetry_multiplicity
 _atom_site_fract_x
 _atom_site_fract_y
 _atom_site_fract_z
 _atom_site_occupancy
  Tm  Tm0  1  0.668033  0.332523  0.000000  1
  Tm  Tm1  1  0.332523  0.668033  0.000000  1
  Tm  Tm2  1  0.186070  0.186070  0.500000  1
  Tm  Tm3  1  0.814710  0.999506  0.500000  1
  Tm  Tm4  1  0.999506  0.814710  0.500000  1
  Fe  Fe5  1  0.820118  0.194945  0.000000  1
  Fe  Fe6  1  0.800480  0.622036  0.000000  1
  Fe  Fe7  1  0.377512  0.181406  0.000000  1
  Fe  Fe8  1  0.194945  0.820118  0.000000  1
  Fe  Fe9  1  0.622036  0.800480  0.000000  1
  Fe  Fe10  1  0.181406  0.377512  0.000000  1
  Fe  Fe11  1  0.557230  0.557230  0.000000  1
  Fe  Fe12  1  0.640704  0.123666  0.500000  1
  Fe  Fe13  1  0.876953  0.517841  0.500000  1
  Fe  Fe14  1  0.483659  0.361310  0.500000  1
  Fe  Fe15  1  0.123666  0.640704  0.500000  1
  Fe  Fe16  1  0.517841  0.876953  0.500000  1
  Fe  Fe17  1  0.361310  0.483659  0.500000  1
  Co  Co18  1  0.715447  0.715447  0.500000  1
  Co  Co19  1  0.281692  0.000629  0.500000  1
  Co  Co20  1  0.000629  0.281692  0.500000  1
  Co  Co21  1  0.999041  0.999041  0.000000  1
  P  P22  1  0.369038  0.369038  0.000000  1
  P  P23  1  0.634377  0.999102  0.000000  1
  P  P24  1  0.999102  0.634377  0.000000  1
  P  P25  1  0.832105  0.310480  0.500000  1
  P  P26  1  0.688985  0.520305  0.500000  1
  P  P27  1  0.479881  0.168986  0.500000  1
  P  P28  1  0.310480  0.832105  0.500000  1
  P  P29  1  0.520305  0.688985  0.500000  1
  P  P30  1  0.168986  0.479881  0.500000  1
  P  P31  1  0.816388  0.816388  0.000000  1
  P  P32  1  0.181476  0.000467  0.000000  1
  P  P33  1  0.000467  0.181476  0.000000  1
  Ru  Ru34  1  0.443239  0.999659  0.000000  1
  Ru  Ru35  1  0.999659  0.443239  0.000000  1
