# generated using pymatgen
data_Zr3Sc(Al8Pt3)3
_symmetry_space_group_name_H-M   'P 1'
_cell_length_a   7.47279846
_cell_length_b   7.47490419
_cell_length_c   12.97427760
_cell_angle_alpha   84.43192484
_cell_angle_beta   101.00125613
_cell_angle_gamma   119.94544081
_symmetry_Int_Tables_number   1
_chemical_formula_structural   Zr3Sc(Al8Pt3)3
_chemical_formula_sum   'Zr3 Sc1 Al24 Pt9'
_cell_volume   616.43175638
_cell_formula_units_Z   1
loop_
 _symmetry_equiv_pos_site_id
 _symmetry_equiv_pos_as_xyz
  1  'x, y, z'
loop_
 _atom_site_type_symbol
 _atom_site_label
 _atom_site_symmetry_multiplicity
 _atom_site_fract_x
 _atom_site_fract_y
 _atom_site_fract_z
 _atom_site_occupancy
  Zr  Zr0  1  0.732182  0.999239  0.188606  1
  Zr  Zr1  1  0.268406  0.000711  0.811793  1
  Zr  Zr2  1  0.060662  0.667672  0.188611  1
  Sc  Sc3  1  0.937727  0.331799  0.807960  1
  Al  Al4  1  0.813143  0.872735  0.815619  1
  Al  Al5  1  0.187442  0.125393  0.184819  1
  Al  Al6  1  0.983929  0.665653  0.941097  1
  Al  Al7  1  0.016597  0.333616  0.058860  1
  Al  Al8  1  0.393976  0.666206  0.816631  1
  Al  Al9  1  0.607543  0.335516  0.183477  1
  Al  Al10  1  0.886806  0.664693  0.676663  1
  Al  Al11  1  0.113170  0.334802  0.322801  1
  Al  Al12  1  0.600634  0.452040  0.816121  1
  Al  Al13  1  0.397469  0.547925  0.184391  1
  Al  Al14  1  0.228489  0.337414  0.674956  1
  Al  Al15  1  0.770235  0.662186  0.324720  1
  Al  Al16  1  0.853096  0.333273  0.561223  1
  Al  Al17  1  0.187212  0.999827  0.561578  1
  Al  Al18  1  0.812838  0.000467  0.438997  1
  Al  Al19  1  0.353162  0.996076  0.058971  1
  Al  Al20  1  0.648009  0.004650  0.941000  1
  Al  Al21  1  0.558308  0.996478  0.676617  1
  Al  Al22  1  0.442022  0.004467  0.322806  1
  Al  Al23  1  0.521743  0.667444  0.564208  1
  Al  Al24  1  0.478304  0.332595  0.436459  1
  Al  Al25  1  0.687147  0.670169  0.051317  1
  Al  Al26  1  0.312601  0.330186  0.949314  1
  Al  Al27  1  0.146769  0.666585  0.438836  1
  Pt  Pt28  1  0.328323  0.671242  0.000724  1
  Pt  Pt29  1  0.545613  0.324077  0.637579  1
  Pt  Pt30  1  0.454521  0.676654  0.362573  1
  Pt  Pt31  1  0.888536  0.009175  0.638972  1
  Pt  Pt32  1  0.110727  0.990386  0.361192  1
  Pt  Pt33  1  0.672690  0.328621  0.000236  1
  Pt  Pt34  1  0.202961  0.666303  0.638894  1
  Pt  Pt35  1  0.797167  0.333468  0.360791  1
  Pt  Pt36  1  0.999838  0.000259  0.000586  1
