# generated using pymatgen
data_Tb3TmAl4NiRh3
_symmetry_space_group_name_H-M   'P 1'
_cell_length_a   4.21390900
_cell_length_b   6.84252275
_cell_length_c   7.92297813
_cell_angle_alpha   90.68286988
_cell_angle_beta   90.00000000
_cell_angle_gamma   90.00000000
_symmetry_Int_Tables_number   1
_chemical_formula_structural   Tb3TmAl4NiRh3
_chemical_formula_sum   'Tb3 Tm1 Al4 Ni1 Rh3'
_cell_volume   228.43308971
_cell_formula_units_Z   1
loop_
 _symmetry_equiv_pos_site_id
 _symmetry_equiv_pos_as_xyz
  1  'x, y, z'
loop_
 _atom_site_type_symbol
 _atom_site_label
 _atom_site_symmetry_multiplicity
 _atom_site_fract_x
 _atom_site_fract_y
 _atom_site_fract_z
 _atom_site_occupancy
  Tb  Tb0  1  0.250000  0.963127  0.319170  1
  Tb  Tb1  1  0.750000  0.539359  0.822097  1
  Tb  Tb2  1  0.250000  0.465531  0.178121  1
  Tm  Tm3  1  0.750000  0.036559  0.678080  1
  Al  Al4  1  0.750000  0.636672  0.437803  1
  Al  Al5  1  0.750000  0.128809  0.059060  1
  Al  Al6  1  0.250000  0.364576  0.560676  1
  Al  Al7  1  0.250000  0.862936  0.942798  1
  Ni  Ni8  1  0.750000  0.769453  0.124990  1
  Rh  Rh9  1  0.750000  0.262332  0.379809  1
  Rh  Rh10  1  0.250000  0.231254  0.876732  1
  Rh  Rh11  1  0.250000  0.739389  0.620666  1
