# generated using pymatgen
data_TbYb2Lu(Pt2O7)2
_symmetry_space_group_name_H-M   'P 1'
_cell_length_a   7.22571931
_cell_length_b   7.25104191
_cell_length_c   7.25104151
_cell_angle_alpha   60.06093443
_cell_angle_beta   60.04535433
_cell_angle_gamma   60.04535299
_symmetry_Int_Tables_number   1
_chemical_formula_structural   TbYb2Lu(Pt2O7)2
_chemical_formula_sum   'Tb1 Yb2 Lu1 Pt4 O14'
_cell_volume   268.94541568
_cell_formula_units_Z   1
loop_
 _symmetry_equiv_pos_site_id
 _symmetry_equiv_pos_as_xyz
  1  'x, y, z'
loop_
 _atom_site_type_symbol
 _atom_site_label
 _atom_site_symmetry_multiplicity
 _atom_site_fract_x
 _atom_site_fract_y
 _atom_site_fract_z
 _atom_site_occupancy
  Tb  Tb0  1  0.625000  0.625000  0.625000  1
  Yb  Yb1  1  0.625000  0.625000  0.125000  1
  Yb  Yb2  1  0.625000  0.125000  0.625000  1
  Lu  Lu3  1  0.125000  0.625000  0.625000  1
  Pt  Pt4  1  0.125000  0.125000  0.125000  1
  Pt  Pt5  1  0.625000  0.125000  0.125000  1
  Pt  Pt6  1  0.125000  0.125000  0.625000  1
  Pt  Pt7  1  0.125000  0.625000  0.125000  1
  O  O8  1  0.042136  0.463091  0.463091  1
  O  O9  1  0.789076  0.788230  0.214752  1
  O  O10  1  0.791064  0.209343  0.209343  1
  O  O11  1  0.460924  0.035248  0.461770  1
  O  O12  1  0.761945  0.743912  0.743912  1
  O  O13  1  0.049254  0.460981  0.029270  1
  O  O14  1  0.049254  0.029270  0.460981  1
  O  O15  1  0.200746  0.789019  0.220730  1
  O  O16  1  0.200746  0.220730  0.789019  1
  O  O17  1  0.789076  0.214752  0.788230  1
  O  O18  1  0.488055  0.506088  0.506088  1
  O  O19  1  0.458936  0.040657  0.040657  1
  O  O20  1  0.460924  0.461770  0.035248  1
  O  O21  1  0.207864  0.786909  0.786909  1
