# generated using pymatgen
data_Li3Nd3RuAu2
_symmetry_space_group_name_H-M   'P 1'
_cell_length_a   7.44344200
_cell_length_b   7.44344162
_cell_length_c   4.10757400
_cell_angle_alpha   90.00000000
_cell_angle_beta   90.00000000
_cell_angle_gamma   119.99999281
_symmetry_Int_Tables_number   1
_chemical_formula_structural   Li3Nd3RuAu2
_chemical_formula_sum   'Li3 Nd3 Ru1 Au2'
_cell_volume   197.08957564
_cell_formula_units_Z   1
loop_
 _symmetry_equiv_pos_site_id
 _symmetry_equiv_pos_as_xyz
  1  'x, y, z'
loop_
 _atom_site_type_symbol
 _atom_site_label
 _atom_site_symmetry_multiplicity
 _atom_site_fract_x
 _atom_site_fract_y
 _atom_site_fract_z
 _atom_site_occupancy
  Li  Li0  1  0.233292  0.998747  0.500000  1
  Li  Li1  1  0.001253  0.234546  0.500000  1
  Li  Li2  1  0.765454  0.766708  0.500000  1
  Nd  Nd3  1  0.572058  0.980217  0.000000  1
  Nd  Nd4  1  0.019783  0.591841  0.000000  1
  Nd  Nd5  1  0.408159  0.427942  0.000000  1
  Ru  Ru6  1  0.333333  0.666667  0.500000  1
  Au  Au7  1  0.666667  0.333333  0.500000  1
  Au  Au8  1  0.000000  0.000000  0.000000  1
