# generated using pymatgen
data_Dy3ScAl2Ru3
_symmetry_space_group_name_H-M   'P 1'
_cell_length_a   7.05412500
_cell_length_b   7.07539506
_cell_length_c   4.12576600
_cell_angle_alpha   90.00000000
_cell_angle_beta   90.00000000
_cell_angle_gamma   119.90060071
_symmetry_Int_Tables_number   1
_chemical_formula_structural   Dy3ScAl2Ru3
_chemical_formula_sum   'Dy3 Sc1 Al2 Ru3'
_cell_volume   178.51026470
_cell_formula_units_Z   1
loop_
 _symmetry_equiv_pos_site_id
 _symmetry_equiv_pos_as_xyz
  1  'x, y, z'
loop_
 _atom_site_type_symbol
 _atom_site_label
 _atom_site_symmetry_multiplicity
 _atom_site_fract_x
 _atom_site_fract_y
 _atom_site_fract_z
 _atom_site_occupancy
  Dy  Dy0  1  0.403081  0.000000  0.500001  1
  Dy  Dy1  1  0.007764  0.429010  0.500001  1
  Dy  Dy2  1  0.578755  0.570989  0.500001  1
  Sc  Sc3  1  0.759998  0.000000  0.000000  1
  Al  Al4  1  0.245276  0.244177  0.000000  1
  Al  Al5  1  0.001098  0.755823  0.000000  1
  Ru  Ru6  1  0.667490  0.340441  0.000000  1
  Ru  Ru7  1  0.327048  0.659558  0.000000  1
  Ru  Ru8  1  0.009491  0.000000  0.500001  1
