# generated using pymatgen
data_Er7Tm(Si3Ni)4
_symmetry_space_group_name_H-M   'P 1'
_cell_length_a   7.92550000
_cell_length_b   7.92549971
_cell_length_c   7.97290400
_cell_angle_alpha   90.00000000
_cell_angle_beta   90.00000000
_cell_angle_gamma   120.00000122
_symmetry_Int_Tables_number   1
_chemical_formula_structural   Er7Tm(Si3Ni)4
_chemical_formula_sum   'Er7 Tm1 Si12 Ni4'
_cell_volume   433.71104867
_cell_formula_units_Z   1
loop_
 _symmetry_equiv_pos_site_id
 _symmetry_equiv_pos_as_xyz
  1  'x, y, z'
loop_
 _atom_site_type_symbol
 _atom_site_label
 _atom_site_symmetry_multiplicity
 _atom_site_fract_x
 _atom_site_fract_y
 _atom_site_fract_z
 _atom_site_occupancy
  Er  Er0  1  0.500966  0.001933  0.250000  1
  Er  Er1  1  0.499187  0.998375  0.750000  1
  Er  Er2  1  0.998067  0.499034  0.250000  1
  Er  Er3  1  0.001625  0.500813  0.750000  1
  Er  Er4  1  0.500966  0.499034  0.250000  1
  Er  Er5  1  0.499187  0.500813  0.750000  1
  Er  Er6  1  0.000000  0.000000  0.250000  1
  Tm  Tm7  1  0.000000  0.000000  0.750000  1
  Si  Si8  1  0.170724  0.341448  0.000772  1
  Si  Si9  1  0.829289  0.658578  0.998780  1
  Si  Si10  1  0.658552  0.829276  0.000772  1
  Si  Si11  1  0.829289  0.658578  0.501220  1
  Si  Si12  1  0.341422  0.170711  0.998780  1
  Si  Si13  1  0.170724  0.341448  0.499228  1
  Si  Si14  1  0.170724  0.829276  0.000772  1
  Si  Si15  1  0.341422  0.170711  0.501220  1
  Si  Si16  1  0.829289  0.170711  0.998780  1
  Si  Si17  1  0.658552  0.829276  0.499228  1
  Si  Si18  1  0.829289  0.170711  0.501220  1
  Si  Si19  1  0.170724  0.829276  0.499228  1
  Ni  Ni20  1  0.333333  0.666667  0.002209  1
  Ni  Ni21  1  0.666667  0.333333  0.997781  1
  Ni  Ni22  1  0.666667  0.333333  0.502219  1
  Ni  Ni23  1  0.333333  0.666667  0.497791  1
