# generated using pymatgen
data_TmMgInNi7B2
_symmetry_space_group_name_H-M   'P 1'
_cell_length_a   4.94305000
_cell_length_b   4.94304924
_cell_length_c   13.96692600
_cell_angle_alpha   90.00000000
_cell_angle_beta   90.00000000
_cell_angle_gamma   120.00000505
_symmetry_Int_Tables_number   1
_chemical_formula_structural   TmMgInNi7B2
_chemical_formula_sum   'Tm2 Mg2 In2 Ni14 B4'
_cell_volume   295.54347966
_cell_formula_units_Z   2
loop_
 _symmetry_equiv_pos_site_id
 _symmetry_equiv_pos_as_xyz
  1  'x, y, z'
loop_
 _atom_site_type_symbol
 _atom_site_label
 _atom_site_symmetry_multiplicity
 _atom_site_fract_x
 _atom_site_fract_y
 _atom_site_fract_z
 _atom_site_occupancy
  Tm  Tm0  1  0.333333  0.666667  0.750389  1
  Tm  Tm1  1  0.666667  0.333333  0.250389  1
  Mg  Mg2  1  0.333333  0.666667  0.529291  1
  Mg  Mg3  1  0.666667  0.333333  0.029291  1
  In  In4  1  0.666667  0.333333  0.471476  1
  In  In5  1  0.333333  0.666667  0.971476  1
  Ni  Ni6  1  0.000000  0.000000  0.000106  1
  Ni  Ni7  1  0.000000  0.000000  0.500106  1
  Ni  Ni8  1  0.166582  0.333165  0.145317  1
  Ni  Ni9  1  0.833418  0.666835  0.645317  1
  Ni  Ni10  1  0.666835  0.833418  0.145317  1
  Ni  Ni11  1  0.166582  0.833418  0.145317  1
  Ni  Ni12  1  0.833418  0.166582  0.645317  1
  Ni  Ni13  1  0.333165  0.166582  0.645317  1
  Ni  Ni14  1  0.833319  0.666637  0.854462  1
  Ni  Ni15  1  0.833319  0.166681  0.854462  1
  Ni  Ni16  1  0.333363  0.166681  0.854462  1
  Ni  Ni17  1  0.666637  0.833319  0.354462  1
  Ni  Ni18  1  0.166681  0.833319  0.354462  1
  Ni  Ni19  1  0.166681  0.333363  0.354462  1
  B  B20  1  0.333333  0.666667  0.249959  1
  B  B21  1  0.666667  0.333333  0.749959  1
  B  B22  1  0.000000  0.000000  0.249443  1
  B  B23  1  0.000000  0.000000  0.749443  1
