# generated using pymatgen
data_Er2HfSnF14
_symmetry_space_group_name_H-M   'P 1'
_cell_length_a   5.63132459
_cell_length_b   8.97689700
_cell_length_c   12.07223100
_cell_angle_alpha   62.33554896
_cell_angle_beta   90.16583402
_cell_angle_gamma   90.13868932
_symmetry_Int_Tables_number   1
_chemical_formula_structural   Er2HfSnF14
_chemical_formula_sum   'Er4 Hf2 Sn2 F28'
_cell_volume   540.50529390
_cell_formula_units_Z   2
loop_
 _symmetry_equiv_pos_site_id
 _symmetry_equiv_pos_as_xyz
  1  'x, y, z'
loop_
 _atom_site_type_symbol
 _atom_site_label
 _atom_site_symmetry_multiplicity
 _atom_site_fract_x
 _atom_site_fract_y
 _atom_site_fract_z
 _atom_site_occupancy
  Er  Er0  1  0.255638  0.815178  0.267416  1
  Er  Er1  1  0.744362  0.184822  0.732584  1
  Er  Er2  1  0.758203  0.183784  0.237797  1
  Er  Er3  1  0.241797  0.816216  0.762203  1
  Hf  Hf4  1  0.755284  0.725839  0.043871  1
  Hf  Hf5  1  0.244716  0.274161  0.956129  1
  Sn  Sn6  1  0.258087  0.273787  0.456315  1
  Sn  Sn7  1  0.741913  0.726213  0.543685  1
  F  F8  1  0.944182  0.706445  0.415210  1
  F  F9  1  0.055818  0.293555  0.584790  1
  F  F10  1  0.464997  0.289310  0.080919  1
  F  F11  1  0.535003  0.710690  0.919081  1
  F  F12  1  0.482157  0.733952  0.147329  1
  F  F13  1  0.517843  0.266048  0.852671  1
  F  F14  1  0.970019  0.270298  0.359673  1
  F  F15  1  0.029981  0.729702  0.640327  1
  F  F16  1  0.965052  0.749815  0.170760  1
  F  F17  1  0.034948  0.250185  0.829240  1
  F  F18  1  0.454036  0.257760  0.322913  1
  F  F19  1  0.545964  0.742240  0.677087  1
  F  F20  1  0.777137  0.474945  0.141047  1
  F  F21  1  0.222863  0.525055  0.858953  1
  F  F22  1  0.269725  0.523735  0.357408  1
  F  F23  1  0.730275  0.476265  0.642592  1
  F  F24  1  0.951640  0.274026  0.052772  1
  F  F25  1  0.048360  0.725974  0.947228  1
  F  F26  1  0.439896  0.718137  0.456748  1
  F  F27  1  0.560104  0.281863  0.543252  1
  F  F28  1  0.738040  0.976758  0.447959  1
  F  F29  1  0.261960  0.023242  0.552041  1
  F  F30  1  0.242316  0.023688  0.060827  1
  F  F31  1  0.757684  0.976312  0.939173  1
  F  F32  1  0.576195  0.970330  0.238566  1
  F  F33  1  0.423805  0.029670  0.761434  1
  F  F34  1  0.076807  0.026143  0.272039  1
  F  F35  1  0.923193  0.973857  0.727961  1
