# generated using pymatgen
data_Dy3HoFe5Si10Rh
_symmetry_space_group_name_H-M   'P 1'
_cell_length_a   8.02905189
_cell_length_b   8.03009448
_cell_length_c   8.03009465
_cell_angle_alpha   140.39983950
_cell_angle_beta   108.01812242
_cell_angle_gamma   85.42296407
_symmetry_Int_Tables_number   1
_chemical_formula_structural   Dy3HoFe5Si10Rh
_chemical_formula_sum   'Dy3 Ho1 Fe5 Si10 Rh1'
_cell_volume   302.90871049
_cell_formula_units_Z   1
loop_
 _symmetry_equiv_pos_site_id
 _symmetry_equiv_pos_as_xyz
  1  'x, y, z'
loop_
 _atom_site_type_symbol
 _atom_site_label
 _atom_site_symmetry_multiplicity
 _atom_site_fract_x
 _atom_site_fract_y
 _atom_site_fract_z
 _atom_site_occupancy
  Dy  Dy0  1  0.405093  0.637430  0.767665  1
  Dy  Dy1  1  0.871693  0.138844  0.732848  1
  Dy  Dy2  1  0.135616  0.863541  0.272073  1
  Ho  Ho3  1  0.594090  0.362382  0.231706  1
  Fe  Fe4  1  0.995994  0.747292  0.745212  1
  Fe  Fe5  1  0.447730  0.857102  0.590629  1
  Fe  Fe6  1  0.263441  0.354632  0.908809  1
  Fe  Fe7  1  0.736728  0.644389  0.092338  1
  Fe  Fe8  1  0.995994  0.250782  0.248702  1
  Si  Si9  1  0.248568  0.091147  0.157421  1
  Si  Si10  1  0.734918  0.906173  0.828746  1
  Si  Si11  1  0.074699  0.405862  0.668837  1
  Si  Si12  1  0.924627  0.594289  0.330339  1
  Si  Si13  1  0.796901  0.034474  0.245631  1
  Si  Si14  1  0.210964  0.462951  0.251247  1
  Si  Si15  1  0.210964  0.959716  0.748012  1
  Si  Si16  1  0.502724  0.734487  0.243431  1
  Si  Si17  1  0.502724  0.259292  0.768236  1
  Si  Si18  1  0.796901  0.551271  0.762427  1
  Rh  Rh19  1  0.549631  0.143940  0.405691  1
