# generated using pymatgen
data_NdMnFeO5
_symmetry_space_group_name_H-M   'P 1'
_cell_length_a   5.82892200
_cell_length_b   7.56716900
_cell_length_c   8.78322300
_cell_angle_alpha   90.00000000
_cell_angle_beta   90.00000000
_cell_angle_gamma   90.00000000
_symmetry_Int_Tables_number   1
_chemical_formula_structural   NdMnFeO5
_chemical_formula_sum   'Nd4 Mn4 Fe4 O20'
_cell_volume   387.41424592
_cell_formula_units_Z   4
loop_
 _symmetry_equiv_pos_site_id
 _symmetry_equiv_pos_as_xyz
  1  'x, y, z'
loop_
 _atom_site_type_symbol
 _atom_site_label
 _atom_site_symmetry_multiplicity
 _atom_site_fract_x
 _atom_site_fract_y
 _atom_site_fract_z
 _atom_site_occupancy
  Nd  Nd0  1  0.000000  0.363292  0.670984  1
  Nd  Nd1  1  0.000000  0.636708  0.329016  1
  Nd  Nd2  1  0.000000  0.863292  0.829016  1
  Nd  Nd3  1  0.000000  0.136708  0.170984  1
  Mn  Mn4  1  0.251845  0.500000  0.000000  1
  Mn  Mn5  1  0.748155  0.000000  0.500000  1
  Mn  Mn6  1  0.748155  0.500000  0.000000  1
  Mn  Mn7  1  0.251845  0.000000  0.500000  1
  Fe  Fe8  1  0.500000  0.109653  0.856626  1
  Fe  Fe9  1  0.500000  0.890347  0.143374  1
  Fe  Fe10  1  0.500000  0.609653  0.643374  1
  Fe  Fe11  1  0.500000  0.390347  0.356626  1
  O  O12  1  0.247714  0.901547  0.295035  1
  O  O13  1  0.247714  0.098453  0.704965  1
  O  O14  1  0.752286  0.401547  0.204965  1
  O  O15  1  0.752286  0.598453  0.795035  1
  O  O16  1  0.752286  0.098453  0.704965  1
  O  O17  1  0.752286  0.901547  0.295035  1
  O  O18  1  0.247714  0.598453  0.795035  1
  O  O19  1  0.247714  0.401547  0.204965  1
  O  O20  1  0.500000  0.346978  0.935865  1
  O  O21  1  0.500000  0.653022  0.064135  1
  O  O22  1  0.500000  0.846978  0.564135  1
  O  O23  1  0.500000  0.153022  0.435865  1
  O  O24  1  0.272633  0.000000  0.000000  1
  O  O25  1  0.727367  0.500000  0.500000  1
  O  O26  1  0.727367  0.000000  0.000000  1
  O  O27  1  0.272633  0.500000  0.500000  1
  O  O28  1  0.000000  0.156972  0.447249  1
  O  O29  1  0.000000  0.843028  0.552751  1
  O  O30  1  0.000000  0.656972  0.052751  1
  O  O31  1  0.000000  0.343028  0.947249  1
