# generated using pymatgen
data_TbHo11(SiAu)12
_symmetry_space_group_name_H-M   'P 1'
_cell_length_a   4.33165500
_cell_length_b   7.52836809
_cell_length_c   22.25944029
_cell_angle_alpha   89.98209014
_cell_angle_beta   90.00000000
_cell_angle_gamma   90.00000000
_symmetry_Int_Tables_number   1
_chemical_formula_structural   TbHo11(SiAu)12
_chemical_formula_sum   'Tb1 Ho11 Si12 Au12'
_cell_volume   725.88684024
_cell_formula_units_Z   1
loop_
 _symmetry_equiv_pos_site_id
 _symmetry_equiv_pos_as_xyz
  1  'x, y, z'
loop_
 _atom_site_type_symbol
 _atom_site_label
 _atom_site_symmetry_multiplicity
 _atom_site_fract_x
 _atom_site_fract_y
 _atom_site_fract_z
 _atom_site_occupancy
  Tb  Tb0  1  0.250000  0.777248  0.498119  1
  Ho  Ho1  1  0.250000  0.724561  0.332631  1
  Ho  Ho2  1  0.750000  0.270033  0.666687  1
  Ho  Ho3  1  0.750000  0.222818  0.165912  1
  Ho  Ho4  1  0.250000  0.772312  0.834662  1
  Ho  Ho5  1  0.250000  0.773613  0.166710  1
  Ho  Ho6  1  0.750000  0.230671  0.833591  1
  Ho  Ho7  1  0.750000  0.271133  0.332574  1
  Ho  Ho8  1  0.250000  0.732762  0.667640  1
  Ho  Ho9  1  0.250000  0.721564  0.999216  1
  Ho  Ho10  1  0.750000  0.277589  0.001825  1
  Ho  Ho11  1  0.750000  0.220881  0.501067  1
  Si  Si12  1  0.250000  0.088219  0.077459  1
  Si  Si13  1  0.750000  0.912791  0.927103  1
  Si  Si14  1  0.750000  0.586759  0.417385  1
  Si  Si15  1  0.250000  0.412783  0.572782  1
  Si  Si16  1  0.250000  0.086538  0.249454  1
  Si  Si17  1  0.750000  0.914232  0.753373  1
  Si  Si18  1  0.750000  0.586839  0.246072  1
  Si  Si19  1  0.250000  0.414084  0.749104  1
  Si  Si20  1  0.250000  0.089624  0.411932  1
  Si  Si21  1  0.750000  0.910759  0.585351  1
  Si  Si22  1  0.750000  0.589622  0.090699  1
  Si  Si23  1  0.250000  0.410597  0.912886  1
  Au  Au24  1  0.250000  0.418610  0.239912  1
  Au  Au25  1  0.750000  0.581688  0.758916  1
  Au  Au26  1  0.750000  0.918913  0.260472  1
  Au  Au27  1  0.250000  0.081454  0.741545  1
  Au  Au28  1  0.250000  0.419355  0.428654  1
  Au  Au29  1  0.750000  0.579606  0.577833  1
  Au  Au30  1  0.750000  0.918942  0.070800  1
  Au  Au31  1  0.250000  0.080709  0.926754  1
  Au  Au32  1  0.250000  0.420763  0.094924  1
  Au  Au33  1  0.750000  0.580223  0.907589  1
  Au  Au34  1  0.750000  0.920504  0.403012  1
  Au  Au35  1  0.250000  0.081204  0.595357  1
