# generated using pymatgen
data_TbSm3(Ga8Pd3)3
_symmetry_space_group_name_H-M   'P 1'
_cell_length_a   7.53229102
_cell_length_b   7.59680684
_cell_length_c   13.47591868
_cell_angle_alpha   84.83591943
_cell_angle_beta   79.73994140
_cell_angle_gamma   60.22815911
_symmetry_Int_Tables_number   1
_chemical_formula_structural   TbSm3(Ga8Pd3)3
_chemical_formula_sum   'Tb1 Sm3 Ga24 Pd9'
_cell_volume   658.62713685
_cell_formula_units_Z   1
loop_
 _symmetry_equiv_pos_site_id
 _symmetry_equiv_pos_as_xyz
  1  'x, y, z'
loop_
 _atom_site_type_symbol
 _atom_site_label
 _atom_site_symmetry_multiplicity
 _atom_site_fract_x
 _atom_site_fract_y
 _atom_site_fract_z
 _atom_site_occupancy
  Tb  Tb0  1  0.394185  0.168927  0.810757  1
  Sm  Sm1  1  0.606213  0.831166  0.188702  1
  Sm  Sm2  1  0.731980  0.497013  0.811326  1
  Sm  Sm3  1  0.268090  0.503016  0.188438  1
  Ga  Ga4  1  0.686698  0.834534  0.939699  1
  Ga  Ga5  1  0.312464  0.166600  0.058601  1
  Ga  Ga6  1  0.144618  0.834655  0.557935  1
  Ga  Ga7  1  0.855156  0.165341  0.442532  1
  Ga  Ga8  1  0.477924  0.167095  0.556250  1
  Ga  Ga9  1  0.521840  0.832989  0.444323  1
  Ga  Ga10  1  0.218613  0.164869  0.326970  1
  Ga  Ga11  1  0.780409  0.835691  0.673934  1
  Ga  Ga12  1  0.435849  0.504498  0.672893  1
  Ga  Ga13  1  0.563906  0.494838  0.328052  1
  Ga  Ga14  1  0.108138  0.161719  0.671916  1
  Ga  Ga15  1  0.892233  0.838303  0.329145  1
  Ga  Ga16  1  0.354251  0.499356  0.940603  1
  Ga  Ga17  1  0.646190  0.499237  0.058432  1
  Ga  Ga18  1  0.019948  0.166678  0.946065  1
  Ga  Ga19  1  0.981617  0.833499  0.052621  1
  Ga  Ga20  1  0.187491  0.499445  0.443583  1
  Ga  Ga21  1  0.812489  0.500526  0.556754  1
  Ga  Ga22  1  0.735080  0.163941  0.182484  1
  Ga  Ga23  1  0.264498  0.837901  0.817495  1
  Ga  Ga24  1  0.062678  0.630293  0.816697  1
  Ga  Ga25  1  0.939170  0.368348  0.183219  1
  Ga  Ga26  1  0.856801  0.038393  0.816665  1
  Ga  Ga27  1  0.141868  0.961234  0.183252  1
  Pd  Pd28  1  0.116554  0.497159  0.638396  1
  Pd  Pd29  1  0.883360  0.502555  0.362153  1
  Pd  Pd30  1  0.659539  0.169916  0.998762  1
  Pd  Pd31  1  0.340961  0.829728  0.000575  1
  Pd  Pd32  1  0.541872  0.166916  0.361394  1
  Pd  Pd33  1  0.457952  0.833263  0.639154  1
  Pd  Pd34  1  0.778976  0.171783  0.637800  1
  Pd  Pd35  1  0.220797  0.828277  0.362737  1
  Pd  Pd36  1  0.999592  0.500292  0.999680  1
