# generated using pymatgen
data_Dy3U2P12Ru19
_symmetry_space_group_name_H-M   'P 1'
_cell_length_a   12.55136400
_cell_length_b   12.55136480
_cell_length_c   3.96569100
_cell_angle_alpha   90.00000000
_cell_angle_beta   90.00000000
_cell_angle_gamma   119.99999789
_symmetry_Int_Tables_number   1
_chemical_formula_structural   Dy3U2P12Ru19
_chemical_formula_sum   'Dy3 U2 P12 Ru19'
_cell_volume   541.04251052
_cell_formula_units_Z   1
loop_
 _symmetry_equiv_pos_site_id
 _symmetry_equiv_pos_as_xyz
  1  'x, y, z'
loop_
 _atom_site_type_symbol
 _atom_site_label
 _atom_site_symmetry_multiplicity
 _atom_site_fract_x
 _atom_site_fract_y
 _atom_site_fract_z
 _atom_site_occupancy
  Dy  Dy0  1  0.813115  0.000000  0.500000  1
  Dy  Dy1  1  0.186885  0.186885  0.500000  1
  Dy  Dy2  1  0.000000  0.813115  0.500000  1
  U  U3  1  0.666667  0.333333  0.000000  1
  U  U4  1  0.333333  0.666667  0.000000  1
  P  P5  1  0.629800  0.000000  0.000000  1
  P  P6  1  0.370200  0.370200  0.000000  1
  P  P7  1  0.000000  0.629800  0.000000  1
  P  P8  1  0.694688  0.523812  0.500000  1
  P  P9  1  0.829126  0.305312  0.500000  1
  P  P10  1  0.305312  0.829126  0.500000  1
  P  P11  1  0.523812  0.694688  0.500000  1
  P  P12  1  0.182965  0.000000  0.000000  1
  P  P13  1  0.817035  0.817035  0.000000  1
  P  P14  1  0.000000  0.182965  0.000000  1
  P  P15  1  0.476188  0.170874  0.500000  1
  P  P16  1  0.170874  0.476188  0.500000  1
  Ru  Ru17  1  0.619915  0.805056  0.000000  1
  Ru  Ru18  1  0.185141  0.380085  0.000000  1
  Ru  Ru19  1  0.380085  0.185141  0.000000  1
  Ru  Ru20  1  0.194944  0.814859  0.000000  1
  Ru  Ru21  1  0.805056  0.619915  0.000000  1
  Ru  Ru22  1  0.871063  0.504192  0.500000  1
  Ru  Ru23  1  0.495808  0.366871  0.500000  1
  Ru  Ru24  1  0.633129  0.128937  0.500000  1
  Ru  Ru25  1  0.128937  0.633129  0.500000  1
  Ru  Ru26  1  0.366871  0.495808  0.500000  1
  Ru  Ru27  1  0.504192  0.871063  0.500000  1
  Ru  Ru28  1  0.000000  0.000000  0.000000  1
  Ru  Ru29  1  0.717375  0.717375  0.500000  1
  Ru  Ru30  1  0.000000  0.282625  0.500000  1
  Ru  Ru31  1  0.447053  0.000000  0.000000  1
  Ru  Ru32  1  0.552947  0.552947  0.000000  1
  Ru  Ru33  1  0.000000  0.447053  0.000000  1
  Ru  Ru34  1  0.814859  0.194944  0.000000  1
  Ru  Ru35  1  0.282625  0.000000  0.500000  1
