# generated using pymatgen
data_DyYIr2F14
_symmetry_space_group_name_H-M   'P 1'
_cell_length_a   5.59282900
_cell_length_b   8.94601236
_cell_length_c   11.96405342
_cell_angle_alpha   62.56175112
_cell_angle_beta   90.00000000
_cell_angle_gamma   90.00000000
_symmetry_Int_Tables_number   1
_chemical_formula_structural   DyYIr2F14
_chemical_formula_sum   'Dy2 Y2 Ir4 F28'
_cell_volume   531.26553345
_cell_formula_units_Z   2
loop_
 _symmetry_equiv_pos_site_id
 _symmetry_equiv_pos_as_xyz
  1  'x, y, z'
loop_
 _atom_site_type_symbol
 _atom_site_label
 _atom_site_symmetry_multiplicity
 _atom_site_fract_x
 _atom_site_fract_y
 _atom_site_fract_z
 _atom_site_occupancy
  Dy  Dy0  1  0.759989  0.813593  0.766304  1
  Dy  Dy1  1  0.259989  0.186407  0.733696  1
  Y  Y2  1  0.239906  0.186697  0.233649  1
  Y  Y3  1  0.739906  0.813303  0.266351  1
  Ir  Ir4  1  0.757033  0.274071  0.954782  1
  Ir  Ir5  1  0.257033  0.725929  0.545218  1
  Ir  Ir6  1  0.243041  0.726498  0.044440  1
  Ir  Ir7  1  0.743041  0.273502  0.455560  1
  F  F8  1  0.448439  0.705843  0.918622  1
  F  F9  1  0.948439  0.294157  0.581378  1
  F  F10  1  0.552625  0.294843  0.080642  1
  F  F11  1  0.052625  0.705157  0.419358  1
  F  F12  1  0.450587  0.282656  0.545430  1
  F  F13  1  0.950587  0.717344  0.954570  1
  F  F14  1  0.549577  0.716579  0.455407  1
  F  F15  1  0.049577  0.283421  0.044593  1
  F  F16  1  0.766416  0.518724  0.858444  1
  F  F17  1  0.266416  0.481276  0.641556  1
  F  F18  1  0.233347  0.482015  0.141147  1
  F  F19  1  0.733347  0.517985  0.358853  1
  F  F20  1  0.757494  0.029300  0.048645  1
  F  F21  1  0.257494  0.970700  0.451355  1
  F  F22  1  0.242585  0.971270  0.950404  1
  F  F23  1  0.742585  0.028730  0.549596  1
  F  F24  1  0.972295  0.730131  0.640959  1
  F  F25  1  0.472295  0.269869  0.859041  1
  F  F26  1  0.027560  0.270214  0.359748  1
  F  F27  1  0.527560  0.729786  0.140252  1
  F  F28  1  0.042521  0.745178  0.173169  1
  F  F29  1  0.542521  0.254822  0.326831  1
  F  F30  1  0.957929  0.254803  0.826647  1
  F  F31  1  0.457929  0.745197  0.673353  1
  F  F32  1  0.418969  0.971438  0.232346  1
  F  F33  1  0.918969  0.028562  0.267654  1
  F  F34  1  0.579686  0.028035  0.767365  1
  F  F35  1  0.079686  0.971965  0.732635  1
