# generated using pymatgen
data_Er2Sc3Pt4
_symmetry_space_group_name_H-M   'P 1'
_cell_length_a   7.29517200
_cell_length_b   7.39218600
_cell_length_c   13.77547900
_cell_angle_alpha   90.00000000
_cell_angle_beta   90.00000000
_cell_angle_gamma   90.00000000
_symmetry_Int_Tables_number   1
_chemical_formula_structural   Er2Sc3Pt4
_chemical_formula_sum   'Er8 Sc12 Pt16'
_cell_volume   742.87395235
_cell_formula_units_Z   4
loop_
 _symmetry_equiv_pos_site_id
 _symmetry_equiv_pos_as_xyz
  1  'x, y, z'
loop_
 _atom_site_type_symbol
 _atom_site_label
 _atom_site_symmetry_multiplicity
 _atom_site_fract_x
 _atom_site_fract_y
 _atom_site_fract_z
 _atom_site_occupancy
  Er  Er0  1  0.009332  0.175126  0.095889  1
  Er  Er1  1  0.990668  0.824874  0.904111  1
  Er  Er2  1  0.490668  0.675126  0.904111  1
  Er  Er3  1  0.990668  0.824874  0.595889  1
  Er  Er4  1  0.509332  0.324874  0.095889  1
  Er  Er5  1  0.009332  0.175126  0.404111  1
  Er  Er6  1  0.509332  0.324874  0.404111  1
  Er  Er7  1  0.490668  0.675126  0.595889  1
  Sc  Sc8  1  0.161468  0.503706  0.750000  1
  Sc  Sc9  1  0.838532  0.496294  0.250000  1
  Sc  Sc10  1  0.338532  0.003706  0.250000  1
  Sc  Sc11  1  0.661468  0.996294  0.750000  1
  Sc  Sc12  1  0.331058  0.170239  0.623276  1
  Sc  Sc13  1  0.668942  0.829761  0.376724  1
  Sc  Sc14  1  0.168942  0.670239  0.376724  1
  Sc  Sc15  1  0.668942  0.829761  0.123276  1
  Sc  Sc16  1  0.831058  0.329761  0.623276  1
  Sc  Sc17  1  0.331058  0.170239  0.876724  1
  Sc  Sc18  1  0.831058  0.329761  0.876724  1
  Sc  Sc19  1  0.168942  0.670239  0.123276  1
  Pt  Pt20  1  0.028788  0.122924  0.750000  1
  Pt  Pt21  1  0.971212  0.877076  0.250000  1
  Pt  Pt22  1  0.471212  0.622924  0.250000  1
  Pt  Pt23  1  0.528788  0.377076  0.750000  1
  Pt  Pt24  1  0.294879  0.857010  0.750000  1
  Pt  Pt25  1  0.705121  0.142990  0.250000  1
  Pt  Pt26  1  0.205121  0.357010  0.250000  1
  Pt  Pt27  1  0.794879  0.642990  0.750000  1
  Pt  Pt28  1  0.173031  0.461703  0.542949  1
  Pt  Pt29  1  0.826969  0.538297  0.457051  1
  Pt  Pt30  1  0.326969  0.961703  0.457051  1
  Pt  Pt31  1  0.826969  0.538297  0.042949  1
  Pt  Pt32  1  0.673031  0.038297  0.542949  1
  Pt  Pt33  1  0.173031  0.461703  0.957051  1
  Pt  Pt34  1  0.673031  0.038297  0.957051  1
  Pt  Pt35  1  0.326969  0.961703  0.042949  1
