# generated using pymatgen
data_Ho3Tm7CuIrPb6
_symmetry_space_group_name_H-M   'P 1'
_cell_length_a   9.10853200
_cell_length_b   9.10853191
_cell_length_c   6.69699200
_cell_angle_alpha   90.00000000
_cell_angle_beta   90.00000000
_cell_angle_gamma   120.00000032
_symmetry_Int_Tables_number   1
_chemical_formula_structural   Ho3Tm7CuIrPb6
_chemical_formula_sum   'Ho3 Tm7 Cu1 Ir1 Pb6'
_cell_volume   481.17957365
_cell_formula_units_Z   1
loop_
 _symmetry_equiv_pos_site_id
 _symmetry_equiv_pos_as_xyz
  1  'x, y, z'
loop_
 _atom_site_type_symbol
 _atom_site_label
 _atom_site_symmetry_multiplicity
 _atom_site_fract_x
 _atom_site_fract_y
 _atom_site_fract_z
 _atom_site_occupancy
  Ho  Ho0  1  0.666667  0.333333  0.500000  1
  Ho  Ho1  1  0.666667  0.333333  0.000000  1
  Ho  Ho2  1  0.333333  0.666667  0.000000  1
  Tm  Tm3  1  0.243629  0.999956  0.739033  1
  Tm  Tm4  1  0.756327  0.999956  0.260967  1
  Tm  Tm5  1  0.000044  0.243673  0.739033  1
  Tm  Tm6  1  0.000044  0.756371  0.260967  1
  Tm  Tm7  1  0.756327  0.756371  0.739033  1
  Tm  Tm8  1  0.243629  0.243673  0.260967  1
  Tm  Tm9  1  0.333333  0.666667  0.500000  1
  Cu  Cu10  1  0.000000  0.000000  0.000000  1
  Ir  Ir11  1  0.000000  0.000000  0.500000  1
  Pb  Pb12  1  0.603046  0.999858  0.751744  1
  Pb  Pb13  1  0.396812  0.999858  0.248256  1
  Pb  Pb14  1  0.000142  0.603188  0.751744  1
  Pb  Pb15  1  0.000142  0.396954  0.248256  1
  Pb  Pb16  1  0.396812  0.396954  0.751744  1
  Pb  Pb17  1  0.603046  0.603188  0.248256  1
