# generated using pymatgen
data_SmSb12(OsRu)2
_symmetry_space_group_name_H-M   'P 1'
_cell_length_a   8.14964291
_cell_length_b   8.14132048
_cell_length_c   8.14151770
_cell_angle_alpha   109.42429162
_cell_angle_beta   109.47432428
_cell_angle_gamma   109.47337362
_symmetry_Int_Tables_number   1
_chemical_formula_structural   SmSb12(OsRu)2
_chemical_formula_sum   'Sm1 Sb12 Os2 Ru2'
_cell_volume   416.04469023
_cell_formula_units_Z   1
loop_
 _symmetry_equiv_pos_site_id
 _symmetry_equiv_pos_as_xyz
  1  'x, y, z'
loop_
 _atom_site_type_symbol
 _atom_site_label
 _atom_site_symmetry_multiplicity
 _atom_site_fract_x
 _atom_site_fract_y
 _atom_site_fract_z
 _atom_site_occupancy
  Sm  Sm0  1  0.000000  0.000000  0.000000  1
  Sb  Sb1  1  0.338573  0.181405  0.843650  1
  Sb  Sb2  1  0.661427  0.818595  0.156350  1
  Sb  Sb3  1  0.661424  0.505077  0.842826  1
  Sb  Sb4  1  0.338576  0.494923  0.157174  1
  Sb  Sb5  1  0.181767  0.843443  0.338327  1
  Sb  Sb6  1  0.818233  0.156557  0.661673  1
  Sb  Sb7  1  0.505121  0.843116  0.661998  1
  Sb  Sb8  1  0.494879  0.156884  0.338002  1
  Sb  Sb9  1  0.842786  0.337626  0.181376  1
  Sb  Sb10  1  0.157214  0.662374  0.818624  1
  Sb  Sb11  1  0.842783  0.661412  0.505164  1
  Sb  Sb12  1  0.157217  0.338588  0.494836  1
  Os  Os13  1  0.000000  0.000000  0.500000  1
  Os  Os14  1  0.000000  0.500000  0.000000  1
  Ru  Ru15  1  0.500000  0.000000  0.000000  1
  Ru  Ru16  1  0.500000  0.500000  0.500000  1
