# generated using pymatgen
data_Nd3Si2(Ag2Sn)2
_symmetry_space_group_name_H-M   'P 1'
_cell_length_a   8.70153053
_cell_length_b   8.70153200
_cell_length_c   8.70153081
_cell_angle_alpha   149.47088798
_cell_angle_beta   131.40494979
_cell_angle_gamma   58.48324353
_symmetry_Int_Tables_number   1
_chemical_formula_structural   Nd3Si2(Ag2Sn)2
_chemical_formula_sum   'Nd3 Si2 Ag4 Sn2'
_cell_volume   249.11579065
_cell_formula_units_Z   1
loop_
 _symmetry_equiv_pos_site_id
 _symmetry_equiv_pos_as_xyz
  1  'x, y, z'
loop_
 _atom_site_type_symbol
 _atom_site_label
 _atom_site_symmetry_multiplicity
 _atom_site_fract_x
 _atom_site_fract_y
 _atom_site_fract_z
 _atom_site_occupancy
  Nd  Nd0  1  0.500000  0.000000  0.500000  1
  Nd  Nd1  1  0.122651  0.122651  0.000000  1
  Nd  Nd2  1  0.877349  0.877349  0.000000  1
  Si  Si3  1  0.169947  0.500000  0.669947  1
  Si  Si4  1  0.830053  0.500000  0.330053  1
  Ag  Ag5  1  0.459432  0.655019  0.804413  1
  Ag  Ag6  1  0.850606  0.655019  0.195587  1
  Ag  Ag7  1  0.149394  0.344981  0.804413  1
  Ag  Ag8  1  0.540568  0.344981  0.195587  1
  Sn  Sn9  1  0.717245  0.217245  0.500000  1
  Sn  Sn10  1  0.282755  0.782755  0.500000  1
