# generated using pymatgen
data_In5Bi2Ir3
_symmetry_space_group_name_H-M   'P 1'
_cell_length_a   8.36584579
_cell_length_b   8.33837978
_cell_length_c   8.36584612
_cell_angle_alpha   110.28613613
_cell_angle_beta   109.11381819
_cell_angle_gamma   109.15111279
_symmetry_Int_Tables_number   1
_chemical_formula_structural   In5Bi2Ir3
_chemical_formula_sum   'In10 Bi4 Ir6'
_cell_volume   448.43209188
_cell_formula_units_Z   2
loop_
 _symmetry_equiv_pos_site_id
 _symmetry_equiv_pos_as_xyz
  1  'x, y, z'
loop_
 _atom_site_type_symbol
 _atom_site_label
 _atom_site_symmetry_multiplicity
 _atom_site_fract_x
 _atom_site_fract_y
 _atom_site_fract_z
 _atom_site_occupancy
  In  In0  1  0.998964  0.998714  0.691954  1
  In  In1  1  0.306759  0.998714  0.999750  1
  In  In2  1  0.680442  0.670428  0.671971  1
  In  In3  1  0.007351  0.328757  0.003639  1
  In  In4  1  0.325117  0.328757  0.321406  1
  In  In5  1  0.998457  0.670428  0.989986  1
  In  In6  1  0.247545  0.743853  0.496308  1
  In  In7  1  0.752892  0.257179  0.504287  1
  In  In8  1  0.751427  0.499520  0.253787  1
  In  In9  1  0.245733  0.499520  0.748093  1
  Bi  Bi10  1  0.497485  0.747344  0.249859  1
  Bi  Bi11  1  0.506199  0.256056  0.749857  1
  Bi  Bi12  1  0.006668  0.000788  0.335032  1
  Bi  Bi13  1  0.665756  0.000788  0.994121  1
  Ir  Ir14  1  0.655921  0.000922  0.653330  1
  Ir  Ir15  1  0.656298  0.659214  0.002915  1
  Ir  Ir16  1  0.348470  0.344271  0.995801  1
  Ir  Ir17  1  0.004448  0.653761  0.649314  1
  Ir  Ir18  1  0.996477  0.340065  0.343588  1
  Ir  Ir19  1  0.347591  0.000922  0.345001  1
