# generated using pymatgen
data_Ca6Cu12Pd4N
_symmetry_space_group_name_H-M   'P 1'
_cell_length_a   7.87137503
_cell_length_b   7.93378370
_cell_length_c   7.88050671
_cell_angle_alpha   109.57386187
_cell_angle_beta   109.24715666
_cell_angle_gamma   109.93595010
_symmetry_Int_Tables_number   1
_chemical_formula_structural   Ca6Cu12Pd4N
_chemical_formula_sum   'Ca6 Cu12 Pd4 N1'
_cell_volume   377.22256604
_cell_formula_units_Z   1
loop_
 _symmetry_equiv_pos_site_id
 _symmetry_equiv_pos_as_xyz
  1  'x, y, z'
loop_
 _atom_site_type_symbol
 _atom_site_label
 _atom_site_symmetry_multiplicity
 _atom_site_fract_x
 _atom_site_fract_y
 _atom_site_fract_z
 _atom_site_occupancy
  Ca  Ca0  1  0.005988  0.269762  0.269528  1
  Ca  Ca1  1  0.270433  0.004662  0.270918  1
  Ca  Ca2  1  0.733795  0.000821  0.734007  1
  Ca  Ca3  1  0.735389  0.735157  0.001205  1
  Ca  Ca4  1  0.270183  0.267415  0.002992  1
  Ca  Ca5  1  0.003785  0.737256  0.734857  1
  Cu  Cu6  1  0.510157  0.509221  0.508265  1
  Cu  Cu7  1  0.504380  0.994943  0.001916  1
  Cu  Cu8  1  0.995693  0.499227  0.994687  1
  Cu  Cu9  1  0.992463  0.997439  0.496277  1
  Cu  Cu10  1  0.331246  0.656785  0.989985  1
  Cu  Cu11  1  0.987390  0.332193  0.657866  1
  Cu  Cu12  1  0.986924  0.656050  0.328390  1
  Cu  Cu13  1  0.665771  0.664350  0.325231  1
  Cu  Cu14  1  0.658612  0.989528  0.331809  1
  Cu  Cu15  1  0.663881  0.337701  0.998189  1
  Cu  Cu16  1  0.664297  0.328498  0.668391  1
  Cu  Cu17  1  0.327797  0.664096  0.667023  1
  Pd  Pd18  1  0.682023  0.338885  0.340464  1
  Pd  Pd19  1  0.335216  0.993002  0.660071  1
  Pd  Pd20  1  0.337213  0.675297  0.334378  1
  Pd  Pd21  1  0.336298  0.346958  0.682655  1
  N  N22  1  0.001065  0.000754  0.000896  1
