# generated using pymatgen
data_NdY2In3Ga2Rh
_symmetry_space_group_name_H-M   'P 1'
_cell_length_a   7.32196129
_cell_length_b   7.27444014
_cell_length_c   4.46783500
_cell_angle_alpha   90.00000000
_cell_angle_beta   90.00000000
_cell_angle_gamma   119.78553373
_symmetry_Int_Tables_number   1
_chemical_formula_structural   NdY2In3Ga2Rh
_chemical_formula_sum   'Nd1 Y2 In3 Ga2 Rh1'
_cell_volume   206.53291078
_cell_formula_units_Z   1
loop_
 _symmetry_equiv_pos_site_id
 _symmetry_equiv_pos_as_xyz
  1  'x, y, z'
loop_
 _atom_site_type_symbol
 _atom_site_label
 _atom_site_symmetry_multiplicity
 _atom_site_fract_x
 _atom_site_fract_y
 _atom_site_fract_z
 _atom_site_occupancy
  Nd  Nd0  1  0.000000  0.592155  0.500000  1
  Y  Y1  1  0.405057  0.404439  0.500000  1
  Y  Y2  1  0.594943  0.999382  0.500000  1
  In  In3  1  0.000000  0.243656  0.000000  1
  In  In4  1  0.246238  0.001449  0.000000  1
  In  In5  1  0.753762  0.755211  0.000000  1
  Ga  Ga6  1  0.336894  0.668163  0.000000  1
  Ga  Ga7  1  0.663106  0.331268  0.000000  1
  Rh  Rh8  1  0.000000  0.004275  0.500000  1
