# generated using pymatgen
data_Nd2Er(InIr6)3
_symmetry_space_group_name_H-M   'P 1'
_cell_length_a   5.21903100
_cell_length_b   8.95152214
_cell_length_c   8.95152214
_cell_angle_alpha   89.79635603
_cell_angle_beta   90.00000000
_cell_angle_gamma   90.00000000
_symmetry_Int_Tables_number   1
_chemical_formula_structural   Nd2Er(InIr6)3
_chemical_formula_sum   'Nd2 Er1 In3 Ir18'
_cell_volume   418.19700014
_cell_formula_units_Z   1
loop_
 _symmetry_equiv_pos_site_id
 _symmetry_equiv_pos_as_xyz
  1  'x, y, z'
loop_
 _atom_site_type_symbol
 _atom_site_label
 _atom_site_symmetry_multiplicity
 _atom_site_fract_x
 _atom_site_fract_y
 _atom_site_fract_z
 _atom_site_occupancy
  Nd  Nd0  1  0.000000  0.499329  0.504579  1
  Nd  Nd1  1  0.000000  0.004579  0.999329  1
  Er  Er2  1  0.000000  0.618214  0.118214  1
  In  In3  1  0.000000  0.377738  0.877738  1
  In  In4  1  0.000000  0.879043  0.620534  1
  In  In5  1  0.000000  0.120534  0.379043  1
  Ir  Ir6  1  0.757072  0.180559  0.680559  1
  Ir  Ir7  1  0.755673  0.821862  0.321862  1
  Ir  Ir8  1  0.755472  0.318514  0.180701  1
  Ir  Ir9  1  0.755472  0.680701  0.818514  1
  Ir  Ir10  1  0.244327  0.821862  0.321862  1
  Ir  Ir11  1  0.242928  0.180559  0.680559  1
  Ir  Ir12  1  0.244528  0.680701  0.818514  1
  Ir  Ir13  1  0.244528  0.318514  0.180701  1
  Ir  Ir14  1  0.500000  0.703444  0.555401  1
  Ir  Ir15  1  0.500000  0.296803  0.442109  1
  Ir  Ir16  1  0.500000  0.793925  0.059020  1
  Ir  Ir17  1  0.500000  0.203117  0.943178  1
  Ir  Ir18  1  0.500000  0.559020  0.293925  1
  Ir  Ir19  1  0.500000  0.443178  0.703117  1
  Ir  Ir20  1  0.500000  0.055401  0.203444  1
  Ir  Ir21  1  0.500000  0.942109  0.796803  1
  Ir  Ir22  1  0.500000  0.001902  0.501902  1
  Ir  Ir23  1  0.500000  0.498390  0.998390  1
