# generated using pymatgen
data_Ce2Al9Ni2Ru
_symmetry_space_group_name_H-M   'P 1'
_cell_length_a   7.54441829
_cell_length_b   7.54441773
_cell_length_c   9.39078300
_cell_angle_alpha   90.00000000
_cell_angle_beta   90.00000000
_cell_angle_gamma   119.04061000
_symmetry_Int_Tables_number   1
_chemical_formula_structural   Ce2Al9Ni2Ru
_chemical_formula_sum   'Ce4 Al18 Ni4 Ru2'
_cell_volume   467.30645621
_cell_formula_units_Z   2
loop_
 _symmetry_equiv_pos_site_id
 _symmetry_equiv_pos_as_xyz
  1  'x, y, z'
loop_
 _atom_site_type_symbol
 _atom_site_label
 _atom_site_symmetry_multiplicity
 _atom_site_fract_x
 _atom_site_fract_y
 _atom_site_fract_z
 _atom_site_occupancy
  Ce  Ce0  1  0.996150  0.676517  0.250000  1
  Ce  Ce1  1  0.003850  0.323483  0.750000  1
  Ce  Ce2  1  0.676517  0.996150  0.250000  1
  Ce  Ce3  1  0.323483  0.003850  0.750000  1
  Al  Al4  1  0.001093  0.339016  0.074550  1
  Al  Al5  1  0.998907  0.660984  0.925450  1
  Al  Al6  1  0.998907  0.660984  0.574550  1
  Al  Al7  1  0.339016  0.001093  0.425450  1
  Al  Al8  1  0.001093  0.339016  0.425450  1
  Al  Al9  1  0.660984  0.998907  0.574550  1
  Al  Al10  1  0.660984  0.998907  0.925450  1
  Al  Al11  1  0.339016  0.001093  0.074550  1
  Al  Al12  1  0.334875  0.334875  0.544464  1
  Al  Al13  1  0.665125  0.665125  0.455536  1
  Al  Al14  1  0.665125  0.665125  0.044464  1
  Al  Al15  1  0.334875  0.334875  0.955536  1
  Al  Al16  1  0.136098  0.136098  0.250000  1
  Al  Al17  1  0.863902  0.863902  0.750000  1
  Al  Al18  1  0.345402  0.556060  0.250000  1
  Al  Al19  1  0.654598  0.443940  0.750000  1
  Al  Al20  1  0.556060  0.345402  0.250000  1
  Al  Al21  1  0.443940  0.654598  0.750000  1
  Ni  Ni22  1  0.670256  0.329744  0.000000  1
  Ni  Ni23  1  0.329744  0.670256  0.000000  1
  Ni  Ni24  1  0.329744  0.670256  0.500000  1
  Ni  Ni25  1  0.670256  0.329744  0.500000  1
  Ru  Ru26  1  0.000000  0.000000  0.000000  1
  Ru  Ru27  1  0.000000  0.000000  0.500000  1
