# generated using pymatgen
data_DyHo3Sb2(RhO7)2
_symmetry_space_group_name_H-M   'P 1'
_cell_length_a   7.29007579
_cell_length_b   7.25332051
_cell_length_c   7.28892959
_cell_angle_alpha   60.16147857
_cell_angle_beta   60.76516892
_cell_angle_gamma   60.16665157
_symmetry_Int_Tables_number   1
_chemical_formula_structural   DyHo3Sb2(RhO7)2
_chemical_formula_sum   'Dy1 Ho3 Sb2 Rh2 O14'
_cell_volume   274.75867294
_cell_formula_units_Z   1
loop_
 _symmetry_equiv_pos_site_id
 _symmetry_equiv_pos_as_xyz
  1  'x, y, z'
loop_
 _atom_site_type_symbol
 _atom_site_label
 _atom_site_symmetry_multiplicity
 _atom_site_fract_x
 _atom_site_fract_y
 _atom_site_fract_z
 _atom_site_occupancy
  Dy  Dy0  1  0.624992  0.125006  0.124995  1
  Ho  Ho1  1  0.124995  0.625002  0.125001  1
  Ho  Ho2  1  0.124990  0.125005  0.625000  1
  Ho  Ho3  1  0.124995  0.125002  0.125001  1
  Sb  Sb4  1  0.125015  0.624991  0.625002  1
  Sb  Sb5  1  0.625010  0.624993  0.125005  1
  Rh  Rh6  1  0.624995  0.625010  0.624994  1
  Rh  Rh7  1  0.624995  0.125000  0.624994  1
  O  O8  1  0.283012  0.707312  0.719026  1
  O  O9  1  0.530716  0.959257  0.966881  1
  O  O10  1  0.725790  0.274965  0.724280  1
  O  O11  1  0.283012  0.290650  0.719026  1
  O  O12  1  0.719315  0.706822  0.283104  1
  O  O13  1  0.005008  0.996014  0.002963  1
  O  O14  1  0.294980  0.705028  0.294963  1
  O  O15  1  0.955043  0.544952  0.955052  1
  O  O16  1  0.966980  0.959366  0.531005  1
  O  O17  1  0.530716  0.543146  0.966881  1
  O  O18  1  0.244963  0.254007  0.247023  1
  O  O19  1  0.524180  0.975062  0.525695  1
  O  O20  1  0.719315  0.290759  0.283104  1
  O  O21  1  0.966980  0.542649  0.531005  1
