# generated using pymatgen
data_Sr2DyCu7(Ni3B)2
_symmetry_space_group_name_H-M   'P 1'
_cell_length_a   5.15049004
_cell_length_b   5.14912715
_cell_length_c   10.98551906
_cell_angle_alpha   89.99948524
_cell_angle_beta   90.00102924
_cell_angle_gamma   120.00874316
_symmetry_Int_Tables_number   1
_chemical_formula_structural   Sr2DyCu7(Ni3B)2
_chemical_formula_sum   'Sr2 Dy1 Cu7 Ni6 B2'
_cell_volume   252.28713935
_cell_formula_units_Z   1
loop_
 _symmetry_equiv_pos_site_id
 _symmetry_equiv_pos_as_xyz
  1  'x, y, z'
loop_
 _atom_site_type_symbol
 _atom_site_label
 _atom_site_symmetry_multiplicity
 _atom_site_fract_x
 _atom_site_fract_y
 _atom_site_fract_z
 _atom_site_occupancy
  Sr  Sr0  1  0.000021  0.000000  0.317590  1
  Sr  Sr1  1  0.999916  0.000000  0.682346  1
  Dy  Dy2  1  0.000038  0.000000  0.000006  1
  Cu  Cu3  1  0.499960  0.000000  0.499971  1
  Cu  Cu4  1  0.499951  0.499997  0.499983  1
  Cu  Cu5  1  0.999954  0.500003  0.499983  1
  Cu  Cu6  1  0.333380  0.666746  0.312390  1
  Cu  Cu7  1  0.666634  0.333254  0.312390  1
  Cu  Cu8  1  0.666585  0.333302  0.687597  1
  Cu  Cu9  1  0.333284  0.666698  0.687597  1
  Ni  Ni10  1  0.500041  0.000000  0.124998  1
  Ni  Ni11  1  0.500038  0.500001  0.125142  1
  Ni  Ni12  1  0.000037  0.499999  0.125142  1
  Ni  Ni13  1  0.500002  0.000000  0.874939  1
  Ni  Ni14  1  0.500002  0.499999  0.874947  1
  Ni  Ni15  1  0.000003  0.500001  0.874947  1
  B  B16  1  0.333303  0.666553  0.000014  1
  B  B17  1  0.666750  0.333447  0.000014  1
