# generated using pymatgen
data_Nb12Fe8Re4CN3
_symmetry_space_group_name_H-M   'P 1'
_cell_length_a   8.20745486
_cell_length_b   8.21332207
_cell_length_c   8.20749600
_cell_angle_alpha   60.02285009
_cell_angle_beta   59.99988256
_cell_angle_gamma   60.02307524
_symmetry_Int_Tables_number   1
_chemical_formula_structural   Nb12Fe8Re4CN3
_chemical_formula_sum   'Nb12 Fe8 Re4 C1 N3'
_cell_volume   391.35717493
_cell_formula_units_Z   1
loop_
 _symmetry_equiv_pos_site_id
 _symmetry_equiv_pos_as_xyz
  1  'x, y, z'
loop_
 _atom_site_type_symbol
 _atom_site_label
 _atom_site_symmetry_multiplicity
 _atom_site_fract_x
 _atom_site_fract_y
 _atom_site_fract_z
 _atom_site_occupancy
  Nb  Nb0  1  0.805357  0.806331  0.194117  1
  Nb  Nb1  1  0.193968  0.193033  0.806648  1
  Nb  Nb2  1  0.806358  0.192948  0.806785  1
  Nb  Nb3  1  0.194250  0.806280  0.194058  1
  Nb  Nb4  1  0.194251  0.806071  0.805407  1
  Nb  Nb5  1  0.806519  0.192967  0.193857  1
  Nb  Nb6  1  0.444643  0.443669  0.055883  1
  Nb  Nb7  1  0.056032  0.056967  0.443352  1
  Nb  Nb8  1  0.443642  0.057052  0.443215  1
  Nb  Nb9  1  0.055750  0.443720  0.055942  1
  Nb  Nb10  1  0.055749  0.443929  0.444593  1
  Nb  Nb11  1  0.443481  0.057033  0.056143  1
  Fe  Fe12  1  0.729820  0.422910  0.423822  1
  Fe  Fe13  1  0.423383  0.729748  0.423038  1
  Fe  Fe14  1  0.423749  0.422655  0.730285  1
  Fe  Fe15  1  0.423394  0.423365  0.423176  1
  Fe  Fe16  1  0.520180  0.827090  0.826178  1
  Fe  Fe17  1  0.826617  0.520252  0.826962  1
  Fe  Fe18  1  0.826251  0.827345  0.519715  1
  Fe  Fe19  1  0.826606  0.826635  0.826824  1
  Re  Re20  1  0.125000  0.625000  0.625000  1
  Re  Re21  1  0.625000  0.125000  0.625000  1
  Re  Re22  1  0.625000  0.625000  0.125000  1
  Re  Re23  1  0.625000  0.625000  0.625000  1
  C  C24  1  0.125000  0.625000  0.125000  1
  N  N25  1  0.625000  0.125000  0.125000  1
  N  N26  1  0.125000  0.125000  0.625000  1
  N  N27  1  0.125000  0.125000  0.125000  1
