# generated using pymatgen
data_Lu3Zn3Hg2Ru
_symmetry_space_group_name_H-M   'P 1'
_cell_length_a   7.66467800
_cell_length_b   7.66467726
_cell_length_c   3.66241400
_cell_angle_alpha   90.00000000
_cell_angle_beta   90.00000000
_cell_angle_gamma   120.00000321
_symmetry_Int_Tables_number   1
_chemical_formula_structural   Lu3Zn3Hg2Ru
_chemical_formula_sum   'Lu3 Zn3 Hg2 Ru1'
_cell_volume   186.33131111
_cell_formula_units_Z   1
loop_
 _symmetry_equiv_pos_site_id
 _symmetry_equiv_pos_as_xyz
  1  'x, y, z'
loop_
 _atom_site_type_symbol
 _atom_site_label
 _atom_site_symmetry_multiplicity
 _atom_site_fract_x
 _atom_site_fract_y
 _atom_site_fract_z
 _atom_site_occupancy
  Lu  Lu0  1  0.579773  0.613604  0.000000  1
  Lu  Lu1  1  0.386396  0.966168  0.000000  1
  Lu  Lu2  1  0.033832  0.420227  0.000000  1
  Zn  Zn3  1  0.273803  0.286083  0.500000  1
  Zn  Zn4  1  0.713917  0.987719  0.500000  1
  Zn  Zn5  1  0.012281  0.726197  0.500000  1
  Hg  Hg6  1  0.000000  0.000000  0.000000  1
  Hg  Hg7  1  0.666667  0.333333  0.500000  1
  Ru  Ru8  1  0.333333  0.666667  0.500000  1
