# generated using pymatgen
data_Tb12Pr8Ga11Si5
_symmetry_space_group_name_H-M   'P 1'
_cell_length_a   7.61452573
_cell_length_b   8.05330172
_cell_length_c   15.26917222
_cell_angle_alpha   89.97702898
_cell_angle_beta   90.15443785
_cell_angle_gamma   90.27968287
_symmetry_Int_Tables_number   1
_chemical_formula_structural   Tb12Pr8Ga11Si5
_chemical_formula_sum   'Tb12 Pr8 Ga11 Si5'
_cell_volume   936.32266812
_cell_formula_units_Z   1
loop_
 _symmetry_equiv_pos_site_id
 _symmetry_equiv_pos_as_xyz
  1  'x, y, z'
loop_
 _atom_site_type_symbol
 _atom_site_label
 _atom_site_symmetry_multiplicity
 _atom_site_fract_x
 _atom_site_fract_y
 _atom_site_fract_z
 _atom_site_occupancy
  Tb  Tb0  1  0.326110  0.175215  0.620682  1
  Tb  Tb1  1  0.673852  0.820166  0.378693  1
  Tb  Tb2  1  0.665628  0.979128  0.751803  1
  Tb  Tb3  1  0.175849  0.677139  0.377915  1
  Tb  Tb4  1  0.822264  0.324613  0.877837  1
  Tb  Tb5  1  0.823347  0.327129  0.621686  1
  Tb  Tb6  1  0.838621  0.483324  0.251145  1
  Tb  Tb7  1  0.335808  0.019810  0.251292  1
  Tb  Tb8  1  0.327746  0.176979  0.876839  1
  Tb  Tb9  1  0.175263  0.672229  0.123563  1
  Tb  Tb10  1  0.673479  0.824175  0.122050  1
  Tb  Tb11  1  0.160638  0.515787  0.750732  1
  Pr  Pr12  1  0.020384  0.181266  0.406441  1
  Pr  Pr13  1  0.518161  0.321137  0.407214  1
  Pr  Pr14  1  0.484116  0.681015  0.906125  1
  Pr  Pr15  1  0.482857  0.684947  0.593329  1
  Pr  Pr16  1  0.981720  0.813639  0.593389  1
  Pr  Pr17  1  0.980478  0.820339  0.905908  1
  Pr  Pr18  1  0.515485  0.317860  0.094988  1
  Pr  Pr19  1  0.016738  0.184220  0.094984  1
  Ga  Ga20  1  0.271698  0.878374  0.748970  1
  Ga  Ga21  1  0.468664  0.605245  0.251478  1
  Ga  Ga22  1  0.031773  0.112626  0.747671  1
  Ga  Ga23  1  0.530798  0.395161  0.748545  1
  Ga  Ga24  1  0.153509  0.469166  0.539649  1
  Ga  Ga25  1  0.967582  0.888021  0.250350  1
  Ga  Ga26  1  0.727697  0.121596  0.251544  1
  Ga  Ga27  1  0.844469  0.530532  0.041046  1
  Ga  Ga28  1  0.344861  0.966992  0.040108  1
  Ga  Ga29  1  0.154180  0.469486  0.958159  1
  Ga  Ga30  1  0.654887  0.033072  0.539447  1
  Si  Si31  1  0.348914  0.968608  0.458207  1
  Si  Si32  1  0.850743  0.529229  0.457731  1
  Si  Si33  1  0.774412  0.617409  0.748968  1
  Si  Si34  1  0.226060  0.382270  0.251818  1
  Si  Si35  1  0.651212  0.032095  0.959691  1
