# generated using pymatgen
data_Tb5TmNi20P13
_symmetry_space_group_name_H-M   'P 1'
_cell_length_a   12.63362937
_cell_length_b   12.65430193
_cell_length_c   3.73911900
_cell_angle_alpha   90.00000000
_cell_angle_beta   90.00000000
_cell_angle_gamma   119.95896397
_symmetry_Int_Tables_number   1
_chemical_formula_structural   Tb5TmNi20P13
_chemical_formula_sum   'Tb5 Tm1 Ni20 P13'
_cell_volume   517.89972236
_cell_formula_units_Z   1
loop_
 _symmetry_equiv_pos_site_id
 _symmetry_equiv_pos_as_xyz
  1  'x, y, z'
loop_
 _atom_site_type_symbol
 _atom_site_label
 _atom_site_symmetry_multiplicity
 _atom_site_fract_x
 _atom_site_fract_y
 _atom_site_fract_z
 _atom_site_occupancy
  Tb  Tb0  1  0.717992  0.530100  0.000000  1
  Tb  Tb1  1  0.812143  0.282086  0.000000  1
  Tb  Tb2  1  0.469632  0.187796  0.000000  1
  Tb  Tb3  1  0.530385  0.812394  0.500000  1
  Tb  Tb4  1  0.281592  0.469615  0.500000  1
  Tm  Tm5  1  0.187806  0.718150  0.500000  1
  Ni  Ni6  1  0.895374  0.803853  0.000000  1
  Ni  Ni7  1  0.909731  0.105372  0.000000  1
  Ni  Ni8  1  0.195515  0.090173  0.000000  1
  Ni  Ni9  1  0.666328  0.333125  0.500000  1
  Ni  Ni10  1  0.849750  0.928216  0.500000  1
  Ni  Ni11  1  0.078804  0.150099  0.500000  1
  Ni  Ni12  1  0.071319  0.921276  0.500000  1
  Ni  Ni13  1  0.332526  0.667234  0.000000  1
  Ni  Ni14  1  0.979409  0.562193  0.000000  1
  Ni  Ni15  1  0.583286  0.021688  0.000000  1
  Ni  Ni16  1  0.438683  0.417199  0.000000  1
  Ni  Ni17  1  0.930136  0.682743  0.500000  1
  Ni  Ni18  1  0.753494  0.070747  0.500000  1
  Ni  Ni19  1  0.317121  0.246536  0.500000  1
  Ni  Ni20  1  0.412010  0.977052  0.500000  1
  Ni  Ni21  1  0.564800  0.587369  0.500000  1
  Ni  Ni22  1  0.022490  0.435873  0.500000  1
  Ni  Ni23  1  0.679829  0.758337  0.000000  1
  Ni  Ni24  1  0.079254  0.320935  0.000000  1
  Ni  Ni25  1  0.240742  0.919853  0.000000  1
  P  P26  1  0.862516  0.475951  0.500000  1
  P  P27  1  0.612942  0.136950  0.500000  1
  P  P28  1  0.523592  0.386772  0.500000  1
  P  P29  1  0.767647  0.721545  0.500000  1
  P  P30  1  0.954736  0.233097  0.500000  1
  P  P31  1  0.278139  0.045914  0.500000  1
  P  P32  1  0.384310  0.861761  0.000000  1
  P  P33  1  0.476549  0.614618  0.000000  1
  P  P34  1  0.138087  0.524652  0.000000  1
  P  P35  1  0.718075  0.952552  0.000000  1
  P  P36  1  0.235024  0.282180  0.000000  1
  P  P37  1  0.048600  0.764503  0.000000  1
  P  P38  1  0.999630  0.999492  0.000000  1
