# generated using pymatgen
data_Er3Tm9Co4SnPt
_symmetry_space_group_name_H-M   'P 1'
_cell_length_a   8.19647286
_cell_length_b   8.19647276
_cell_length_c   8.19821901
_cell_angle_alpha   111.06698946
_cell_angle_beta   110.72357417
_cell_angle_gamma   106.65028218
_symmetry_Int_Tables_number   1
_chemical_formula_structural   Er3Tm9Co4SnPt
_chemical_formula_sum   'Er3 Tm9 Co4 Sn1 Pt1'
_cell_volume   423.26600831
_cell_formula_units_Z   1
loop_
 _symmetry_equiv_pos_site_id
 _symmetry_equiv_pos_as_xyz
  1  'x, y, z'
loop_
 _atom_site_type_symbol
 _atom_site_label
 _atom_site_symmetry_multiplicity
 _atom_site_fract_x
 _atom_site_fract_y
 _atom_site_fract_z
 _atom_site_occupancy
  Er  Er0  1  0.814434  0.711830  0.526264  1
  Er  Er1  1  0.185521  0.711600  0.897121  1
  Er  Er2  1  0.814759  0.288226  0.102985  1
  Tm  Tm3  1  0.314349  0.618914  0.304696  1
  Tm  Tm4  1  0.685341  0.380892  0.695319  1
  Tm  Tm5  1  0.314428  0.009978  0.695319  1
  Tm  Tm6  1  0.685784  0.990347  0.304696  1
  Tm  Tm7  1  0.417496  0.217249  0.200621  1
  Tm  Tm8  1  0.582153  0.782539  0.799351  1
  Tm  Tm9  1  0.016812  0.217198  0.799351  1
  Tm  Tm10  1  0.983371  0.783124  0.200621  1
  Tm  Tm11  1  0.185297  0.288164  0.473461  1
  Co  Co12  1  0.112891  0.612496  0.499945  1
  Co  Co13  1  0.887450  0.387055  0.499945  1
  Co  Co14  1  0.377070  0.000165  0.377236  1
  Co  Co15  1  0.622836  0.999993  0.622830  1
  Sn  Sn16  1  0.499970  0.499997  0.999966  1
  Pt  Pt17  1  0.000038  0.000235  0.000273  1
