# generated using pymatgen
data_Er4Tm4B24IrRu3
_symmetry_space_group_name_H-M   'P 1'
_cell_length_a   3.62853200
_cell_length_b   9.08585634
_cell_length_c   11.44035343
_cell_angle_alpha   90.03141394
_cell_angle_beta   90.00000000
_cell_angle_gamma   90.00000000
_symmetry_Int_Tables_number   1
_chemical_formula_structural   Er4Tm4B24IrRu3
_chemical_formula_sum   'Er4 Tm4 B24 Ir1 Ru3'
_cell_volume   377.16918162
_cell_formula_units_Z   1
loop_
 _symmetry_equiv_pos_site_id
 _symmetry_equiv_pos_as_xyz
  1  'x, y, z'
loop_
 _atom_site_type_symbol
 _atom_site_label
 _atom_site_symmetry_multiplicity
 _atom_site_fract_x
 _atom_site_fract_y
 _atom_site_fract_z
 _atom_site_occupancy
  Er  Er0  1  0.000000  0.318362  0.414673  1
  Er  Er1  1  0.000000  0.679540  0.588795  1
  Er  Er2  1  0.000000  0.822756  0.083995  1
  Er  Er3  1  0.000000  0.179009  0.913485  1
  Tm  Tm4  1  0.000000  0.945797  0.373221  1
  Tm  Tm5  1  0.000000  0.056009  0.626996  1
  Tm  Tm6  1  0.000000  0.441694  0.125602  1
  Tm  Tm7  1  0.000000  0.556002  0.873186  1
  B  B8  1  0.500000  0.553945  0.434021  1
  B  B9  1  0.500000  0.445929  0.566588  1
  B  B10  1  0.500000  0.054296  0.066694  1
  B  B11  1  0.500000  0.946012  0.933128  1
  B  B12  1  0.500000  0.750236  0.421231  1
  B  B13  1  0.500000  0.250734  0.580024  1
  B  B14  1  0.500000  0.248619  0.079796  1
  B  B15  1  0.500000  0.751256  0.920049  1
  B  B16  1  0.500000  0.792707  0.265031  1
  B  B17  1  0.500000  0.208408  0.734248  1
  B  B18  1  0.500000  0.291984  0.234753  1
  B  B19  1  0.500000  0.708185  0.765710  1
  B  B20  1  0.500000  0.631502  0.183179  1
  B  B21  1  0.500000  0.368861  0.815357  1
  B  B22  1  0.500000  0.131465  0.315607  1
  B  B23  1  0.500000  0.868429  0.684626  1
  B  B24  1  0.500000  0.982453  0.213059  1
  B  B25  1  0.500000  0.017457  0.786776  1
  B  B26  1  0.500000  0.481317  0.286478  1
  B  B27  1  0.500000  0.517418  0.713330  1
  B  B28  1  0.500000  0.607538  0.029733  1
  B  B29  1  0.500000  0.392541  0.970534  1
  B  B30  1  0.500000  0.107203  0.470635  1
  B  B31  1  0.500000  0.892315  0.529179  1
  Ir  Ir32  1  0.000000  0.637667  0.321337  1
  Ru  Ru33  1  0.000000  0.362297  0.678669  1
  Ru  Ru34  1  0.000000  0.138158  0.179528  1
  Ru  Ru35  1  0.000000  0.861899  0.820747  1
