# generated using pymatgen
data_Nd8(SeS3)3
_symmetry_space_group_name_H-M   'P 1'
_cell_length_a   4.06850500
_cell_length_b   7.63332353
_cell_length_c   15.84035424
_cell_angle_alpha   90.07295144
_cell_angle_beta   90.00000000
_cell_angle_gamma   90.00000000
_symmetry_Int_Tables_number   1
_chemical_formula_structural   Nd8(SeS3)3
_chemical_formula_sum   'Nd8 Se3 S9'
_cell_volume   491.94104754
_cell_formula_units_Z   1
loop_
 _symmetry_equiv_pos_site_id
 _symmetry_equiv_pos_as_xyz
  1  'x, y, z'
loop_
 _atom_site_type_symbol
 _atom_site_label
 _atom_site_symmetry_multiplicity
 _atom_site_fract_x
 _atom_site_fract_y
 _atom_site_fract_z
 _atom_site_occupancy
  Nd  Nd0  1  0.750000  0.247649  0.542787  1
  Nd  Nd1  1  0.250000  0.752451  0.456315  1
  Nd  Nd2  1  0.750000  0.746106  0.958277  1
  Nd  Nd3  1  0.250000  0.263225  0.045834  1
  Nd  Nd4  1  0.250000  0.142114  0.796129  1
  Nd  Nd5  1  0.750000  0.853725  0.203949  1
  Nd  Nd6  1  0.250000  0.642178  0.705671  1
  Nd  Nd7  1  0.750000  0.357923  0.291896  1
  Se  Se8  1  0.250000  0.007076  0.610055  1
  Se  Se9  1  0.750000  0.992168  0.388785  1
  Se  Se10  1  0.250000  0.507172  0.890611  1
  S  S11  1  0.750000  0.489274  0.108739  1
  S  S12  1  0.750000  0.353160  0.718282  1
  S  S13  1  0.250000  0.645087  0.280454  1
  S  S14  1  0.750000  0.853027  0.783238  1
  S  S15  1  0.250000  0.146192  0.217882  1
  S  S16  1  0.250000  0.374596  0.430372  1
  S  S17  1  0.750000  0.625737  0.568598  1
  S  S18  1  0.250000  0.875080  0.068819  1
  S  S19  1  0.750000  0.126058  0.933307  1
