# generated using pymatgen
data_Sr4IrPt3I2
_symmetry_space_group_name_H-M   'P 1'
_cell_length_a   4.47428100
_cell_length_b   4.47428074
_cell_length_c   17.86801200
_cell_angle_alpha   90.00000000
_cell_angle_beta   90.00000000
_cell_angle_gamma   119.99999452
_symmetry_Int_Tables_number   1
_chemical_formula_structural   Sr4IrPt3I2
_chemical_formula_sum   'Sr4 Ir1 Pt3 I2'
_cell_volume   309.78000158
_cell_formula_units_Z   1
loop_
 _symmetry_equiv_pos_site_id
 _symmetry_equiv_pos_as_xyz
  1  'x, y, z'
loop_
 _atom_site_type_symbol
 _atom_site_label
 _atom_site_symmetry_multiplicity
 _atom_site_fract_x
 _atom_site_fract_y
 _atom_site_fract_z
 _atom_site_occupancy
  Sr  Sr0  1  0.000000  0.000000  0.106259  1
  Sr  Sr1  1  0.000000  0.000000  0.893514  1
  Sr  Sr2  1  0.000000  0.000000  0.611025  1
  Sr  Sr3  1  0.000000  0.000000  0.389027  1
  Ir  Ir4  1  0.333333  0.666667  0.999243  1
  Pt  Pt5  1  0.333333  0.666667  0.501351  1
  Pt  Pt6  1  0.666667  0.333333  0.498653  1
  Pt  Pt7  1  0.666667  0.333333  0.001029  1
  I  I8  1  0.333333  0.666667  0.250865  1
  I  I9  1  0.666667  0.333333  0.749034  1
