# generated using pymatgen
data_Ho20Ir8Ru3Rh
_symmetry_space_group_name_H-M   'P 1'
_cell_length_a   10.78283600
_cell_length_b   10.78283600
_cell_length_c   6.39991100
_cell_angle_alpha   90.00000000
_cell_angle_beta   90.00000000
_cell_angle_gamma   90.00000000
_symmetry_Int_Tables_number   1
_chemical_formula_structural   Ho20Ir8Ru3Rh
_chemical_formula_sum   'Ho20 Ir8 Ru3 Rh1'
_cell_volume   744.11478611
_cell_formula_units_Z   1
loop_
 _symmetry_equiv_pos_site_id
 _symmetry_equiv_pos_as_xyz
  1  'x, y, z'
loop_
 _atom_site_type_symbol
 _atom_site_label
 _atom_site_symmetry_multiplicity
 _atom_site_fract_x
 _atom_site_fract_y
 _atom_site_fract_z
 _atom_site_occupancy
  Ho  Ho0  1  0.292196  0.087265  0.379894  1
  Ho  Ho1  1  0.291958  0.912710  0.876184  1
  Ho  Ho2  1  0.708042  0.087290  0.876184  1
  Ho  Ho3  1  0.707804  0.912735  0.379894  1
  Ho  Ho4  1  0.587290  0.791958  0.876184  1
  Ho  Ho5  1  0.587265  0.207804  0.379894  1
  Ho  Ho6  1  0.412735  0.792196  0.379894  1
  Ho  Ho7  1  0.412710  0.208042  0.876184  1
  Ho  Ho8  1  0.206325  0.413510  0.622244  1
  Ho  Ho9  1  0.206330  0.586630  0.122241  1
  Ho  Ho10  1  0.793670  0.413370  0.122241  1
  Ho  Ho11  1  0.793675  0.586490  0.622244  1
  Ho  Ho12  1  0.913370  0.706330  0.122241  1
  Ho  Ho13  1  0.913510  0.293675  0.622244  1
  Ho  Ho14  1  0.086490  0.706325  0.622244  1
  Ho  Ho15  1  0.086630  0.293670  0.122241  1
  Ho  Ho16  1  0.000000  0.000000  0.500046  1
  Ho  Ho17  1  0.000000  0.000000  0.000108  1
  Ho  Ho18  1  0.500000  0.500000  0.000108  1
  Ho  Ho19  1  0.500000  0.500000  0.500046  1
  Ir  Ir20  1  0.846901  0.152112  0.249675  1
  Ir  Ir21  1  0.847015  0.847682  0.750046  1
  Ir  Ir22  1  0.152985  0.152318  0.750046  1
  Ir  Ir23  1  0.153099  0.847888  0.249675  1
  Ir  Ir24  1  0.652318  0.347015  0.750046  1
  Ir  Ir25  1  0.652112  0.653099  0.249675  1
  Ir  Ir26  1  0.347888  0.346901  0.249675  1
  Ir  Ir27  1  0.347682  0.652985  0.750046  1
  Ru  Ru28  1  0.500000  0.000000  0.621839  1
  Ru  Ru29  1  0.000000  0.500000  0.877736  1
  Ru  Ru30  1  0.000000  0.500000  0.377706  1
  Rh  Rh31  1  0.500000  0.000000  0.121273  1
