# generated using pymatgen
data_Dy8Co3Si12Pt
_symmetry_space_group_name_H-M   'P 1'
_cell_length_a   8.05020200
_cell_length_b   8.05020395
_cell_length_c   7.97093000
_cell_angle_alpha   89.99994306
_cell_angle_beta   90.00000000
_cell_angle_gamma   119.99995911
_symmetry_Int_Tables_number   1
_chemical_formula_structural   Dy8Co3Si12Pt
_chemical_formula_sum   'Dy8 Co3 Si12 Pt1'
_cell_volume   447.35620673
_cell_formula_units_Z   1
loop_
 _symmetry_equiv_pos_site_id
 _symmetry_equiv_pos_as_xyz
  1  'x, y, z'
loop_
 _atom_site_type_symbol
 _atom_site_label
 _atom_site_symmetry_multiplicity
 _atom_site_fract_x
 _atom_site_fract_y
 _atom_site_fract_z
 _atom_site_occupancy
  Dy  Dy0  1  0.000000  0.000000  0.248056  1
  Dy  Dy1  1  0.000000  0.000000  0.752867  1
  Dy  Dy2  1  0.015172  0.507587  0.246026  1
  Dy  Dy3  1  0.492413  0.507586  0.246025  1
  Dy  Dy4  1  0.503657  0.007314  0.751988  1
  Dy  Dy5  1  0.492413  0.984828  0.246025  1
  Dy  Dy6  1  0.503657  0.496344  0.751987  1
  Dy  Dy7  1  0.992686  0.496343  0.751988  1
  Co  Co8  1  0.333333  0.666667  0.967045  1
  Co  Co9  1  0.333333  0.666667  0.532777  1
  Co  Co10  1  0.666667  0.333334  0.030155  1
  Si  Si11  1  0.170993  0.341987  0.999342  1
  Si  Si12  1  0.658013  0.829007  0.999341  1
  Si  Si13  1  0.173059  0.346116  0.498855  1
  Si  Si14  1  0.343899  0.171949  0.000117  1
  Si  Si15  1  0.170993  0.829006  0.999342  1
  Si  Si16  1  0.653884  0.826941  0.498854  1
  Si  Si17  1  0.828050  0.656101  0.000117  1
  Si  Si18  1  0.327044  0.163522  0.501912  1
  Si  Si19  1  0.173059  0.826941  0.498855  1
  Si  Si20  1  0.836478  0.672956  0.501913  1
  Si  Si21  1  0.828050  0.171949  0.000117  1
  Si  Si22  1  0.836478  0.163522  0.501913  1
  Pt  Pt23  1  0.666667  0.333333  0.474384  1
