# generated using pymatgen
data_YTm5Al24Os5Pt3
_symmetry_space_group_name_H-M   'P 1'
_cell_length_a   8.80310663
_cell_length_b   8.82272320
_cell_length_c   9.51978644
_cell_angle_alpha   90.10443930
_cell_angle_beta   89.66173743
_cell_angle_gamma   119.57218223
_symmetry_Int_Tables_number   1
_chemical_formula_structural   YTm5Al24Os5Pt3
_chemical_formula_sum   'Y1 Tm5 Al24 Os5 Pt3'
_cell_volume   643.04990833
_cell_formula_units_Z   1
loop_
 _symmetry_equiv_pos_site_id
 _symmetry_equiv_pos_as_xyz
  1  'x, y, z'
loop_
 _atom_site_type_symbol
 _atom_site_label
 _atom_site_symmetry_multiplicity
 _atom_site_fract_x
 _atom_site_fract_y
 _atom_site_fract_z
 _atom_site_occupancy
  Y  Y0  1  0.187943  0.382968  0.250839  1
  Tm  Tm1  1  0.811498  0.613900  0.748311  1
  Tm  Tm2  1  0.611441  0.814115  0.252613  1
  Tm  Tm3  1  0.388535  0.186018  0.747469  1
  Tm  Tm4  1  0.197296  0.808500  0.252142  1
  Tm  Tm5  1  0.802816  0.192058  0.747892  1
  Al  Al6  1  0.335554  0.671589  0.030712  1
  Al  Al7  1  0.664647  0.328996  0.968330  1
  Al  Al8  1  0.668978  0.331681  0.528997  1
  Al  Al9  1  0.330739  0.668581  0.471794  1
  Al  Al10  1  0.157777  0.325357  0.576717  1
  Al  Al11  1  0.842113  0.674881  0.424246  1
  Al  Al12  1  0.673650  0.840626  0.576407  1
  Al  Al13  1  0.837020  0.676536  0.078377  1
  Al  Al14  1  0.326726  0.159213  0.424318  1
  Al  Al15  1  0.163073  0.323641  0.920628  1
  Al  Al16  1  0.163310  0.835015  0.576741  1
  Al  Al17  1  0.325872  0.158762  0.076400  1
  Al  Al18  1  0.836013  0.165011  0.424096  1
  Al  Al19  1  0.674623  0.841042  0.922868  1
  Al  Al20  1  0.831318  0.159322  0.077463  1
  Al  Al21  1  0.168131  0.840665  0.921891  1
  Al  Al22  1  0.561106  0.125248  0.249858  1
  Al  Al23  1  0.439000  0.874867  0.750226  1
  Al  Al24  1  0.874124  0.438416  0.252769  1
  Al  Al25  1  0.125750  0.562094  0.747550  1
  Al  Al26  1  0.563003  0.437358  0.249759  1
  Al  Al27  1  0.437906  0.562990  0.750328  1
  Al  Al28  1  0.998134  0.000601  0.250229  1
  Al  Al29  1  0.000512  0.996803  0.749777  1
  Os  Os30  1  0.500123  0.000229  0.999910  1
  Os  Os31  1  0.500028  0.000091  0.500154  1
  Os  Os32  1  0.999534  0.500306  0.500825  1
  Os  Os33  1  0.000146  0.000296  0.999982  1
  Os  Os34  1  0.000129  0.000346  0.500041  1
  Pt  Pt35  1  0.999466  0.500639  0.999243  1
  Pt  Pt36  1  0.501026  0.500637  0.999437  1
  Pt  Pt37  1  0.500940  0.500605  0.500662  1
