# generated using pymatgen
data_Y10Er10Si15Pd
_symmetry_space_group_name_H-M   'P 1'
_cell_length_a   7.42109617
_cell_length_b   7.65388044
_cell_length_c   14.54344703
_cell_angle_alpha   90.29129080
_cell_angle_beta   90.55191740
_cell_angle_gamma   90.25084548
_symmetry_Int_Tables_number   1
_chemical_formula_structural   Y10Er10Si15Pd
_chemical_formula_sum   'Y10 Er10 Si15 Pd1'
_cell_volume   826.01335400
_cell_formula_units_Z   1
loop_
 _symmetry_equiv_pos_site_id
 _symmetry_equiv_pos_as_xyz
  1  'x, y, z'
loop_
 _atom_site_type_symbol
 _atom_site_label
 _atom_site_symmetry_multiplicity
 _atom_site_fract_x
 _atom_site_fract_y
 _atom_site_fract_z
 _atom_site_occupancy
  Y  Y0  1  0.025298  0.817484  0.600017  1
  Y  Y1  1  0.523715  0.677685  0.599606  1
  Y  Y2  1  0.319186  0.821324  0.121284  1
  Y  Y3  1  0.818708  0.680226  0.122662  1
  Y  Y4  1  0.851291  0.505281  0.749108  1
  Y  Y5  1  0.471285  0.318314  0.099076  1
  Y  Y6  1  0.028861  0.817505  0.901165  1
  Y  Y7  1  0.472746  0.323747  0.401749  1
  Y  Y8  1  0.652249  0.012592  0.254424  1
  Y  Y9  1  0.530724  0.681872  0.899192  1
  Er  Er10  1  0.681319  0.178117  0.876429  1
  Er  Er11  1  0.176578  0.320073  0.623221  1
  Er  Er12  1  0.183397  0.321384  0.876338  1
  Er  Er13  1  0.822406  0.684530  0.380075  1
  Er  Er14  1  0.319833  0.825554  0.378248  1
  Er  Er15  1  0.350664  0.990101  0.747195  1
  Er  Er16  1  0.681110  0.167534  0.620557  1
  Er  Er17  1  0.150018  0.490725  0.251620  1
  Er  Er18  1  0.969841  0.184170  0.099785  1
  Er  Er19  1  0.974590  0.180991  0.400499  1
  Si  Si20  1  0.233484  0.626314  0.750726  1
  Si  Si21  1  0.342292  0.029459  0.541637  1
  Si  Si22  1  0.026325  0.895993  0.248688  1
  Si  Si23  1  0.733098  0.870744  0.751369  1
  Si  Si24  1  0.266259  0.129264  0.247745  1
  Si  Si25  1  0.848529  0.467715  0.540072  1
  Si  Si26  1  0.478278  0.388904  0.749067  1
  Si  Si27  1  0.147546  0.530512  0.460565  1
  Si  Si28  1  0.145454  0.525674  0.040618  1
  Si  Si29  1  0.977482  0.105014  0.751684  1
  Si  Si30  1  0.769685  0.377163  0.250418  1
  Si  Si31  1  0.355437  0.030273  0.958007  1
  Si  Si32  1  0.855577  0.467558  0.959369  1
  Si  Si33  1  0.647473  0.972818  0.038561  1
  Si  Si34  1  0.523302  0.608499  0.249744  1
  Pd  Pd35  1  0.645961  0.974886  0.459477  1
