# generated using pymatgen
data_Na2Pu(SeO5)2
_symmetry_space_group_name_H-M   'P 1'
_cell_length_a   5.79853168
_cell_length_b   6.43832379
_cell_length_c   7.27776377
_cell_angle_alpha   104.20105832
_cell_angle_beta   99.50318224
_cell_angle_gamma   105.57230034
_symmetry_Int_Tables_number   1
_chemical_formula_structural   Na2Pu(SeO5)2
_chemical_formula_sum   'Na2 Pu1 Se2 O10'
_cell_volume   245.84558008
_cell_formula_units_Z   1
loop_
 _symmetry_equiv_pos_site_id
 _symmetry_equiv_pos_as_xyz
  1  'x, y, z'
loop_
 _atom_site_type_symbol
 _atom_site_label
 _atom_site_symmetry_multiplicity
 _atom_site_fract_x
 _atom_site_fract_y
 _atom_site_fract_z
 _atom_site_occupancy
  Na  Na0  1  0.892181  0.256705  0.789606  1
  Na  Na1  1  0.107819  0.743295  0.210394  1
  Pu  Pu2  1  0.500000  0.500000  0.500000  1
  Se  Se3  1  0.845510  0.174344  0.251827  1
  Se  Se4  1  0.154490  0.825656  0.748173  1
  O  O5  1  0.893332  0.734292  0.557399  1
  O  O6  1  0.106668  0.265708  0.442601  1
  O  O7  1  0.862337  0.351900  0.120911  1
  O  O8  1  0.137663  0.648100  0.879089  1
  O  O9  1  0.803662  0.911786  0.128192  1
  O  O10  1  0.196338  0.088214  0.871808  1
  O  O11  1  0.622425  0.186151  0.377147  1
  O  O12  1  0.377575  0.813849  0.622853  1
  O  O13  1  0.575899  0.451385  0.728452  1
  O  O14  1  0.424101  0.548615  0.271548  1
