# generated using pymatgen
data_Dy12CuNi4Pb
_symmetry_space_group_name_H-M   'P 1'
_cell_length_a   8.35071746
_cell_length_b   8.35071727
_cell_length_c   8.35071863
_cell_angle_alpha   112.40229173
_cell_angle_beta   109.42042037
_cell_angle_gamma   106.64228610
_symmetry_Int_Tables_number   1
_chemical_formula_structural   Dy12CuNi4Pb
_chemical_formula_sum   'Dy12 Cu1 Ni4 Pb1'
_cell_volume   447.14602092
_cell_formula_units_Z   1
loop_
 _symmetry_equiv_pos_site_id
 _symmetry_equiv_pos_as_xyz
  1  'x, y, z'
loop_
 _atom_site_type_symbol
 _atom_site_label
 _atom_site_symmetry_multiplicity
 _atom_site_fract_x
 _atom_site_fract_y
 _atom_site_fract_z
 _atom_site_occupancy
  Dy  Dy0  1  0.023750  0.718028  0.305721  1
  Dy  Dy1  1  0.976250  0.281972  0.694279  1
  Dy  Dy2  1  0.587693  0.281972  0.305721  1
  Dy  Dy3  1  0.412307  0.718028  0.694279  1
  Dy  Dy4  1  0.676926  0.867780  0.190854  1
  Dy  Dy5  1  0.323074  0.513927  0.190854  1
  Dy  Dy6  1  0.323074  0.132220  0.809146  1
  Dy  Dy7  1  0.676926  0.486073  0.809146  1
  Dy  Dy8  1  0.179718  0.207192  0.386910  1
  Dy  Dy9  1  0.820282  0.207192  0.027472  1
  Dy  Dy10  1  0.179718  0.792808  0.972528  1
  Dy  Dy11  1  0.820282  0.792808  0.613090  1
  Cu  Cu12  1  0.000000  0.500000  0.500000  1
  Ni  Ni13  1  0.642631  0.500000  0.142631  1
  Ni  Ni14  1  0.357369  0.500000  0.857369  1
  Ni  Ni15  1  0.875613  0.875613  0.000000  1
  Ni  Ni16  1  0.124387  0.124387  0.000000  1
  Pb  Pb17  1  0.500000  0.000000  0.500000  1
