# generated using pymatgen
data_Dy13Y3(In3Co)2
_symmetry_space_group_name_H-M   'P 1'
_cell_length_a   10.37399700
_cell_length_b   10.37399717
_cell_length_c   7.03278700
_cell_angle_alpha   90.00002625
_cell_angle_beta   89.99996714
_cell_angle_gamma   119.99996781
_symmetry_Int_Tables_number   1
_chemical_formula_structural   Dy13Y3(In3Co)2
_chemical_formula_sum   'Dy13 Y3 In6 Co2'
_cell_volume   655.46646918
_cell_formula_units_Z   1
loop_
 _symmetry_equiv_pos_site_id
 _symmetry_equiv_pos_as_xyz
  1  'x, y, z'
loop_
 _atom_site_type_symbol
 _atom_site_label
 _atom_site_symmetry_multiplicity
 _atom_site_fract_x
 _atom_site_fract_y
 _atom_site_fract_z
 _atom_site_occupancy
  Dy  Dy0  1  0.463956  0.536044  0.482867  1
  Dy  Dy1  1  0.072088  0.536044  0.482867  1
  Dy  Dy2  1  0.463956  0.927912  0.482867  1
  Dy  Dy3  1  0.535756  0.464244  0.983458  1
  Dy  Dy4  1  0.928489  0.464244  0.983458  1
  Dy  Dy5  1  0.535756  0.071511  0.983458  1
  Dy  Dy6  1  0.821822  0.178178  0.276034  1
  Dy  Dy7  1  0.356356  0.178178  0.276034  1
  Dy  Dy8  1  0.821822  0.643645  0.276034  1
  Dy  Dy9  1  0.178230  0.821770  0.775879  1
  Dy  Dy10  1  0.643540  0.821770  0.775879  1
  Dy  Dy11  1  0.178230  0.356460  0.775879  1
  Dy  Dy12  1  0.333333  0.666667  0.091120  1
  Y  Y13  1  0.666667  0.333333  0.592784  1
  Y  Y14  1  0.000000  0.000000  0.495134  1
  Y  Y15  1  0.000000  0.000000  0.995493  1
  In  In16  1  0.163062  0.836938  0.234092  1
  In  In17  1  0.673876  0.836938  0.234092  1
  In  In18  1  0.163062  0.326124  0.234091  1
  In  In19  1  0.836992  0.163008  0.733998  1
  In  In20  1  0.326015  0.163008  0.733998  1
  In  In21  1  0.836992  0.673985  0.733998  1
  Co  Co22  1  0.333333  0.666667  0.707049  1
  Co  Co23  1  0.666667  0.333333  0.203989  1
