# generated using pymatgen
data_Ho5Nb3(P3Ir4)4
_symmetry_space_group_name_H-M   'P 1'
_cell_length_a   12.76016700
_cell_length_b   12.76016744
_cell_length_c   3.98903100
_cell_angle_alpha   90.00000000
_cell_angle_beta   90.00000000
_cell_angle_gamma   120.00000145
_symmetry_Int_Tables_number   1
_chemical_formula_structural   Ho5Nb3(P3Ir4)4
_chemical_formula_sum   'Ho5 Nb3 P12 Ir16'
_cell_volume   562.48477064
_cell_formula_units_Z   1
loop_
 _symmetry_equiv_pos_site_id
 _symmetry_equiv_pos_as_xyz
  1  'x, y, z'
loop_
 _atom_site_type_symbol
 _atom_site_label
 _atom_site_symmetry_multiplicity
 _atom_site_fract_x
 _atom_site_fract_y
 _atom_site_fract_z
 _atom_site_occupancy
  Ho  Ho0  1  0.333333  0.666667  0.000000  1
  Ho  Ho1  1  0.666667  0.333333  0.000000  1
  Ho  Ho2  1  0.814931  0.000000  0.500000  1
  Ho  Ho3  1  0.000000  0.814931  0.500000  1
  Ho  Ho4  1  0.185069  0.185069  0.500000  1
  Nb  Nb5  1  0.452290  0.000000  0.000000  1
  Nb  Nb6  1  0.000000  0.452290  0.000000  1
  Nb  Nb7  1  0.547710  0.547710  0.000000  1
  P  P8  1  0.176424  0.000000  0.000000  1
  P  P9  1  0.000000  0.176424  0.000000  1
  P  P10  1  0.823576  0.823576  0.000000  1
  P  P11  1  0.167075  0.482598  0.500000  1
  P  P12  1  0.517402  0.684476  0.500000  1
  P  P13  1  0.315524  0.832925  0.500000  1
  P  P14  1  0.684476  0.517402  0.500000  1
  P  P15  1  0.832925  0.315524  0.500000  1
  P  P16  1  0.482598  0.167075  0.500000  1
  P  P17  1  0.642784  0.000000  0.000000  1
  P  P18  1  0.000000  0.642784  0.000000  1
  P  P19  1  0.357216  0.357216  0.000000  1
  Ir  Ir20  1  0.355684  0.492678  0.500000  1
  Ir  Ir21  1  0.507322  0.863006  0.500000  1
  Ir  Ir22  1  0.136994  0.644316  0.500000  1
  Ir  Ir23  1  0.863006  0.507322  0.500000  1
  Ir  Ir24  1  0.644316  0.136994  0.500000  1
  Ir  Ir25  1  0.492678  0.355684  0.500000  1
  Ir  Ir26  1  0.178245  0.371593  0.000000  1
  Ir  Ir27  1  0.628407  0.806653  0.000000  1
  Ir  Ir28  1  0.193347  0.821755  0.000000  1
  Ir  Ir29  1  0.806653  0.628407  0.000000  1
  Ir  Ir30  1  0.821755  0.193347  0.000000  1
  Ir  Ir31  1  0.371593  0.178245  0.000000  1
  Ir  Ir32  1  0.282362  0.000000  0.500000  1
  Ir  Ir33  1  0.000000  0.282362  0.500000  1
  Ir  Ir34  1  0.717638  0.717638  0.500000  1
  Ir  Ir35  1  0.000000  0.000000  0.000000  1
