# generated using pymatgen
data_Ho3AlCu6(Ni3B)2
_symmetry_space_group_name_H-M   'P 1'
_cell_length_a   5.03843015
_cell_length_b   5.05738708
_cell_length_c   11.11396100
_cell_angle_alpha   90.00000000
_cell_angle_beta   90.00000000
_cell_angle_gamma   120.12452982
_symmetry_Int_Tables_number   1
_chemical_formula_structural   Ho3AlCu6(Ni3B)2
_chemical_formula_sum   'Ho3 Al1 Cu6 Ni6 B2'
_cell_volume   244.94839347
_cell_formula_units_Z   1
loop_
 _symmetry_equiv_pos_site_id
 _symmetry_equiv_pos_as_xyz
  1  'x, y, z'
loop_
 _atom_site_type_symbol
 _atom_site_label
 _atom_site_symmetry_multiplicity
 _atom_site_fract_x
 _atom_site_fract_y
 _atom_site_fract_z
 _atom_site_occupancy
  Ho  Ho0  1  0.000000  0.000000  0.000000  1
  Ho  Ho1  1  0.000000  0.000000  0.687831  1
  Ho  Ho2  1  0.000000  0.000000  0.312169  1
  Al  Al3  1  0.000000  0.500000  0.500000  1
  Cu  Cu4  1  0.500000  0.500000  0.500000  1
  Cu  Cu5  1  0.500000  0.000000  0.500000  1
  Cu  Cu6  1  0.668003  0.334001  0.686760  1
  Cu  Cu7  1  0.331997  0.665999  0.686760  1
  Cu  Cu8  1  0.331997  0.665999  0.313240  1
  Cu  Cu9  1  0.668003  0.334001  0.313240  1
  Ni  Ni10  1  0.500000  0.500000  0.872539  1
  Ni  Ni11  1  0.500000  0.000000  0.872539  1
  Ni  Ni12  1  0.000000  0.500000  0.873258  1
  Ni  Ni13  1  0.500000  0.500000  0.127461  1
  Ni  Ni14  1  0.500000  0.000000  0.127461  1
  Ni  Ni15  1  0.000000  0.500000  0.126742  1
  B  B16  1  0.666276  0.333138  0.000000  1
  B  B17  1  0.333724  0.666862  0.000000  1
