# generated using pymatgen
data_Er3Cd4AgIr
_symmetry_space_group_name_H-M   'P 1'
_cell_length_a   8.00621200
_cell_length_b   8.00621288
_cell_length_c   3.74267800
_cell_angle_alpha   90.00000000
_cell_angle_beta   90.00000000
_cell_angle_gamma   119.99999635
_symmetry_Int_Tables_number   1
_chemical_formula_structural   Er3Cd4AgIr
_chemical_formula_sum   'Er3 Cd4 Ag1 Ir1'
_cell_volume   207.76258085
_cell_formula_units_Z   1
loop_
 _symmetry_equiv_pos_site_id
 _symmetry_equiv_pos_as_xyz
  1  'x, y, z'
loop_
 _atom_site_type_symbol
 _atom_site_label
 _atom_site_symmetry_multiplicity
 _atom_site_fract_x
 _atom_site_fract_y
 _atom_site_fract_z
 _atom_site_occupancy
  Er  Er0  1  0.576802  0.955919  0.000000  1
  Er  Er1  1  0.044081  0.620884  0.000000  1
  Er  Er2  1  0.379116  0.423198  0.000000  1
  Cd  Cd3  1  0.275243  0.008539  0.500000  1
  Cd  Cd4  1  0.991461  0.266703  0.500000  1
  Cd  Cd5  1  0.733297  0.724757  0.500000  1
  Cd  Cd6  1  0.666667  0.333333  0.500000  1
  Ag  Ag7  1  0.000000  0.000000  0.000000  1
  Ir  Ir8  1  0.333333  0.666667  0.500000  1
