# generated using pymatgen
data_Lu3AlGa4Co
_symmetry_space_group_name_H-M   'P 1'
_cell_length_a   6.76779500
_cell_length_b   6.80839027
_cell_length_c   4.16088900
_cell_angle_alpha   90.00000000
_cell_angle_beta   90.00000000
_cell_angle_gamma   119.80296099
_symmetry_Int_Tables_number   1
_chemical_formula_structural   Lu3AlGa4Co
_chemical_formula_sum   'Lu3 Al1 Ga4 Co1'
_cell_volume   166.36703235
_cell_formula_units_Z   1
loop_
 _symmetry_equiv_pos_site_id
 _symmetry_equiv_pos_as_xyz
  1  'x, y, z'
loop_
 _atom_site_type_symbol
 _atom_site_label
 _atom_site_symmetry_multiplicity
 _atom_site_fract_x
 _atom_site_fract_y
 _atom_site_fract_z
 _atom_site_occupancy
  Lu  Lu0  1  0.595609  0.000000  0.000000  1
  Lu  Lu1  1  0.999033  0.593949  0.000000  1
  Lu  Lu2  1  0.405085  0.406051  0.000000  1
  Al  Al3  1  0.227306  0.000000  0.500000  1
  Ga  Ga4  1  0.002486  0.233516  0.500000  1
  Ga  Ga5  1  0.768969  0.766484  0.500000  1
  Ga  Ga6  1  0.333881  0.669232  0.500000  1
  Ga  Ga7  1  0.664650  0.330768  0.500000  1
  Co  Co8  1  0.002980  0.000000  0.000000  1
