# generated using pymatgen
data_Y4ErTm15(Cd3Ni)2
_symmetry_space_group_name_H-M   'P 1'
_cell_length_a   9.53046802
_cell_length_b   9.52462064
_cell_length_c   9.63980900
_cell_angle_alpha   90.00000000
_cell_angle_beta   90.00000000
_cell_angle_gamma   119.99532759
_symmetry_Int_Tables_number   1
_chemical_formula_structural   Y4ErTm15(Cd3Ni)2
_chemical_formula_sum   'Y4 Er1 Tm15 Cd6 Ni2'
_cell_volume   757.84680109
_cell_formula_units_Z   1
loop_
 _symmetry_equiv_pos_site_id
 _symmetry_equiv_pos_as_xyz
  1  'x, y, z'
loop_
 _atom_site_type_symbol
 _atom_site_label
 _atom_site_symmetry_multiplicity
 _atom_site_fract_x
 _atom_site_fract_y
 _atom_site_fract_z
 _atom_site_occupancy
  Y  Y0  1  0.913075  0.456689  0.250000  1
  Y  Y1  1  0.457233  0.542518  0.750000  1
  Y  Y2  1  0.457246  0.914792  0.750000  1
  Y  Y3  1  0.084849  0.542447  0.750000  1
  Er  Er4  1  0.542661  0.086088  0.250000  1
  Tm  Tm5  1  0.000124  0.000089  0.500056  1
  Tm  Tm6  1  0.000124  0.000089  0.999944  1
  Tm  Tm7  1  0.542566  0.456868  0.250000  1
  Tm  Tm8  1  0.211581  0.789876  0.437211  1
  Tm  Tm9  1  0.211813  0.421642  0.437145  1
  Tm  Tm10  1  0.578627  0.789055  0.436920  1
  Tm  Tm11  1  0.788526  0.210378  0.561658  1
  Tm  Tm12  1  0.788406  0.578122  0.561509  1
  Tm  Tm13  1  0.422176  0.211189  0.560971  1
  Tm  Tm14  1  0.788526  0.210378  0.938342  1
  Tm  Tm15  1  0.788406  0.578122  0.938491  1
  Tm  Tm16  1  0.422176  0.211189  0.939029  1
  Tm  Tm17  1  0.211581  0.789876  0.062789  1
  Tm  Tm18  1  0.211813  0.421642  0.062855  1
  Tm  Tm19  1  0.578627  0.789055  0.063080  1
  Cd  Cd20  1  0.884367  0.113981  0.250000  1
  Cd  Cd21  1  0.884183  0.770194  0.250000  1
  Cd  Cd22  1  0.230733  0.115459  0.250000  1
  Cd  Cd23  1  0.114152  0.886077  0.750000  1
  Cd  Cd24  1  0.114264  0.228171  0.750000  1
  Cd  Cd25  1  0.771608  0.885748  0.750000  1
  Ni  Ni26  1  0.333835  0.666914  0.250000  1
  Ni  Ni27  1  0.666723  0.333352  0.750000  1
