# generated using pymatgen
data_Tb8Cd2IrPd
_symmetry_space_group_name_H-M   'P 1'
_cell_length_a   9.71273570
_cell_length_b   9.71273597
_cell_length_c   9.68453900
_cell_angle_alpha   60.09598375
_cell_angle_beta   60.09598284
_cell_angle_gamma   60.26559014
_symmetry_Int_Tables_number   1
_chemical_formula_structural   Tb8Cd2IrPd
_chemical_formula_sum   'Tb16 Cd4 Ir2 Pd2'
_cell_volume   648.24970549
_cell_formula_units_Z   2
loop_
 _symmetry_equiv_pos_site_id
 _symmetry_equiv_pos_as_xyz
  1  'x, y, z'
loop_
 _atom_site_type_symbol
 _atom_site_label
 _atom_site_symmetry_multiplicity
 _atom_site_fract_x
 _atom_site_fract_y
 _atom_site_fract_z
 _atom_site_occupancy
  Tb  Tb0  1  0.601653  0.601653  0.595357  1
  Tb  Tb1  1  0.601653  0.601653  0.201338  1
  Tb  Tb2  1  0.608547  0.191367  0.600044  1
  Tb  Tb3  1  0.191367  0.608547  0.600044  1
  Tb  Tb4  1  0.055676  0.440247  0.440072  1
  Tb  Tb5  1  0.440247  0.055676  0.064005  1
  Tb  Tb6  1  0.440247  0.055676  0.440072  1
  Tb  Tb7  1  0.055676  0.440247  0.064005  1
  Tb  Tb8  1  0.441590  0.441590  0.058410  1
  Tb  Tb9  1  0.061282  0.061282  0.438718  1
  Tb  Tb10  1  0.187249  0.815723  0.811895  1
  Tb  Tb11  1  0.815723  0.187249  0.185133  1
  Tb  Tb12  1  0.815723  0.187249  0.811895  1
  Tb  Tb13  1  0.187249  0.815723  0.185133  1
  Tb  Tb14  1  0.813771  0.813771  0.186229  1
  Tb  Tb15  1  0.186299  0.186299  0.813701  1
  Cd  Cd16  1  0.831182  0.831182  0.832171  1
  Cd  Cd17  1  0.831182  0.831182  0.505465  1
  Cd  Cd18  1  0.830427  0.505427  0.832073  1
  Cd  Cd19  1  0.505427  0.830427  0.832073  1
  Ir  Ir20  1  0.390664  0.822401  0.393468  1
  Ir  Ir21  1  0.822401  0.390664  0.393468  1
  Pd  Pd22  1  0.392384  0.392384  0.396071  1
  Pd  Pd23  1  0.392384  0.392384  0.819161  1
