# generated using pymatgen
data_Tb2Dy2Y2IrI10
_symmetry_space_group_name_H-M   'P 1'
_cell_length_a   7.75972283
_cell_length_b   9.77999953
_cell_length_c   9.75479242
_cell_angle_alpha   106.92456928
_cell_angle_beta   96.66191405
_cell_angle_gamma   104.48042594
_symmetry_Int_Tables_number   1
_chemical_formula_structural   Tb2Dy2Y2IrI10
_chemical_formula_sum   'Tb2 Dy2 Y2 Ir1 I10'
_cell_volume   671.33552975
_cell_formula_units_Z   1
loop_
 _symmetry_equiv_pos_site_id
 _symmetry_equiv_pos_as_xyz
  1  'x, y, z'
loop_
 _atom_site_type_symbol
 _atom_site_label
 _atom_site_symmetry_multiplicity
 _atom_site_fract_x
 _atom_site_fract_y
 _atom_site_fract_z
 _atom_site_occupancy
  Tb  Tb0  1  0.114617  0.043256  0.763885  1
  Tb  Tb1  1  0.885383  0.956744  0.236115  1
  Dy  Dy2  1  0.968720  0.285382  0.084581  1
  Dy  Dy3  1  0.031280  0.714618  0.915419  1
  Y  Y4  1  0.349401  0.125462  0.166548  1
  Y  Y5  1  0.650599  0.874538  0.833452  1
  Ir  Ir6  1  0.000000  0.000000  0.000000  1
  I  I7  1  0.348045  0.450137  0.272368  1
  I  I8  1  0.651955  0.549863  0.727632  1
  I  I9  1  0.255870  0.086991  0.460337  1
  I  I10  1  0.744130  0.913009  0.539663  1
  I  I11  1  0.086162  0.374235  0.821396  1
  I  I12  1  0.913838  0.625765  0.178604  1
  I  I13  1  0.454669  0.816244  0.092180  1
  I  I14  1  0.545331  0.183756  0.907820  1
  I  I15  1  0.776905  0.255724  0.344688  1
  I  I16  1  0.223095  0.744276  0.655312  1
