# generated using pymatgen
data_Tm8Mg2ZnNi3Bi2
_symmetry_space_group_name_H-M   'P 1'
_cell_length_a   8.54546833
_cell_length_b   8.54546790
_cell_length_c   8.68343646
_cell_angle_alpha   128.30454964
_cell_angle_beta   128.30455013
_cell_angle_gamma   74.94788555
_symmetry_Int_Tables_number   1
_chemical_formula_structural   Tm8Mg2ZnNi3Bi2
_chemical_formula_sum   'Tm8 Mg2 Zn1 Ni3 Bi2'
_cell_volume   382.41711277
_cell_formula_units_Z   1
loop_
 _symmetry_equiv_pos_site_id
 _symmetry_equiv_pos_as_xyz
  1  'x, y, z'
loop_
 _atom_site_type_symbol
 _atom_site_label
 _atom_site_symmetry_multiplicity
 _atom_site_fract_x
 _atom_site_fract_y
 _atom_site_fract_z
 _atom_site_occupancy
  Tm  Tm0  1  0.790637  0.290637  0.829939  1
  Tm  Tm1  1  0.223039  0.723039  0.202835  1
  Tm  Tm2  1  0.479796  0.979796  0.202835  1
  Tm  Tm3  1  0.292755  0.448944  0.481751  1
  Tm  Tm4  1  0.032807  0.188997  0.481751  1
  Tm  Tm5  1  0.539301  0.039301  0.829939  1
  Tm  Tm6  1  0.688997  0.532807  0.481751  1
  Tm  Tm7  1  0.948944  0.792755  0.481751  1
  Mg  Mg8  1  0.999334  0.997639  0.996974  1
  Mg  Mg9  1  0.497639  0.499334  0.996974  1
  Zn  Zn10  1  0.129530  0.629530  0.759061  1
  Ni  Ni11  1  0.884742  0.384742  0.269483  1
  Ni  Ni12  1  0.631192  0.874131  0.505323  1
  Ni  Ni13  1  0.374131  0.131192  0.505323  1
  Bi  Bi14  1  0.243577  0.243577  0.987154  1
  Bi  Bi15  1  0.743577  0.743577  0.987154  1
