# generated using pymatgen
data_Ho4Al24AgPt8
_symmetry_space_group_name_H-M   'P 1'
_cell_length_a   7.54762071
_cell_length_b   7.56644118
_cell_length_c   13.15646500
_cell_angle_alpha   84.55810422
_cell_angle_beta   79.01745300
_cell_angle_gamma   59.89547084
_symmetry_Int_Tables_number   1
_chemical_formula_structural   Ho4Al24AgPt8
_chemical_formula_sum   'Ho4 Al24 Ag1 Pt8'
_cell_volume   638.09490854
_cell_formula_units_Z   1
loop_
 _symmetry_equiv_pos_site_id
 _symmetry_equiv_pos_as_xyz
  1  'x, y, z'
loop_
 _atom_site_type_symbol
 _atom_site_label
 _atom_site_symmetry_multiplicity
 _atom_site_fract_x
 _atom_site_fract_y
 _atom_site_fract_z
 _atom_site_occupancy
  Ho  Ho0  1  0.392192  0.169839  0.808916  1
  Ho  Ho1  1  0.606039  0.831793  0.192428  1
  Ho  Ho2  1  0.734526  0.499121  0.808776  1
  Ho  Ho3  1  0.266703  0.501218  0.191618  1
  Al  Al4  1  0.682980  0.834224  0.945449  1
  Al  Al5  1  0.315790  0.166239  0.056178  1
  Al  Al6  1  0.146886  0.839249  0.559780  1
  Al  Al7  1  0.854433  0.167210  0.436176  1
  Al  Al8  1  0.489193  0.158775  0.557288  1
  Al  Al9  1  0.520127  0.833619  0.439606  1
  Al  Al10  1  0.217988  0.165405  0.328270  1
  Al  Al11  1  0.777293  0.838873  0.674198  1
  Al  Al12  1  0.439975  0.507019  0.674373  1
  Al  Al13  1  0.563028  0.493648  0.327963  1
  Al  Al14  1  0.108626  0.154164  0.672970  1
  Al  Al15  1  0.890617  0.839838  0.329330  1
  Al  Al16  1  0.353422  0.498949  0.945244  1
  Al  Al17  1  0.646936  0.500942  0.056177  1
  Al  Al18  1  0.015307  0.167848  0.953813  1
  Al  Al19  1  0.983973  0.832240  0.047809  1
  Al  Al20  1  0.188286  0.499795  0.435900  1
  Al  Al21  1  0.806097  0.499985  0.557221  1
  Al  Al22  1  0.733903  0.164004  0.183347  1
  Al  Al23  1  0.266921  0.835250  0.816941  1
  Al  Al24  1  0.060477  0.632929  0.817887  1
  Al  Al25  1  0.938647  0.368965  0.184702  1
  Al  Al26  1  0.854044  0.042123  0.816380  1
  Al  Al27  1  0.144789  0.958079  0.183809  1
  Ag  Ag28  1  0.120457  0.490147  0.638492  1
  Pt  Pt29  1  0.879485  0.508628  0.360950  1
  Pt  Pt30  1  0.657334  0.171501  0.999511  1
  Pt  Pt31  1  0.342854  0.828483  0.999867  1
  Pt  Pt32  1  0.537563  0.166694  0.361046  1
  Pt  Pt33  1  0.462694  0.833110  0.638156  1
  Pt  Pt34  1  0.779078  0.175109  0.636749  1
  Pt  Pt35  1  0.221435  0.824934  0.362191  1
  Pt  Pt36  1  0.999904  0.500052  0.000484  1
