# generated using pymatgen
data_DyHo3Lu4(B6Os)4
_symmetry_space_group_name_H-M   'P 1'
_cell_length_a   3.61497600
_cell_length_b   9.06880300
_cell_length_c   11.45348800
_cell_angle_alpha   90.00120050
_cell_angle_beta   90.00000000
_cell_angle_gamma   90.00000000
_symmetry_Int_Tables_number   1
_chemical_formula_structural   DyHo3Lu4(B6Os)4
_chemical_formula_sum   'Dy1 Ho3 Lu4 B24 Os4'
_cell_volume   375.48548329
_cell_formula_units_Z   1
loop_
 _symmetry_equiv_pos_site_id
 _symmetry_equiv_pos_as_xyz
  1  'x, y, z'
loop_
 _atom_site_type_symbol
 _atom_site_label
 _atom_site_symmetry_multiplicity
 _atom_site_fract_x
 _atom_site_fract_y
 _atom_site_fract_z
 _atom_site_occupancy
  Dy  Dy0  1  0.000000  0.321457  0.413991  1
  Ho  Ho1  1  0.000000  0.678655  0.585986  1
  Ho  Ho2  1  0.000000  0.821373  0.085954  1
  Ho  Ho3  1  0.000000  0.178625  0.914040  1
  Lu  Lu4  1  0.000000  0.944186  0.373095  1
  Lu  Lu5  1  0.000000  0.055650  0.626968  1
  Lu  Lu6  1  0.000000  0.444298  0.126836  1
  Lu  Lu7  1  0.000000  0.555737  0.873130  1
  B  B8  1  0.500000  0.554492  0.433056  1
  B  B9  1  0.500000  0.445786  0.567097  1
  B  B10  1  0.500000  0.054267  0.066887  1
  B  B11  1  0.500000  0.945702  0.933086  1
  B  B12  1  0.500000  0.749681  0.419755  1
  B  B13  1  0.500000  0.250305  0.580470  1
  B  B14  1  0.500000  0.249609  0.080204  1
  B  B15  1  0.500000  0.750384  0.919747  1
  B  B16  1  0.500000  0.792254  0.266008  1
  B  B17  1  0.500000  0.207754  0.734040  1
  B  B18  1  0.500000  0.292142  0.233785  1
  B  B19  1  0.500000  0.707782  0.766044  1
  B  B20  1  0.500000  0.630995  0.184363  1
  B  B21  1  0.500000  0.369061  0.815625  1
  B  B22  1  0.500000  0.130773  0.315471  1
  B  B23  1  0.500000  0.869029  0.684423  1
  B  B24  1  0.500000  0.982365  0.213594  1
  B  B25  1  0.500000  0.017560  0.786386  1
  B  B26  1  0.500000  0.482645  0.286240  1
  B  B27  1  0.500000  0.517609  0.713688  1
  B  B28  1  0.500000  0.604501  0.028761  1
  B  B29  1  0.500000  0.395505  0.971225  1
  B  B30  1  0.500000  0.104142  0.471328  1
  B  B31  1  0.500000  0.895528  0.528764  1
  Os  Os32  1  0.000000  0.638107  0.320382  1
  Os  Os33  1  0.000000  0.362174  0.679692  1
  Os  Os34  1  0.000000  0.137710  0.179362  1
  Os  Os35  1  0.000000  0.862156  0.820518  1
