# generated using pymatgen
data_YbY2Ag(Ir2O7)2
_symmetry_space_group_name_H-M   'P 1'
_cell_length_a   7.31571027
_cell_length_b   7.31571130
_cell_length_c   7.17991804
_cell_angle_alpha   59.19480751
_cell_angle_beta   59.19480977
_cell_angle_gamma   59.92280694
_symmetry_Int_Tables_number   1
_chemical_formula_structural   YbY2Ag(Ir2O7)2
_chemical_formula_sum   'Yb1 Y2 Ag1 Ir4 O14'
_cell_volume   268.21045705
_cell_formula_units_Z   1
loop_
 _symmetry_equiv_pos_site_id
 _symmetry_equiv_pos_as_xyz
  1  'x, y, z'
loop_
 _atom_site_type_symbol
 _atom_site_label
 _atom_site_symmetry_multiplicity
 _atom_site_fract_x
 _atom_site_fract_y
 _atom_site_fract_z
 _atom_site_occupancy
  Yb  Yb0  1  0.125000  0.125000  0.125000  1
  Y  Y1  1  0.625000  0.125000  0.125000  1
  Y  Y2  1  0.125000  0.625000  0.125000  1
  Ag  Ag3  1  0.125000  0.125000  0.625000  1
  Ir  Ir4  1  0.125000  0.625000  0.625000  1
  Ir  Ir5  1  0.625000  0.125000  0.625000  1
  Ir  Ir6  1  0.625000  0.625000  0.125000  1
  Ir  Ir7  1  0.625000  0.625000  0.625000  1
  O  O8  1  0.710593  0.710593  0.287574  1
  O  O9  1  0.301077  0.301077  0.700892  1
  O  O10  1  0.692863  0.299672  0.708471  1
  O  O11  1  0.293227  0.704328  0.288465  1
  O  O12  1  0.299672  0.692863  0.708471  1
  O  O13  1  0.704328  0.293227  0.288465  1
  O  O14  1  0.539407  0.539407  0.962426  1
  O  O15  1  0.948923  0.948923  0.549108  1
  O  O16  1  0.557137  0.950328  0.541529  1
  O  O17  1  0.956773  0.545672  0.961535  1
  O  O18  1  0.950328  0.557137  0.541529  1
  O  O19  1  0.545672  0.956773  0.961535  1
  O  O20  1  0.250257  0.250257  0.257669  1
  O  O21  1  0.999743  0.999743  0.992331  1
