# generated using pymatgen
data_Sm6MgCd22P
_symmetry_space_group_name_H-M   'P 1'
_cell_length_a   9.99668338
_cell_length_b   9.99668451
_cell_length_c   9.99668200
_cell_angle_alpha   59.99999507
_cell_angle_beta   59.99999132
_cell_angle_gamma   59.99999032
_symmetry_Int_Tables_number   1
_chemical_formula_structural   Sm6MgCd22P
_chemical_formula_sum   'Sm6 Mg1 Cd22 P1'
_cell_volume   706.40331085
_cell_formula_units_Z   1
loop_
 _symmetry_equiv_pos_site_id
 _symmetry_equiv_pos_as_xyz
  1  'x, y, z'
loop_
 _atom_site_type_symbol
 _atom_site_label
 _atom_site_symmetry_multiplicity
 _atom_site_fract_x
 _atom_site_fract_y
 _atom_site_fract_z
 _atom_site_occupancy
  Sm  Sm0  1  0.799805  0.799805  0.200195  1
  Sm  Sm1  1  0.200195  0.799805  0.200195  1
  Sm  Sm2  1  0.799805  0.200195  0.200195  1
  Sm  Sm3  1  0.200195  0.200195  0.799805  1
  Sm  Sm4  1  0.799805  0.200195  0.799805  1
  Sm  Sm5  1  0.200195  0.799805  0.799805  1
  Mg  Mg6  1  0.500000  0.500000  0.500000  1
  Cd  Cd7  1  0.834029  0.834029  0.497910  1
  Cd  Cd8  1  0.834029  0.497910  0.834029  1
  Cd  Cd9  1  0.497910  0.834029  0.834029  1
  Cd  Cd10  1  0.834029  0.834029  0.834029  1
  Cd  Cd11  1  0.165971  0.165971  0.502090  1
  Cd  Cd12  1  0.165971  0.502090  0.165971  1
  Cd  Cd13  1  0.502090  0.165971  0.165971  1
  Cd  Cd14  1  0.165971  0.165971  0.165971  1
  Cd  Cd15  1  0.620457  0.620457  0.138627  1
  Cd  Cd16  1  0.620457  0.138627  0.620457  1
  Cd  Cd17  1  0.138627  0.620457  0.620457  1
  Cd  Cd18  1  0.620457  0.620457  0.620457  1
  Cd  Cd19  1  0.379543  0.379543  0.861373  1
  Cd  Cd20  1  0.379543  0.861373  0.379543  1
  Cd  Cd21  1  0.861373  0.379543  0.379543  1
  Cd  Cd22  1  0.379543  0.379543  0.379543  1
  Cd  Cd23  1  0.000000  0.000000  0.500000  1
  Cd  Cd24  1  0.500000  0.000000  0.500000  1
  Cd  Cd25  1  0.000000  0.500000  0.500000  1
  Cd  Cd26  1  0.500000  0.500000  0.000000  1
  Cd  Cd27  1  0.000000  0.500000  0.000000  1
  Cd  Cd28  1  0.500000  0.000000  0.000000  1
  P  P29  1  0.000000  0.000000  0.000000  1
