# generated using pymatgen
data_Ca3(NdPb2)2
_symmetry_space_group_name_H-M   'P 1'
_cell_length_a   8.08355500
_cell_length_b   8.68411200
_cell_length_c   16.30236700
_cell_angle_alpha   90.00000000
_cell_angle_beta   90.00000000
_cell_angle_gamma   90.00000000
_symmetry_Int_Tables_number   1
_chemical_formula_structural   Ca3(NdPb2)2
_chemical_formula_sum   'Ca12 Nd8 Pb16'
_cell_volume   1144.40166059
_cell_formula_units_Z   4
loop_
 _symmetry_equiv_pos_site_id
 _symmetry_equiv_pos_as_xyz
  1  'x, y, z'
loop_
 _atom_site_type_symbol
 _atom_site_label
 _atom_site_symmetry_multiplicity
 _atom_site_fract_x
 _atom_site_fract_y
 _atom_site_fract_z
 _atom_site_occupancy
  Ca  Ca0  1  0.671696  0.165920  0.622849  1
  Ca  Ca1  1  0.171696  0.334080  0.877151  1
  Ca  Ca2  1  0.328304  0.834080  0.122849  1
  Ca  Ca3  1  0.828304  0.665920  0.377151  1
  Ca  Ca4  1  0.328304  0.834080  0.377151  1
  Ca  Ca5  1  0.828304  0.665920  0.122849  1
  Ca  Ca6  1  0.671696  0.165920  0.877151  1
  Ca  Ca7  1  0.171696  0.334080  0.622849  1
  Ca  Ca8  1  0.841895  0.497874  0.750000  1
  Ca  Ca9  1  0.341895  0.002126  0.750000  1
  Ca  Ca10  1  0.158105  0.502126  0.250000  1
  Ca  Ca11  1  0.658105  0.997874  0.250000  1
  Nd  Nd12  1  0.505791  0.688029  0.594952  1
  Nd  Nd13  1  0.005791  0.811971  0.905048  1
  Nd  Nd14  1  0.494209  0.311971  0.094952  1
  Nd  Nd15  1  0.994209  0.188029  0.405048  1
  Nd  Nd16  1  0.494209  0.311971  0.405048  1
  Nd  Nd17  1  0.994209  0.188029  0.094952  1
  Nd  Nd18  1  0.505791  0.688029  0.905048  1
  Nd  Nd19  1  0.005791  0.811971  0.594952  1
  Pb  Pb20  1  0.676266  0.963792  0.459120  1
  Pb  Pb21  1  0.176266  0.536208  0.040880  1
  Pb  Pb22  1  0.323734  0.036208  0.959120  1
  Pb  Pb23  1  0.823734  0.463792  0.540880  1
  Pb  Pb24  1  0.323734  0.036208  0.540880  1
  Pb  Pb25  1  0.823734  0.463792  0.959120  1
  Pb  Pb26  1  0.676266  0.963792  0.040880  1
  Pb  Pb27  1  0.176266  0.536208  0.459120  1
  Pb  Pb28  1  0.474910  0.397484  0.750000  1
  Pb  Pb29  1  0.974910  0.102516  0.750000  1
  Pb  Pb30  1  0.525090  0.602516  0.250000  1
  Pb  Pb31  1  0.025090  0.897484  0.250000  1
  Pb  Pb32  1  0.709226  0.850796  0.750000  1
  Pb  Pb33  1  0.209226  0.649204  0.750000  1
  Pb  Pb34  1  0.290774  0.149204  0.250000  1
  Pb  Pb35  1  0.790774  0.350796  0.250000  1
