# generated using pymatgen
data_Sc2Re2C3
_symmetry_space_group_name_H-M   'P 1'
_cell_length_a   5.82184718
_cell_length_b   5.82184716
_cell_length_c   5.51413252
_cell_angle_alpha   69.26028765
_cell_angle_beta   69.26028799
_cell_angle_gamma   30.98168417
_symmetry_Int_Tables_number   1
_chemical_formula_structural   Sc2Re2C3
_chemical_formula_sum   'Sc2 Re2 C3'
_cell_volume   89.47589555
_cell_formula_units_Z   1
loop_
 _symmetry_equiv_pos_site_id
 _symmetry_equiv_pos_as_xyz
  1  'x, y, z'
loop_
 _atom_site_type_symbol
 _atom_site_label
 _atom_site_symmetry_multiplicity
 _atom_site_fract_x
 _atom_site_fract_y
 _atom_site_fract_z
 _atom_site_occupancy
  Sc  Sc0  1  0.615039  0.615039  0.167650  1
  Sc  Sc1  1  0.384961  0.384961  0.832350  1
  Re  Re2  1  0.848406  0.848406  0.327183  1
  Re  Re3  1  0.151594  0.151594  0.672817  1
  C  C4  1  0.758381  0.758381  0.743780  1
  C  C5  1  0.241619  0.241619  0.256220  1
  C  C6  1  0.000000  0.000000  0.000000  1
