# generated using pymatgen
data_Tb3Tm(AlRe3)2
_symmetry_space_group_name_H-M   'P 1'
_cell_length_a   5.35441300
_cell_length_b   5.35441353
_cell_length_c   9.06089500
_cell_angle_alpha   90.00000000
_cell_angle_beta   90.00000000
_cell_angle_gamma   120.00000292
_symmetry_Int_Tables_number   1
_chemical_formula_structural   Tb3Tm(AlRe3)2
_chemical_formula_sum   'Tb3 Tm1 Al2 Re6'
_cell_volume   224.97045786
_cell_formula_units_Z   1
loop_
 _symmetry_equiv_pos_site_id
 _symmetry_equiv_pos_as_xyz
  1  'x, y, z'
loop_
 _atom_site_type_symbol
 _atom_site_label
 _atom_site_symmetry_multiplicity
 _atom_site_fract_x
 _atom_site_fract_y
 _atom_site_fract_z
 _atom_site_occupancy
  Tb  Tb0  1  0.333333  0.666667  0.432901  1
  Tb  Tb1  1  0.666667  0.333333  0.566791  1
  Tb  Tb2  1  0.666667  0.333333  0.933366  1
  Tm  Tm3  1  0.333333  0.666667  0.067271  1
  Al  Al4  1  0.000000  0.000000  0.499969  1
  Al  Al5  1  0.000000  0.000000  0.000117  1
  Re  Re6  1  0.830649  0.169351  0.249300  1
  Re  Re7  1  0.830649  0.661297  0.249300  1
  Re  Re8  1  0.338703  0.169351  0.249300  1
  Re  Re9  1  0.169482  0.830518  0.750561  1
  Re  Re10  1  0.169482  0.338965  0.750561  1
  Re  Re11  1  0.661035  0.830518  0.750561  1
