# generated using pymatgen
data_ZrSc3(In5Ni)2
_symmetry_space_group_name_H-M   'P 1'
_cell_length_a   10.18441325
_cell_length_b   10.18441325
_cell_length_c   6.83780400
_cell_angle_alpha   90.00000000
_cell_angle_beta   90.00000000
_cell_angle_gamma   90.02559753
_symmetry_Int_Tables_number   1
_chemical_formula_structural   ZrSc3(In5Ni)2
_chemical_formula_sum   'Zr2 Sc6 In20 Ni4'
_cell_volume   709.23250469
_cell_formula_units_Z   2
loop_
 _symmetry_equiv_pos_site_id
 _symmetry_equiv_pos_as_xyz
  1  'x, y, z'
loop_
 _atom_site_type_symbol
 _atom_site_label
 _atom_site_symmetry_multiplicity
 _atom_site_fract_x
 _atom_site_fract_y
 _atom_site_fract_z
 _atom_site_occupancy
  Zr  Zr0  1  0.300415  0.300415  0.500001  1
  Zr  Zr1  1  0.699585  0.699585  0.500001  1
  Sc  Sc2  1  0.838315  0.161686  0.500001  1
  Sc  Sc3  1  0.161686  0.838315  0.500001  1
  Sc  Sc4  1  0.337972  0.337972  0.000000  1
  Sc  Sc5  1  0.662028  0.662028  0.000000  1
  Sc  Sc6  1  0.799657  0.200342  0.000000  1
  Sc  Sc7  1  0.200342  0.799657  0.000000  1
  In  In8  1  0.557931  0.202155  0.275506  1
  In  In9  1  0.442068  0.797845  0.275506  1
  In  In10  1  0.057056  0.298989  0.224138  1
  In  In11  1  0.942944  0.701010  0.224138  1
  In  In12  1  0.797845  0.442068  0.724494  1
  In  In13  1  0.202155  0.557931  0.724494  1
  In  In14  1  0.701010  0.942944  0.775863  1
  In  In15  1  0.298989  0.057056  0.775863  1
  In  In16  1  0.442068  0.797845  0.724494  1
  In  In17  1  0.557931  0.202155  0.724494  1
  In  In18  1  0.942944  0.701010  0.775863  1
  In  In19  1  0.057056  0.298989  0.775863  1
  In  In20  1  0.202155  0.557931  0.275506  1
  In  In21  1  0.797845  0.442068  0.275506  1
  In  In22  1  0.298989  0.057056  0.224138  1
  In  In23  1  0.701010  0.942944  0.224138  1
  In  In24  1  0.000000  0.000000  0.204648  1
  In  In25  1  0.500000  0.500000  0.294267  1
  In  In26  1  0.000000  0.000000  0.795352  1
  In  In27  1  0.500000  0.500000  0.705733  1
  Ni  Ni28  1  0.115588  0.115588  0.500001  1
  Ni  Ni29  1  0.884413  0.884413  0.500001  1
  Ni  Ni30  1  0.616349  0.383650  0.000000  1
  Ni  Ni31  1  0.383650  0.616349  0.000000  1
