# generated using pymatgen
data_V12As2P5
_symmetry_space_group_name_H-M   'P 1'
_cell_length_a   9.43791423
_cell_length_b   9.43573233
_cell_length_c   3.25750600
_cell_angle_alpha   90.00000000
_cell_angle_beta   90.00000000
_cell_angle_gamma   120.26119777
_symmetry_Int_Tables_number   1
_chemical_formula_structural   V12As2P5
_chemical_formula_sum   'V12 As2 P5'
_cell_volume   250.56384394
_cell_formula_units_Z   1
loop_
 _symmetry_equiv_pos_site_id
 _symmetry_equiv_pos_as_xyz
  1  'x, y, z'
loop_
 _atom_site_type_symbol
 _atom_site_label
 _atom_site_symmetry_multiplicity
 _atom_site_fract_x
 _atom_site_fract_y
 _atom_site_fract_z
 _atom_site_occupancy
  V  V0  1  0.190382  0.001776  0.000000  1
  V  V1  1  0.123097  0.622857  0.000000  1
  V  V2  1  0.999938  0.193246  0.000000  1
  V  V3  1  0.501563  0.868061  0.000000  1
  V  V4  1  0.266078  0.248353  0.500000  1
  V  V5  1  0.393525  0.516330  0.000000  1
  V  V6  1  0.791414  0.796801  0.000000  1
  V  V7  1  0.625604  0.495384  0.500000  1
  V  V8  1  0.508772  0.135665  0.500000  1
  V  V9  1  0.980908  0.732364  0.500000  1
  V  V10  1  0.865350  0.372233  0.500000  1
  V  V11  1  0.750067  0.015382  0.500000  1
  As  As12  1  0.288052  0.845902  0.500000  1
  As  As13  1  0.161861  0.445713  0.500000  1
  P  P14  1  0.562071  0.717506  0.500000  1
  P  P15  1  0.461378  0.289691  0.000000  1
  P  P16  1  0.996434  0.996997  0.500000  1
  P  P17  1  0.825069  0.535041  0.000000  1
  P  P18  1  0.708436  0.170702  0.000000  1
