# generated using pymatgen
data_Zr4Be3SiPt4
_symmetry_space_group_name_H-M   'P 1'
_cell_length_a   3.89191600
_cell_length_b   6.47086195
_cell_length_c   7.45758963
_cell_angle_alpha   89.88875666
_cell_angle_beta   90.00000000
_cell_angle_gamma   90.00000000
_symmetry_Int_Tables_number   1
_chemical_formula_structural   Zr4Be3SiPt4
_chemical_formula_sum   'Zr4 Be3 Si1 Pt4'
_cell_volume   187.81196476
_cell_formula_units_Z   1
loop_
 _symmetry_equiv_pos_site_id
 _symmetry_equiv_pos_as_xyz
  1  'x, y, z'
loop_
 _atom_site_type_symbol
 _atom_site_label
 _atom_site_symmetry_multiplicity
 _atom_site_fract_x
 _atom_site_fract_y
 _atom_site_fract_z
 _atom_site_occupancy
  Zr  Zr0  1  0.250000  0.984202  0.186570  1
  Zr  Zr1  1  0.250000  0.479361  0.313519  1
  Zr  Zr2  1  0.750000  0.516629  0.683153  1
  Zr  Zr3  1  0.750000  0.026334  0.816336  1
  Be  Be4  1  0.750000  0.284129  0.120514  1
  Be  Be5  1  0.750000  0.789297  0.382745  1
  Be  Be6  1  0.250000  0.207376  0.610526  1
  Si  Si7  1  0.250000  0.727575  0.882592  1
  Pt  Pt8  1  0.750000  0.650868  0.080857  1
  Pt  Pt9  1  0.750000  0.159822  0.435932  1
  Pt  Pt10  1  0.250000  0.836708  0.556198  1
  Pt  Pt11  1  0.250000  0.337700  0.931057  1
