# generated using pymatgen
data_HoEr9Si16Ag
_symmetry_space_group_name_H-M   'P 1'
_cell_length_a   11.04988118
_cell_length_b   11.04826427
_cell_length_c   11.04957337
_cell_angle_alpha   144.73153390
_cell_angle_beta   136.52222202
_cell_angle_gamma   57.18333864
_symmetry_Int_Tables_number   1
_chemical_formula_structural   HoEr9Si16Ag
_chemical_formula_sum   'Ho1 Er9 Si16 Ag1'
_cell_volume   531.59111584
_cell_formula_units_Z   1
loop_
 _symmetry_equiv_pos_site_id
 _symmetry_equiv_pos_as_xyz
  1  'x, y, z'
loop_
 _atom_site_type_symbol
 _atom_site_label
 _atom_site_symmetry_multiplicity
 _atom_site_fract_x
 _atom_site_fract_y
 _atom_site_fract_z
 _atom_site_occupancy
  Ho  Ho0  1  0.752008  0.765367  0.513541  1
  Er  Er1  1  0.053461  0.565991  0.022009  1
  Er  Er2  1  0.352675  0.370061  0.521051  1
  Er  Er3  1  0.154607  0.165383  0.521634  1
  Er  Er4  1  0.451184  0.963153  0.014472  1
  Er  Er5  1  0.643728  0.165288  0.010688  1
  Er  Er6  1  0.948693  0.963163  0.511950  1
  Er  Er7  1  0.849022  0.370066  0.017399  1
  Er  Er8  1  0.543946  0.566010  0.512530  1
  Er  Er9  1  0.251990  0.765403  0.013534  1
  Si  Si10  1  0.118256  0.079148  0.960978  1
  Si  Si11  1  0.797247  0.169509  0.372294  1
  Si  Si12  1  0.300358  0.899425  0.599000  1
  Si  Si13  1  0.399713  0.501410  0.101468  1
  Si  Si14  1  0.880764  0.854902  0.974161  1
  Si  Si15  1  0.104834  0.710835  0.606296  1
  Si  Si16  1  0.199848  0.581901  0.382123  1
  Si  Si17  1  0.699370  0.295425  0.595991  1
  Si  Si18  1  0.002236  0.432198  0.430324  1
  Si  Si19  1  0.714514  0.668523  0.953992  1
  Si  Si20  1  0.600862  0.702584  0.101429  1
  Si  Si21  1  0.999718  0.081580  0.082311  1
  Si  Si22  1  0.501025  0.390916  0.889692  1
  Si  Si23  1  0.284806  0.241152  0.956307  1
  Si  Si24  1  0.583650  0.041336  0.457197  1
  Si  Si25  1  0.415699  0.873217  0.457106  1
  Ag  Ag26  1  0.895784  0.504974  0.609439  1
