# generated using pymatgen
data_Nb2Co2SiP
_symmetry_space_group_name_H-M   'P 1'
_cell_length_a   3.61916200
_cell_length_b   6.18859300
_cell_length_c   7.03099200
_cell_angle_alpha   90.00000000
_cell_angle_beta   90.00000000
_cell_angle_gamma   90.00000000
_symmetry_Int_Tables_number   1
_chemical_formula_structural   Nb2Co2SiP
_chemical_formula_sum   'Nb4 Co4 Si2 P2'
_cell_volume   157.47678829
_cell_formula_units_Z   2
loop_
 _symmetry_equiv_pos_site_id
 _symmetry_equiv_pos_as_xyz
  1  'x, y, z'
loop_
 _atom_site_type_symbol
 _atom_site_label
 _atom_site_symmetry_multiplicity
 _atom_site_fract_x
 _atom_site_fract_y
 _atom_site_fract_z
 _atom_site_occupancy
  Nb  Nb0  1  0.250000  0.022312  0.823276  1
  Nb  Nb1  1  0.250000  0.522312  0.676724  1
  Nb  Nb2  1  0.750000  0.974479  0.172334  1
  Nb  Nb3  1  0.750000  0.474479  0.327666  1
  Co  Co4  1  0.250000  0.144741  0.443941  1
  Co  Co5  1  0.250000  0.644741  0.056059  1
  Co  Co6  1  0.750000  0.859107  0.566555  1
  Co  Co7  1  0.750000  0.359107  0.933445  1
  Si  Si8  1  0.250000  0.776792  0.379068  1
  Si  Si9  1  0.250000  0.276792  0.120932  1
  P  P10  1  0.750000  0.222571  0.619693  1
  P  P11  1  0.750000  0.722571  0.880307  1
