# generated using pymatgen
data_Y17Sc3Cd6NiRh
_symmetry_space_group_name_H-M   'P 1'
_cell_length_a   9.57948309
_cell_length_b   9.57948433
_cell_length_c   9.72442900
_cell_angle_alpha   90.00000000
_cell_angle_beta   90.00000000
_cell_angle_gamma   120.01612144
_symmetry_Int_Tables_number   1
_chemical_formula_structural   Y17Sc3Cd6NiRh
_chemical_formula_sum   'Y17 Sc3 Cd6 Ni1 Rh1'
_cell_volume   772.69548369
_cell_formula_units_Z   1
loop_
 _symmetry_equiv_pos_site_id
 _symmetry_equiv_pos_as_xyz
  1  'x, y, z'
loop_
 _atom_site_type_symbol
 _atom_site_label
 _atom_site_symmetry_multiplicity
 _atom_site_fract_x
 _atom_site_fract_y
 _atom_site_fract_z
 _atom_site_occupancy
  Y  Y0  1  0.542654  0.457346  0.250000  1
  Y  Y1  1  0.542562  0.084118  0.250000  1
  Y  Y2  1  0.915882  0.457438  0.250000  1
  Y  Y3  1  0.457319  0.911229  0.750000  1
  Y  Y4  1  0.088771  0.542681  0.750000  1
  Y  Y5  1  0.207161  0.792839  0.441090  1
  Y  Y6  1  0.209935  0.416234  0.443093  1
  Y  Y7  1  0.583766  0.790065  0.443093  1
  Y  Y8  1  0.791483  0.208517  0.563335  1
  Y  Y9  1  0.788439  0.583240  0.564881  1
  Y  Y10  1  0.416760  0.211561  0.564881  1
  Y  Y11  1  0.791483  0.208517  0.936665  1
  Y  Y12  1  0.788439  0.583240  0.935119  1
  Y  Y13  1  0.416760  0.211561  0.935119  1
  Y  Y14  1  0.207161  0.792839  0.058910  1
  Y  Y15  1  0.209935  0.416234  0.056907  1
  Y  Y16  1  0.583766  0.790065  0.056907  1
  Sc  Sc17  1  0.999796  0.000204  0.499482  1
  Sc  Sc18  1  0.999796  0.000204  0.000518  1
  Sc  Sc19  1  0.457419  0.542581  0.750000  1
  Cd  Cd20  1  0.889551  0.110449  0.250000  1
  Cd  Cd21  1  0.888749  0.778796  0.250000  1
  Cd  Cd22  1  0.221204  0.111251  0.250000  1
  Cd  Cd23  1  0.111103  0.888897  0.750000  1
  Cd  Cd24  1  0.116688  0.226351  0.750000  1
  Cd  Cd25  1  0.773649  0.883312  0.750000  1
  Ni  Ni26  1  0.666812  0.333188  0.750000  1
  Rh  Rh27  1  0.332956  0.667044  0.250000  1
