# generated using pymatgen
data_Dy4Tm6Si5P
_symmetry_space_group_name_H-M   'P 1'
_cell_length_a   8.33546100
_cell_length_b   8.35154159
_cell_length_c   6.22527800
_cell_angle_alpha   90.00000000
_cell_angle_beta   90.00000000
_cell_angle_gamma   119.93633055
_symmetry_Int_Tables_number   1
_chemical_formula_structural   Dy4Tm6Si5P
_chemical_formula_sum   'Dy4 Tm6 Si5 P1'
_cell_volume   375.54668210
_cell_formula_units_Z   1
loop_
 _symmetry_equiv_pos_site_id
 _symmetry_equiv_pos_as_xyz
  1  'x, y, z'
loop_
 _atom_site_type_symbol
 _atom_site_label
 _atom_site_symmetry_multiplicity
 _atom_site_fract_x
 _atom_site_fract_y
 _atom_site_fract_z
 _atom_site_occupancy
  Dy  Dy0  1  0.000239  0.755611  0.750000  1
  Dy  Dy1  1  0.754646  0.000000  0.750000  1
  Dy  Dy2  1  0.244627  0.244389  0.750000  1
  Dy  Dy3  1  0.244192  0.000000  0.250000  1
  Tm  Tm4  1  0.000824  0.245020  0.250000  1
  Tm  Tm5  1  0.755804  0.754980  0.250000  1
  Tm  Tm6  1  0.666572  0.332727  0.000377  1
  Tm  Tm7  1  0.333843  0.667273  0.499623  1
  Tm  Tm8  1  0.333843  0.667273  0.000377  1
  Tm  Tm9  1  0.666572  0.332727  0.499623  1
  Si  Si10  1  0.394798  0.395163  0.250000  1
  Si  Si11  1  0.999635  0.604837  0.250000  1
  Si  Si12  1  0.999984  0.394598  0.750000  1
  Si  Si13  1  0.605386  0.605402  0.750000  1
  Si  Si14  1  0.608358  0.000000  0.250000  1
  P  P15  1  0.390678  0.000000  0.750000  1
