# generated using pymatgen
data_Ta15Co8OsN4
_symmetry_space_group_name_H-M   'P 1'
_cell_length_a   8.21523777
_cell_length_b   8.21523811
_cell_length_c   8.21523765
_cell_angle_alpha   59.38075631
_cell_angle_beta   59.38075326
_cell_angle_gamma   59.38075645
_symmetry_Int_Tables_number   1
_chemical_formula_structural   Ta15Co8OsN4
_chemical_formula_sum   'Ta15 Co8 Os1 N4'
_cell_volume   386.52820249
_cell_formula_units_Z   1
loop_
 _symmetry_equiv_pos_site_id
 _symmetry_equiv_pos_as_xyz
  1  'x, y, z'
loop_
 _atom_site_type_symbol
 _atom_site_label
 _atom_site_symmetry_multiplicity
 _atom_site_fract_x
 _atom_site_fract_y
 _atom_site_fract_z
 _atom_site_occupancy
  Ta  Ta0  1  0.125000  0.625000  0.625000  1
  Ta  Ta1  1  0.625000  0.125000  0.625000  1
  Ta  Ta2  1  0.625000  0.625000  0.125000  1
  Ta  Ta3  1  0.806886  0.806886  0.197035  1
  Ta  Ta4  1  0.184604  0.184604  0.814655  1
  Ta  Ta5  1  0.806886  0.197035  0.806886  1
  Ta  Ta6  1  0.184604  0.814655  0.184604  1
  Ta  Ta7  1  0.197035  0.806886  0.806886  1
  Ta  Ta8  1  0.814655  0.184604  0.184604  1
  Ta  Ta9  1  0.443114  0.443114  0.052965  1
  Ta  Ta10  1  0.065396  0.065396  0.435345  1
  Ta  Ta11  1  0.443114  0.052965  0.443114  1
  Ta  Ta12  1  0.065396  0.435345  0.065396  1
  Ta  Ta13  1  0.052965  0.443114  0.443114  1
  Ta  Ta14  1  0.435345  0.065396  0.065396  1
  Co  Co15  1  0.736072  0.422772  0.422772  1
  Co  Co16  1  0.422772  0.736072  0.422772  1
  Co  Co17  1  0.422772  0.422772  0.736072  1
  Co  Co18  1  0.414856  0.414856  0.414856  1
  Co  Co19  1  0.513928  0.827228  0.827228  1
  Co  Co20  1  0.827228  0.513928  0.827228  1
  Co  Co21  1  0.827228  0.827228  0.513928  1
  Co  Co22  1  0.835144  0.835144  0.835144  1
  Os  Os23  1  0.625000  0.625000  0.625000  1
  N  N24  1  0.625000  0.125000  0.125000  1
  N  N25  1  0.125000  0.625000  0.125000  1
  N  N26  1  0.125000  0.125000  0.625000  1
  N  N27  1  0.125000  0.125000  0.125000  1
