# generated using pymatgen
data_La3Nd5(NiHg)2
_symmetry_space_group_name_H-M   'P 1'
_cell_length_a   9.85586231
_cell_length_b   9.92062660
_cell_length_c   9.92062768
_cell_angle_alpha   59.56855341
_cell_angle_beta   60.21572246
_cell_angle_gamma   60.21572221
_symmetry_Int_Tables_number   1
_chemical_formula_structural   La3Nd5(NiHg)2
_chemical_formula_sum   'La6 Nd10 Ni4 Hg4'
_cell_volume   685.83729369
_cell_formula_units_Z   2
loop_
 _symmetry_equiv_pos_site_id
 _symmetry_equiv_pos_as_xyz
  1  'x, y, z'
loop_
 _atom_site_type_symbol
 _atom_site_label
 _atom_site_symmetry_multiplicity
 _atom_site_fract_x
 _atom_site_fract_y
 _atom_site_fract_z
 _atom_site_occupancy
  La  La0  1  0.597279  0.600195  0.600195  1
  La  La1  1  0.600195  0.597279  0.202330  1
  La  La2  1  0.600195  0.202330  0.597279  1
  La  La3  1  0.202330  0.600195  0.600195  1
  La  La4  1  0.061116  0.438884  0.438884  1
  La  La5  1  0.438884  0.061116  0.061116  1
  Nd  Nd6  1  0.441611  0.058389  0.441611  1
  Nd  Nd7  1  0.058389  0.441611  0.058389  1
  Nd  Nd8  1  0.441611  0.441611  0.058389  1
  Nd  Nd9  1  0.058389  0.058389  0.441611  1
  Nd  Nd10  1  0.185059  0.814941  0.814941  1
  Nd  Nd11  1  0.814941  0.185059  0.185059  1
  Nd  Nd12  1  0.813783  0.186217  0.813783  1
  Nd  Nd13  1  0.186217  0.813783  0.186217  1
  Nd  Nd14  1  0.813783  0.813783  0.186217  1
  Nd  Nd15  1  0.186217  0.186217  0.813783  1
  Ni  Ni16  1  0.389053  0.393478  0.393478  1
  Ni  Ni17  1  0.393478  0.389053  0.823992  1
  Ni  Ni18  1  0.393478  0.823992  0.389053  1
  Ni  Ni19  1  0.823992  0.393478  0.393478  1
  Hg  Hg20  1  0.835136  0.833525  0.833525  1
  Hg  Hg21  1  0.833525  0.835136  0.497815  1
  Hg  Hg22  1  0.833525  0.497815  0.835136  1
  Hg  Hg23  1  0.497815  0.833525  0.833525  1
