# generated using pymatgen
data_TbHo3Al16(ZnPd3)2
_symmetry_space_group_name_H-M   'P 1'
_cell_length_a   7.59143408
_cell_length_b   7.59231593
_cell_length_c   9.50533200
_cell_angle_alpha   90.00000000
_cell_angle_beta   90.00000000
_cell_angle_gamma   119.13153178
_symmetry_Int_Tables_number   1
_chemical_formula_structural   TbHo3Al16(ZnPd3)2
_chemical_formula_sum   'Tb1 Ho3 Al16 Zn2 Pd6'
_cell_volume   478.55351007
_cell_formula_units_Z   1
loop_
 _symmetry_equiv_pos_site_id
 _symmetry_equiv_pos_as_xyz
  1  'x, y, z'
loop_
 _atom_site_type_symbol
 _atom_site_label
 _atom_site_symmetry_multiplicity
 _atom_site_fract_x
 _atom_site_fract_y
 _atom_site_fract_z
 _atom_site_occupancy
  Tb  Tb0  1  0.993606  0.670257  0.250000  1
  Ho  Ho1  1  0.006281  0.329290  0.750000  1
  Ho  Ho2  1  0.670401  0.993738  0.250000  1
  Ho  Ho3  1  0.329581  0.006535  0.750000  1
  Al  Al4  1  0.001366  0.331802  0.076971  1
  Al  Al5  1  0.998704  0.667481  0.921471  1
  Al  Al6  1  0.998704  0.667481  0.578529  1
  Al  Al7  1  0.333266  0.002043  0.423106  1
  Al  Al8  1  0.001366  0.331802  0.423029  1
  Al  Al9  1  0.667438  0.998762  0.577880  1
  Al  Al10  1  0.667438  0.998762  0.922120  1
  Al  Al11  1  0.333266  0.002043  0.076894  1
  Al  Al12  1  0.332856  0.332879  0.556994  1
  Al  Al13  1  0.666583  0.667192  0.444189  1
  Al  Al14  1  0.666583  0.667192  0.055811  1
  Al  Al15  1  0.332856  0.332879  0.943006  1
  Al  Al16  1  0.338652  0.545975  0.250000  1
  Al  Al17  1  0.661519  0.453585  0.750000  1
  Al  Al18  1  0.545388  0.337852  0.250000  1
  Al  Al19  1  0.453775  0.661787  0.750000  1
  Zn  Zn20  1  0.137660  0.137781  0.250000  1
  Zn  Zn21  1  0.862525  0.862701  0.750000  1
  Pd  Pd22  1  0.672284  0.327786  0.999906  1
  Pd  Pd23  1  0.327744  0.672273  0.999909  1
  Pd  Pd24  1  0.327744  0.672273  0.500091  1
  Pd  Pd25  1  0.672284  0.327786  0.500094  1
  Pd  Pd26  1  0.000065  0.000032  0.999908  1
  Pd  Pd27  1  0.000065  0.000032  0.500092  1
