# generated using pymatgen
data_Ho2Lu2Sc2CoTe2
_symmetry_space_group_name_H-M   'P 1'
_cell_length_a   3.91331600
_cell_length_b   8.12898402
_cell_length_c   8.12898500
_cell_angle_alpha   121.00586073
_cell_angle_beta   90.00000000
_cell_angle_gamma   90.00000000
_symmetry_Int_Tables_number   1
_chemical_formula_structural   Ho2Lu2Sc2CoTe2
_chemical_formula_sum   'Ho2 Lu2 Sc2 Co1 Te2'
_cell_volume   221.64422009
_cell_formula_units_Z   1
loop_
 _symmetry_equiv_pos_site_id
 _symmetry_equiv_pos_as_xyz
  1  'x, y, z'
loop_
 _atom_site_type_symbol
 _atom_site_label
 _atom_site_symmetry_multiplicity
 _atom_site_fract_x
 _atom_site_fract_y
 _atom_site_fract_z
 _atom_site_occupancy
  Ho  Ho0  1  0.000000  0.999622  0.600941  1
  Ho  Ho1  1  0.000000  0.600941  0.999622  1
  Lu  Lu2  1  0.500000  0.770843  0.770843  1
  Lu  Lu3  1  0.000000  0.379225  0.379225  1
  Sc  Sc4  1  0.500000  0.995405  0.225746  1
  Sc  Sc5  1  0.500000  0.225746  0.995405  1
  Co  Co6  1  0.000000  0.037482  0.037482  1
  Te  Te7  1  0.500000  0.661500  0.329235  1
  Te  Te8  1  0.500000  0.329235  0.661500  1
