# generated using pymatgen
data_Pr8Ho12In3Pb13
_symmetry_space_group_name_H-M   'P 1'
_cell_length_a   8.20519836
_cell_length_b   8.41688053
_cell_length_c   15.84050800
_cell_angle_alpha   90.00000000
_cell_angle_beta   90.00000000
_cell_angle_gamma   89.76184925
_symmetry_Int_Tables_number   1
_chemical_formula_structural   Pr8Ho12In3Pb13
_chemical_formula_sum   'Pr8 Ho12 In3 Pb13'
_cell_volume   1093.97047496
_cell_formula_units_Z   1
loop_
 _symmetry_equiv_pos_site_id
 _symmetry_equiv_pos_as_xyz
  1  'x, y, z'
loop_
 _atom_site_type_symbol
 _atom_site_label
 _atom_site_symmetry_multiplicity
 _atom_site_fract_x
 _atom_site_fract_y
 _atom_site_fract_z
 _atom_site_occupancy
  Pr  Pr0  1  0.484545  0.680014  0.595713  1
  Pr  Pr1  1  0.984395  0.820902  0.904642  1
  Pr  Pr2  1  0.516705  0.321318  0.094566  1
  Pr  Pr3  1  0.017959  0.179100  0.401566  1
  Pr  Pr4  1  0.516705  0.321318  0.405434  1
  Pr  Pr5  1  0.017959  0.179100  0.098434  1
  Pr  Pr6  1  0.484545  0.680014  0.904287  1
  Pr  Pr7  1  0.984395  0.820902  0.595358  1
  Ho  Ho8  1  0.638335  0.162291  0.622782  1
  Ho  Ho9  1  0.140336  0.336348  0.877117  1
  Ho  Ho10  1  0.362538  0.837788  0.124366  1
  Ho  Ho11  1  0.855729  0.660470  0.377786  1
  Ho  Ho12  1  0.362538  0.837788  0.375634  1
  Ho  Ho13  1  0.855729  0.660470  0.122214  1
  Ho  Ho14  1  0.638335  0.162291  0.877218  1
  Ho  Ho15  1  0.140336  0.336348  0.622883  1
  Ho  Ho16  1  0.801609  0.488961  0.750000  1
  Ho  Ho17  1  0.301608  0.009761  0.750000  1
  Ho  Ho18  1  0.196397  0.505363  0.250000  1
  Ho  Ho19  1  0.696781  0.993337  0.250000  1
  In  In20  1  0.440069  0.377562  0.750000  1
  In  In21  1  0.939591  0.122612  0.750000  1
  In  In22  1  0.556694  0.623247  0.250000  1
  Pb  Pb23  1  0.701488  0.961449  0.457521  1
  Pb  Pb24  1  0.199011  0.541701  0.042593  1
  Pb  Pb25  1  0.298444  0.038788  0.957828  1
  Pb  Pb26  1  0.801335  0.459222  0.543508  1
  Pb  Pb27  1  0.298444  0.038788  0.542172  1
  Pb  Pb28  1  0.801335  0.459222  0.956492  1
  Pb  Pb29  1  0.701488  0.961449  0.042479  1
  Pb  Pb30  1  0.199011  0.541701  0.457407  1
  Pb  Pb31  1  0.056480  0.872062  0.250000  1
  Pb  Pb32  1  0.678986  0.858358  0.750000  1
  Pb  Pb33  1  0.178164  0.642809  0.750000  1
  Pb  Pb34  1  0.331771  0.149507  0.250000  1
  Pb  Pb35  1  0.820204  0.357640  0.250000  1
