# generated using pymatgen
data_Dy4Ga10CoNi5
_symmetry_space_group_name_H-M   'P 1'
_cell_length_a   8.36833378
_cell_length_b   8.35324341
_cell_length_c   5.52860685
_cell_angle_alpha   70.72966671
_cell_angle_beta   70.77938140
_cell_angle_gamma   95.54228354
_symmetry_Int_Tables_number   1
_chemical_formula_structural   Dy4Ga10CoNi5
_chemical_formula_sum   'Dy4 Ga10 Co1 Ni5'
_cell_volume   335.22158008
_cell_formula_units_Z   1
loop_
 _symmetry_equiv_pos_site_id
 _symmetry_equiv_pos_as_xyz
  1  'x, y, z'
loop_
 _atom_site_type_symbol
 _atom_site_label
 _atom_site_symmetry_multiplicity
 _atom_site_fract_x
 _atom_site_fract_y
 _atom_site_fract_z
 _atom_site_occupancy
  Dy  Dy0  1  0.424213  0.131217  0.722057  1
  Dy  Dy1  1  0.866383  0.578255  0.777646  1
  Dy  Dy2  1  0.134428  0.425217  0.220379  1
  Dy  Dy3  1  0.576782  0.865427  0.278702  1
  Ga  Ga4  1  0.501464  0.501250  0.750382  1
  Ga  Ga5  1  0.501405  0.501499  0.246925  1
  Ga  Ga6  1  0.794108  0.207366  0.749742  1
  Ga  Ga7  1  0.208412  0.793993  0.248129  1
  Ga  Ga8  1  0.088838  0.261874  0.824882  1
  Ga  Ga9  1  0.732218  0.910104  0.678768  1
  Ga  Ga10  1  0.794421  0.207307  0.248865  1
  Ga  Ga11  1  0.208180  0.794181  0.749337  1
  Ga  Ga12  1  0.261128  0.090202  0.324023  1
  Ga  Ga13  1  0.911821  0.738047  0.174956  1
  Co  Co14  1  0.441226  0.733979  0.912434  1
  Ni  Ni15  1  0.999012  0.999004  0.749540  1
  Ni  Ni16  1  0.998419  0.999196  0.252584  1
  Ni  Ni17  1  0.264374  0.556680  0.589622  1
  Ni  Ni18  1  0.556266  0.261530  0.091382  1
  Ni  Ni19  1  0.736901  0.443671  0.409645  1
