# generated using pymatgen
data_Er7Tm(OsBr4)2
_symmetry_space_group_name_H-M   'P 1'
_cell_length_a   8.88113473
_cell_length_b   8.88814721
_cell_length_c   6.51891922
_cell_angle_alpha   89.49230881
_cell_angle_beta   89.56206457
_cell_angle_gamma   89.35272311
_symmetry_Int_Tables_number   1
_chemical_formula_structural   Er7Tm(OsBr4)2
_chemical_formula_sum   'Er7 Tm1 Os2 Br8'
_cell_volume   514.51515919
_cell_formula_units_Z   1
loop_
 _symmetry_equiv_pos_site_id
 _symmetry_equiv_pos_as_xyz
  1  'x, y, z'
loop_
 _atom_site_type_symbol
 _atom_site_label
 _atom_site_symmetry_multiplicity
 _atom_site_fract_x
 _atom_site_fract_y
 _atom_site_fract_z
 _atom_site_occupancy
  Er  Er0  1  0.751217  0.098420  0.989556  1
  Er  Er1  1  0.098808  0.751343  0.489868  1
  Er  Er2  1  0.901675  0.248606  0.510278  1
  Er  Er3  1  0.752117  0.902621  0.508777  1
  Er  Er4  1  0.248122  0.096976  0.491552  1
  Er  Er5  1  0.097396  0.247772  0.991484  1
  Er  Er6  1  0.902643  0.752178  0.008814  1
  Tm  Tm7  1  0.246886  0.902187  0.010956  1
  Os  Os8  1  0.995028  0.004963  0.250124  1
  Os  Os9  1  0.005248  0.994847  0.750252  1
  Br  Br10  1  0.419978  0.816992  0.405130  1
  Br  Br11  1  0.580341  0.183126  0.593546  1
  Br  Br12  1  0.183686  0.580701  0.093421  1
  Br  Br13  1  0.816999  0.419725  0.906326  1
  Br  Br14  1  0.415281  0.191160  0.095964  1
  Br  Br15  1  0.584075  0.808704  0.903993  1
  Br  Br16  1  0.808492  0.584714  0.404073  1
  Br  Br17  1  0.192009  0.414965  0.595885  1
