# generated using pymatgen
data_Hf4Ti2NbCrP4
_symmetry_space_group_name_H-M   'P 1'
_cell_length_a   3.50688800
_cell_length_b   6.70997149
_cell_length_c   8.08771508
_cell_angle_alpha   89.61731119
_cell_angle_beta   90.00000000
_cell_angle_gamma   90.00000000
_symmetry_Int_Tables_number   1
_chemical_formula_structural   Hf4Ti2NbCrP4
_chemical_formula_sum   'Hf4 Ti2 Nb1 Cr1 P4'
_cell_volume   190.30873693
_cell_formula_units_Z   1
loop_
 _symmetry_equiv_pos_site_id
 _symmetry_equiv_pos_as_xyz
  1  'x, y, z'
loop_
 _atom_site_type_symbol
 _atom_site_label
 _atom_site_symmetry_multiplicity
 _atom_site_fract_x
 _atom_site_fract_y
 _atom_site_fract_z
 _atom_site_occupancy
  Hf  Hf0  1  0.250000  0.533540  0.165634  1
  Hf  Hf1  1  0.750000  0.455509  0.837666  1
  Hf  Hf2  1  0.750000  0.965144  0.672251  1
  Hf  Hf3  1  0.250000  0.037312  0.326219  1
  Ti  Ti4  1  0.750000  0.359972  0.440740  1
  Ti  Ti5  1  0.750000  0.874178  0.057070  1
  Nb  Nb6  1  0.250000  0.637140  0.561520  1
  Cr  Cr7  1  0.250000  0.136687  0.940648  1
  P  P8  1  0.250000  0.764688  0.865132  1
  P  P9  1  0.750000  0.239033  0.133070  1
  P  P10  1  0.750000  0.738503  0.352665  1
  P  P11  1  0.250000  0.258292  0.647384  1
