# generated using pymatgen
data_Dy4Tm4Tc(B8Ru)3
_symmetry_space_group_name_H-M   'P 1'
_cell_length_a   3.64673500
_cell_length_b   9.10443789
_cell_length_c   11.49804401
_cell_angle_alpha   89.91319233
_cell_angle_beta   90.00000000
_cell_angle_gamma   90.00000000
_symmetry_Int_Tables_number   1
_chemical_formula_structural   Dy4Tm4Tc(B8Ru)3
_chemical_formula_sum   'Dy4 Tm4 Tc1 B24 Ru3'
_cell_volume   381.75155133
_cell_formula_units_Z   1
loop_
 _symmetry_equiv_pos_site_id
 _symmetry_equiv_pos_as_xyz
  1  'x, y, z'
loop_
 _atom_site_type_symbol
 _atom_site_label
 _atom_site_symmetry_multiplicity
 _atom_site_fract_x
 _atom_site_fract_y
 _atom_site_fract_z
 _atom_site_occupancy
  Dy  Dy0  1  0.000000  0.323693  0.413284  1
  Dy  Dy1  1  0.000000  0.677499  0.583518  1
  Dy  Dy2  1  0.000000  0.820207  0.087815  1
  Dy  Dy3  1  0.000000  0.177287  0.914982  1
  Tm  Tm4  1  0.000000  0.943254  0.372258  1
  Tm  Tm5  1  0.000000  0.057221  0.628276  1
  Tm  Tm6  1  0.000000  0.444167  0.128257  1
  Tm  Tm7  1  0.000000  0.556719  0.871335  1
  Tc  Tc8  1  0.000000  0.638198  0.320468  1
  B  B9  1  0.500000  0.553340  0.432844  1
  B  B10  1  0.500000  0.445963  0.567657  1
  B  B11  1  0.500000  0.054033  0.067454  1
  B  B12  1  0.500000  0.945688  0.932920  1
  B  B13  1  0.500000  0.749320  0.419015  1
  B  B14  1  0.500000  0.251054  0.580997  1
  B  B15  1  0.500000  0.249081  0.080644  1
  B  B16  1  0.500000  0.750711  0.919172  1
  B  B17  1  0.500000  0.791927  0.265980  1
  B  B18  1  0.500000  0.208670  0.734089  1
  B  B19  1  0.500000  0.291220  0.233344  1
  B  B20  1  0.500000  0.709131  0.765901  1
  B  B21  1  0.500000  0.630769  0.185112  1
  B  B22  1  0.500000  0.368933  0.815310  1
  B  B23  1  0.500000  0.130946  0.314751  1
  B  B24  1  0.500000  0.869587  0.684845  1
  B  B25  1  0.500000  0.983016  0.213141  1
  B  B26  1  0.500000  0.016952  0.787388  1
  B  B27  1  0.500000  0.482106  0.286850  1
  B  B28  1  0.500000  0.516826  0.713076  1
  B  B29  1  0.500000  0.604524  0.028211  1
  B  B30  1  0.500000  0.394922  0.970715  1
  B  B31  1  0.500000  0.105457  0.471296  1
  B  B32  1  0.500000  0.896195  0.529333  1
  Ru  Ru33  1  0.000000  0.361382  0.680234  1
  Ru  Ru34  1  0.000000  0.138186  0.179211  1
  Ru  Ru35  1  0.000000  0.861821  0.820317  1
