# generated using pymatgen
data_Ce2Y6SiPd24
_symmetry_space_group_name_H-M   'P 1'
_cell_length_a   8.36589898
_cell_length_b   8.36589849
_cell_length_c   8.36589944
_cell_angle_alpha   89.87813418
_cell_angle_beta   90.12186246
_cell_angle_gamma   90.12185607
_symmetry_Int_Tables_number   1
_chemical_formula_structural   Ce2Y6SiPd24
_chemical_formula_sum   'Ce2 Y6 Si1 Pd24'
_cell_volume   585.51079133
_cell_formula_units_Z   1
loop_
 _symmetry_equiv_pos_site_id
 _symmetry_equiv_pos_as_xyz
  1  'x, y, z'
loop_
 _atom_site_type_symbol
 _atom_site_label
 _atom_site_symmetry_multiplicity
 _atom_site_fract_x
 _atom_site_fract_y
 _atom_site_fract_z
 _atom_site_occupancy
  Ce  Ce0  1  0.255427  0.744573  0.744573  1
  Ce  Ce1  1  0.744573  0.255427  0.255427  1
  Y  Y2  1  0.252269  0.253833  0.253833  1
  Y  Y3  1  0.747731  0.746167  0.746167  1
  Y  Y4  1  0.746167  0.747731  0.253833  1
  Y  Y5  1  0.746167  0.253833  0.747731  1
  Y  Y6  1  0.253833  0.252269  0.746167  1
  Y  Y7  1  0.253833  0.746167  0.252269  1
  Si  Si8  1  0.000000  0.000000  0.000000  1
  Pd  Pd9  1  0.257201  0.500514  0.998228  1
  Pd  Pd10  1  0.742799  0.499486  0.001772  1
  Pd  Pd11  1  0.998228  0.257201  0.499486  1
  Pd  Pd12  1  0.500514  0.257201  0.001772  1
  Pd  Pd13  1  0.001772  0.742799  0.500514  1
  Pd  Pd14  1  0.499486  0.742799  0.998228  1
  Pd  Pd15  1  0.500514  0.001772  0.257201  1
  Pd  Pd16  1  0.257201  0.998228  0.500514  1
  Pd  Pd17  1  0.499486  0.998228  0.742799  1
  Pd  Pd18  1  0.742799  0.001772  0.499486  1
  Pd  Pd19  1  0.998228  0.499486  0.257201  1
  Pd  Pd20  1  0.001772  0.500514  0.742799  1
  Pd  Pd21  1  0.252295  0.500349  0.500349  1
  Pd  Pd22  1  0.747705  0.499651  0.499651  1
  Pd  Pd23  1  0.500349  0.252295  0.499651  1
  Pd  Pd24  1  0.499651  0.747705  0.500349  1
  Pd  Pd25  1  0.500349  0.499651  0.252295  1
  Pd  Pd26  1  0.499651  0.500349  0.747705  1
  Pd  Pd27  1  0.280166  0.000157  0.000157  1
  Pd  Pd28  1  0.719834  0.999843  0.999843  1
  Pd  Pd29  1  0.000157  0.280166  0.999843  1
  Pd  Pd30  1  0.999843  0.719834  0.000157  1
  Pd  Pd31  1  0.000157  0.999843  0.280166  1
  Pd  Pd32  1  0.999843  0.000157  0.719834  1
