# generated using pymatgen
data_Ti6SiTc5Ge5Os
_symmetry_space_group_name_H-M   'P 1'
_cell_length_a   6.90784277
_cell_length_b   6.55144779
_cell_length_c   7.64018299
_cell_angle_alpha   115.36886689
_cell_angle_beta   116.94217286
_cell_angle_gamma   89.99899749
_symmetry_Int_Tables_number   1
_chemical_formula_structural   Ti6SiTc5Ge5Os
_chemical_formula_sum   'Ti6 Si1 Tc5 Ge5 Os1'
_cell_volume   270.30726156
_cell_formula_units_Z   1
loop_
 _symmetry_equiv_pos_site_id
 _symmetry_equiv_pos_as_xyz
  1  'x, y, z'
loop_
 _atom_site_type_symbol
 _atom_site_label
 _atom_site_symmetry_multiplicity
 _atom_site_fract_x
 _atom_site_fract_y
 _atom_site_fract_z
 _atom_site_occupancy
  Ti  Ti0  1  0.244488  0.451319  0.400790  1
  Ti  Ti1  1  0.846524  0.550710  0.599883  1
  Ti  Ti2  1  0.647555  0.748062  0.997436  1
  Ti  Ti3  1  0.647341  0.249810  0.998252  1
  Ti  Ti4  1  0.849363  0.050498  0.602774  1
  Ti  Ti5  1  0.244773  0.949990  0.401672  1
  Si  Si6  1  0.246937  0.251051  0.000300  1
  Tc  Tc7  1  0.988346  0.005975  0.001244  1
  Tc  Tc8  1  0.986313  0.493774  0.999227  1
  Tc  Tc9  1  0.507479  0.624456  0.260696  1
  Tc  Tc10  1  0.246625  0.364335  0.739738  1
  Tc  Tc11  1  0.247638  0.876353  0.741790  1
  Ge  Ge12  1  0.245806  0.748254  0.999454  1
  Ge  Ge13  1  0.580261  0.833825  0.666674  1
  Ge  Ge14  1  0.912345  0.166066  0.332820  1
  Ge  Ge15  1  0.913132  0.667131  0.333143  1
  Ge  Ge16  1  0.579218  0.332325  0.664941  1
  Os  Os17  1  0.506256  0.136064  0.259167  1
