# generated using pymatgen
data_CaTb(Ga4Ni9)2
_symmetry_space_group_name_H-M   'P 1'
_cell_length_a   8.11745908
_cell_length_b   8.11745962
_cell_length_c   8.11444632
_cell_angle_alpha   120.95413243
_cell_angle_beta   120.95413541
_cell_angle_gamma   88.37997639
_symmetry_Int_Tables_number   1
_chemical_formula_structural   CaTb(Ga4Ni9)2
_chemical_formula_sum   'Ca1 Tb1 Ga8 Ni18'
_cell_volume   372.38285812
_cell_formula_units_Z   1
loop_
 _symmetry_equiv_pos_site_id
 _symmetry_equiv_pos_as_xyz
  1  'x, y, z'
loop_
 _atom_site_type_symbol
 _atom_site_label
 _atom_site_symmetry_multiplicity
 _atom_site_fract_x
 _atom_site_fract_y
 _atom_site_fract_z
 _atom_site_occupancy
  Ca  Ca0  1  0.249974  0.250026  0.000000  1
  Tb  Tb1  1  0.749972  0.750028  0.000000  1
  Ga  Ga2  1  0.055770  0.555710  0.858075  1
  Ga  Ga3  1  0.697672  0.197628  0.141915  1
  Ga  Ga4  1  0.555706  0.697765  0.499999  1
  Ga  Ga5  1  0.197710  0.055733  0.500016  1
  Ga  Ga6  1  0.944290  0.444230  0.141925  1
  Ga  Ga7  1  0.302372  0.802328  0.858085  1
  Ga  Ga8  1  0.444267  0.302290  0.499984  1
  Ga  Ga9  1  0.802235  0.944294  0.500001  1
  Ni  Ni10  1  0.065237  0.202779  0.268920  1
  Ni  Ni11  1  0.933842  0.796349  0.731084  1
  Ni  Ni12  1  0.566124  0.297186  0.862413  1
  Ni  Ni13  1  0.434774  0.703673  0.137554  1
  Ni  Ni14  1  0.796327  0.065226  0.862446  1
  Ni  Ni15  1  0.202814  0.933876  0.137587  1
  Ni  Ni16  1  0.703651  0.566158  0.268916  1
  Ni  Ni17  1  0.297221  0.434763  0.731080  1
  Ni  Ni18  1  0.439974  0.938715  0.734373  1
  Ni  Ni19  1  0.204358  0.705608  0.265638  1
  Ni  Ni20  1  0.938731  0.204321  0.498733  1
  Ni  Ni21  1  0.705628  0.440012  0.501278  1
  Ni  Ni22  1  0.561285  0.060026  0.265627  1
  Ni  Ni23  1  0.794392  0.295642  0.734362  1
  Ni  Ni24  1  0.059988  0.794372  0.498722  1
  Ni  Ni25  1  0.295679  0.561269  0.501267  1
  Ni  Ni26  1  0.999992  0.500008  0.500000  1
  Ni  Ni27  1  0.500017  0.999983  0.500000  1
