# generated using pymatgen
data_Sc8TaNb11Si15P
_symmetry_space_group_name_H-M   'P 1'
_cell_length_a   6.71089136
_cell_length_b   6.90248994
_cell_length_c   13.12198325
_cell_angle_alpha   90.06882117
_cell_angle_beta   90.14016084
_cell_angle_gamma   90.13671089
_symmetry_Int_Tables_number   1
_chemical_formula_structural   Sc8TaNb11Si15P
_chemical_formula_sum   'Sc8 Ta1 Nb11 Si15 P1'
_cell_volume   607.83068058
_cell_formula_units_Z   1
loop_
 _symmetry_equiv_pos_site_id
 _symmetry_equiv_pos_as_xyz
  1  'x, y, z'
loop_
 _atom_site_type_symbol
 _atom_site_label
 _atom_site_symmetry_multiplicity
 _atom_site_fract_x
 _atom_site_fract_y
 _atom_site_fract_z
 _atom_site_occupancy
  Sc  Sc0  1  0.501238  0.677960  0.594151  1
  Sc  Sc1  1  0.001317  0.826058  0.904084  1
  Sc  Sc2  1  0.498772  0.325790  0.095177  1
  Sc  Sc3  1  0.997594  0.173276  0.404937  1
  Sc  Sc4  1  0.499767  0.321894  0.405175  1
  Sc  Sc5  1  0.999386  0.174190  0.095197  1
  Sc  Sc6  1  0.501174  0.674698  0.904743  1
  Sc  Sc7  1  0.999477  0.825573  0.595949  1
  Ta  Ta8  1  0.837629  0.493167  0.749391  1
  Nb  Nb9  1  0.662784  0.170292  0.622691  1
  Nb  Nb10  1  0.162657  0.325581  0.874699  1
  Nb  Nb11  1  0.338555  0.825817  0.125405  1
  Nb  Nb12  1  0.835419  0.677393  0.376758  1
  Nb  Nb13  1  0.342336  0.827535  0.376756  1
  Nb  Nb14  1  0.836679  0.675147  0.125258  1
  Nb  Nb15  1  0.662196  0.174541  0.874397  1
  Nb  Nb16  1  0.160833  0.325999  0.624480  1
  Nb  Nb17  1  0.336941  0.004031  0.749242  1
  Nb  Nb18  1  0.162735  0.505412  0.250752  1
  Nb  Nb19  1  0.664367  0.995558  0.251637  1
  Si  Si20  1  0.168514  0.533120  0.039353  1
  Si  Si21  1  0.331282  0.032793  0.960445  1
  Si  Si22  1  0.830782  0.468185  0.540286  1
  Si  Si23  1  0.323499  0.034414  0.540447  1
  Si  Si24  1  0.831510  0.468120  0.960061  1
  Si  Si25  1  0.668621  0.967987  0.039864  1
  Si  Si26  1  0.169254  0.533172  0.460194  1
  Si  Si27  1  0.459171  0.385346  0.748938  1
  Si  Si28  1  0.958767  0.112793  0.749675  1
  Si  Si29  1  0.540325  0.612440  0.250301  1
  Si  Si30  1  0.042914  0.884922  0.250598  1
  Si  Si31  1  0.704523  0.860384  0.750226  1
  Si  Si32  1  0.204531  0.637242  0.750005  1
  Si  Si33  1  0.295306  0.138474  0.249895  1
  Si  Si34  1  0.796842  0.363493  0.249971  1
  P  P35  1  0.672305  0.967199  0.458862  1
