# generated using pymatgen
data_Tb4Dy3S8
_symmetry_space_group_name_H-M   'P 1'
_cell_length_a   7.82462445
_cell_length_b   7.82158464
_cell_length_c   7.82462428
_cell_angle_alpha   119.99660851
_cell_angle_beta   90.02008596
_cell_angle_gamma   120.00591047
_symmetry_Int_Tables_number   1
_chemical_formula_structural   Tb4Dy3S8
_chemical_formula_sum   'Tb4 Dy3 S8'
_cell_volume   338.54312976
_cell_formula_units_Z   1
loop_
 _symmetry_equiv_pos_site_id
 _symmetry_equiv_pos_as_xyz
  1  'x, y, z'
loop_
 _atom_site_type_symbol
 _atom_site_label
 _atom_site_symmetry_multiplicity
 _atom_site_fract_x
 _atom_site_fract_y
 _atom_site_fract_z
 _atom_site_occupancy
  Tb  Tb0  1  0.249965  0.000000  0.249965  1
  Tb  Tb1  1  0.249963  0.499927  0.249968  1
  Tb  Tb2  1  0.750038  0.000000  0.750038  1
  Tb  Tb3  1  0.750040  0.500072  0.750035  1
  Dy  Dy4  1  0.750041  0.000006  0.249968  1
  Dy  Dy5  1  0.249991  0.500001  0.749992  1
  Dy  Dy6  1  0.249962  0.999994  0.750035  1
  S  S7  1  0.999999  0.000000  0.999999  1
  S  S8  1  0.500001  0.000000  0.500001  1
  S  S9  1  0.999776  0.999572  0.499801  1
  S  S10  1  0.999693  0.500001  0.499695  1
  S  S11  1  0.500088  0.500024  0.499941  1
  S  S12  1  0.999918  0.499978  0.000064  1
  S  S13  1  0.500300  0.500001  0.000301  1
  S  S14  1  0.500228  0.000427  0.000205  1
