# generated using pymatgen
data_Ce3Ho9Tc3Pt
_symmetry_space_group_name_H-M   'P 1'
_cell_length_a   6.39717884
_cell_length_b   7.14451846
_cell_length_c   9.43111800
_cell_angle_alpha   90.00000000
_cell_angle_beta   90.00000000
_cell_angle_gamma   90.68672924
_symmetry_Int_Tables_number   1
_chemical_formula_structural   Ce3Ho9Tc3Pt
_chemical_formula_sum   'Ce3 Ho9 Tc3 Pt1'
_cell_volume   431.01604521
_cell_formula_units_Z   1
loop_
 _symmetry_equiv_pos_site_id
 _symmetry_equiv_pos_as_xyz
  1  'x, y, z'
loop_
 _atom_site_type_symbol
 _atom_site_label
 _atom_site_symmetry_multiplicity
 _atom_site_fract_x
 _atom_site_fract_y
 _atom_site_fract_z
 _atom_site_occupancy
  Ce  Ce0  1  0.864001  0.558583  0.250000  1
  Ce  Ce1  1  0.629899  0.053167  0.250000  1
  Ce  Ce2  1  0.127358  0.435857  0.750000  1
  Ho  Ho3  1  0.326235  0.678330  0.062474  1
  Ho  Ho4  1  0.166535  0.177945  0.436451  1
  Ho  Ho5  1  0.667278  0.322284  0.558854  1
  Ho  Ho6  1  0.833435  0.822530  0.935474  1
  Ho  Ho7  1  0.667278  0.322284  0.941146  1
  Ho  Ho8  1  0.833435  0.822530  0.564526  1
  Ho  Ho9  1  0.326235  0.678330  0.437526  1
  Ho  Ho10  1  0.166535  0.177945  0.063549  1
  Ho  Ho11  1  0.376054  0.969502  0.750000  1
  Tc  Tc12  1  0.005975  0.863759  0.250000  1
  Tc  Tc13  1  0.494137  0.360988  0.250000  1
  Tc  Tc14  1  0.970672  0.141167  0.750000  1
  Pt  Pt15  1  0.544941  0.614798  0.750000  1
