# generated using pymatgen
data_Sm3TaIn2Ir3
_symmetry_space_group_name_H-M   'P 1'
_cell_length_a   7.42002575
_cell_length_b   7.20207346
_cell_length_c   4.28691800
_cell_angle_alpha   90.00000000
_cell_angle_beta   90.00000000
_cell_angle_gamma   119.03299565
_symmetry_Int_Tables_number   1
_chemical_formula_structural   Sm3TaIn2Ir3
_chemical_formula_sum   'Sm3 Ta1 In2 Ir3'
_cell_volume   200.30355900
_cell_formula_units_Z   1
loop_
 _symmetry_equiv_pos_site_id
 _symmetry_equiv_pos_as_xyz
  1  'x, y, z'
loop_
 _atom_site_type_symbol
 _atom_site_label
 _atom_site_symmetry_multiplicity
 _atom_site_fract_x
 _atom_site_fract_y
 _atom_site_fract_z
 _atom_site_occupancy
  Sm  Sm0  1  0.586016  0.586041  0.000000  1
  Sm  Sm1  1  0.413984  0.000025  0.000000  1
  Sm  Sm2  1  0.000000  0.401630  0.000000  1
  Ta  Ta3  1  0.000000  0.755320  0.500000  1
  In  In4  1  0.248223  0.248839  0.500000  1
  In  In5  1  0.751777  0.000616  0.500000  1
  Ir  Ir6  1  0.000000  0.958811  0.000000  1
  Ir  Ir7  1  0.692959  0.370838  0.500000  1
  Ir  Ir8  1  0.307041  0.677880  0.500000  1
