# generated using pymatgen
data_CsK3(Al3Se5)4
_symmetry_space_group_name_H-M   'P 1'
_cell_length_a   13.46064110
_cell_length_b   7.55531738
_cell_length_c   11.16990700
_cell_angle_alpha   75.75915617
_cell_angle_beta   89.83606759
_cell_angle_gamma   90.12190627
_symmetry_Int_Tables_number   1
_chemical_formula_structural   CsK3(Al3Se5)4
_chemical_formula_sum   'Cs1 K3 Al12 Se20'
_cell_volume   1101.05562494
_cell_formula_units_Z   1
loop_
 _symmetry_equiv_pos_site_id
 _symmetry_equiv_pos_as_xyz
  1  'x, y, z'
loop_
 _atom_site_type_symbol
 _atom_site_label
 _atom_site_symmetry_multiplicity
 _atom_site_fract_x
 _atom_site_fract_y
 _atom_site_fract_z
 _atom_site_occupancy
  Cs  Cs0  1  0.612527  0.834125  0.392785  1
  K  K1  1  0.130257  0.159850  0.135300  1
  K  K2  1  0.366961  0.160135  0.637225  1
  K  K3  1  0.870659  0.841094  0.865238  1
  Al  Al4  1  0.926565  0.801032  0.398990  1
  Al  Al5  1  0.576893  0.799351  0.896543  1
  Al  Al6  1  0.422858  0.203439  0.099286  1
  Al  Al7  1  0.396892  0.564720  0.808639  1
  Al  Al8  1  0.103352  0.561969  0.309649  1
  Al  Al9  1  0.336119  0.707335  0.124837  1
  Al  Al10  1  0.604694  0.436634  0.187402  1
  Al  Al11  1  0.076287  0.199065  0.601485  1
  Al  Al12  1  0.662193  0.292911  0.870816  1
  Al  Al13  1  0.899844  0.434878  0.692315  1
  Al  Al14  1  0.162579  0.706044  0.626391  1
  Al  Al15  1  0.839755  0.293093  0.372499  1
  Se  Se16  1  0.834589  0.718277  0.585359  1
  Se  Se17  1  0.108222  0.813807  0.411923  1
  Se  Se18  1  0.674300  0.716971  0.077272  1
  Se  Se19  1  0.395145  0.815824  0.911635  1
  Se  Se20  1  0.326055  0.285752  0.917976  1
  Se  Se21  1  0.665919  0.340353  0.393192  1
  Se  Se22  1  0.577752  0.576877  0.765368  1
  Se  Se23  1  0.604345  0.184787  0.084436  1
  Se  Se24  1  0.894635  0.185696  0.587603  1
  Se  Se25  1  0.627438  0.074115  0.753602  1
  Se  Se26  1  0.362638  0.933220  0.238375  1
  Se  Se27  1  0.173419  0.282900  0.419538  1
  Se  Se28  1  0.080285  0.419728  0.733523  1
  Se  Se29  1  0.922828  0.579049  0.268103  1
  Se  Se30  1  0.876965  0.075312  0.256217  1
  Se  Se31  1  0.128111  0.925030  0.743112  1
  Se  Se32  1  0.835442  0.341867  0.896601  1
  Se  Se33  1  0.336455  0.658016  0.602974  1
  Se  Se34  1  0.423471  0.426005  0.230687  1
  Se  Se35  1  0.163555  0.650738  0.103104  1
