# generated using pymatgen
data_Zr2ZnCo(TeO6)2
_symmetry_space_group_name_H-M   'P 1'
_cell_length_a   4.98469500
_cell_length_b   4.96505100
_cell_length_c   9.02441000
_cell_angle_alpha   90.00000000
_cell_angle_beta   90.00000000
_cell_angle_gamma   90.00105962
_symmetry_Int_Tables_number   1
_chemical_formula_structural   Zr2ZnCo(TeO6)2
_chemical_formula_sum   'Zr2 Zn1 Co1 Te2 O12'
_cell_volume   223.34751359
_cell_formula_units_Z   1
loop_
 _symmetry_equiv_pos_site_id
 _symmetry_equiv_pos_as_xyz
  1  'x, y, z'
loop_
 _atom_site_type_symbol
 _atom_site_label
 _atom_site_symmetry_multiplicity
 _atom_site_fract_x
 _atom_site_fract_y
 _atom_site_fract_z
 _atom_site_occupancy
  Zr  Zr0  1  0.500000  0.000000  0.114533  1
  Zr  Zr1  1  0.000000  0.499999  0.885475  1
  Zn  Zn2  1  0.000000  0.000000  0.502831  1
  Co  Co3  1  0.500000  0.499999  0.497147  1
  Te  Te4  1  0.000000  0.499999  0.251069  1
  Te  Te5  1  0.500000  0.000000  0.748932  1
  O  O6  1  0.816508  0.310933  0.084909  1
  O  O7  1  0.183492  0.689065  0.084909  1
  O  O8  1  0.277057  0.229848  0.249842  1
  O  O9  1  0.722944  0.770152  0.249842  1
  O  O10  1  0.801998  0.299135  0.396993  1
  O  O11  1  0.198003  0.700865  0.396993  1
  O  O12  1  0.302624  0.201478  0.602943  1
  O  O13  1  0.697375  0.798523  0.602943  1
  O  O14  1  0.776561  0.270610  0.750219  1
  O  O15  1  0.223440  0.729390  0.750219  1
  O  O16  1  0.316458  0.189026  0.915099  1
  O  O17  1  0.683543  0.810974  0.915099  1
