# generated using pymatgen
data_Hg3Pb(CO3)4
_symmetry_space_group_name_H-M   'P 1'
_cell_length_a   8.66168086
_cell_length_b   5.16634416
_cell_length_c   6.59150859
_cell_angle_alpha   87.87140056
_cell_angle_beta   87.30199621
_cell_angle_gamma   87.31301805
_symmetry_Int_Tables_number   1
_chemical_formula_structural   Hg3Pb(CO3)4
_chemical_formula_sum   'Hg3 Pb1 C4 O12'
_cell_volume   294.13353608
_cell_formula_units_Z   1
loop_
 _symmetry_equiv_pos_site_id
 _symmetry_equiv_pos_as_xyz
  1  'x, y, z'
loop_
 _atom_site_type_symbol
 _atom_site_label
 _atom_site_symmetry_multiplicity
 _atom_site_fract_x
 _atom_site_fract_y
 _atom_site_fract_z
 _atom_site_occupancy
  Hg  Hg0  1  0.442088  0.287438  0.254262  1
  Hg  Hg1  1  0.932588  0.728116  0.273311  1
  Hg  Hg2  1  0.563487  0.743962  0.720591  1
  Pb  Pb3  1  0.076907  0.204046  0.758358  1
  C  C4  1  0.771955  0.296411  0.119756  1
  C  C5  1  0.254674  0.734114  0.375892  1
  C  C6  1  0.249195  0.700698  0.885738  1
  C  C7  1  0.725430  0.266658  0.616150  1
  O  O8  1  0.909240  0.206558  0.078481  1
  O  O9  1  0.387621  0.826068  0.364095  1
  O  O10  1  0.101955  0.767527  0.901482  1
  O  O11  1  0.582817  0.217867  0.602636  1
  O  O12  1  0.741208  0.534170  0.181569  1
  O  O13  1  0.233485  0.483338  0.374570  1
  O  O14  1  0.301168  0.469697  0.917500  1
  O  O15  1  0.764897  0.507005  0.657182  1
  O  O16  1  0.654338  0.150244  0.105072  1
  O  O17  1  0.128661  0.889064  0.392298  1
  O  O18  1  0.341159  0.891518  0.826336  1
  O  O19  1  0.837128  0.095501  0.594723  1
