# generated using pymatgen
data_Gd2YHo3Ta2O14
_symmetry_space_group_name_H-M   'P 1'
_cell_length_a   6.49529193
_cell_length_b   6.50246663
_cell_length_c   7.50096517
_cell_angle_alpha   90.01339497
_cell_angle_beta   90.01528788
_cell_angle_gamma   108.61196091
_symmetry_Int_Tables_number   1
_chemical_formula_structural   Gd2YHo3Ta2O14
_chemical_formula_sum   'Gd2 Y1 Ho3 Ta2 O14'
_cell_volume   300.23797614
_cell_formula_units_Z   1
loop_
 _symmetry_equiv_pos_site_id
 _symmetry_equiv_pos_as_xyz
  1  'x, y, z'
loop_
 _atom_site_type_symbol
 _atom_site_label
 _atom_site_symmetry_multiplicity
 _atom_site_fract_x
 _atom_site_fract_y
 _atom_site_fract_z
 _atom_site_occupancy
  Gd  Gd0  1  0.530930  0.531406  0.500432  1
  Gd  Gd1  1  0.468488  0.468544  0.999589  1
  Y  Y2  1  0.999577  0.535009  0.241623  1
  Ho  Ho3  1  0.999535  0.465070  0.741736  1
  Ho  Ho4  1  0.534711  0.000527  0.758175  1
  Ho  Ho5  1  0.465273  0.999541  0.258235  1
  Ta  Ta6  1  0.002212  0.001936  0.500413  1
  Ta  Ta7  1  0.997856  0.997923  0.999708  1
  O  O8  1  0.931416  0.068013  0.750022  1
  O  O9  1  0.068353  0.932998  0.250012  1
  O  O10  1  0.360233  0.642393  0.249921  1
  O  O11  1  0.641988  0.357895  0.750065  1
  O  O12  1  0.368034  0.632030  0.749973  1
  O  O13  1  0.629940  0.367202  0.250131  1
  O  O14  1  0.327553  0.078881  0.974847  1
  O  O15  1  0.672664  0.920962  0.474903  1
  O  O16  1  0.308893  0.050754  0.544483  1
  O  O17  1  0.691458  0.949252  0.044453  1
  O  O18  1  0.051659  0.308366  0.457139  1
  O  O19  1  0.948814  0.691637  0.954481  1
  O  O20  1  0.920347  0.672754  0.526166  1
  O  O21  1  0.080069  0.326909  0.023493  1
