# generated using pymatgen
data_Tb6RuAu7
_symmetry_space_group_name_H-M   'P 1'
_cell_length_a   8.07831382
_cell_length_b   8.07831462
_cell_length_c   8.07831555
_cell_angle_alpha   114.20789502
_cell_angle_beta   114.20790167
_cell_angle_gamma   114.20788128
_symmetry_Int_Tables_number   1
_chemical_formula_structural   Tb6RuAu7
_chemical_formula_sum   'Tb6 Ru1 Au7'
_cell_volume   315.29361630
_cell_formula_units_Z   1
loop_
 _symmetry_equiv_pos_site_id
 _symmetry_equiv_pos_as_xyz
  1  'x, y, z'
loop_
 _atom_site_type_symbol
 _atom_site_label
 _atom_site_symmetry_multiplicity
 _atom_site_fract_x
 _atom_site_fract_y
 _atom_site_fract_z
 _atom_site_occupancy
  Tb  Tb0  1  0.010050  0.378286  0.260104  1
  Tb  Tb1  1  0.378286  0.260104  0.010050  1
  Tb  Tb2  1  0.739896  0.989950  0.621714  1
  Tb  Tb3  1  0.260104  0.010050  0.378286  1
  Tb  Tb4  1  0.621714  0.739896  0.989950  1
  Tb  Tb5  1  0.989950  0.621714  0.739896  1
  Ru  Ru6  1  0.000000  0.000000  0.000000  1
  Au  Au7  1  0.500000  0.500000  0.500000  1
  Au  Au8  1  0.429374  0.923153  0.761295  1
  Au  Au9  1  0.923153  0.761295  0.429374  1
  Au  Au10  1  0.238705  0.570626  0.076847  1
  Au  Au11  1  0.761295  0.429374  0.923153  1
  Au  Au12  1  0.076847  0.238705  0.570626  1
  Au  Au13  1  0.570626  0.076847  0.238705  1
