# generated using pymatgen
data_CeHo5Ru2
_symmetry_space_group_name_H-M   'P 1'
_cell_length_a   6.32034043
_cell_length_b   7.23372139
_cell_length_c   9.32882300
_cell_angle_alpha   90.00000000
_cell_angle_beta   90.00000000
_cell_angle_gamma   87.40734028
_symmetry_Int_Tables_number   1
_chemical_formula_structural   CeHo5Ru2
_chemical_formula_sum   'Ce2 Ho10 Ru4'
_cell_volume   426.07329914
_cell_formula_units_Z   2
loop_
 _symmetry_equiv_pos_site_id
 _symmetry_equiv_pos_as_xyz
  1  'x, y, z'
loop_
 _atom_site_type_symbol
 _atom_site_label
 _atom_site_symmetry_multiplicity
 _atom_site_fract_x
 _atom_site_fract_y
 _atom_site_fract_z
 _atom_site_occupancy
  Ce  Ce0  1  0.846710  0.942959  0.750000  1
  Ce  Ce1  1  0.153290  0.057041  0.250000  1
  Ho  Ho2  1  0.669782  0.172557  0.062850  1
  Ho  Ho3  1  0.367793  0.534640  0.250000  1
  Ho  Ho4  1  0.832203  0.674893  0.067066  1
  Ho  Ho5  1  0.167797  0.325107  0.932934  1
  Ho  Ho6  1  0.330218  0.827443  0.937150  1
  Ho  Ho7  1  0.632207  0.465360  0.750000  1
  Ho  Ho8  1  0.330218  0.827443  0.562850  1
  Ho  Ho9  1  0.167797  0.325107  0.567066  1
  Ho  Ho10  1  0.832203  0.674893  0.432934  1
  Ho  Ho11  1  0.669782  0.172557  0.437150  1
  Ru  Ru12  1  0.968444  0.363230  0.250000  1
  Ru  Ru13  1  0.486668  0.113847  0.750000  1
  Ru  Ru14  1  0.513332  0.886153  0.250000  1
  Ru  Ru15  1  0.031556  0.636770  0.750000  1
