# generated using pymatgen
data_CePuB8
_symmetry_space_group_name_H-M   'P 1'
_cell_length_a   7.13510000
_cell_length_b   7.12491500
_cell_length_c   4.04014400
_cell_angle_alpha   90.00000000
_cell_angle_beta   90.00000000
_cell_angle_gamma   90.00000000
_symmetry_Int_Tables_number   1
_chemical_formula_structural   CePuB8
_chemical_formula_sum   'Ce2 Pu2 B16'
_cell_volume   205.38872383
_cell_formula_units_Z   2
loop_
 _symmetry_equiv_pos_site_id
 _symmetry_equiv_pos_as_xyz
  1  'x, y, z'
loop_
 _atom_site_type_symbol
 _atom_site_label
 _atom_site_symmetry_multiplicity
 _atom_site_fract_x
 _atom_site_fract_y
 _atom_site_fract_z
 _atom_site_occupancy
  Ce  Ce0  1  0.313710  0.185950  0.000000  1
  Ce  Ce1  1  0.813710  0.314050  0.000000  1
  Pu  Pu2  1  0.187151  0.687328  0.000000  1
  Pu  Pu3  1  0.687151  0.812672  0.000000  1
  B  B4  1  0.323065  0.463514  0.500000  1
  B  B5  1  0.676603  0.540663  0.500000  1
  B  B6  1  0.538466  0.325350  0.500000  1
  B  B7  1  0.460798  0.678791  0.500000  1
  B  B8  1  0.999697  0.997450  0.201238  1
  B  B9  1  0.499697  0.502550  0.798762  1
  B  B10  1  0.999697  0.997450  0.798762  1
  B  B11  1  0.499697  0.502550  0.201238  1
  B  B12  1  0.587966  0.087765  0.500000  1
  B  B13  1  0.087966  0.412235  0.500000  1
  B  B14  1  0.912847  0.586867  0.500000  1
  B  B15  1  0.412847  0.913133  0.500000  1
  B  B16  1  0.038466  0.174650  0.500000  1
  B  B17  1  0.176603  0.959337  0.500000  1
  B  B18  1  0.823065  0.036486  0.500000  1
  B  B19  1  0.960798  0.821209  0.500000  1
