# generated using pymatgen
data_Sr2AcGa12
_symmetry_space_group_name_H-M   'P 1'
_cell_length_a   8.85199493
_cell_length_b   8.85193603
_cell_length_c   8.85193473
_cell_angle_alpha   149.33845697
_cell_angle_beta   106.92239621
_cell_angle_gamma   81.29935039
_symmetry_Int_Tables_number   1
_chemical_formula_structural   Sr2AcGa12
_chemical_formula_sum   'Sr2 Ac1 Ga12'
_cell_volume   331.34705765
_cell_formula_units_Z   1
loop_
 _symmetry_equiv_pos_site_id
 _symmetry_equiv_pos_as_xyz
  1  'x, y, z'
loop_
 _atom_site_type_symbol
 _atom_site_label
 _atom_site_symmetry_multiplicity
 _atom_site_fract_x
 _atom_site_fract_y
 _atom_site_fract_z
 _atom_site_occupancy
  Sr  Sr0  1  0.000579  0.000203  0.000374  1
  Sr  Sr1  1  0.334107  0.333179  0.000929  1
  Ac  Ac2  1  0.667557  0.666637  0.000921  1
  Ga  Ga3  1  0.621166  0.999096  0.622070  1
  Ga  Ga4  1  0.379099  0.999097  0.380002  1
  Ga  Ga5  1  0.252739  0.500231  0.752508  1
  Ga  Ga6  1  0.749522  0.500220  0.249302  1
  Ga  Ga7  1  0.585340  0.832910  0.752429  1
  Ga  Ga8  1  0.919029  0.166860  0.752168  1
  Ga  Ga9  1  0.288839  0.666581  0.622259  1
  Ga  Ga10  1  0.955924  0.334324  0.621600  1
  Ga  Ga11  1  0.045805  0.666928  0.378876  1
  Ga  Ga12  1  0.713506  0.333956  0.379552  1
  Ga  Ga13  1  0.082307  0.833427  0.248881  1
  Ga  Ga14  1  0.415481  0.166348  0.249134  1
