# generated using pymatgen
data_AcUP7Ru12
_symmetry_space_group_name_H-M   'P 1'
_cell_length_a   9.53958500
_cell_length_b   9.53958479
_cell_length_c   3.94430700
_cell_angle_alpha   90.00000000
_cell_angle_beta   90.00000000
_cell_angle_gamma   119.99999725
_symmetry_Int_Tables_number   1
_chemical_formula_structural   AcUP7Ru12
_chemical_formula_sum   'Ac1 U1 P7 Ru12'
_cell_volume   310.85675463
_cell_formula_units_Z   1
loop_
 _symmetry_equiv_pos_site_id
 _symmetry_equiv_pos_as_xyz
  1  'x, y, z'
loop_
 _atom_site_type_symbol
 _atom_site_label
 _atom_site_symmetry_multiplicity
 _atom_site_fract_x
 _atom_site_fract_y
 _atom_site_fract_z
 _atom_site_occupancy
  Ac  Ac0  1  0.333333  0.666667  0.000000  1
  U  U1  1  0.666667  0.333333  0.500000  1
  P  P2  1  0.608424  0.716995  0.500000  1
  P  P3  1  0.000000  0.000000  0.000000  1
  P  P4  1  0.283005  0.891430  0.500000  1
  P  P5  1  0.108570  0.391576  0.500000  1
  P  P6  1  0.893010  0.580907  0.000000  1
  P  P7  1  0.419093  0.312104  0.000000  1
  P  P8  1  0.687896  0.106990  0.000000  1
  Ru  Ru9  1  0.565444  0.964052  0.500000  1
  Ru  Ru10  1  0.398610  0.434556  0.500000  1
  Ru  Ru11  1  0.910540  0.121288  0.500000  1
  Ru  Ru12  1  0.210748  0.089460  0.500000  1
  Ru  Ru13  1  0.878712  0.789252  0.500000  1
  Ru  Ru14  1  0.728623  0.886686  0.000000  1
  Ru  Ru15  1  0.113314  0.841936  0.000000  1
  Ru  Ru16  1  0.158064  0.271377  0.000000  1
  Ru  Ru17  1  0.430889  0.079090  0.000000  1
  Ru  Ru18  1  0.920910  0.351800  0.000000  1
  Ru  Ru19  1  0.648200  0.569111  0.000000  1
  Ru  Ru20  1  0.035948  0.601390  0.500000  1
