# generated using pymatgen
data_YbY4Lu3(B6Ru)4
_symmetry_space_group_name_H-M   'P 1'
_cell_length_a   3.63155600
_cell_length_b   9.09220942
_cell_length_c   11.48876252
_cell_angle_alpha   89.96745205
_cell_angle_beta   90.00000000
_cell_angle_gamma   90.00000000
_symmetry_Int_Tables_number   1
_chemical_formula_structural   YbY4Lu3(B6Ru)4
_chemical_formula_sum   'Yb1 Y4 Lu3 B24 Ru4'
_cell_volume   379.34586812
_cell_formula_units_Z   1
loop_
 _symmetry_equiv_pos_site_id
 _symmetry_equiv_pos_as_xyz
  1  'x, y, z'
loop_
 _atom_site_type_symbol
 _atom_site_label
 _atom_site_symmetry_multiplicity
 _atom_site_fract_x
 _atom_site_fract_y
 _atom_site_fract_z
 _atom_site_occupancy
  Yb  Yb0  1  0.000000  0.323330  0.413904  1
  Y  Y1  1  0.000000  0.676115  0.585438  1
  Y  Y2  1  0.000000  0.821638  0.085893  1
  Y  Y3  1  0.000000  0.178937  0.914446  1
  Y  Y4  1  0.000000  0.944541  0.371886  1
  Lu  Lu5  1  0.000000  0.058153  0.628685  1
  Lu  Lu6  1  0.000000  0.443219  0.128959  1
  Lu  Lu7  1  0.000000  0.555920  0.872236  1
  B  B8  1  0.500000  0.553142  0.432287  1
  B  B9  1  0.500000  0.445001  0.567672  1
  B  B10  1  0.500000  0.054188  0.066499  1
  B  B11  1  0.500000  0.945450  0.932168  1
  B  B12  1  0.500000  0.747633  0.418909  1
  B  B13  1  0.500000  0.251030  0.581326  1
  B  B14  1  0.500000  0.249648  0.080807  1
  B  B15  1  0.500000  0.750152  0.919097  1
  B  B16  1  0.500000  0.790408  0.265479  1
  B  B17  1  0.500000  0.209134  0.734313  1
  B  B18  1  0.500000  0.291639  0.233644  1
  B  B19  1  0.500000  0.708410  0.766293  1
  B  B20  1  0.500000  0.630080  0.184962  1
  B  B21  1  0.500000  0.369780  0.815734  1
  B  B22  1  0.500000  0.132237  0.314026  1
  B  B23  1  0.500000  0.869476  0.684972  1
  B  B24  1  0.500000  0.983918  0.211459  1
  B  B25  1  0.500000  0.017096  0.786645  1
  B  B26  1  0.500000  0.482374  0.286886  1
  B  B27  1  0.500000  0.516868  0.713460  1
  B  B28  1  0.500000  0.603934  0.028685  1
  B  B29  1  0.500000  0.396212  0.971543  1
  B  B30  1  0.500000  0.104330  0.472977  1
  B  B31  1  0.500000  0.896418  0.530065  1
  Ru  Ru32  1  0.000000  0.637830  0.319560  1
  Ru  Ru33  1  0.000000  0.361411  0.681102  1
  Ru  Ru34  1  0.000000  0.138902  0.177839  1
  Ru  Ru35  1  0.000000  0.861447  0.820140  1
