# generated using pymatgen
data_TbYb3Pr7In9Pd4
_symmetry_space_group_name_H-M   'P 1'
_cell_length_a   13.43814612
_cell_length_b   13.45144091
_cell_length_c   3.81027700
_cell_angle_alpha   90.00000000
_cell_angle_beta   90.00000000
_cell_angle_gamma   111.39158033
_symmetry_Int_Tables_number   1
_chemical_formula_structural   TbYb3Pr7In9Pd4
_chemical_formula_sum   'Tb1 Yb3 Pr7 In9 Pd4'
_cell_volume   641.30620105
_cell_formula_units_Z   1
loop_
 _symmetry_equiv_pos_site_id
 _symmetry_equiv_pos_as_xyz
  1  'x, y, z'
loop_
 _atom_site_type_symbol
 _atom_site_label
 _atom_site_symmetry_multiplicity
 _atom_site_fract_x
 _atom_site_fract_y
 _atom_site_fract_z
 _atom_site_occupancy
  Tb  Tb0  1  0.689678  0.692668  0.000000  1
  Yb  Yb1  1  0.417595  0.071506  0.000000  1
  Yb  Yb2  1  0.582821  0.924971  0.000000  1
  Yb  Yb3  1  0.074730  0.417078  0.000000  1
  Pr  Pr4  1  0.929652  0.582896  0.000000  1
  Pr  Pr5  1  0.161604  0.842852  0.000000  1
  Pr  Pr6  1  0.839343  0.158531  0.000000  1
  Pr  Pr7  1  0.370664  0.629584  0.000000  1
  Pr  Pr8  1  0.626696  0.371308  0.000000  1
  Pr  Pr9  1  0.309068  0.308730  0.000000  1
  Pr  Pr10  1  0.999795  0.999912  0.000000  1
  In  In11  1  0.369039  0.840489  0.500000  1
  In  In12  1  0.630825  0.158545  0.500000  1
  In  In13  1  0.839481  0.365157  0.500000  1
  In  In14  1  0.162337  0.631842  0.500000  1
  In  In15  1  0.221493  0.076391  0.500000  1
  In  In16  1  0.777578  0.920883  0.500000  1
  In  In17  1  0.076617  0.221702  0.500000  1
  In  In18  1  0.919090  0.780643  0.500000  1
  In  In19  1  0.504192  0.505126  0.500000  1
  Pd  Pd20  1  0.450447  0.240076  0.500000  1
  Pd  Pd21  1  0.555011  0.756284  0.500000  1
  Pd  Pd22  1  0.241798  0.449297  0.500000  1
  Pd  Pd23  1  0.750448  0.553530  0.500000  1
