# generated using pymatgen
data_Rb2LiErBi2
_symmetry_space_group_name_H-M   'P 1'
_cell_length_a   11.36048738
_cell_length_b   11.36048840
_cell_length_c   7.35847800
_cell_angle_alpha   90.00000000
_cell_angle_beta   90.00000000
_cell_angle_gamma   99.45993186
_symmetry_Int_Tables_number   1
_chemical_formula_structural   Rb2LiErBi2
_chemical_formula_sum   'Rb8 Li4 Er4 Bi8'
_cell_volume   936.77516741
_cell_formula_units_Z   4
loop_
 _symmetry_equiv_pos_site_id
 _symmetry_equiv_pos_as_xyz
  1  'x, y, z'
loop_
 _atom_site_type_symbol
 _atom_site_label
 _atom_site_symmetry_multiplicity
 _atom_site_fract_x
 _atom_site_fract_y
 _atom_site_fract_z
 _atom_site_occupancy
  Rb  Rb0  1  0.572020  0.927980  0.750000  1
  Rb  Rb1  1  0.927980  0.572020  0.250000  1
  Rb  Rb2  1  0.427980  0.072020  0.250000  1
  Rb  Rb3  1  0.072020  0.427980  0.750000  1
  Rb  Rb4  1  0.674437  0.325563  0.783745  1
  Rb  Rb5  1  0.825563  0.174437  0.283745  1
  Rb  Rb6  1  0.325563  0.674437  0.216255  1
  Rb  Rb7  1  0.174437  0.825563  0.716255  1
  Li  Li8  1  0.620883  0.620883  0.000000  1
  Li  Li9  1  0.879117  0.879117  0.500000  1
  Li  Li10  1  0.379117  0.379117  0.000000  1
  Li  Li11  1  0.120883  0.120883  0.500000  1
  Er  Er12  1  0.870251  0.870251  0.000000  1
  Er  Er13  1  0.629749  0.629749  0.500000  1
  Er  Er14  1  0.129749  0.129749  0.000000  1
  Er  Er15  1  0.370251  0.370251  0.500000  1
  Bi  Bi16  1  0.347461  0.152539  0.750000  1
  Bi  Bi17  1  0.152539  0.347461  0.250000  1
  Bi  Bi18  1  0.652539  0.847461  0.250000  1
  Bi  Bi19  1  0.847461  0.652539  0.750000  1
  Bi  Bi20  1  0.904173  0.095827  0.759458  1
  Bi  Bi21  1  0.595827  0.404173  0.259458  1
  Bi  Bi22  1  0.095827  0.904173  0.240542  1
  Bi  Bi23  1  0.404173  0.595827  0.740542  1
