# generated using pymatgen
data_Zr6Ti4Ge6C
_symmetry_space_group_name_H-M   'P 1'
_cell_length_a   7.90456100
_cell_length_b   7.90456193
_cell_length_c   5.44676900
_cell_angle_alpha   90.00000000
_cell_angle_beta   90.00000000
_cell_angle_gamma   119.99999190
_symmetry_Int_Tables_number   1
_chemical_formula_structural   Zr6Ti4Ge6C
_chemical_formula_sum   'Zr6 Ti4 Ge6 C1'
_cell_volume   294.73057142
_cell_formula_units_Z   1
loop_
 _symmetry_equiv_pos_site_id
 _symmetry_equiv_pos_as_xyz
  1  'x, y, z'
loop_
 _atom_site_type_symbol
 _atom_site_label
 _atom_site_symmetry_multiplicity
 _atom_site_fract_x
 _atom_site_fract_y
 _atom_site_fract_z
 _atom_site_occupancy
  Zr  Zr0  1  0.000000  0.757379  0.256199  1
  Zr  Zr1  1  0.242621  0.242621  0.256199  1
  Zr  Zr2  1  0.757379  0.000000  0.256199  1
  Zr  Zr3  1  0.000000  0.242621  0.743801  1
  Zr  Zr4  1  0.757379  0.757379  0.743801  1
  Zr  Zr5  1  0.242621  0.000000  0.743801  1
  Ti  Ti6  1  0.333333  0.666667  0.000000  1
  Ti  Ti7  1  0.666667  0.333333  0.000000  1
  Ti  Ti8  1  0.666667  0.333333  0.500000  1
  Ti  Ti9  1  0.333333  0.666667  0.500000  1
  Ge  Ge10  1  0.000000  0.402186  0.247058  1
  Ge  Ge11  1  0.597814  0.597814  0.247058  1
  Ge  Ge12  1  0.402186  0.000000  0.247058  1
  Ge  Ge13  1  0.000000  0.597814  0.752942  1
  Ge  Ge14  1  0.402186  0.402186  0.752942  1
  Ge  Ge15  1  0.597814  0.000000  0.752942  1
  C  C16  1  0.000000  0.000000  0.500000  1
