# generated using pymatgen
data_LuSc4Ta3Ru8
_symmetry_space_group_name_H-M   'P 1'
_cell_length_a   6.39040101
_cell_length_b   4.53640700
_cell_length_c   9.10049901
_cell_angle_alpha   90.00000000
_cell_angle_beta   89.99432103
_cell_angle_gamma   90.00000000
_symmetry_Int_Tables_number   1
_chemical_formula_structural   LuSc4Ta3Ru8
_chemical_formula_sum   'Lu1 Sc4 Ta3 Ru8'
_cell_volume   263.81854954
_cell_formula_units_Z   1
loop_
 _symmetry_equiv_pos_site_id
 _symmetry_equiv_pos_as_xyz
  1  'x, y, z'
loop_
 _atom_site_type_symbol
 _atom_site_label
 _atom_site_symmetry_multiplicity
 _atom_site_fract_x
 _atom_site_fract_y
 _atom_site_fract_z
 _atom_site_occupancy
  Lu  Lu0  1  0.250014  0.250000  0.124972  1
  Sc  Sc1  1  0.749999  0.250000  0.125021  1
  Sc  Sc2  1  0.250007  0.750000  0.375788  1
  Sc  Sc3  1  0.750041  0.250000  0.625069  1
  Sc  Sc4  1  0.249935  0.750000  0.874207  1
  Ta  Ta5  1  0.750019  0.750000  0.374376  1
  Ta  Ta6  1  0.250035  0.250000  0.625067  1
  Ta  Ta7  1  0.749944  0.750000  0.875647  1
  Ru  Ru8  1  0.511883  0.750000  0.124803  1
  Ru  Ru9  1  0.988079  0.750000  0.124758  1
  Ru  Ru10  1  0.505348  0.250000  0.383967  1
  Ru  Ru11  1  0.994947  0.250000  0.383836  1
  Ru  Ru12  1  0.000800  0.750000  0.625089  1
  Ru  Ru13  1  0.499136  0.750000  0.625096  1
  Ru  Ru14  1  0.994622  0.250000  0.866134  1
  Ru  Ru15  1  0.505191  0.250000  0.866170  1
