# generated using pymatgen
data_Dy5HoH18
_symmetry_space_group_name_H-M   'P 1'
_cell_length_a   6.32554400
_cell_length_b   6.32639760
_cell_length_c   6.60171401
_cell_angle_alpha   90.00460197
_cell_angle_beta   90.00000000
_cell_angle_gamma   119.99552630
_symmetry_Int_Tables_number   1
_chemical_formula_structural   Dy5HoH18
_chemical_formula_sum   'Dy5 Ho1 H18'
_cell_volume   228.80276917
_cell_formula_units_Z   1
loop_
 _symmetry_equiv_pos_site_id
 _symmetry_equiv_pos_as_xyz
  1  'x, y, z'
loop_
 _atom_site_type_symbol
 _atom_site_label
 _atom_site_symmetry_multiplicity
 _atom_site_fract_x
 _atom_site_fract_y
 _atom_site_fract_z
 _atom_site_occupancy
  Dy  Dy0  1  0.336857  0.336904  0.749992  1
  Dy  Dy1  1  0.999953  0.663096  0.750008  1
  Dy  Dy2  1  0.663172  0.663276  0.250043  1
  Dy  Dy3  1  0.999896  0.336724  0.249957  1
  Dy  Dy4  1  0.336976  0.000000  0.250000  1
  Ho  Ho5  1  0.662929  0.000000  0.750000  1
  H  H6  1  0.322016  0.971824  0.907227  1
  H  H7  1  0.650305  0.679262  0.907021  1
  H  H8  1  0.028032  0.349510  0.907451  1
  H  H9  1  0.321424  0.349574  0.407494  1
  H  H10  1  0.028172  0.678566  0.407495  1
  H  H11  1  0.650586  0.972063  0.408503  1
  H  H12  1  0.678524  0.027937  0.091497  1
  H  H13  1  0.349607  0.321434  0.092505  1
  H  H14  1  0.971851  0.650426  0.092506  1
  H  H15  1  0.678524  0.650490  0.592549  1
  H  H16  1  0.971044  0.320738  0.592979  1
  H  H17  1  0.350193  0.028176  0.592773  1
  H  H18  1  0.998624  0.000000  0.750000  1
  H  H19  1  0.000097  0.000000  0.250000  1
  H  H20  1  0.666692  0.332091  0.817857  1
  H  H21  1  0.666677  0.333428  0.318143  1
  H  H22  1  0.333248  0.666572  0.181857  1
  H  H23  1  0.334601  0.667909  0.682143  1
