# generated using pymatgen
data_Dy3Tm4Co6Sn22Hg
_symmetry_space_group_name_H-M   'P 1'
_cell_length_a   9.65979921
_cell_length_b   9.66331898
_cell_length_c   10.01076500
_cell_angle_alpha   89.99999900
_cell_angle_beta   89.99837832
_cell_angle_gamma   120.01205512
_symmetry_Int_Tables_number   1
_chemical_formula_structural   Dy3Tm4Co6Sn22Hg
_chemical_formula_sum   'Dy3 Tm4 Co6 Sn22 Hg1'
_cell_volume   809.16957346
_cell_formula_units_Z   1
loop_
 _symmetry_equiv_pos_site_id
 _symmetry_equiv_pos_as_xyz
  1  'x, y, z'
loop_
 _atom_site_type_symbol
 _atom_site_label
 _atom_site_symmetry_multiplicity
 _atom_site_fract_x
 _atom_site_fract_y
 _atom_site_fract_z
 _atom_site_occupancy
  Dy  Dy0  1  0.000000  0.000000  0.000000  1
  Dy  Dy1  1  0.041950  0.520975  0.306465  1
  Dy  Dy2  1  0.958050  0.479025  0.693535  1
  Tm  Tm3  1  0.479615  0.520233  0.306345  1
  Tm  Tm4  1  0.520385  0.479767  0.693655  1
  Tm  Tm5  1  0.479615  0.959382  0.306345  1
  Tm  Tm6  1  0.520385  0.040618  0.693655  1
  Co  Co7  1  0.830856  0.167619  0.197334  1
  Co  Co8  1  0.169144  0.832381  0.802666  1
  Co  Co9  1  0.830856  0.663236  0.197334  1
  Co  Co10  1  0.169144  0.336764  0.802666  1
  Co  Co11  1  0.337160  0.168580  0.197594  1
  Co  Co12  1  0.662840  0.831420  0.802406  1
  Sn  Sn13  1  0.346565  0.000143  0.999931  1
  Sn  Sn14  1  0.653435  0.999857  0.000069  1
  Sn  Sn15  1  0.000000  0.346182  0.000000  1
  Sn  Sn16  1  0.000000  0.653818  0.000000  1
  Sn  Sn17  1  0.653435  0.653578  0.000069  1
  Sn  Sn18  1  0.346565  0.346422  0.999931  1
  Sn  Sn19  1  0.333767  0.666884  0.818299  1
  Sn  Sn20  1  0.666233  0.333116  0.181701  1
  Sn  Sn21  1  0.780807  0.216485  0.453407  1
  Sn  Sn22  1  0.219193  0.783515  0.546593  1
  Sn  Sn23  1  0.780807  0.564322  0.453407  1
  Sn  Sn24  1  0.219193  0.435678  0.546593  1
  Sn  Sn25  1  0.435975  0.217988  0.453702  1
  Sn  Sn26  1  0.564025  0.782012  0.546298  1
  Sn  Sn27  1  0.335605  0.667803  0.120987  1
  Sn  Sn28  1  0.664395  0.332197  0.879013  1
  Sn  Sn29  1  0.117233  0.883213  0.270448  1
  Sn  Sn30  1  0.882767  0.116787  0.729552  1
  Sn  Sn31  1  0.117233  0.234019  0.270448  1
  Sn  Sn32  1  0.882767  0.765981  0.729552  1
  Sn  Sn33  1  0.765199  0.882599  0.270373  1
  Sn  Sn34  1  0.234801  0.117401  0.729627  1
  Hg  Hg35  1  0.000000  0.000000  0.500000  1
