# generated using pymatgen
data_Sm8Cu3(As4Pd3)3
_symmetry_space_group_name_H-M   'P 1'
_cell_length_a   4.09629400
_cell_length_b   11.29161226
_cell_length_c   13.71136632
_cell_angle_alpha   89.81789136
_cell_angle_beta   90.00000000
_cell_angle_gamma   90.00000000
_symmetry_Int_Tables_number   1
_chemical_formula_structural   Sm8Cu3(As4Pd3)3
_chemical_formula_sum   'Sm8 Cu3 As12 Pd9'
_cell_volume   634.19909198
_cell_formula_units_Z   1
loop_
 _symmetry_equiv_pos_site_id
 _symmetry_equiv_pos_as_xyz
  1  'x, y, z'
loop_
 _atom_site_type_symbol
 _atom_site_label
 _atom_site_symmetry_multiplicity
 _atom_site_fract_x
 _atom_site_fract_y
 _atom_site_fract_z
 _atom_site_occupancy
  Sm  Sm0  1  0.250000  0.931400  0.790696  1
  Sm  Sm1  1  0.750000  0.430614  0.708881  1
  Sm  Sm2  1  0.250000  0.572251  0.289826  1
  Sm  Sm3  1  0.750000  0.069875  0.211264  1
  Sm  Sm4  1  0.250000  0.840148  0.507403  1
  Sm  Sm5  1  0.750000  0.339330  0.994538  1
  Sm  Sm6  1  0.250000  0.658005  0.004420  1
  Sm  Sm7  1  0.750000  0.162683  0.496815  1
  Cu  Cu8  1  0.750000  0.362904  0.218719  1
  Cu  Cu9  1  0.250000  0.636339  0.781012  1
  Cu  Cu10  1  0.750000  0.136762  0.719776  1
  As  As11  1  0.250000  0.233740  0.643905  1
  As  As12  1  0.750000  0.732258  0.857402  1
  As  As13  1  0.250000  0.266448  0.142720  1
  As  As14  1  0.750000  0.765932  0.358290  1
  As  As15  1  0.250000  0.600020  0.602801  1
  As  As16  1  0.750000  0.100997  0.897125  1
  As  As17  1  0.250000  0.898298  0.101081  1
  As  As18  1  0.750000  0.400946  0.396076  1
  As  As19  1  0.250000  0.055405  0.374726  1
  As  As20  1  0.750000  0.548387  0.127927  1
  As  As21  1  0.250000  0.447917  0.870536  1
  As  As22  1  0.750000  0.949108  0.629755  1
  Pd  Pd23  1  0.250000  0.401586  0.514219  1
  Pd  Pd24  1  0.750000  0.902369  0.981549  1
  Pd  Pd25  1  0.250000  0.097671  0.017809  1
  Pd  Pd26  1  0.750000  0.597839  0.485057  1
  Pd  Pd27  1  0.250000  0.274586  0.328617  1
  Pd  Pd28  1  0.750000  0.768473  0.163885  1
  Pd  Pd29  1  0.250000  0.226310  0.830472  1
  Pd  Pd30  1  0.750000  0.726520  0.671696  1
  Pd  Pd31  1  0.250000  0.864879  0.281002  1
