# generated using pymatgen
data_HoLu9Si5As
_symmetry_space_group_name_H-M   'P 1'
_cell_length_a   8.24690100
_cell_length_b   8.26865255
_cell_length_c   6.14798300
_cell_angle_alpha   90.00000000
_cell_angle_beta   90.00000000
_cell_angle_gamma   119.91302242
_symmetry_Int_Tables_number   1
_chemical_formula_structural   HoLu9Si5As
_chemical_formula_sum   'Ho1 Lu9 Si5 As1'
_cell_volume   363.38649379
_cell_formula_units_Z   1
loop_
 _symmetry_equiv_pos_site_id
 _symmetry_equiv_pos_as_xyz
  1  'x, y, z'
loop_
 _atom_site_type_symbol
 _atom_site_label
 _atom_site_symmetry_multiplicity
 _atom_site_fract_x
 _atom_site_fract_y
 _atom_site_fract_z
 _atom_site_occupancy
  Ho  Ho0  1  0.759549  0.000000  0.750000  1
  Lu  Lu1  1  0.668936  0.336203  0.001120  1
  Lu  Lu2  1  0.332732  0.663797  0.498880  1
  Lu  Lu3  1  0.332732  0.663797  0.001120  1
  Lu  Lu4  1  0.668936  0.336203  0.498880  1
  Lu  Lu5  1  0.757495  0.756769  0.250000  1
  Lu  Lu6  1  0.000726  0.243231  0.250000  1
  Lu  Lu7  1  0.996486  0.754546  0.750000  1
  Lu  Lu8  1  0.241940  0.245454  0.750000  1
  Lu  Lu9  1  0.241530  0.000000  0.250000  1
  Si  Si10  1  0.394743  0.393444  0.250000  1
  Si  Si11  1  0.001298  0.606556  0.250000  1
  Si  Si12  1  0.000565  0.395767  0.750000  1
  Si  Si13  1  0.604798  0.604233  0.750000  1
  Si  Si14  1  0.606626  0.000000  0.250000  1
  As  As15  1  0.390905  0.000000  0.750000  1
