# generated using pymatgen
data_Y6AlCo2
_symmetry_space_group_name_H-M   'P 1'
_cell_length_a   8.38272323
_cell_length_b   8.38272364
_cell_length_c   8.38272348
_cell_angle_alpha   109.56836252
_cell_angle_beta   107.01004496
_cell_angle_gamma   111.87168838
_symmetry_Int_Tables_number   1
_chemical_formula_structural   Y6AlCo2
_chemical_formula_sum   'Y12 Al2 Co4'
_cell_volume   452.63854850
_cell_formula_units_Z   2
loop_
 _symmetry_equiv_pos_site_id
 _symmetry_equiv_pos_as_xyz
  1  'x, y, z'
loop_
 _atom_site_type_symbol
 _atom_site_label
 _atom_site_symmetry_multiplicity
 _atom_site_fract_x
 _atom_site_fract_y
 _atom_site_fract_z
 _atom_site_occupancy
  Y  Y0  1  0.737256  0.301201  0.038457  1
  Y  Y1  1  0.217911  0.399143  0.181232  1
  Y  Y2  1  0.782089  0.963320  0.181232  1
  Y  Y3  1  0.513149  0.187998  0.325150  1
  Y  Y4  1  0.137152  0.812002  0.325150  1
  Y  Y5  1  0.737256  0.698799  0.436056  1
  Y  Y6  1  0.262745  0.301202  0.563945  1
  Y  Y7  1  0.862848  0.187998  0.674850  1
  Y  Y8  1  0.486852  0.812002  0.674851  1
  Y  Y9  1  0.217910  0.036678  0.818767  1
  Y  Y10  1  0.782089  0.600857  0.818767  1
  Y  Y11  1  0.262745  0.698798  0.961543  1
  Al  Al12  1  0.500000  0.500000  0.000000  1
  Al  Al13  1  0.000000  0.500001  0.500001  1
  Co  Co14  1  0.112874  0.000000  0.112874  1
  Co  Co15  1  0.500000  0.833345  0.333344  1
  Co  Co16  1  0.499999  0.166655  0.666655  1
  Co  Co17  1  0.887126  0.000000  0.887126  1
