# generated using pymatgen
data_Pr3Pa(CdRh2)2
_symmetry_space_group_name_H-M   'P 1'
_cell_length_a   7.85774313
_cell_length_b   7.85774313
_cell_length_c   3.74013900
_cell_angle_alpha   90.00000000
_cell_angle_beta   90.00000000
_cell_angle_gamma   92.51213964
_symmetry_Int_Tables_number   1
_chemical_formula_structural   Pr3Pa(CdRh2)2
_chemical_formula_sum   'Pr3 Pa1 Cd2 Rh4'
_cell_volume   230.70968283
_cell_formula_units_Z   1
loop_
 _symmetry_equiv_pos_site_id
 _symmetry_equiv_pos_as_xyz
  1  'x, y, z'
loop_
 _atom_site_type_symbol
 _atom_site_label
 _atom_site_symmetry_multiplicity
 _atom_site_fract_x
 _atom_site_fract_y
 _atom_site_fract_z
 _atom_site_occupancy
  Pr  Pr0  1  0.328036  0.828036  0.500000  1
  Pr  Pr1  1  0.166619  0.333502  0.500000  1
  Pr  Pr2  1  0.833502  0.666619  0.500000  1
  Pa  Pa3  1  0.661594  0.161594  0.500000  1
  Cd  Cd4  1  0.005928  0.999702  0.000000  1
  Cd  Cd5  1  0.499702  0.505928  0.000000  1
  Rh  Rh6  1  0.122424  0.622424  0.000000  1
  Rh  Rh7  1  0.837411  0.337411  0.000000  1
  Rh  Rh8  1  0.647899  0.896885  0.000000  1
  Rh  Rh9  1  0.396885  0.147899  0.000000  1
