# generated using pymatgen
data_SrBi3Ir2(RuO7)2
_symmetry_space_group_name_H-M   'P 1'
_cell_length_a   7.33651360
_cell_length_b   7.36774783
_cell_length_c   7.36774769
_cell_angle_alpha   60.41607550
_cell_angle_beta   60.34747687
_cell_angle_gamma   60.34747216
_symmetry_Int_Tables_number   1
_chemical_formula_structural   SrBi3Ir2(RuO7)2
_chemical_formula_sum   'Sr1 Bi3 Ir2 Ru2 O14'
_cell_volume   283.96618965
_cell_formula_units_Z   1
loop_
 _symmetry_equiv_pos_site_id
 _symmetry_equiv_pos_as_xyz
  1  'x, y, z'
loop_
 _atom_site_type_symbol
 _atom_site_label
 _atom_site_symmetry_multiplicity
 _atom_site_fract_x
 _atom_site_fract_y
 _atom_site_fract_z
 _atom_site_occupancy
  Sr  Sr0  1  0.125000  0.125000  0.125000  1
  Bi  Bi1  1  0.125000  0.125000  0.625000  1
  Bi  Bi2  1  0.125000  0.625000  0.125000  1
  Bi  Bi3  1  0.625000  0.125000  0.125000  1
  Ir  Ir4  1  0.125000  0.625000  0.625000  1
  Ir  Ir5  1  0.625000  0.625000  0.625000  1
  Ru  Ru6  1  0.625000  0.625000  0.125000  1
  Ru  Ru7  1  0.625000  0.125000  0.625000  1
  O  O8  1  0.253298  0.255509  0.255509  1
  O  O9  1  0.996702  0.994491  0.994491  1
  O  O10  1  0.548160  0.950398  0.546821  1
  O  O11  1  0.299600  0.692442  0.299772  1
  O  O12  1  0.548160  0.546821  0.950398  1
  O  O13  1  0.952863  0.545858  0.545858  1
  O  O14  1  0.564356  0.945862  0.945862  1
  O  O15  1  0.950400  0.950228  0.557558  1
  O  O16  1  0.950400  0.557558  0.950228  1
  O  O17  1  0.685644  0.304138  0.304138  1
  O  O18  1  0.297137  0.704142  0.704142  1
  O  O19  1  0.701840  0.299602  0.703179  1
  O  O20  1  0.299600  0.299772  0.692442  1
  O  O21  1  0.701840  0.703179  0.299602  1
