# generated using pymatgen
data_Hf3ZrSi3MoN
_symmetry_space_group_name_H-M   'P 1'
_cell_length_a   7.76860864
_cell_length_b   7.74408412
_cell_length_c   5.44652445
_cell_angle_alpha   89.97672195
_cell_angle_beta   90.04640175
_cell_angle_gamma   120.10481465
_symmetry_Int_Tables_number   1
_chemical_formula_structural   Hf3ZrSi3MoN
_chemical_formula_sum   'Hf6 Zr2 Si6 Mo2 N2'
_cell_volume   283.46770547
_cell_formula_units_Z   2
loop_
 _symmetry_equiv_pos_site_id
 _symmetry_equiv_pos_as_xyz
  1  'x, y, z'
loop_
 _atom_site_type_symbol
 _atom_site_label
 _atom_site_symmetry_multiplicity
 _atom_site_fract_x
 _atom_site_fract_y
 _atom_site_fract_z
 _atom_site_occupancy
  Hf  Hf0  1  0.000942  0.233736  0.248009  1
  Hf  Hf1  1  0.999058  0.766264  0.751991  1
  Hf  Hf2  1  0.767206  0.766264  0.248009  1
  Hf  Hf3  1  0.232794  0.233736  0.751991  1
  Hf  Hf4  1  0.667401  0.334802  0.500000  1
  Hf  Hf5  1  0.332599  0.665198  0.500000  1
  Zr  Zr6  1  0.239476  0.000000  0.249870  1
  Zr  Zr7  1  0.760524  0.000000  0.750130  1
  Si  Si8  1  0.592522  0.000000  0.227184  1
  Si  Si9  1  0.407478  0.000000  0.772816  1
  Si  Si10  1  0.999611  0.588916  0.225828  1
  Si  Si11  1  0.000389  0.411084  0.774172  1
  Si  Si12  1  0.410695  0.411084  0.225828  1
  Si  Si13  1  0.589305  0.588916  0.774172  1
  Mo  Mo14  1  0.332617  0.665236  0.000000  1
  Mo  Mo15  1  0.667383  0.334764  0.000000  1
  N  N16  1  0.000000  0.000000  0.000000  1
  N  N17  1  0.000000  0.000000  0.500000  1
