# generated using pymatgen
data_Sm2Sn4BiRh3
_symmetry_space_group_name_H-M   'P 1'
_cell_length_a   13.67702508
_cell_length_b   13.67702393
_cell_length_c   7.34993300
_cell_angle_alpha   90.00000000
_cell_angle_beta   90.00000000
_cell_angle_gamma   161.05354061
_symmetry_Int_Tables_number   1
_chemical_formula_structural   Sm2Sn4BiRh3
_chemical_formula_sum   'Sm4 Sn8 Bi2 Rh6'
_cell_volume   446.40406146
_cell_formula_units_Z   2
loop_
 _symmetry_equiv_pos_site_id
 _symmetry_equiv_pos_as_xyz
  1  'x, y, z'
loop_
 _atom_site_type_symbol
 _atom_site_label
 _atom_site_symmetry_multiplicity
 _atom_site_fract_x
 _atom_site_fract_y
 _atom_site_fract_z
 _atom_site_occupancy
  Sm  Sm0  1  0.172339  0.827661  0.755627  1
  Sm  Sm1  1  0.827661  0.172339  0.255627  1
  Sm  Sm2  1  0.476746  0.523254  0.736043  1
  Sm  Sm3  1  0.523254  0.476746  0.236043  1
  Sn  Sn4  1  0.704926  0.295074  0.047950  1
  Sn  Sn5  1  0.295074  0.704926  0.547950  1
  Sn  Sn6  1  0.596191  0.403809  0.612559  1
  Sn  Sn7  1  0.403809  0.596191  0.112559  1
  Sn  Sn8  1  0.952665  0.047335  0.399475  1
  Sn  Sn9  1  0.047335  0.952665  0.899475  1
  Sn  Sn10  1  0.289528  0.710472  0.976319  1
  Sn  Sn11  1  0.710472  0.289528  0.476319  1
  Bi  Bi12  1  0.879352  0.120648  0.732401  1
  Bi  Bi13  1  0.120648  0.879352  0.232401  1
  Rh  Rh14  1  0.050338  0.949662  0.522095  1
  Rh  Rh15  1  0.949662  0.050338  0.022095  1
  Rh  Rh16  1  0.775761  0.224239  0.767840  1
  Rh  Rh17  1  0.224239  0.775761  0.267840  1
  Rh  Rh18  1  0.394693  0.605307  0.477691  1
  Rh  Rh19  1  0.605307  0.394693  0.977691  1
