# generated using pymatgen
data_DyCu6ClO8
_symmetry_space_group_name_H-M   'P 1'
_cell_length_a   6.55730363
_cell_length_b   6.55730337
_cell_length_c   6.55730400
_cell_angle_alpha   60.00000691
_cell_angle_beta   60.00000825
_cell_angle_gamma   60.00000125
_symmetry_Int_Tables_number   1
_chemical_formula_structural   DyCu6ClO8
_chemical_formula_sum   'Dy1 Cu6 Cl1 O8'
_cell_volume   199.37052147
_cell_formula_units_Z   1
loop_
 _symmetry_equiv_pos_site_id
 _symmetry_equiv_pos_as_xyz
  1  'x, y, z'
loop_
 _atom_site_type_symbol
 _atom_site_label
 _atom_site_symmetry_multiplicity
 _atom_site_fract_x
 _atom_site_fract_y
 _atom_site_fract_z
 _atom_site_occupancy
  Dy  Dy0  1  0.000000  0.000000  0.000000  1
  Cu  Cu1  1  0.000000  0.000000  0.500000  1
  Cu  Cu2  1  0.500000  0.000000  0.500000  1
  Cu  Cu3  1  0.000000  0.500000  0.500000  1
  Cu  Cu4  1  0.500000  0.500000  0.000000  1
  Cu  Cu5  1  0.000000  0.500000  0.000000  1
  Cu  Cu6  1  0.500000  0.000000  0.000000  1
  Cl  Cl7  1  0.500000  0.500000  0.500000  1
  O  O8  1  0.855572  0.855572  0.433284  1
  O  O9  1  0.855572  0.433284  0.855572  1
  O  O10  1  0.433284  0.855572  0.855572  1
  O  O11  1  0.855572  0.855572  0.855572  1
  O  O12  1  0.144428  0.144428  0.566716  1
  O  O13  1  0.144428  0.566716  0.144428  1
  O  O14  1  0.566716  0.144428  0.144428  1
  O  O15  1  0.144428  0.144428  0.144428  1
