# generated using pymatgen
data_Ho2Zr4Sn6IrRh5
_symmetry_space_group_name_H-M   'P 1'
_cell_length_a   7.51549785
_cell_length_b   7.51153138
_cell_length_c   7.37200086
_cell_angle_alpha   90.13179481
_cell_angle_beta   89.94041105
_cell_angle_gamma   120.14878137
_symmetry_Int_Tables_number   1
_chemical_formula_structural   Ho2Zr4Sn6IrRh5
_chemical_formula_sum   'Ho2 Zr4 Sn6 Ir1 Rh5'
_cell_volume   359.87198560
_cell_formula_units_Z   1
loop_
 _symmetry_equiv_pos_site_id
 _symmetry_equiv_pos_as_xyz
  1  'x, y, z'
loop_
 _atom_site_type_symbol
 _atom_site_label
 _atom_site_symmetry_multiplicity
 _atom_site_fract_x
 _atom_site_fract_y
 _atom_site_fract_z
 _atom_site_occupancy
  Ho  Ho0  1  0.596320  0.999751  0.249688  1
  Ho  Ho1  1  0.404907  0.402451  0.249634  1
  Zr  Zr2  1  0.609482  0.004968  0.750507  1
  Zr  Zr3  1  0.392015  0.394123  0.750652  1
  Zr  Zr4  1  0.999261  0.602547  0.750221  1
  Zr  Zr5  1  0.993186  0.596104  0.247294  1
  Sn  Sn6  1  0.265292  0.996603  0.993333  1
  Sn  Sn7  1  0.732491  0.732625  0.507271  1
  Sn  Sn8  1  0.001146  0.269390  0.496614  1
  Sn  Sn9  1  0.002688  0.268209  0.003169  1
  Sn  Sn10  1  0.731860  0.734967  0.992456  1
  Sn  Sn11  1  0.266409  0.997788  0.506543  1
  Ir  Ir12  1  0.672636  0.338378  0.976942  1
  Rh  Rh13  1  0.671181  0.336725  0.525886  1
  Rh  Rh14  1  0.329784  0.665908  0.975552  1
  Rh  Rh15  1  0.330598  0.666321  0.524514  1
  Rh  Rh16  1  0.000757  0.004361  0.749649  1
  Rh  Rh17  1  0.999989  0.988781  0.250077  1
