# generated using pymatgen
data_HfTa(FeP)2
_symmetry_space_group_name_H-M   'P 1'
_cell_length_a   3.65406000
_cell_length_b   6.17715400
_cell_length_c   6.99122300
_cell_angle_alpha   90.00000000
_cell_angle_beta   90.00000000
_cell_angle_gamma   90.00000000
_symmetry_Int_Tables_number   1
_chemical_formula_structural   HfTa(FeP)2
_chemical_formula_sum   'Hf2 Ta2 Fe4 P4'
_cell_volume   157.80372768
_cell_formula_units_Z   2
loop_
 _symmetry_equiv_pos_site_id
 _symmetry_equiv_pos_as_xyz
  1  'x, y, z'
loop_
 _atom_site_type_symbol
 _atom_site_label
 _atom_site_symmetry_multiplicity
 _atom_site_fract_x
 _atom_site_fract_y
 _atom_site_fract_z
 _atom_site_occupancy
  Hf  Hf0  1  0.250000  0.519361  0.680833  1
  Hf  Hf1  1  0.250000  0.019361  0.819167  1
  Ta  Ta2  1  0.750000  0.981937  0.180187  1
  Ta  Ta3  1  0.750000  0.481937  0.319813  1
  Fe  Fe4  1  0.750000  0.354087  0.943011  1
  Fe  Fe5  1  0.250000  0.144107  0.433890  1
  Fe  Fe6  1  0.750000  0.854087  0.556989  1
  Fe  Fe7  1  0.250000  0.644107  0.066110  1
  P  P8  1  0.250000  0.779008  0.379605  1
  P  P9  1  0.250000  0.279008  0.120395  1
  P  P10  1  0.750000  0.221499  0.611676  1
  P  P11  1  0.750000  0.721499  0.888324  1
