# generated using pymatgen
data_Nd10Bi6PBr
_symmetry_space_group_name_H-M   'P 1'
_cell_length_a   9.56688000
_cell_length_b   9.56688127
_cell_length_c   6.83264800
_cell_angle_alpha   90.00000000
_cell_angle_beta   90.00000000
_cell_angle_gamma   120.00000254
_symmetry_Int_Tables_number   1
_chemical_formula_structural   Nd10Bi6PBr
_chemical_formula_sum   'Nd10 Bi6 P1 Br1'
_cell_volume   541.57720766
_cell_formula_units_Z   1
loop_
 _symmetry_equiv_pos_site_id
 _symmetry_equiv_pos_as_xyz
  1  'x, y, z'
loop_
 _atom_site_type_symbol
 _atom_site_label
 _atom_site_symmetry_multiplicity
 _atom_site_fract_x
 _atom_site_fract_y
 _atom_site_fract_z
 _atom_site_occupancy
  Nd  Nd0  1  0.747437  0.000000  0.730925  1
  Nd  Nd1  1  0.000000  0.252563  0.269075  1
  Nd  Nd2  1  0.747437  0.747437  0.269075  1
  Nd  Nd3  1  0.333333  0.666667  0.500000  1
  Nd  Nd4  1  0.333333  0.666667  0.000000  1
  Nd  Nd5  1  0.666667  0.333333  0.500000  1
  Nd  Nd6  1  0.666667  0.333333  0.000000  1
  Nd  Nd7  1  0.252563  0.000000  0.269075  1
  Nd  Nd8  1  0.252563  0.252563  0.730925  1
  Nd  Nd9  1  0.000000  0.747437  0.730925  1
  Bi  Bi10  1  0.393186  0.000000  0.751564  1
  Bi  Bi11  1  0.606814  0.000000  0.248436  1
  Bi  Bi12  1  0.000000  0.606814  0.248436  1
  Bi  Bi13  1  0.606814  0.606814  0.751564  1
  Bi  Bi14  1  0.000000  0.393186  0.751564  1
  Bi  Bi15  1  0.393186  0.393186  0.248436  1
  P  P16  1  0.000000  0.000000  0.500000  1
  Br  Br17  1  0.000000  0.000000  0.000000  1
