# generated using pymatgen
data_Ce3Ho9Tc3Ru
_symmetry_space_group_name_H-M   'P 1'
_cell_length_a   6.31996734
_cell_length_b   7.18953080
_cell_length_c   9.42734100
_cell_angle_alpha   90.00000000
_cell_angle_beta   90.00000000
_cell_angle_gamma   91.09349585
_symmetry_Int_Tables_number   1
_chemical_formula_structural   Ce3Ho9Tc3Ru
_chemical_formula_sum   'Ce3 Ho9 Tc3 Ru1'
_cell_volume   428.27773800
_cell_formula_units_Z   1
loop_
 _symmetry_equiv_pos_site_id
 _symmetry_equiv_pos_as_xyz
  1  'x, y, z'
loop_
 _atom_site_type_symbol
 _atom_site_label
 _atom_site_symmetry_multiplicity
 _atom_site_fract_x
 _atom_site_fract_y
 _atom_site_fract_z
 _atom_site_occupancy
  Ce  Ce0  1  0.860494  0.558087  0.250000  1
  Ce  Ce1  1  0.632977  0.054593  0.250000  1
  Ce  Ce2  1  0.141370  0.441992  0.750000  1
  Ho  Ho3  1  0.330848  0.677551  0.061803  1
  Ho  Ho4  1  0.165496  0.176498  0.436322  1
  Ho  Ho5  1  0.667908  0.326344  0.565073  1
  Ho  Ho6  1  0.830907  0.823065  0.933367  1
  Ho  Ho7  1  0.667908  0.326344  0.934927  1
  Ho  Ho8  1  0.830907  0.823065  0.566633  1
  Ho  Ho9  1  0.330848  0.677551  0.438197  1
  Ho  Ho10  1  0.165496  0.176498  0.063678  1
  Ho  Ho11  1  0.371149  0.958878  0.750000  1
  Tc  Tc12  1  0.004369  0.864460  0.250000  1
  Tc  Tc13  1  0.498397  0.361354  0.250000  1
  Tc  Tc14  1  0.983795  0.141837  0.750000  1
  Ru  Ru15  1  0.517130  0.611882  0.750000  1
