# generated using pymatgen
data_TbSm5In6O18
_symmetry_space_group_name_H-M   'P 1'
_cell_length_a   6.45700500
_cell_length_b   6.45700530
_cell_length_c   12.45452400
_cell_angle_alpha   90.00000000
_cell_angle_beta   90.00000000
_cell_angle_gamma   119.99999333
_symmetry_Int_Tables_number   1
_chemical_formula_structural   TbSm5In6O18
_chemical_formula_sum   'Tb1 Sm5 In6 O18'
_cell_volume   449.69707265
_cell_formula_units_Z   1
loop_
 _symmetry_equiv_pos_site_id
 _symmetry_equiv_pos_as_xyz
  1  'x, y, z'
loop_
 _atom_site_type_symbol
 _atom_site_label
 _atom_site_symmetry_multiplicity
 _atom_site_fract_x
 _atom_site_fract_y
 _atom_site_fract_z
 _atom_site_occupancy
  Tb  Tb0  1  0.000000  0.000000  0.227818  1
  Sm  Sm1  1  0.666666  0.333333  0.264357  1
  Sm  Sm2  1  0.333333  0.666667  0.264357  1
  Sm  Sm3  1  0.000000  0.000000  0.727137  1
  Sm  Sm4  1  0.666666  0.333333  0.764700  1
  Sm  Sm5  1  0.333333  0.666667  0.764700  1
  In  In6  1  0.667548  0.000000  0.497769  1
  In  In7  1  0.332452  0.332452  0.497769  1
  In  In8  1  0.000000  0.667548  0.497769  1
  In  In9  1  0.332600  0.000000  0.999426  1
  In  In10  1  0.000000  0.332599  0.999426  1
  In  In11  1  0.667401  0.667401  0.999426  1
  O  O12  1  0.000000  0.000000  0.030194  1
  O  O13  1  0.355720  0.000000  0.167998  1
  O  O14  1  0.000000  0.355720  0.167998  1
  O  O15  1  0.644281  0.644281  0.167998  1
  O  O16  1  0.697452  0.000000  0.327918  1
  O  O17  1  0.302548  0.302547  0.327918  1
  O  O18  1  0.000000  0.697452  0.327918  1
  O  O19  1  0.666666  0.333333  0.470948  1
  O  O20  1  0.333333  0.666667  0.470948  1
  O  O21  1  0.000000  0.000000  0.528588  1
  O  O22  1  0.639286  0.000000  0.666630  1
  O  O23  1  0.360714  0.360715  0.666630  1
  O  O24  1  0.000000  0.639286  0.666630  1
  O  O25  1  0.306634  0.000000  0.829119  1
  O  O26  1  0.000000  0.306633  0.829119  1
  O  O27  1  0.693366  0.693366  0.829119  1
  O  O28  1  0.666666  0.333333  0.972628  1
  O  O29  1  0.333333  0.666667  0.972628  1
