# generated using pymatgen
data_Ca4TlV3O12
_symmetry_space_group_name_H-M   'P 1'
_cell_length_a   9.56836344
_cell_length_b   9.56836427
_cell_length_c   7.19674100
_cell_angle_alpha   72.90053216
_cell_angle_beta   72.90053064
_cell_angle_gamma   91.96468132
_symmetry_Int_Tables_number   1
_chemical_formula_structural   Ca4TlV3O12
_chemical_formula_sum   'Ca8 Tl2 V6 O24'
_cell_volume   596.64350102
_cell_formula_units_Z   2
loop_
 _symmetry_equiv_pos_site_id
 _symmetry_equiv_pos_as_xyz
  1  'x, y, z'
loop_
 _atom_site_type_symbol
 _atom_site_label
 _atom_site_symmetry_multiplicity
 _atom_site_fract_x
 _atom_site_fract_y
 _atom_site_fract_z
 _atom_site_occupancy
  Ca  Ca0  1  0.260325  0.734507  0.763196  1
  Ca  Ca1  1  0.734507  0.260325  0.263196  1
  Ca  Ca2  1  0.938261  0.618952  0.643007  1
  Ca  Ca3  1  0.379095  0.066092  0.853134  1
  Ca  Ca4  1  0.066092  0.379095  0.353134  1
  Ca  Ca5  1  0.618952  0.938261  0.143007  1
  Ca  Ca6  1  0.522951  0.526775  0.549483  1
  Ca  Ca7  1  0.526775  0.522951  0.049483  1
  Tl  Tl8  1  0.978769  0.028232  0.749639  1
  Tl  Tl9  1  0.028232  0.978769  0.249639  1
  V  V10  1  0.706095  0.294733  0.747927  1
  V  V11  1  0.294733  0.706095  0.247927  1
  V  V12  1  0.125359  0.350601  0.860309  1
  V  V13  1  0.650200  0.873853  0.638168  1
  V  V14  1  0.873853  0.650200  0.138168  1
  V  V15  1  0.350601  0.125359  0.360309  1
  O  O16  1  0.171671  0.175480  0.874413  1
  O  O17  1  0.820624  0.821462  0.633889  1
  O  O18  1  0.821462  0.820624  0.133889  1
  O  O19  1  0.175480  0.171671  0.374413  1
  O  O20  1  0.706468  0.478357  0.754848  1
  O  O21  1  0.536411  0.278437  0.708140  1
  O  O22  1  0.278437  0.536411  0.208140  1
  O  O23  1  0.478357  0.706468  0.254848  1
  O  O24  1  0.827704  0.264932  0.534366  1
  O  O25  1  0.726935  0.183270  0.973895  1
  O  O26  1  0.183270  0.726935  0.473895  1
  O  O27  1  0.264932  0.827704  0.034366  1
  O  O28  1  0.992924  0.334371  0.095560  1
  O  O29  1  0.671590  0.004988  0.401674  1
  O  O30  1  0.004988  0.671590  0.901674  1
  O  O31  1  0.334371  0.992924  0.595560  1
  O  O32  1  0.283707  0.479540  0.790415  1
  O  O33  1  0.520887  0.713273  0.703037  1
  O  O34  1  0.713273  0.520887  0.203037  1
  O  O35  1  0.479540  0.283707  0.290415  1
  O  O36  1  0.038586  0.399357  0.675625  1
  O  O37  1  0.598484  0.957142  0.825076  1
  O  O38  1  0.957142  0.598484  0.325076  1
  O  O39  1  0.399357  0.038586  0.175625  1
