# generated using pymatgen
data_Lu12Ga2Ni2RuRh
_symmetry_space_group_name_H-M   'P 1'
_cell_length_a   8.16082375
_cell_length_b   8.16082254
_cell_length_c   8.16082277
_cell_angle_alpha   112.67997044
_cell_angle_beta   110.24559617
_cell_angle_gamma   105.56738642
_symmetry_Int_Tables_number   1
_chemical_formula_structural   Lu12Ga2Ni2RuRh
_chemical_formula_sum   'Lu12 Ga2 Ni2 Ru1 Rh1'
_cell_volume   416.74227193
_cell_formula_units_Z   1
loop_
 _symmetry_equiv_pos_site_id
 _symmetry_equiv_pos_as_xyz
  1  'x, y, z'
loop_
 _atom_site_type_symbol
 _atom_site_label
 _atom_site_symmetry_multiplicity
 _atom_site_fract_x
 _atom_site_fract_y
 _atom_site_fract_z
 _atom_site_occupancy
  Lu  Lu0  1  0.438087  0.243655  0.194432  1
  Lu  Lu1  1  0.561884  0.755843  0.806041  1
  Lu  Lu2  1  0.050199  0.244157  0.806041  1
  Lu  Lu3  1  0.950776  0.756345  0.194432  1
  Lu  Lu4  1  0.180429  0.277934  0.458362  1
  Lu  Lu5  1  0.821098  0.720078  0.541175  1
  Lu  Lu6  1  0.180429  0.722066  0.902495  1
  Lu  Lu7  1  0.821098  0.279922  0.101020  1
  Lu  Lu8  1  0.324923  0.635837  0.307901  1
  Lu  Lu9  1  0.672063  0.364163  0.689085  1
  Lu  Lu10  1  0.324923  0.017022  0.689085  1
  Lu  Lu11  1  0.672063  0.982978  0.307901  1
  Ga  Ga12  1  0.499853  0.500000  0.999853  1
  Ga  Ga13  1  0.002126  0.000000  0.002126  1
  Ni  Ni14  1  0.120094  0.619992  0.500102  1
  Ni  Ni15  1  0.880110  0.380008  0.500102  1
  Ru  Ru16  1  0.332759  0.000000  0.332759  1
  Rh  Rh17  1  0.667086  0.000000  0.667086  1
