# generated using pymatgen
data_U4Be4Si2(IrRh)5
_symmetry_space_group_name_H-M   'P 1'
_cell_length_a   9.69827549
_cell_length_b   9.67731023
_cell_length_c   3.16889300
_cell_angle_alpha   90.00000000
_cell_angle_beta   90.00000000
_cell_angle_gamma   90.01061965
_symmetry_Int_Tables_number   1
_chemical_formula_structural   U4Be4Si2(IrRh)5
_chemical_formula_sum   'U4 Be4 Si2 Ir5 Rh5'
_cell_volume   297.41080863
_cell_formula_units_Z   1
loop_
 _symmetry_equiv_pos_site_id
 _symmetry_equiv_pos_as_xyz
  1  'x, y, z'
loop_
 _atom_site_type_symbol
 _atom_site_label
 _atom_site_symmetry_multiplicity
 _atom_site_fract_x
 _atom_site_fract_y
 _atom_site_fract_z
 _atom_site_occupancy
  U  U0  1  0.176210  0.676508  0.000000  1
  U  U1  1  0.676028  0.823221  0.000000  1
  U  U2  1  0.323827  0.176510  0.000000  1
  U  U3  1  0.823495  0.323830  0.000000  1
  Be  Be4  1  0.376689  0.876023  0.000000  1
  Be  Be5  1  0.876768  0.623537  0.000000  1
  Be  Be6  1  0.123935  0.376173  0.000000  1
  Be  Be7  1  0.623480  0.123988  0.000000  1
  Si  Si8  1  0.999948  0.998660  0.000000  1
  Si  Si9  1  0.500105  0.500081  0.000000  1
  Ir  Ir10  1  0.000356  0.500115  0.500000  1
  Ir  Ir11  1  0.500309  0.999709  0.500000  1
  Ir  Ir12  1  0.794557  0.064130  0.500000  1
  Ir  Ir13  1  0.205534  0.936068  0.500000  1
  Ir  Ir14  1  0.062973  0.203977  0.500000  1
  Rh  Rh15  1  0.296763  0.436198  0.500000  1
  Rh  Rh16  1  0.703615  0.564675  0.500000  1
  Rh  Rh17  1  0.563610  0.297134  0.500000  1
  Rh  Rh18  1  0.435878  0.702913  0.500000  1
  Rh  Rh19  1  0.935921  0.796554  0.500000  1
