# generated using pymatgen
data_Zr18FeCoRe8
_symmetry_space_group_name_H-M   'P 1'
_cell_length_a   8.66694600
_cell_length_b   8.66694515
_cell_length_c   8.57250900
_cell_angle_alpha   90.00000000
_cell_angle_beta   90.00000000
_cell_angle_gamma   119.99999563
_symmetry_Int_Tables_number   1
_chemical_formula_structural   Zr18FeCoRe8
_chemical_formula_sum   'Zr18 Fe1 Co1 Re8'
_cell_volume   557.66159826
_cell_formula_units_Z   1
loop_
 _symmetry_equiv_pos_site_id
 _symmetry_equiv_pos_as_xyz
  1  'x, y, z'
loop_
 _atom_site_type_symbol
 _atom_site_label
 _atom_site_symmetry_multiplicity
 _atom_site_fract_x
 _atom_site_fract_y
 _atom_site_fract_z
 _atom_site_occupancy
  Zr  Zr0  1  0.200062  0.799938  0.441703  1
  Zr  Zr1  1  0.200062  0.400127  0.441703  1
  Zr  Zr2  1  0.599873  0.799938  0.441703  1
  Zr  Zr3  1  0.801190  0.198810  0.558723  1
  Zr  Zr4  1  0.801190  0.602377  0.558723  1
  Zr  Zr5  1  0.397623  0.198810  0.558723  1
  Zr  Zr6  1  0.801190  0.198810  0.941277  1
  Zr  Zr7  1  0.801190  0.602377  0.941277  1
  Zr  Zr8  1  0.397623  0.198810  0.941277  1
  Zr  Zr9  1  0.200062  0.799938  0.058297  1
  Zr  Zr10  1  0.200062  0.400127  0.058297  1
  Zr  Zr11  1  0.599873  0.799938  0.058297  1
  Zr  Zr12  1  0.541578  0.458422  0.250000  1
  Zr  Zr13  1  0.541578  0.083156  0.250000  1
  Zr  Zr14  1  0.916844  0.458422  0.250000  1
  Zr  Zr15  1  0.457799  0.542201  0.750000  1
  Zr  Zr16  1  0.457799  0.915598  0.750000  1
  Zr  Zr17  1  0.084402  0.542201  0.750000  1
  Fe  Fe18  1  0.333333  0.666667  0.250000  1
  Co  Co19  1  0.666667  0.333333  0.750000  1
  Re  Re20  1  0.891799  0.108201  0.250000  1
  Re  Re21  1  0.891799  0.783600  0.250000  1
  Re  Re22  1  0.216400  0.108201  0.250000  1
  Re  Re23  1  0.108490  0.891510  0.750000  1
  Re  Re24  1  0.108490  0.216979  0.750000  1
  Re  Re25  1  0.783021  0.891510  0.750000  1
  Re  Re26  1  0.000000  0.000000  0.499563  1
  Re  Re27  1  0.000000  0.000000  0.000437  1
