# generated using pymatgen
data_Pr16Hg4OsPd3
_symmetry_space_group_name_H-M   'P 1'
_cell_length_a   10.10099982
_cell_length_b   10.10100131
_cell_length_c   10.09898415
_cell_angle_alpha   59.42824483
_cell_angle_beta   59.42823968
_cell_angle_gamma   59.42514504
_symmetry_Int_Tables_number   1
_chemical_formula_structural   Pr16Hg4OsPd3
_chemical_formula_sum   'Pr16 Hg4 Os1 Pd3'
_cell_volume   719.10833773
_cell_formula_units_Z   1
loop_
 _symmetry_equiv_pos_site_id
 _symmetry_equiv_pos_as_xyz
  1  'x, y, z'
loop_
 _atom_site_type_symbol
 _atom_site_label
 _atom_site_symmetry_multiplicity
 _atom_site_fract_x
 _atom_site_fract_y
 _atom_site_fract_z
 _atom_site_occupancy
  Pr  Pr0  1  0.354386  0.354386  0.354356  1
  Pr  Pr1  1  0.349780  0.349780  0.946192  1
  Pr  Pr2  1  0.349766  0.946211  0.349779  1
  Pr  Pr3  1  0.946211  0.349766  0.349779  1
  Pr  Pr4  1  0.817961  0.188294  0.188292  1
  Pr  Pr5  1  0.188155  0.807127  0.807120  1
  Pr  Pr6  1  0.188294  0.817961  0.188292  1
  Pr  Pr7  1  0.807127  0.188155  0.807120  1
  Pr  Pr8  1  0.188291  0.188291  0.817968  1
  Pr  Pr9  1  0.807125  0.807125  0.188172  1
  Pr  Pr10  1  0.937286  0.564414  0.564421  1
  Pr  Pr11  1  0.555174  0.938391  0.938410  1
  Pr  Pr12  1  0.564414  0.937286  0.564421  1
  Pr  Pr13  1  0.938391  0.555174  0.938410  1
  Pr  Pr14  1  0.564424  0.564424  0.937279  1
  Pr  Pr15  1  0.938388  0.938388  0.555169  1
  Hg  Hg16  1  0.584125  0.584125  0.584123  1
  Hg  Hg17  1  0.584738  0.584738  0.245539  1
  Hg  Hg18  1  0.584738  0.245528  0.584757  1
  Hg  Hg19  1  0.245528  0.584738  0.584757  1
  Os  Os20  1  0.143544  0.143544  0.143522  1
  Pd  Pd21  1  0.146032  0.146032  0.570094  1
  Pd  Pd22  1  0.146030  0.570094  0.146017  1
  Pd  Pd23  1  0.570094  0.146030  0.146017  1
