# generated using pymatgen
data_PmSeS
_symmetry_space_group_name_H-M   'P 1'
_cell_length_a   4.08353600
_cell_length_b   8.21309324
_cell_length_c   8.25275138
_cell_angle_alpha   89.76669842
_cell_angle_beta   90.00000000
_cell_angle_gamma   90.00000000
_symmetry_Int_Tables_number   1
_chemical_formula_structural   PmSeS
_chemical_formula_sum   'Pm4 Se4 S4'
_cell_volume   276.78229359
_cell_formula_units_Z   4
loop_
 _symmetry_equiv_pos_site_id
 _symmetry_equiv_pos_as_xyz
  1  'x, y, z'
loop_
 _atom_site_type_symbol
 _atom_site_label
 _atom_site_symmetry_multiplicity
 _atom_site_fract_x
 _atom_site_fract_y
 _atom_site_fract_z
 _atom_site_occupancy
  Pm  Pm0  1  0.281607  0.127285  0.214379  1
  Pm  Pm1  1  0.781607  0.372715  0.785621  1
  Pm  Pm2  1  0.718393  0.872715  0.785621  1
  Pm  Pm3  1  0.218393  0.627285  0.214379  1
  Se  Se4  1  0.806688  0.120393  0.498424  1
  Se  Se5  1  0.306688  0.379607  0.501576  1
  Se  Se6  1  0.193312  0.879607  0.501576  1
  Se  Se7  1  0.693312  0.620393  0.498424  1
  S  S8  1  0.259999  0.125775  0.867267  1
  S  S9  1  0.759999  0.374225  0.132733  1
  S  S10  1  0.740001  0.874225  0.132733  1
  S  S11  1  0.240001  0.625775  0.867267  1
