# generated using pymatgen
data_TbDy7(Sc3Sn4)4
_symmetry_space_group_name_H-M   'P 1'
_cell_length_a   7.69738101
_cell_length_b   7.96696101
_cell_length_c   14.84996600
_cell_angle_alpha   90.00123586
_cell_angle_beta   89.99735163
_cell_angle_gamma   90.00386990
_symmetry_Int_Tables_number   1
_chemical_formula_structural   TbDy7(Sc3Sn4)4
_chemical_formula_sum   'Tb1 Dy7 Sc12 Sn16'
_cell_volume   910.67021663
_cell_formula_units_Z   1
loop_
 _symmetry_equiv_pos_site_id
 _symmetry_equiv_pos_as_xyz
  1  'x, y, z'
loop_
 _atom_site_type_symbol
 _atom_site_label
 _atom_site_symmetry_multiplicity
 _atom_site_fract_x
 _atom_site_fract_y
 _atom_site_fract_z
 _atom_site_occupancy
  Tb  Tb0  1  0.996250  0.176536  0.094345  1
  Dy  Dy1  1  0.003747  0.823337  0.905539  1
  Dy  Dy2  1  0.503791  0.676626  0.905552  1
  Dy  Dy3  1  0.003773  0.823355  0.594416  1
  Dy  Dy4  1  0.496222  0.323393  0.094410  1
  Dy  Dy5  1  0.996213  0.176622  0.405537  1
  Dy  Dy6  1  0.496227  0.323382  0.405604  1
  Dy  Dy7  1  0.503759  0.676635  0.594414  1
  Sc  Sc8  1  0.163627  0.496830  0.750004  1
  Sc  Sc9  1  0.836331  0.503184  0.250041  1
  Sc  Sc10  1  0.336402  0.996806  0.250038  1
  Sc  Sc11  1  0.663633  0.003168  0.750005  1
  Sc  Sc12  1  0.334857  0.162179  0.627179  1
  Sc  Sc13  1  0.665102  0.837844  0.372822  1
  Sc  Sc14  1  0.165122  0.662190  0.372827  1
  Sc  Sc15  1  0.665065  0.837788  0.127199  1
  Sc  Sc16  1  0.834888  0.337831  0.627191  1
  Sc  Sc17  1  0.334895  0.162186  0.872799  1
  Sc  Sc18  1  0.834858  0.337876  0.872787  1
  Sc  Sc19  1  0.165146  0.662175  0.127193  1
  Sn  Sn20  1  0.026197  0.124748  0.750016  1
  Sn  Sn21  1  0.973856  0.875153  0.250065  1
  Sn  Sn22  1  0.473843  0.624729  0.250030  1
  Sn  Sn23  1  0.526156  0.375300  0.750012  1
  Sn  Sn24  1  0.305670  0.850705  0.750003  1
  Sn  Sn25  1  0.694144  0.149273  0.250085  1
  Sn  Sn26  1  0.194458  0.350853  0.250141  1
  Sn  Sn27  1  0.805717  0.649248  0.750008  1
  Sn  Sn28  1  0.179485  0.458164  0.542392  1
  Sn  Sn29  1  0.820525  0.541873  0.457586  1
  Sn  Sn30  1  0.320488  0.958134  0.457577  1
  Sn  Sn31  1  0.820427  0.541976  0.042355  1
  Sn  Sn32  1  0.679481  0.041820  0.542384  1
  Sn  Sn33  1  0.179551  0.458224  0.957547  1
  Sn  Sn34  1  0.679271  0.041840  0.957539  1
  Sn  Sn35  1  0.320822  0.958019  0.042358  1
