# generated using pymatgen
data_Zn22Ir3Au
_symmetry_space_group_name_H-M   'P 1'
_cell_length_a   7.95732153
_cell_length_b   7.95676663
_cell_length_c   7.95732164
_cell_angle_alpha   109.46981913
_cell_angle_beta   109.47263014
_cell_angle_gamma   109.46981299
_symmetry_Int_Tables_number   1
_chemical_formula_structural   Zn22Ir3Au
_chemical_formula_sum   'Zn22 Ir3 Au1'
_cell_volume   387.84308334
_cell_formula_units_Z   1
loop_
 _symmetry_equiv_pos_site_id
 _symmetry_equiv_pos_as_xyz
  1  'x, y, z'
loop_
 _atom_site_type_symbol
 _atom_site_label
 _atom_site_symmetry_multiplicity
 _atom_site_fract_x
 _atom_site_fract_y
 _atom_site_fract_z
 _atom_site_occupancy
  Zn  Zn0  1  0.721851  0.377226  0.721851  1
  Zn  Zn1  1  0.617146  0.353294  0.349919  1
  Zn  Zn2  1  0.349919  0.353294  0.617146  1
  Zn  Zn3  1  0.646184  0.268654  0.000000  1
  Zn  Zn4  1  0.219188  0.210842  0.219188  1
  Zn  Zn5  1  0.000000  0.991655  0.780812  1
  Zn  Zn6  1  0.780812  0.991655  0.000000  1
  Zn  Zn7  1  0.000000  0.792061  0.000000  1
  Zn  Zn8  1  0.359256  0.356746  0.000000  1
  Zn  Zn9  1  0.000000  0.635312  0.649305  1
  Zn  Zn10  1  0.000000  0.356746  0.359256  1
  Zn  Zn11  1  0.350695  0.986007  0.350695  1
  Zn  Zn12  1  0.640744  0.997490  0.640744  1
  Zn  Zn13  1  0.649305  0.635312  0.000000  1
  Zn  Zn14  1  0.353816  0.622473  0.353816  1
  Zn  Zn15  1  0.267227  0.003376  0.650081  1
  Zn  Zn16  1  0.650081  0.003376  0.267227  1
  Zn  Zn17  1  0.278149  0.655376  0.000000  1
  Zn  Zn18  1  0.732773  0.736149  0.382854  1
  Zn  Zn19  1  0.382854  0.736149  0.732773  1
  Zn  Zn20  1  0.000000  0.655376  0.278149  1
  Zn  Zn21  1  0.000000  0.268654  0.646184  1
  Ir  Ir22  1  0.347078  0.003157  0.000000  1
  Ir  Ir23  1  0.000000  0.003157  0.347078  1
  Ir  Ir24  1  0.652922  0.656080  0.652922  1
  Au  Au25  1  0.000000  0.350383  0.000000  1
