# generated using pymatgen
data_Nd2ErSi6(Pd4Pt)4
_symmetry_space_group_name_H-M   'P 1'
_cell_length_a   8.76038428
_cell_length_b   8.77330822
_cell_length_c   8.77330803
_cell_angle_alpha   59.93297418
_cell_angle_beta   59.90622119
_cell_angle_gamma   59.90622465
_symmetry_Int_Tables_number   1
_chemical_formula_structural   Nd2ErSi6(Pd4Pt)4
_chemical_formula_sum   'Nd2 Er1 Si6 Pd16 Pt4'
_cell_volume   475.88063518
_cell_formula_units_Z   1
loop_
 _symmetry_equiv_pos_site_id
 _symmetry_equiv_pos_as_xyz
  1  'x, y, z'
loop_
 _atom_site_type_symbol
 _atom_site_label
 _atom_site_symmetry_multiplicity
 _atom_site_fract_x
 _atom_site_fract_y
 _atom_site_fract_z
 _atom_site_occupancy
  Nd  Nd0  1  0.250623  0.250444  0.250444  1
  Nd  Nd1  1  0.748314  0.750291  0.750291  1
  Er  Er2  1  0.999934  0.000178  0.000178  1
  Si  Si3  1  0.732226  0.266477  0.266477  1
  Si  Si4  1  0.269092  0.731763  0.731763  1
  Si  Si5  1  0.268247  0.731843  0.267165  1
  Si  Si6  1  0.731973  0.267842  0.733310  1
  Si  Si7  1  0.268247  0.267165  0.731843  1
  Si  Si8  1  0.731973  0.733310  0.267842  1
  Pd  Pd9  1  0.618211  0.614507  0.153205  1
  Pd  Pd10  1  0.618211  0.153205  0.614507  1
  Pd  Pd11  1  0.847218  0.383024  0.383024  1
  Pd  Pd12  1  0.150786  0.616599  0.616599  1
  Pd  Pd13  1  0.344189  0.000445  0.000445  1
  Pd  Pd14  1  0.654793  0.000608  0.000608  1
  Pd  Pd15  1  0.999142  0.345419  0.656607  1
  Pd  Pd16  1  0.999142  0.656607  0.345419  1
  Pd  Pd17  1  0.999303  0.345359  0.999882  1
  Pd  Pd18  1  0.655562  0.999660  0.345486  1
  Pd  Pd19  1  0.999601  0.655798  0.000507  1
  Pd  Pd20  1  0.344105  0.000139  0.656400  1
  Pd  Pd21  1  0.999303  0.999882  0.345359  1
  Pd  Pd22  1  0.999601  0.000507  0.655798  1
  Pd  Pd23  1  0.655562  0.345486  0.999660  1
  Pd  Pd24  1  0.344105  0.656400  0.000139  1
  Pt  Pt25  1  0.386127  0.386417  0.386417  1
  Pt  Pt26  1  0.616436  0.612820  0.612820  1
  Pt  Pt27  1  0.383985  0.384521  0.843281  1
  Pt  Pt28  1  0.383985  0.843281  0.384521  1
