# generated using pymatgen
data_Er16MgCd3CoIr3
_symmetry_space_group_name_H-M   'P 1'
_cell_length_a   9.54747198
_cell_length_b   9.54747121
_cell_length_c   9.54747286
_cell_angle_alpha   59.87331618
_cell_angle_beta   59.87331990
_cell_angle_gamma   59.87331525
_symmetry_Int_Tables_number   1
_chemical_formula_structural   Er16MgCd3CoIr3
_chemical_formula_sum   'Er16 Mg1 Cd3 Co1 Ir3'
_cell_volume   613.62070948
_cell_formula_units_Z   1
loop_
 _symmetry_equiv_pos_site_id
 _symmetry_equiv_pos_as_xyz
  1  'x, y, z'
loop_
 _atom_site_type_symbol
 _atom_site_label
 _atom_site_symmetry_multiplicity
 _atom_site_fract_x
 _atom_site_fract_y
 _atom_site_fract_z
 _atom_site_occupancy
  Er  Er0  1  0.600628  0.600628  0.600628  1
  Er  Er1  1  0.594441  0.594441  0.209469  1
  Er  Er2  1  0.594441  0.209469  0.594441  1
  Er  Er3  1  0.209469  0.594441  0.594441  1
  Er  Er4  1  0.064838  0.439312  0.439312  1
  Er  Er5  1  0.437174  0.061544  0.061544  1
  Er  Er6  1  0.439312  0.064838  0.439312  1
  Er  Er7  1  0.061544  0.437174  0.061544  1
  Er  Er8  1  0.439312  0.439312  0.064838  1
  Er  Er9  1  0.061544  0.061544  0.437174  1
  Er  Er10  1  0.189239  0.811717  0.811717  1
  Er  Er11  1  0.813674  0.186861  0.186861  1
  Er  Er12  1  0.811717  0.189239  0.811717  1
  Er  Er13  1  0.186861  0.813674  0.186861  1
  Er  Er14  1  0.811717  0.811717  0.189239  1
  Er  Er15  1  0.186861  0.186861  0.813674  1
  Mg  Mg16  1  0.824623  0.824623  0.824623  1
  Cd  Cd17  1  0.832263  0.832263  0.504262  1
  Cd  Cd18  1  0.832263  0.504262  0.832263  1
  Cd  Cd19  1  0.504262  0.832263  0.832263  1
  Co  Co20  1  0.391335  0.391335  0.391335  1
  Ir  Ir21  1  0.393493  0.393493  0.825496  1
  Ir  Ir22  1  0.393493  0.825496  0.393493  1
  Ir  Ir23  1  0.825496  0.393493  0.393493  1
