# generated using pymatgen
data_Dy8B24OsRu3
_symmetry_space_group_name_H-M   'P 1'
_cell_length_a   3.66346700
_cell_length_b   9.15225835
_cell_length_c   11.52505600
_cell_angle_alpha   90.04274783
_cell_angle_beta   90.00000000
_cell_angle_gamma   90.00000000
_symmetry_Int_Tables_number   1
_chemical_formula_structural   Dy8B24OsRu3
_chemical_formula_sum   'Dy8 B24 Os1 Ru3'
_cell_volume   386.42345426
_cell_formula_units_Z   1
loop_
 _symmetry_equiv_pos_site_id
 _symmetry_equiv_pos_as_xyz
  1  'x, y, z'
loop_
 _atom_site_type_symbol
 _atom_site_label
 _atom_site_symmetry_multiplicity
 _atom_site_fract_x
 _atom_site_fract_y
 _atom_site_fract_z
 _atom_site_occupancy
  Dy  Dy0  1  0.000000  0.322962  0.414039  1
  Dy  Dy1  1  0.000000  0.677634  0.586363  1
  Dy  Dy2  1  0.000000  0.822588  0.085847  1
  Dy  Dy3  1  0.000000  0.177162  0.913993  1
  Dy  Dy4  1  0.000000  0.943698  0.371969  1
  Dy  Dy5  1  0.000000  0.056574  0.627190  1
  Dy  Dy6  1  0.000000  0.443570  0.128025  1
  Dy  Dy7  1  0.000000  0.555637  0.872527  1
  B  B8  1  0.500000  0.554279  0.433023  1
  B  B9  1  0.500000  0.445898  0.566997  1
  B  B10  1  0.500000  0.054216  0.067102  1
  B  B11  1  0.500000  0.945982  0.933083  1
  B  B12  1  0.500000  0.747825  0.419844  1
  B  B13  1  0.500000  0.252452  0.580028  1
  B  B14  1  0.500000  0.247795  0.080237  1
  B  B15  1  0.500000  0.752078  0.919769  1
  B  B16  1  0.500000  0.790737  0.266366  1
  B  B17  1  0.500000  0.209176  0.733482  1
  B  B18  1  0.500000  0.290787  0.233668  1
  B  B19  1  0.500000  0.708952  0.766431  1
  B  B20  1  0.500000  0.631964  0.185444  1
  B  B21  1  0.500000  0.367798  0.814610  1
  B  B22  1  0.500000  0.132046  0.314573  1
  B  B23  1  0.500000  0.868131  0.685508  1
  B  B24  1  0.500000  0.983900  0.212699  1
  B  B25  1  0.500000  0.016371  0.787189  1
  B  B26  1  0.500000  0.483910  0.287373  1
  B  B27  1  0.500000  0.516056  0.712743  1
  B  B28  1  0.500000  0.608252  0.030170  1
  B  B29  1  0.500000  0.391238  0.970083  1
  B  B30  1  0.500000  0.108782  0.469691  1
  B  B31  1  0.500000  0.891627  0.529876  1
  Os  Os32  1  0.000000  0.862271  0.821407  1
  Ru  Ru33  1  0.000000  0.637748  0.321337  1
  Ru  Ru34  1  0.000000  0.362229  0.678774  1
  Ru  Ru35  1  0.000000  0.137678  0.178539  1
