# generated using pymatgen
data_Ho6Tm2Ga3Fe
_symmetry_space_group_name_H-M   'P 1'
_cell_length_a   9.91381127
_cell_length_b   9.91381059
_cell_length_c   6.93039097
_cell_angle_alpha   90.07512334
_cell_angle_beta   89.92487795
_cell_angle_gamma   120.01855284
_symmetry_Int_Tables_number   1
_chemical_formula_structural   Ho6Tm2Ga3Fe
_chemical_formula_sum   'Ho12 Tm4 Ga6 Fe2'
_cell_volume   589.77710850
_cell_formula_units_Z   2
loop_
 _symmetry_equiv_pos_site_id
 _symmetry_equiv_pos_as_xyz
  1  'x, y, z'
loop_
 _atom_site_type_symbol
 _atom_site_label
 _atom_site_symmetry_multiplicity
 _atom_site_fract_x
 _atom_site_fract_y
 _atom_site_fract_z
 _atom_site_occupancy
  Ho  Ho0  1  0.346964  0.173557  0.011010  1
  Ho  Ho1  1  0.826443  0.653036  0.011010  1
  Ho  Ho2  1  0.333336  0.666664  0.828187  1
  Ho  Ho3  1  0.667170  0.332830  0.329704  1
  Ho  Ho4  1  0.462993  0.537007  0.208366  1
  Ho  Ho5  1  0.073342  0.536241  0.207959  1
  Ho  Ho6  1  0.463759  0.926658  0.207959  1
  Ho  Ho7  1  0.536222  0.463778  0.705932  1
  Ho  Ho8  1  0.927187  0.462918  0.707059  1
  Ho  Ho9  1  0.537082  0.072813  0.707059  1
  Ho  Ho10  1  0.999786  0.000214  0.232048  1
  Ho  Ho11  1  0.999734  0.000266  0.730598  1
  Tm  Tm12  1  0.173523  0.826477  0.511214  1
  Tm  Tm13  1  0.652869  0.826410  0.511247  1
  Tm  Tm14  1  0.173590  0.347131  0.511247  1
  Tm  Tm15  1  0.826123  0.173877  0.011400  1
  Ga  Ga16  1  0.164066  0.835934  0.956588  1
  Ga  Ga17  1  0.673029  0.837919  0.957186  1
  Ga  Ga18  1  0.162081  0.326971  0.957186  1
  Ga  Ga19  1  0.836987  0.163013  0.457664  1
  Ga  Ga20  1  0.326005  0.162959  0.458820  1
  Ga  Ga21  1  0.837041  0.673995  0.458820  1
  Fe  Fe22  1  0.333386  0.666614  0.448477  1
  Fe  Fe23  1  0.667285  0.332715  0.947297  1
