# generated using pymatgen
data_Sr4Tc2O9
_symmetry_space_group_name_H-M   'P 1'
_cell_length_a   5.90746500
_cell_length_b   5.90746409
_cell_length_c   15.18519300
_cell_angle_alpha   90.00000000
_cell_angle_beta   90.00000000
_cell_angle_gamma   119.99999950
_symmetry_Int_Tables_number   1
_chemical_formula_structural   Sr4Tc2O9
_chemical_formula_sum   'Sr8 Tc4 O18'
_cell_volume   458.93713227
_cell_formula_units_Z   2
loop_
 _symmetry_equiv_pos_site_id
 _symmetry_equiv_pos_as_xyz
  1  'x, y, z'
loop_
 _atom_site_type_symbol
 _atom_site_label
 _atom_site_symmetry_multiplicity
 _atom_site_fract_x
 _atom_site_fract_y
 _atom_site_fract_z
 _atom_site_occupancy
  Sr  Sr0  1  0.666667  0.333333  0.128545  1
  Sr  Sr1  1  0.333333  0.666667  0.630669  1
  Sr  Sr2  1  0.333333  0.666667  0.871455  1
  Sr  Sr3  1  0.666667  0.333333  0.369331  1
  Sr  Sr4  1  0.000000  0.000000  0.250863  1
  Sr  Sr5  1  0.000000  0.000000  0.000000  1
  Sr  Sr6  1  0.000000  0.000000  0.749137  1
  Sr  Sr7  1  0.000000  0.000000  0.500000  1
  Tc  Tc8  1  0.666667  0.333333  0.668258  1
  Tc  Tc9  1  0.666667  0.333333  0.833558  1
  Tc  Tc10  1  0.333333  0.666667  0.331742  1
  Tc  Tc11  1  0.333333  0.666667  0.166442  1
  O  O12  1  0.102889  0.359306  0.103314  1
  O  O13  1  0.357471  0.254536  0.605041  1
  O  O14  1  0.642529  0.745464  0.394959  1
  O  O15  1  0.430558  0.010138  0.750859  1
  O  O16  1  0.420421  0.430558  0.249141  1
  O  O17  1  0.359306  0.256417  0.896686  1
  O  O18  1  0.256417  0.897111  0.103314  1
  O  O19  1  0.579579  0.569442  0.750859  1
  O  O20  1  0.897111  0.640694  0.896686  1
  O  O21  1  0.989862  0.420421  0.750859  1
  O  O22  1  0.010138  0.579579  0.249141  1
  O  O23  1  0.569442  0.989862  0.249141  1
  O  O24  1  0.254536  0.897064  0.394959  1
  O  O25  1  0.102936  0.357471  0.394959  1
  O  O26  1  0.745464  0.102936  0.605041  1
  O  O27  1  0.743583  0.102889  0.896686  1
  O  O28  1  0.897064  0.642529  0.605041  1
  O  O29  1  0.640694  0.743583  0.103314  1
