# generated using pymatgen
data_Rb8Na4Dy3ErSb8
_symmetry_space_group_name_H-M   'P 1'
_cell_length_a   11.33073275
_cell_length_b   11.33073311
_cell_length_c   7.50527157
_cell_angle_alpha   90.03396533
_cell_angle_beta   89.96604070
_cell_angle_gamma   98.43979673
_symmetry_Int_Tables_number   1
_chemical_formula_structural   Rb8Na4Dy3ErSb8
_chemical_formula_sum   'Rb8 Na4 Dy3 Er1 Sb8'
_cell_volume   953.13297814
_cell_formula_units_Z   1
loop_
 _symmetry_equiv_pos_site_id
 _symmetry_equiv_pos_as_xyz
  1  'x, y, z'
loop_
 _atom_site_type_symbol
 _atom_site_label
 _atom_site_symmetry_multiplicity
 _atom_site_fract_x
 _atom_site_fract_y
 _atom_site_fract_z
 _atom_site_occupancy
  Rb  Rb0  1  0.070285  0.429737  0.250140  1
  Rb  Rb1  1  0.429737  0.070285  0.749860  1
  Rb  Rb2  1  0.929415  0.570279  0.749750  1
  Rb  Rb3  1  0.570279  0.929415  0.250250  1
  Rb  Rb4  1  0.676721  0.323515  0.215561  1
  Rb  Rb5  1  0.823228  0.176790  0.715241  1
  Rb  Rb6  1  0.323515  0.676721  0.784439  1
  Rb  Rb7  1  0.176790  0.823228  0.284759  1
  Na  Na8  1  0.382327  0.382327  0.000000  1
  Na  Na9  1  0.117747  0.117747  0.500000  1
  Na  Na10  1  0.617790  0.617790  0.000000  1
  Na  Na11  1  0.881955  0.881955  0.500000  1
  Dy  Dy12  1  0.130943  0.130943  0.000000  1
  Dy  Dy13  1  0.369528  0.369528  0.500000  1
  Dy  Dy14  1  0.868796  0.868796  0.000000  1
  Er  Er15  1  0.630759  0.630759  0.500000  1
  Sb  Sb16  1  0.845677  0.652669  0.251802  1
  Sb  Sb17  1  0.652669  0.845677  0.748198  1
  Sb  Sb18  1  0.152721  0.347296  0.750109  1
  Sb  Sb19  1  0.347296  0.152721  0.249891  1
  Sb  Sb20  1  0.899104  0.100715  0.212382  1
  Sb  Sb21  1  0.601228  0.400771  0.711222  1
  Sb  Sb22  1  0.100715  0.899104  0.787618  1
  Sb  Sb23  1  0.400771  0.601228  0.288778  1
