# generated using pymatgen
data_Cr3Cd6Fe(GeO4)6
_symmetry_space_group_name_H-M   'P 1'
_cell_length_a   10.78834387
_cell_length_b   10.78839449
_cell_length_c   10.78050333
_cell_angle_alpha   109.47099614
_cell_angle_beta   109.47066030
_cell_angle_gamma   109.50199446
_symmetry_Int_Tables_number   1
_chemical_formula_structural   Cr3Cd6Fe(GeO4)6
_chemical_formula_sum   'Cr6 Cd12 Fe2 Ge12 O48'
_cell_volume   965.53467675
_cell_formula_units_Z   2
loop_
 _symmetry_equiv_pos_site_id
 _symmetry_equiv_pos_as_xyz
  1  'x, y, z'
loop_
 _atom_site_type_symbol
 _atom_site_label
 _atom_site_symmetry_multiplicity
 _atom_site_fract_x
 _atom_site_fract_y
 _atom_site_fract_z
 _atom_site_occupancy
  Cr  Cr0  1  0.000017  0.000013  0.999949  1
  Cr  Cr1  1  0.499958  0.000006  0.999977  1
  Cr  Cr2  1  0.499944  0.500000  0.999960  1
  Cr  Cr3  1  0.000014  0.500022  0.000117  1
  Cr  Cr4  1  0.000083  0.500074  0.500023  1
  Cr  Cr5  1  0.000035  0.999968  0.499946  1
  Cd  Cd6  1  0.249842  0.375077  0.124709  1
  Cd  Cd7  1  0.374858  0.749637  0.124703  1
  Cd  Cd8  1  0.374829  0.124824  0.249660  1
  Cd  Cd9  1  0.875054  0.625063  0.250130  1
  Cd  Cd10  1  0.124763  0.249797  0.374991  1
  Cd  Cd11  1  0.750237  0.125193  0.375003  1
  Cd  Cd12  1  0.249773  0.874819  0.625015  1
  Cd  Cd13  1  0.875240  0.750184  0.625006  1
  Cd  Cd14  1  0.124928  0.374936  0.749876  1
  Cd  Cd15  1  0.625170  0.875165  0.750342  1
  Cd  Cd16  1  0.625125  0.250366  0.875280  1
  Cd  Cd17  1  0.750153  0.624926  0.875288  1
  Fe  Fe18  1  0.499995  0.000015  0.499988  1
  Fe  Fe19  1  0.500018  0.500002  0.500016  1
  Ge  Ge20  1  0.749895  0.874973  0.124899  1
  Ge  Ge21  1  0.875044  0.249938  0.124922  1
  Ge  Ge22  1  0.124191  0.874809  0.249136  1
  Ge  Ge23  1  0.624946  0.374342  0.249128  1
  Ge  Ge24  1  0.625869  0.750392  0.374512  1
  Ge  Ge25  1  0.248652  0.624114  0.374509  1
  Ge  Ge26  1  0.751380  0.375880  0.625484  1
  Ge  Ge27  1  0.374114  0.249599  0.625476  1
  Ge  Ge28  1  0.875850  0.125267  0.750878  1
  Ge  Ge29  1  0.375039  0.625630  0.750871  1
  Ge  Ge30  1  0.124997  0.750038  0.875101  1
  Ge  Ge31  1  0.250121  0.125054  0.875082  1
  O  O32  1  0.200994  0.119466  0.016952  1
  O  O33  1  0.315961  0.897493  0.016947  1
  O  O34  1  0.700823  0.684269  0.081765  1
  O  O35  1  0.880916  0.397481  0.081794  1
  O  O36  1  0.982116  0.683645  0.102029  1
  O  O37  1  0.619877  0.418385  0.102005  1
  O  O38  1  0.602422  0.918285  0.119060  1
  O  O39  1  0.016630  0.200792  0.119069  1
  O  O40  1  0.201005  0.582045  0.184118  1
  O  O41  1  0.483092  0.602064  0.184106  1
  O  O42  1  0.581967  0.183848  0.201087  1
  O  O43  1  0.119109  0.017243  0.201082  1
  O  O44  1  0.314532  0.917421  0.297780  1
  O  O45  1  0.483261  0.380348  0.297769  1
  O  O46  1  0.918424  0.298982  0.315843  1
  O  O47  1  0.897420  0.016835  0.315839  1
  O  O48  1  0.582657  0.897639  0.379881  1
  O  O49  1  0.297216  0.482236  0.379876  1
  O  O50  1  0.815575  0.516278  0.397345  1
  O  O51  1  0.081785  0.881031  0.397341  1
  O  O52  1  0.101366  0.619547  0.417911  1
  O  O53  1  0.816550  0.798340  0.417909  1
  O  O54  1  0.380488  0.297874  0.483527  1
  O  O55  1  0.603032  0.185641  0.483525  1
  O  O56  1  0.396949  0.814335  0.516475  1
  O  O57  1  0.619524  0.702134  0.516484  1
  O  O58  1  0.898652  0.380459  0.582093  1
  O  O59  1  0.183443  0.201611  0.582075  1
  O  O60  1  0.918241  0.118906  0.602642  1
  O  O61  1  0.184420  0.483714  0.602654  1
  O  O62  1  0.417350  0.102355  0.620128  1
  O  O63  1  0.702777  0.517773  0.620128  1
  O  O64  1  0.102583  0.983127  0.684153  1
  O  O65  1  0.081572  0.701014  0.684151  1
  O  O66  1  0.685503  0.082574  0.702241  1
  O  O67  1  0.516747  0.619657  0.702232  1
  O  O68  1  0.880867  0.982747  0.798874  1
  O  O69  1  0.418010  0.816143  0.798876  1
  O  O70  1  0.516902  0.397946  0.815908  1
  O  O71  1  0.798985  0.417969  0.815927  1
  O  O72  1  0.983342  0.799197  0.880919  1
  O  O73  1  0.397562  0.081734  0.880910  1
  O  O74  1  0.380110  0.581631  0.897993  1
  O  O75  1  0.017864  0.316384  0.898009  1
  O  O76  1  0.299158  0.315722  0.918235  1
  O  O77  1  0.119043  0.602498  0.918258  1
  O  O78  1  0.684043  0.102532  0.983049  1
  O  O79  1  0.799006  0.880527  0.983045  1
