# generated using pymatgen
data_K16Si15Ge
_symmetry_space_group_name_H-M   'P 1'
_cell_length_a   11.48884162
_cell_length_b   11.49508138
_cell_length_c   11.49147471
_cell_angle_alpha   124.72085079
_cell_angle_beta   124.63724591
_cell_angle_gamma   82.11172131
_symmetry_Int_Tables_number   1
_chemical_formula_structural   K16Si15Ge
_chemical_formula_sum   'K16 Si15 Ge1'
_cell_volume   986.51464506
_cell_formula_units_Z   1
loop_
 _symmetry_equiv_pos_site_id
 _symmetry_equiv_pos_as_xyz
  1  'x, y, z'
loop_
 _atom_site_type_symbol
 _atom_site_label
 _atom_site_symmetry_multiplicity
 _atom_site_fract_x
 _atom_site_fract_y
 _atom_site_fract_z
 _atom_site_occupancy
  K  K0  1  0.267775  0.875676  0.892090  1
  K  K1  1  0.767111  0.875188  0.392135  1
  K  K2  1  0.125398  0.017945  0.393536  1
  K  K3  1  0.624796  0.233107  0.108010  1
  K  K4  1  0.482815  0.374901  0.607759  1
  K  K5  1  0.983028  0.375974  0.108411  1
  K  K6  1  0.125843  0.515590  0.892078  1
  K  K7  1  0.624005  0.733222  0.607097  1
  K  K8  1  0.372651  0.372678  0.245143  1
  K  K9  1  0.871411  0.626265  0.000606  1
  K  K10  1  0.622102  0.122730  0.744883  1
  K  K11  1  0.122479  0.377727  0.500221  1
  K  K12  1  0.379590  0.878030  0.256745  1
  K  K13  1  0.876954  0.621929  0.498078  1
  K  K14  1  0.127595  0.127506  0.755120  1
  K  K15  1  0.628047  0.872758  0.000124  1
  Si  Si16  1  0.511961  0.547936  0.158495  1
  Si  Si17  1  0.103516  0.762085  0.464073  1
  Si  Si18  1  0.603751  0.139449  0.341665  1
  Si  Si19  1  0.738447  0.396746  0.536319  1
  Si  Si20  1  0.237873  0.702178  0.341353  1
  Si  Si21  1  0.646270  0.487955  0.035768  1
  Si  Si22  1  0.146207  0.112224  0.158663  1
  Si  Si23  1  0.389302  0.353518  0.841489  1
  Si  Si24  1  0.889516  0.050689  0.036560  1
  Si  Si25  1  0.797864  0.262131  0.658577  1
  Si  Si26  1  0.297632  0.639482  0.535600  1
  Si  Si27  1  0.360511  0.896631  0.658366  1
  Si  Si28  1  0.860751  0.202164  0.464293  1
  Si  Si29  1  0.951978  0.990367  0.842096  1
  Si  Si30  1  0.452312  0.610721  0.964403  1
  Ge  Ge31  1  0.010502  0.844495  0.960240  1
