# generated using pymatgen
data_Tb16In3AgRh4
_symmetry_space_group_name_H-M   'P 1'
_cell_length_a   9.68231412
_cell_length_b   9.68231383
_cell_length_c   9.68231362
_cell_angle_alpha   59.89915239
_cell_angle_beta   59.89915031
_cell_angle_gamma   59.89915683
_symmetry_Int_Tables_number   1
_chemical_formula_structural   Tb16In3AgRh4
_chemical_formula_sum   'Tb16 In3 Ag1 Rh4'
_cell_volume   640.36518504
_cell_formula_units_Z   1
loop_
 _symmetry_equiv_pos_site_id
 _symmetry_equiv_pos_as_xyz
  1  'x, y, z'
loop_
 _atom_site_type_symbol
 _atom_site_label
 _atom_site_symmetry_multiplicity
 _atom_site_fract_x
 _atom_site_fract_y
 _atom_site_fract_z
 _atom_site_occupancy
  Tb  Tb0  1  0.066074  0.437106  0.437106  1
  Tb  Tb1  1  0.437981  0.062272  0.062272  1
  Tb  Tb2  1  0.437106  0.066074  0.437106  1
  Tb  Tb3  1  0.437106  0.437106  0.066074  1
  Tb  Tb4  1  0.062272  0.437981  0.062272  1
  Tb  Tb5  1  0.062272  0.062272  0.437981  1
  Tb  Tb6  1  0.650231  0.650231  0.650231  1
  Tb  Tb7  1  0.649033  0.649033  0.050646  1
  Tb  Tb8  1  0.050646  0.649033  0.649033  1
  Tb  Tb9  1  0.649033  0.050646  0.649033  1
  Tb  Tb10  1  0.191223  0.809381  0.809381  1
  Tb  Tb11  1  0.812267  0.189139  0.189139  1
  Tb  Tb12  1  0.809381  0.191223  0.809381  1
  Tb  Tb13  1  0.809381  0.809381  0.191223  1
  Tb  Tb14  1  0.189139  0.812267  0.189139  1
  Tb  Tb15  1  0.189139  0.189139  0.812267  1
  In  In16  1  0.417848  0.417848  0.745194  1
  In  In17  1  0.745194  0.417848  0.417848  1
  In  In18  1  0.417848  0.745194  0.417848  1
  Ag  Ag19  1  0.417279  0.417279  0.417279  1
  Rh  Rh20  1  0.857133  0.857133  0.857133  1
  Rh  Rh21  1  0.857708  0.857708  0.426999  1
  Rh  Rh22  1  0.426999  0.857708  0.857708  1
  Rh  Rh23  1  0.857708  0.426999  0.857708  1
