# generated using pymatgen
data_La2MgIn3Rh2
_symmetry_space_group_name_H-M   'P 1'
_cell_length_a   5.51684443
_cell_length_b   5.51684413
_cell_length_c   8.37523816
_cell_angle_alpha   90.02390834
_cell_angle_beta   89.97609031
_cell_angle_gamma   132.45488436
_symmetry_Int_Tables_number   1
_chemical_formula_structural   La2MgIn3Rh2
_chemical_formula_sum   'La2 Mg1 In3 Rh2'
_cell_volume   188.07131747
_cell_formula_units_Z   1
loop_
 _symmetry_equiv_pos_site_id
 _symmetry_equiv_pos_as_xyz
  1  'x, y, z'
loop_
 _atom_site_type_symbol
 _atom_site_label
 _atom_site_symmetry_multiplicity
 _atom_site_fract_x
 _atom_site_fract_y
 _atom_site_fract_z
 _atom_site_occupancy
  La  La0  1  0.059959  0.940041  0.252362  1
  La  La1  1  0.940375  0.059625  0.746582  1
  Mg  Mg2  1  0.655970  0.344030  0.551169  1
  In  In3  1  0.350122  0.649878  0.454663  1
  In  In4  1  0.648840  0.351160  0.946278  1
  In  In5  1  0.348633  0.651367  0.051116  1
  Rh  Rh6  1  0.210622  0.789378  0.749196  1
  Rh  Rh7  1  0.785478  0.214522  0.248636  1
