# generated using pymatgen
data_LaNd7(SBr6)2
_symmetry_space_group_name_H-M   'P 1'
_cell_length_a   4.13314500
_cell_length_b   13.43615365
_cell_length_c   14.19436300
_cell_angle_alpha   89.59742978
_cell_angle_beta   90.00000000
_cell_angle_gamma   90.00000000
_symmetry_Int_Tables_number   1
_chemical_formula_structural   LaNd7(SBr6)2
_chemical_formula_sum   'La1 Nd7 S2 Br12'
_cell_volume   788.24421237
_cell_formula_units_Z   1
loop_
 _symmetry_equiv_pos_site_id
 _symmetry_equiv_pos_as_xyz
  1  'x, y, z'
loop_
 _atom_site_type_symbol
 _atom_site_label
 _atom_site_symmetry_multiplicity
 _atom_site_fract_x
 _atom_site_fract_y
 _atom_site_fract_z
 _atom_site_occupancy
  La  La0  1  0.000000  0.116432  0.578567  1
  Nd  Nd1  1  0.500000  0.116775  0.342220  1
  Nd  Nd2  1  0.500000  0.880357  0.656286  1
  Nd  Nd3  1  0.500000  0.618026  0.156629  1
  Nd  Nd4  1  0.500000  0.383887  0.844798  1
  Nd  Nd5  1  0.000000  0.884804  0.422672  1
  Nd  Nd6  1  0.000000  0.614376  0.924041  1
  Nd  Nd7  1  0.000000  0.386157  0.077212  1
  S  S8  1  0.500000  0.998468  0.499202  1
  S  S9  1  0.500000  0.500410  0.000890  1
  Br  Br10  1  0.500000  0.246561  0.162343  1
  Br  Br11  1  0.500000  0.752074  0.836844  1
  Br  Br12  1  0.500000  0.745084  0.335774  1
  Br  Br13  1  0.500000  0.259381  0.663696  1
  Br  Br14  1  0.000000  0.259724  0.408639  1
  Br  Br15  1  0.000000  0.739623  0.586473  1
  Br  Br16  1  0.000000  0.759435  0.085648  1
  Br  Br17  1  0.000000  0.241688  0.914973  1
  Br  Br18  1  0.000000  0.000953  0.239043  1
  Br  Br19  1  0.000000  0.993642  0.762830  1
  Br  Br20  1  0.000000  0.500527  0.259843  1
  Br  Br21  1  0.000000  0.501615  0.741377  1
