# generated using pymatgen
data_Ca10Bi2PtRh3
_symmetry_space_group_name_H-M   'P 1'
_cell_length_a   9.32573357
_cell_length_b   9.32573326
_cell_length_c   9.29799000
_cell_angle_alpha   129.90405109
_cell_angle_beta   129.90404952
_cell_angle_gamma   73.78807943
_symmetry_Int_Tables_number   1
_chemical_formula_structural   Ca10Bi2PtRh3
_chemical_formula_sum   'Ca10 Bi2 Pt1 Rh3'
_cell_volume   463.67385223
_cell_formula_units_Z   1
loop_
 _symmetry_equiv_pos_site_id
 _symmetry_equiv_pos_as_xyz
  1  'x, y, z'
loop_
 _atom_site_type_symbol
 _atom_site_label
 _atom_site_symmetry_multiplicity
 _atom_site_fract_x
 _atom_site_fract_y
 _atom_site_fract_z
 _atom_site_occupancy
  Ca  Ca0  1  0.000543  0.999200  0.999743  1
  Ca  Ca1  1  0.500800  0.499457  0.000257  1
  Ca  Ca2  1  0.804953  0.300209  0.846171  1
  Ca  Ca3  1  0.199791  0.695047  0.153829  1
  Ca  Ca4  1  0.458782  0.954037  0.153829  1
  Ca  Ca5  1  0.297944  0.460362  0.500000  1
  Ca  Ca6  1  0.039638  0.202056  0.500000  1
  Ca  Ca7  1  0.545963  0.041218  0.846171  1
  Ca  Ca8  1  0.698383  0.543345  0.500000  1
  Ca  Ca9  1  0.956655  0.801617  0.500000  1
  Bi  Bi10  1  0.251008  0.248992  0.000000  1
  Bi  Bi11  1  0.751008  0.748992  0.000000  1
  Pt  Pt12  1  0.376538  0.123462  0.500000  1
  Rh  Rh13  1  0.119905  0.621273  0.741177  1
  Rh  Rh14  1  0.878727  0.380095  0.258823  1
  Rh  Rh15  1  0.619364  0.880636  0.500000  1
