# generated using pymatgen
data_CaPa4O11
_symmetry_space_group_name_H-M   'P 1'
_cell_length_a   6.83986000
_cell_length_b   6.83981781
_cell_length_c   13.30616700
_cell_angle_alpha   90.00007076
_cell_angle_beta   89.99982606
_cell_angle_gamma   120.00019237
_symmetry_Int_Tables_number   1
_chemical_formula_structural   CaPa4O11
_chemical_formula_sum   'Ca2 Pa8 O22'
_cell_volume   539.10642293
_cell_formula_units_Z   2
loop_
 _symmetry_equiv_pos_site_id
 _symmetry_equiv_pos_as_xyz
  1  'x, y, z'
loop_
 _atom_site_type_symbol
 _atom_site_label
 _atom_site_symmetry_multiplicity
 _atom_site_fract_x
 _atom_site_fract_y
 _atom_site_fract_z
 _atom_site_occupancy
  Ca  Ca0  1  0.666669  0.333339  0.250001  1
  Ca  Ca1  1  0.333307  0.666629  0.750007  1
  Pa  Pa2  1  0.357416  0.999993  0.000003  1
  Pa  Pa3  1  0.999993  0.357422  0.999996  1
  Pa  Pa4  1  0.642570  0.642574  0.000000  1
  Pa  Pa5  1  0.333337  0.666678  0.249999  1
  Pa  Pa6  1  0.000011  0.642578  0.500006  1
  Pa  Pa7  1  0.357423  0.357422  0.500003  1
  Pa  Pa8  1  0.642577  0.000006  0.499992  1
  Pa  Pa9  1  0.666679  0.333336  0.749998  1
  O  O10  1  0.741772  0.999992  0.999999  1
  O  O11  1  0.258213  0.258209  0.000000  1
  O  O12  1  0.999998  0.741778  0.000000  1
  O  O13  1  0.666656  0.333328  0.036201  1
  O  O14  1  0.043866  0.422353  0.159584  1
  O  O15  1  0.577650  0.621519  0.159584  1
  O  O16  1  0.378481  0.956142  0.159584  1
  O  O17  1  0.577659  0.956148  0.340416  1
  O  O18  1  0.378485  0.422359  0.340416  1
  O  O19  1  0.043861  0.621522  0.340417  1
  O  O20  1  0.666672  0.333334  0.463796  1
  O  O21  1  0.258222  0.000002  0.500000  1
  O  O22  1  0.741787  0.741784  0.500001  1
  O  O23  1  0.000003  0.258221  0.500000  1
  O  O24  1  0.333336  0.666670  0.536203  1
  O  O25  1  0.621523  0.043862  0.659580  1
  O  O26  1  0.422349  0.378488  0.659586  1
  O  O27  1  0.956139  0.577653  0.659583  1
  O  O28  1  0.956146  0.378481  0.840413  1
  O  O29  1  0.621514  0.577651  0.840415  1
  O  O30  1  0.422354  0.043862  0.840420  1
  O  O31  1  0.333331  0.666665  0.963794  1
