# generated using pymatgen
data_NdSb12Ru3Pt
_symmetry_space_group_name_H-M   'P 1'
_cell_length_a   8.17196176
_cell_length_b   8.17196256
_cell_length_c   8.17196248
_cell_angle_alpha   109.45160760
_cell_angle_beta   109.45160267
_cell_angle_gamma   109.45160128
_symmetry_Int_Tables_number   1
_chemical_formula_structural   NdSb12Ru3Pt
_chemical_formula_sum   'Nd1 Sb12 Ru3 Pt1'
_cell_volume   420.40918074
_cell_formula_units_Z   1
loop_
 _symmetry_equiv_pos_site_id
 _symmetry_equiv_pos_as_xyz
  1  'x, y, z'
loop_
 _atom_site_type_symbol
 _atom_site_label
 _atom_site_symmetry_multiplicity
 _atom_site_fract_x
 _atom_site_fract_y
 _atom_site_fract_z
 _atom_site_occupancy
  Nd  Nd0  1  0.000000  0.000000  0.000000  1
  Sb  Sb1  1  0.336706  0.179165  0.842259  1
  Sb  Sb2  1  0.663294  0.820835  0.157741  1
  Sb  Sb3  1  0.664403  0.505826  0.850006  1
  Sb  Sb4  1  0.335597  0.494174  0.149994  1
  Sb  Sb5  1  0.179165  0.842259  0.336706  1
  Sb  Sb6  1  0.820835  0.157741  0.663294  1
  Sb  Sb7  1  0.505826  0.850006  0.664403  1
  Sb  Sb8  1  0.494174  0.149994  0.335597  1
  Sb  Sb9  1  0.842259  0.336706  0.179165  1
  Sb  Sb10  1  0.157741  0.663294  0.820835  1
  Sb  Sb11  1  0.850006  0.664403  0.505826  1
  Sb  Sb12  1  0.149994  0.335597  0.494174  1
  Ru  Ru13  1  0.000000  0.000000  0.500000  1
  Ru  Ru14  1  0.500000  0.000000  0.000000  1
  Ru  Ru15  1  0.000000  0.500000  0.000000  1
  Pt  Pt16  1  0.500000  0.500000  0.500000  1
