# generated using pymatgen
data_Tm3Lu2ReOsC7
_symmetry_space_group_name_H-M   'P 1'
_cell_length_a   8.12221299
_cell_length_b   8.14458545
_cell_length_c   3.41674700
_cell_angle_alpha   90.00000000
_cell_angle_beta   90.00000000
_cell_angle_gamma   121.70775075
_symmetry_Int_Tables_number   1
_chemical_formula_structural   Tm3Lu2ReOsC7
_chemical_formula_sum   'Tm3 Lu2 Re1 Os1 C7'
_cell_volume   192.28838064
_cell_formula_units_Z   1
loop_
 _symmetry_equiv_pos_site_id
 _symmetry_equiv_pos_as_xyz
  1  'x, y, z'
loop_
 _atom_site_type_symbol
 _atom_site_label
 _atom_site_symmetry_multiplicity
 _atom_site_fract_x
 _atom_site_fract_y
 _atom_site_fract_z
 _atom_site_occupancy
  Tm  Tm0  1  0.336149  0.077314  0.500000  1
  Tm  Tm1  1  0.663076  0.921163  0.500000  1
  Tm  Tm2  1  0.499172  0.500670  0.000000  1
  Lu  Lu3  1  0.079211  0.340538  0.500000  1
  Lu  Lu4  1  0.922096  0.660120  0.500000  1
  Re  Re5  1  0.715854  0.284247  0.000000  1
  Os  Os6  1  0.285926  0.714076  0.000000  1
  C  C7  1  0.169925  0.172720  0.000000  1
  C  C8  1  0.830840  0.826678  0.000000  1
  C  C9  1  0.000644  0.999497  0.000000  1
  C  C10  1  0.371225  0.628368  0.500000  1
  C  C11  1  0.623877  0.376470  0.500000  1
  C  C12  1  0.501205  0.999252  0.000000  1
  C  C13  1  0.000802  0.498887  0.000000  1
