# generated using pymatgen
data_TaFe(SeO3)4
_symmetry_space_group_name_H-M   'P 1'
_cell_length_a   8.32750700
_cell_length_b   8.28699520
_cell_length_c   8.38735814
_cell_angle_alpha   89.05759663
_cell_angle_beta   90.00000000
_cell_angle_gamma   90.00000000
_symmetry_Int_Tables_number   1
_chemical_formula_structural   TaFe(SeO3)4
_chemical_formula_sum   'Ta2 Fe2 Se8 O24'
_cell_volume   578.73337998
_cell_formula_units_Z   2
loop_
 _symmetry_equiv_pos_site_id
 _symmetry_equiv_pos_as_xyz
  1  'x, y, z'
loop_
 _atom_site_type_symbol
 _atom_site_label
 _atom_site_symmetry_multiplicity
 _atom_site_fract_x
 _atom_site_fract_y
 _atom_site_fract_z
 _atom_site_occupancy
  Ta  Ta0  1  0.000000  0.000000  0.500000  1
  Ta  Ta1  1  0.500000  0.000000  0.000000  1
  Fe  Fe2  1  0.000000  0.500000  0.000000  1
  Fe  Fe3  1  0.500000  0.500000  0.500000  1
  Se  Se4  1  0.316966  0.654158  0.181062  1
  Se  Se5  1  0.816966  0.345842  0.318938  1
  Se  Se6  1  0.668745  0.806570  0.668283  1
  Se  Se7  1  0.168745  0.193430  0.831717  1
  Se  Se8  1  0.683034  0.345842  0.818938  1
  Se  Se9  1  0.183034  0.654158  0.681062  1
  Se  Se10  1  0.331255  0.193430  0.331717  1
  Se  Se11  1  0.831255  0.806570  0.168283  1
  O  O12  1  0.237713  0.532244  0.039037  1
  O  O13  1  0.737713  0.467756  0.460963  1
  O  O14  1  0.770667  0.956612  0.557558  1
  O  O15  1  0.270667  0.043388  0.942442  1
  O  O16  1  0.543897  0.935988  0.774958  1
  O  O17  1  0.459530  0.529236  0.263010  1
  O  O18  1  0.959530  0.470764  0.236990  1
  O  O19  1  0.043897  0.064012  0.725042  1
  O  O20  1  0.944372  0.224890  0.443505  1
  O  O21  1  0.538043  0.742608  0.528369  1
  O  O22  1  0.444372  0.775110  0.056495  1
  O  O23  1  0.038043  0.257392  0.971631  1
  O  O24  1  0.762287  0.467756  0.960963  1
  O  O25  1  0.262287  0.532244  0.539037  1
  O  O26  1  0.229333  0.043388  0.442442  1
  O  O27  1  0.729333  0.956612  0.057558  1
  O  O28  1  0.456103  0.064012  0.225042  1
  O  O29  1  0.540470  0.470764  0.736990  1
  O  O30  1  0.040470  0.529236  0.763010  1
  O  O31  1  0.956103  0.935988  0.274958  1
  O  O32  1  0.055628  0.775110  0.556495  1
  O  O33  1  0.461957  0.257392  0.471631  1
  O  O34  1  0.555628  0.224890  0.943505  1
  O  O35  1  0.961957  0.742608  0.028369  1
