# generated using pymatgen
data_Nd2YSi3P3Pd20
_symmetry_space_group_name_H-M   'P 1'
_cell_length_a   8.74881264
_cell_length_b   8.74527692
_cell_length_c   8.74455671
_cell_angle_alpha   60.02947059
_cell_angle_beta   59.98935506
_cell_angle_gamma   59.98118295
_symmetry_Int_Tables_number   1
_chemical_formula_structural   Nd2YSi3P3Pd20
_chemical_formula_sum   'Nd2 Y1 Si3 P3 Pd20'
_cell_volume   473.09170635
_cell_formula_units_Z   1
loop_
 _symmetry_equiv_pos_site_id
 _symmetry_equiv_pos_as_xyz
  1  'x, y, z'
loop_
 _atom_site_type_symbol
 _atom_site_label
 _atom_site_symmetry_multiplicity
 _atom_site_fract_x
 _atom_site_fract_y
 _atom_site_fract_z
 _atom_site_occupancy
  Nd  Nd0  1  0.249622  0.250378  0.249622  1
  Nd  Nd1  1  0.749622  0.750378  0.749622  1
  Y  Y2  1  0.000391  0.999609  0.000391  1
  Si  Si3  1  0.734722  0.265278  0.264071  1
  Si  Si4  1  0.264071  0.735929  0.734722  1
  Si  Si5  1  0.265052  0.734948  0.265052  1
  P  P6  1  0.736796  0.263204  0.736796  1
  P  P7  1  0.262854  0.264198  0.735802  1
  P  P8  1  0.735802  0.737146  0.262854  1
  Pd  Pd9  1  0.385162  0.384784  0.387067  1
  Pd  Pd10  1  0.615094  0.613367  0.613490  1
  Pd  Pd11  1  0.386633  0.384906  0.841951  1
  Pd  Pd12  1  0.387067  0.842987  0.385162  1
  Pd  Pd13  1  0.615216  0.614838  0.157013  1
  Pd  Pd14  1  0.613490  0.158049  0.615094  1
  Pd  Pd15  1  0.841951  0.386510  0.386633  1
  Pd  Pd16  1  0.157013  0.612933  0.615216  1
  Pd  Pd17  1  0.345006  0.001077  0.998923  1
  Pd  Pd18  1  0.655509  0.000452  0.999548  1
  Pd  Pd19  1  0.999548  0.344491  0.655509  1
  Pd  Pd20  1  0.998923  0.654994  0.345006  1
  Pd  Pd21  1  0.001449  0.345252  0.999644  1
  Pd  Pd22  1  0.654748  0.998551  0.346345  1
  Pd  Pd23  1  0.999644  0.653655  0.001449  1
  Pd  Pd24  1  0.346345  0.000356  0.654748  1
  Pd  Pd25  1  0.999672  0.000328  0.346532  1
  Pd  Pd26  1  0.998634  0.001366  0.653431  1
  Pd  Pd27  1  0.653431  0.346569  0.998634  1
  Pd  Pd28  1  0.346532  0.653468  0.999672  1
