# generated using pymatgen
data_Hf3ZnIr2N
_symmetry_space_group_name_H-M   'P 1'
_cell_length_a   8.48433506
_cell_length_b   8.48433417
_cell_length_c   8.48433500
_cell_angle_alpha   60.00000066
_cell_angle_beta   60.00000413
_cell_angle_gamma   60.00000378
_symmetry_Int_Tables_number   1
_chemical_formula_structural   Hf3ZnIr2N
_chemical_formula_sum   'Hf12 Zn4 Ir8 N4'
_cell_volume   431.85546015
_cell_formula_units_Z   4
loop_
 _symmetry_equiv_pos_site_id
 _symmetry_equiv_pos_as_xyz
  1  'x, y, z'
loop_
 _atom_site_type_symbol
 _atom_site_label
 _atom_site_symmetry_multiplicity
 _atom_site_fract_x
 _atom_site_fract_y
 _atom_site_fract_z
 _atom_site_occupancy
  Hf  Hf0  1  0.808237  0.191763  0.191763  1
  Hf  Hf1  1  0.191763  0.808237  0.191763  1
  Hf  Hf2  1  0.808237  0.808237  0.191763  1
  Hf  Hf3  1  0.191763  0.808237  0.808237  1
  Hf  Hf4  1  0.808237  0.191763  0.808237  1
  Hf  Hf5  1  0.191763  0.191763  0.808237  1
  Hf  Hf6  1  0.441763  0.058237  0.058237  1
  Hf  Hf7  1  0.058237  0.441763  0.058237  1
  Hf  Hf8  1  0.441763  0.441763  0.058237  1
  Hf  Hf9  1  0.058237  0.441763  0.441763  1
  Hf  Hf10  1  0.441763  0.058237  0.441763  1
  Hf  Hf11  1  0.058237  0.058237  0.441763  1
  Zn  Zn12  1  0.625000  0.625000  0.125000  1
  Zn  Zn13  1  0.625000  0.625000  0.625000  1
  Zn  Zn14  1  0.125000  0.625000  0.625000  1
  Zn  Zn15  1  0.625000  0.125000  0.625000  1
  Ir  Ir16  1  0.413409  0.413409  0.759772  1
  Ir  Ir17  1  0.413409  0.413409  0.413409  1
  Ir  Ir18  1  0.759772  0.413409  0.413409  1
  Ir  Ir19  1  0.413409  0.759772  0.413409  1
  Ir  Ir20  1  0.836591  0.836591  0.490228  1
  Ir  Ir21  1  0.836591  0.836591  0.836591  1
  Ir  Ir22  1  0.490228  0.836591  0.836591  1
  Ir  Ir23  1  0.836591  0.490228  0.836591  1
  N  N24  1  0.125000  0.125000  0.625000  1
  N  N25  1  0.125000  0.125000  0.125000  1
  N  N26  1  0.625000  0.125000  0.125000  1
  N  N27  1  0.125000  0.625000  0.125000  1
