# generated using pymatgen
data_Dy2Y3CoBi2
_symmetry_space_group_name_H-M   'P 1'
_cell_length_a   8.01565100
_cell_length_b   8.85218400
_cell_length_c   12.42315000
_cell_angle_alpha   90.00000000
_cell_angle_beta   90.00000000
_cell_angle_gamma   90.00000000
_symmetry_Int_Tables_number   1
_chemical_formula_structural   Dy2Y3CoBi2
_chemical_formula_sum   'Dy8 Y12 Co4 Bi8'
_cell_volume   881.49724920
_cell_formula_units_Z   4
loop_
 _symmetry_equiv_pos_site_id
 _symmetry_equiv_pos_as_xyz
  1  'x, y, z'
loop_
 _atom_site_type_symbol
 _atom_site_label
 _atom_site_symmetry_multiplicity
 _atom_site_fract_x
 _atom_site_fract_y
 _atom_site_fract_z
 _atom_site_occupancy
  Dy  Dy0  1  0.675018  0.034887  0.563712  1
  Dy  Dy1  1  0.324982  0.965113  0.436288  1
  Dy  Dy2  1  0.175018  0.965113  0.936288  1
  Dy  Dy3  1  0.324982  0.534887  0.436288  1
  Dy  Dy4  1  0.824982  0.034887  0.063712  1
  Dy  Dy5  1  0.675018  0.465113  0.563712  1
  Dy  Dy6  1  0.824982  0.465113  0.063712  1
  Dy  Dy7  1  0.175018  0.534887  0.936288  1
  Y  Y8  1  0.845834  0.750000  0.800431  1
  Y  Y9  1  0.154166  0.250000  0.199569  1
  Y  Y10  1  0.345834  0.250000  0.699569  1
  Y  Y11  1  0.654166  0.750000  0.300431  1
  Y  Y12  1  0.377591  0.750000  0.689648  1
  Y  Y13  1  0.622409  0.250000  0.310352  1
  Y  Y14  1  0.877591  0.250000  0.810352  1
  Y  Y15  1  0.122409  0.750000  0.189648  1
  Y  Y16  1  0.952856  0.750000  0.502469  1
  Y  Y17  1  0.047144  0.250000  0.497531  1
  Y  Y18  1  0.452856  0.250000  0.997531  1
  Y  Y19  1  0.547144  0.750000  0.002469  1
  Co  Co20  1  0.561209  0.750000  0.508245  1
  Co  Co21  1  0.438791  0.250000  0.491755  1
  Co  Co22  1  0.061209  0.250000  0.991755  1
  Co  Co23  1  0.938791  0.750000  0.008245  1
  Bi  Bi24  1  0.568839  0.492427  0.826031  1
  Bi  Bi25  1  0.431161  0.507573  0.173969  1
  Bi  Bi26  1  0.068839  0.507573  0.673969  1
  Bi  Bi27  1  0.431161  0.992427  0.173969  1
  Bi  Bi28  1  0.931161  0.492427  0.326031  1
  Bi  Bi29  1  0.568839  0.007573  0.826031  1
  Bi  Bi30  1  0.931161  0.007573  0.326031  1
  Bi  Bi31  1  0.068839  0.992427  0.673969  1
