# generated using pymatgen
data_HfMo(As2O7)2
_symmetry_space_group_name_H-M   'P 1'
_cell_length_a   5.43456532
_cell_length_b   5.52977775
_cell_length_c   9.87318236
_cell_angle_alpha   81.06475130
_cell_angle_beta   81.98538485
_cell_angle_gamma   98.77134995
_symmetry_Int_Tables_number   1
_chemical_formula_structural   HfMo(As2O7)2
_chemical_formula_sum   'Hf1 Mo1 As4 O14'
_cell_volume   285.60825935
_cell_formula_units_Z   1
loop_
 _symmetry_equiv_pos_site_id
 _symmetry_equiv_pos_as_xyz
  1  'x, y, z'
loop_
 _atom_site_type_symbol
 _atom_site_label
 _atom_site_symmetry_multiplicity
 _atom_site_fract_x
 _atom_site_fract_y
 _atom_site_fract_z
 _atom_site_occupancy
  Hf  Hf0  1  0.000000  0.000000  0.000000  1
  Mo  Mo1  1  0.000000  0.000000  0.500000  1
  As  As2  1  0.166348  0.440983  0.204470  1
  As  As3  1  0.449470  0.169698  0.698065  1
  As  As4  1  0.550530  0.830302  0.301935  1
  As  As5  1  0.833652  0.559017  0.795530  1
  O  O6  1  0.085356  0.708983  0.130324  1
  O  O7  1  0.774246  0.742581  0.914144  1
  O  O8  1  0.302345  0.984963  0.849876  1
  O  O9  1  0.040583  0.697305  0.648432  1
  O  O10  1  0.462290  0.530900  0.260482  1
  O  O11  1  0.712968  0.059570  0.639237  1
  O  O12  1  0.740407  0.773749  0.423705  1
  O  O13  1  0.259593  0.226251  0.576295  1
  O  O14  1  0.225754  0.257419  0.085856  1
  O  O15  1  0.697655  0.015037  0.150124  1
  O  O16  1  0.914644  0.291017  0.869676  1
  O  O17  1  0.959417  0.302695  0.351568  1
  O  O18  1  0.287032  0.940430  0.360763  1
  O  O19  1  0.537710  0.469100  0.739518  1
