# generated using pymatgen
data_Li2Tm3AgSnGe2
_symmetry_space_group_name_H-M   'P 1'
_cell_length_a   7.03866868
_cell_length_b   7.07408786
_cell_length_c   4.32416000
_cell_angle_alpha   90.00000000
_cell_angle_beta   90.00000000
_cell_angle_gamma   120.16660465
_symmetry_Int_Tables_number   1
_chemical_formula_structural   Li2Tm3AgSnGe2
_chemical_formula_sum   'Li2 Tm3 Ag1 Sn1 Ge2'
_cell_volume   186.14947093
_cell_formula_units_Z   1
loop_
 _symmetry_equiv_pos_site_id
 _symmetry_equiv_pos_as_xyz
  1  'x, y, z'
loop_
 _atom_site_type_symbol
 _atom_site_label
 _atom_site_symmetry_multiplicity
 _atom_site_fract_x
 _atom_site_fract_y
 _atom_site_fract_z
 _atom_site_occupancy
  Li  Li0  1  0.242207  0.237996  0.500000  1
  Li  Li1  1  0.757793  0.995789  0.500000  1
  Tm  Tm2  1  0.000000  0.449109  0.000000  1
  Tm  Tm3  1  0.558825  0.557662  0.000000  1
  Tm  Tm4  1  0.441175  0.998837  0.000000  1
  Ag  Ag5  1  0.000000  0.754601  0.500000  1
  Sn  Sn6  1  0.000000  0.012546  0.000000  1
  Ge  Ge7  1  0.339786  0.666623  0.500000  1
  Ge  Ge8  1  0.660214  0.326835  0.500000  1
