# generated using pymatgen
data_Er(TlBr2)3
_symmetry_space_group_name_H-M   'P 1'
_cell_length_a   8.53386500
_cell_length_b   7.81158658
_cell_length_c   13.72331602
_cell_angle_alpha   56.16833912
_cell_angle_beta   90.00000000
_cell_angle_gamma   90.00000000
_symmetry_Int_Tables_number   1
_chemical_formula_structural   Er(TlBr2)3
_chemical_formula_sum   'Er2 Tl6 Br12'
_cell_volume   759.93463510
_cell_formula_units_Z   2
loop_
 _symmetry_equiv_pos_site_id
 _symmetry_equiv_pos_as_xyz
  1  'x, y, z'
loop_
 _atom_site_type_symbol
 _atom_site_label
 _atom_site_symmetry_multiplicity
 _atom_site_fract_x
 _atom_site_fract_y
 _atom_site_fract_z
 _atom_site_occupancy
  Er  Er0  1  0.000000  0.000000  0.000000  1
  Er  Er1  1  0.500000  0.000000  0.500000  1
  Tl  Tl2  1  0.000000  0.500000  0.500000  1
  Tl  Tl3  1  0.500000  0.500000  0.000000  1
  Tl  Tl4  1  0.919619  0.711780  0.756922  1
  Tl  Tl5  1  0.419619  0.288220  0.743078  1
  Tl  Tl6  1  0.080381  0.288220  0.243078  1
  Tl  Tl7  1  0.580381  0.711780  0.256922  1
  Br  Br8  1  0.052657  0.093485  0.773457  1
  Br  Br9  1  0.222982  0.769779  0.573798  1
  Br  Br10  1  0.947343  0.906515  0.226543  1
  Br  Br11  1  0.552657  0.906515  0.726543  1
  Br  Br12  1  0.667126  0.651808  0.555012  1
  Br  Br13  1  0.447343  0.093485  0.273457  1
  Br  Br14  1  0.167126  0.348192  0.944988  1
  Br  Br15  1  0.777018  0.230221  0.426202  1
  Br  Br16  1  0.832874  0.651808  0.055012  1
  Br  Br17  1  0.332874  0.348192  0.444988  1
  Br  Br18  1  0.277018  0.769779  0.073798  1
  Br  Br19  1  0.722982  0.230221  0.926202  1
