# generated using pymatgen
data_Er7Tm9MgCd(AgRh2)2
_symmetry_space_group_name_H-M   'P 1'
_cell_length_a   9.45657237
_cell_length_b   9.47337240
_cell_length_c   9.46527400
_cell_angle_alpha   60.02828148
_cell_angle_beta   59.96956344
_cell_angle_gamma   60.02400722
_symmetry_Int_Tables_number   1
_chemical_formula_structural   Er7Tm9MgCd(AgRh2)2
_chemical_formula_sum   'Er7 Tm9 Mg1 Cd1 Ag2 Rh4'
_cell_volume   599.69162414
_cell_formula_units_Z   1
loop_
 _symmetry_equiv_pos_site_id
 _symmetry_equiv_pos_as_xyz
  1  'x, y, z'
loop_
 _atom_site_type_symbol
 _atom_site_label
 _atom_site_symmetry_multiplicity
 _atom_site_fract_x
 _atom_site_fract_y
 _atom_site_fract_z
 _atom_site_occupancy
  Er  Er0  1  0.810005  0.810656  0.190173  1
  Er  Er1  1  0.935099  0.565123  0.565466  1
  Er  Er2  1  0.563055  0.937214  0.936095  1
  Er  Er3  1  0.563451  0.938984  0.565933  1
  Er  Er4  1  0.934323  0.564197  0.938283  1
  Er  Er5  1  0.563138  0.565303  0.938824  1
  Er  Er6  1  0.934003  0.938787  0.564724  1
  Tm  Tm7  1  0.349305  0.348542  0.347814  1
  Tm  Tm8  1  0.349806  0.348458  0.953535  1
  Tm  Tm9  1  0.349562  0.955139  0.347596  1
  Tm  Tm10  1  0.945335  0.352319  0.351297  1
  Tm  Tm11  1  0.808909  0.188776  0.191246  1
  Tm  Tm12  1  0.187435  0.811555  0.812528  1
  Tm  Tm13  1  0.185684  0.812067  0.188664  1
  Tm  Tm14  1  0.809787  0.189311  0.811547  1
  Tm  Tm15  1  0.185361  0.187086  0.813625  1
  Mg  Mg16  1  0.281014  0.570665  0.571146  1
  Cd  Cd17  1  0.582612  0.580802  0.579966  1
  Ag  Ag18  1  0.583164  0.584450  0.248608  1
  Ag  Ag19  1  0.583621  0.248701  0.583616  1
  Rh  Rh20  1  0.140041  0.143870  0.142900  1
  Rh  Rh21  1  0.140095  0.142745  0.572909  1
  Rh  Rh22  1  0.142369  0.571659  0.142006  1
  Rh  Rh23  1  0.572824  0.143581  0.141495  1
