# generated using pymatgen
data_Th3Al2Rh3Au
_symmetry_space_group_name_H-M   'P 1'
_cell_length_a   7.31238532
_cell_length_b   7.61863076
_cell_length_c   3.99173200
_cell_angle_alpha   90.00000000
_cell_angle_beta   90.00000000
_cell_angle_gamma   121.39533714
_symmetry_Int_Tables_number   1
_chemical_formula_structural   Th3Al2Rh3Au
_chemical_formula_sum   'Th3 Al2 Rh3 Au1'
_cell_volume   189.82277313
_cell_formula_units_Z   1
loop_
 _symmetry_equiv_pos_site_id
 _symmetry_equiv_pos_as_xyz
  1  'x, y, z'
loop_
 _atom_site_type_symbol
 _atom_site_label
 _atom_site_symmetry_multiplicity
 _atom_site_fract_x
 _atom_site_fract_y
 _atom_site_fract_z
 _atom_site_occupancy
  Th  Th0  1  0.000000  0.413848  0.500000  1
  Th  Th1  1  0.597389  0.592001  0.500000  1
  Th  Th2  1  0.402611  0.994612  0.500000  1
  Al  Al3  1  0.241237  0.242222  0.000000  1
  Al  Al4  1  0.758763  0.000985  0.000000  1
  Rh  Rh5  1  0.350773  0.654154  0.000000  1
  Rh  Rh6  1  0.649227  0.303380  0.000000  1
  Rh  Rh7  1  0.000000  0.041212  0.500000  1
  Au  Au8  1  0.000000  0.757586  0.000000  1
