# generated using pymatgen
data_Lu4ReMo3Os4
_symmetry_space_group_name_H-M   'P 1'
_cell_length_a   5.36753907
_cell_length_b   5.32161738
_cell_length_c   8.90077100
_cell_angle_alpha   90.00000000
_cell_angle_beta   90.00000000
_cell_angle_gamma   120.61041649
_symmetry_Int_Tables_number   1
_chemical_formula_structural   Lu4ReMo3Os4
_chemical_formula_sum   'Lu4 Re1 Mo3 Os4'
_cell_volume   218.81283465
_cell_formula_units_Z   1
loop_
 _symmetry_equiv_pos_site_id
 _symmetry_equiv_pos_as_xyz
  1  'x, y, z'
loop_
 _atom_site_type_symbol
 _atom_site_label
 _atom_site_symmetry_multiplicity
 _atom_site_fract_x
 _atom_site_fract_y
 _atom_site_fract_z
 _atom_site_occupancy
  Lu  Lu0  1  0.335030  0.664897  0.440521  1
  Lu  Lu1  1  0.669011  0.334324  0.563507  1
  Lu  Lu2  1  0.669011  0.334324  0.936493  1
  Lu  Lu3  1  0.335030  0.664897  0.059479  1
  Re  Re4  1  0.167734  0.336412  0.750000  1
  Mo  Mo5  1  0.167158  0.826466  0.750000  1
  Mo  Mo6  1  0.341741  0.172505  0.250000  1
  Mo  Mo7  1  0.831973  0.663723  0.250000  1
  Os  Os8  1  0.646576  0.823503  0.750000  1
  Os  Os9  1  0.006494  0.001999  0.999407  1
  Os  Os10  1  0.823746  0.174955  0.250000  1
  Os  Os11  1  0.006494  0.001999  0.500593  1
