# generated using pymatgen
data_Er4Co2Si10Ir3Ru
_symmetry_space_group_name_H-M   'P 1'
_cell_length_a   8.00954023
_cell_length_b   8.00525460
_cell_length_c   8.16697145
_cell_angle_alpha   139.40905387
_cell_angle_beta   106.40464048
_cell_angle_gamma   86.25481560
_symmetry_Int_Tables_number   1
_chemical_formula_structural   Er4Co2Si10Ir3Ru
_chemical_formula_sum   'Er4 Co2 Si10 Ir3 Ru1'
_cell_volume   317.37908712
_cell_formula_units_Z   1
loop_
 _symmetry_equiv_pos_site_id
 _symmetry_equiv_pos_as_xyz
  1  'x, y, z'
loop_
 _atom_site_type_symbol
 _atom_site_label
 _atom_site_symmetry_multiplicity
 _atom_site_fract_x
 _atom_site_fract_y
 _atom_site_fract_z
 _atom_site_occupancy
  Er  Er0  1  0.898931  0.120160  0.748502  1
  Er  Er1  1  0.097314  0.866580  0.231934  1
  Er  Er2  1  0.633747  0.366262  0.270902  1
  Er  Er3  1  0.369046  0.652102  0.749918  1
  Co  Co4  1  0.756414  0.830479  0.870405  1
  Co  Co5  1  0.508591  0.253566  0.751514  1
  Si  Si6  1  0.005601  0.767618  0.756722  1
  Si  Si7  1  0.973654  0.215656  0.227975  1
  Si  Si8  1  0.706533  0.473783  0.759744  1
  Si  Si9  1  0.278778  0.026220  0.751074  1
  Si  Si10  1  0.295871  0.548410  0.255867  1
  Si  Si11  1  0.721523  0.966286  0.236045  1
  Si  Si12  1  0.245967  0.390970  0.829547  1
  Si  Si13  1  0.568144  0.910263  0.677591  1
  Si  Si14  1  0.440960  0.110670  0.351404  1
  Si  Si15  1  0.760174  0.589608  0.150582  1
  Ir  Ir16  1  0.960297  0.380792  0.624875  1
  Ir  Ir17  1  0.038034  0.607203  0.368149  1
  Ir  Ir18  1  0.240984  0.174525  0.135114  1
  Ru  Ru19  1  0.499438  0.748848  0.252132  1
