# generated using pymatgen
data_K4LiTc3AgH27
_symmetry_space_group_name_H-M   'P 1'
_cell_length_a   10.17193035
_cell_length_b   10.20526575
_cell_length_c   5.49862600
_cell_angle_alpha   90.00000000
_cell_angle_beta   90.00000000
_cell_angle_gamma   123.34891916
_symmetry_Int_Tables_number   1
_chemical_formula_structural   K4LiTc3AgH27
_chemical_formula_sum   'K4 Li1 Tc3 Ag1 H27'
_cell_volume   476.80881072
_cell_formula_units_Z   1
loop_
 _symmetry_equiv_pos_site_id
 _symmetry_equiv_pos_as_xyz
  1  'x, y, z'
loop_
 _atom_site_type_symbol
 _atom_site_label
 _atom_site_symmetry_multiplicity
 _atom_site_fract_x
 _atom_site_fract_y
 _atom_site_fract_z
 _atom_site_occupancy
  K  K0  1  0.267185  0.991605  0.500000  1
  K  K1  1  0.980863  0.258882  0.500000  1
  K  K2  1  0.774782  0.772902  0.500000  1
  K  K3  1  0.390063  0.386818  0.000000  1
  Li  Li4  1  0.721171  0.381106  0.000000  1
  Tc  Tc5  1  0.020643  0.020089  0.000000  1
  Tc  Tc6  1  0.358333  0.672426  0.500000  1
  Tc  Tc7  1  0.673218  0.359870  0.500000  1
  Ag  Ag8  1  0.358655  0.707336  0.000000  1
  H  H9  1  0.886735  0.019650  0.181234  1
  H  H10  1  0.022223  0.887951  0.181900  1
  H  H11  1  0.886735  0.019650  0.818766  1
  H  H12  1  0.022223  0.887951  0.818100  1
  H  H13  1  0.103276  0.103294  0.266452  1
  H  H14  1  0.103276  0.103294  0.733548  1
  H  H15  1  0.212095  0.073323  0.000000  1
  H  H16  1  0.072519  0.210333  0.000000  1
  H  H17  1  0.849599  0.848523  0.000000  1
  H  H18  1  0.234174  0.542513  0.285245  1
  H  H19  1  0.486348  0.686569  0.286003  1
  H  H20  1  0.234174  0.542513  0.714755  1
  H  H21  1  0.553680  0.243627  0.727524  1
  H  H22  1  0.356388  0.801005  0.298785  1
  H  H23  1  0.486348  0.686569  0.713997  1
  H  H24  1  0.686070  0.486680  0.715954  1
  H  H25  1  0.553680  0.243627  0.272476  1
  H  H26  1  0.356388  0.801005  0.701215  1
  H  H27  1  0.686070  0.486680  0.284046  1
  H  H28  1  0.795590  0.352537  0.700200  1
  H  H29  1  0.795590  0.352537  0.299800  1
  H  H30  1  0.366307  0.512928  0.500000  1
  H  H31  1  0.526577  0.847208  0.500000  1
  H  H32  1  0.504874  0.353418  0.500000  1
  H  H33  1  0.183607  0.649680  0.500000  1
  H  H34  1  0.850257  0.524017  0.500000  1
  H  H35  1  0.640285  0.181882  0.500000  1
