# generated using pymatgen
data_Ce2ThSn3Ir2Rh
_symmetry_space_group_name_H-M   'P 1'
_cell_length_a   7.52563399
_cell_length_b   7.56701319
_cell_length_c   4.09680500
_cell_angle_alpha   90.00000000
_cell_angle_beta   90.00000000
_cell_angle_gamma   120.18205470
_symmetry_Int_Tables_number   1
_chemical_formula_structural   Ce2ThSn3Ir2Rh
_chemical_formula_sum   'Ce2 Th1 Sn3 Ir2 Rh1'
_cell_volume   201.67119269
_cell_formula_units_Z   1
loop_
 _symmetry_equiv_pos_site_id
 _symmetry_equiv_pos_as_xyz
  1  'x, y, z'
loop_
 _atom_site_type_symbol
 _atom_site_label
 _atom_site_symmetry_multiplicity
 _atom_site_fract_x
 _atom_site_fract_y
 _atom_site_fract_z
 _atom_site_occupancy
  Ce  Ce0  1  0.414125  0.414077  0.500000  1
  Ce  Ce1  1  0.585875  0.999952  0.500000  1
  Th  Th2  1  0.000000  0.585249  0.500000  1
  Sn  Sn3  1  0.744080  0.748270  0.000000  1
  Sn  Sn4  1  0.255920  0.004191  0.000000  1
  Sn  Sn5  1  0.000000  0.247660  0.000000  1
  Ir  Ir6  1  0.669319  0.336155  0.000000  1
  Ir  Ir7  1  0.330681  0.666838  0.000000  1
  Rh  Rh8  1  0.000000  0.997607  0.500000  1
