# generated using pymatgen
data_Y2Mn2Co10P7
_symmetry_space_group_name_H-M   'P 1'
_cell_length_a   9.07724525
_cell_length_b   9.06517622
_cell_length_c   3.61101800
_cell_angle_alpha   90.00000000
_cell_angle_beta   90.00000000
_cell_angle_gamma   120.10844050
_symmetry_Int_Tables_number   1
_chemical_formula_structural   Y2Mn2Co10P7
_chemical_formula_sum   'Y2 Mn2 Co10 P7'
_cell_volume   257.04845950
_cell_formula_units_Z   1
loop_
 _symmetry_equiv_pos_site_id
 _symmetry_equiv_pos_as_xyz
  1  'x, y, z'
loop_
 _atom_site_type_symbol
 _atom_site_label
 _atom_site_symmetry_multiplicity
 _atom_site_fract_x
 _atom_site_fract_y
 _atom_site_fract_z
 _atom_site_occupancy
  Y  Y0  1  0.666479  0.333710  0.000000  1
  Y  Y1  1  0.334762  0.668539  0.500000  1
  Mn  Mn2  1  0.900703  0.120468  0.000000  1
  Mn  Mn3  1  0.880157  0.779162  0.000000  1
  Co  Co4  1  0.428706  0.060517  0.500000  1
  Co  Co5  1  0.939443  0.370143  0.500000  1
  Co  Co6  1  0.629343  0.568802  0.500000  1
  Co  Co7  1  0.157196  0.274394  0.500000  1
  Co  Co8  1  0.725724  0.883625  0.500000  1
  Co  Co9  1  0.118732  0.844051  0.500000  1
  Co  Co10  1  0.385021  0.433962  0.000000  1
  Co  Co11  1  0.563446  0.950066  0.000000  1
  Co  Co12  1  0.051650  0.615606  0.000000  1
  Co  Co13  1  0.218243  0.093722  0.000000  1
  P  P14  1  0.116595  0.407243  0.000000  1
  P  P15  1  0.596637  0.709997  0.000000  1
  P  P16  1  0.289182  0.887510  0.000000  1
  P  P17  1  0.001282  0.999624  0.500000  1
  P  P18  1  0.408955  0.297844  0.500000  1
  P  P19  1  0.699113  0.111595  0.500000  1
  P  P20  1  0.888629  0.589417  0.500000  1
