# generated using pymatgen
data_Tb4PrNd(RuO7)2
_symmetry_space_group_name_H-M   'P 1'
_cell_length_a   6.48635929
_cell_length_b   6.48635917
_cell_length_c   7.52865358
_cell_angle_alpha   90.02570522
_cell_angle_beta   90.02570474
_cell_angle_gamma   110.29845061
_symmetry_Int_Tables_number   1
_chemical_formula_structural   Tb4PrNd(RuO7)2
_chemical_formula_sum   'Tb4 Pr1 Nd1 Ru2 O14'
_cell_volume   297.08103721
_cell_formula_units_Z   1
loop_
 _symmetry_equiv_pos_site_id
 _symmetry_equiv_pos_as_xyz
  1  'x, y, z'
loop_
 _atom_site_type_symbol
 _atom_site_label
 _atom_site_symmetry_multiplicity
 _atom_site_fract_x
 _atom_site_fract_y
 _atom_site_fract_z
 _atom_site_occupancy
  Tb  Tb0  1  0.519842  0.073163  0.249437  1
  Tb  Tb1  1  0.926837  0.480158  0.750563  1
  Tb  Tb2  1  0.480158  0.926837  0.750563  1
  Tb  Tb3  1  0.073163  0.519842  0.249437  1
  Pr  Pr4  1  0.000000  0.000000  0.500000  1
  Nd  Nd5  1  0.000000  0.000000  0.000000  1
  Ru  Ru6  1  0.500000  0.500000  0.500000  1
  Ru  Ru7  1  0.500000  0.500000  0.000000  1
  O  O8  1  0.440937  0.182665  0.537318  1
  O  O9  1  0.817335  0.559063  0.462682  1
  O  O10  1  0.439983  0.182714  0.962788  1
  O  O11  1  0.817286  0.560017  0.037212  1
  O  O12  1  0.559063  0.817335  0.462682  1
  O  O13  1  0.182665  0.440937  0.537318  1
  O  O14  1  0.560017  0.817286  0.037212  1
  O  O15  1  0.182714  0.439983  0.962788  1
  O  O16  1  0.162097  0.884712  0.248049  1
  O  O17  1  0.115288  0.837903  0.751951  1
  O  O18  1  0.837903  0.115288  0.751951  1
  O  O19  1  0.884712  0.162097  0.248049  1
  O  O20  1  0.412068  0.412068  0.250067  1
  O  O21  1  0.587932  0.587932  0.749933  1
