# generated using pymatgen
data_NaTb2Sm4PtI12
_symmetry_space_group_name_H-M   'P 1'
_cell_length_a   9.94392035
_cell_length_b   9.96524399
_cell_length_c   9.89166081
_cell_angle_alpha   106.95300809
_cell_angle_beta   107.11106541
_cell_angle_gamma   106.72488547
_symmetry_Int_Tables_number   1
_chemical_formula_structural   NaTb2Sm4PtI12
_chemical_formula_sum   'Na1 Tb2 Sm4 Pt1 I12'
_cell_volume   817.87429343
_cell_formula_units_Z   1
loop_
 _symmetry_equiv_pos_site_id
 _symmetry_equiv_pos_as_xyz
  1  'x, y, z'
loop_
 _atom_site_type_symbol
 _atom_site_label
 _atom_site_symmetry_multiplicity
 _atom_site_fract_x
 _atom_site_fract_y
 _atom_site_fract_z
 _atom_site_occupancy
  Na  Na0  1  0.499896  0.499873  0.499927  1
  Tb  Tb1  1  0.690432  0.896772  0.971415  1
  Tb  Tb2  1  0.970416  0.690755  0.898186  1
  Sm  Sm3  1  0.098295  0.026805  0.301201  1
  Sm  Sm4  1  0.312516  0.102448  0.028026  1
  Sm  Sm5  1  0.029017  0.312378  0.102678  1
  Sm  Sm6  1  0.900119  0.972423  0.698011  1
  Pt  Pt7  1  0.998690  0.998657  0.999190  1
  I  I8  1  0.075703  0.680887  0.223094  1
  I  I9  1  0.223839  0.075503  0.679067  1
  I  I10  1  0.679899  0.220929  0.074850  1
  I  I11  1  0.923343  0.321667  0.773470  1
  I  I12  1  0.773569  0.923446  0.317041  1
  I  I13  1  0.319065  0.773589  0.923624  1
  I  I14  1  0.452151  0.143841  0.374696  1
  I  I15  1  0.373867  0.452787  0.143978  1
  I  I16  1  0.144363  0.373044  0.453689  1
  I  I17  1  0.547734  0.856274  0.629409  1
  I  I18  1  0.629670  0.551170  0.857845  1
  I  I19  1  0.857417  0.626752  0.550602  1
