# generated using pymatgen
data_Cd2SbPd9
_symmetry_space_group_name_H-M   'P 1'
_cell_length_a   7.72234602
_cell_length_b   7.72234542
_cell_length_c   7.72234575
_cell_angle_alpha   43.58700614
_cell_angle_beta   43.58700857
_cell_angle_gamma   43.58701132
_symmetry_Int_Tables_number   1
_chemical_formula_structural   Cd2SbPd9
_chemical_formula_sum   'Cd2 Sb1 Pd9'
_cell_volume   198.65704832
_cell_formula_units_Z   1
loop_
 _symmetry_equiv_pos_site_id
 _symmetry_equiv_pos_as_xyz
  1  'x, y, z'
loop_
 _atom_site_type_symbol
 _atom_site_label
 _atom_site_symmetry_multiplicity
 _atom_site_fract_x
 _atom_site_fract_y
 _atom_site_fract_z
 _atom_site_occupancy
  Cd  Cd0  1  0.002335  0.002335  0.002335  1
  Cd  Cd1  1  0.775926  0.775926  0.775926  1
  Sb  Sb2  1  0.221741  0.221741  0.221741  1
  Pd  Pd3  1  0.498283  0.498283  0.000443  1
  Pd  Pd4  1  0.722560  0.722560  0.222332  1
  Pd  Pd5  1  0.774493  0.280521  0.280521  1
  Pd  Pd6  1  0.280521  0.774493  0.280521  1
  Pd  Pd7  1  0.498283  0.000443  0.498283  1
  Pd  Pd8  1  0.000443  0.498283  0.498283  1
  Pd  Pd9  1  0.722560  0.222332  0.722560  1
  Pd  Pd10  1  0.222332  0.722560  0.722560  1
  Pd  Pd11  1  0.280521  0.280521  0.774493  1
