# generated using pymatgen
data_Er2GaSiRu2
_symmetry_space_group_name_H-M   'P 1'
_cell_length_a   4.38202400
_cell_length_b   7.00124059
_cell_length_c   7.17656420
_cell_angle_alpha   90.73270244
_cell_angle_beta   90.00000000
_cell_angle_gamma   90.00000000
_symmetry_Int_Tables_number   1
_chemical_formula_structural   Er2GaSiRu2
_chemical_formula_sum   'Er4 Ga2 Si2 Ru4'
_cell_volume   220.15614705
_cell_formula_units_Z   2
loop_
 _symmetry_equiv_pos_site_id
 _symmetry_equiv_pos_as_xyz
  1  'x, y, z'
loop_
 _atom_site_type_symbol
 _atom_site_label
 _atom_site_symmetry_multiplicity
 _atom_site_fract_x
 _atom_site_fract_y
 _atom_site_fract_z
 _atom_site_occupancy
  Er  Er0  1  0.250000  0.987104  0.806970  1
  Er  Er1  1  0.750000  0.012896  0.193030  1
  Er  Er2  1  0.250000  0.484415  0.690089  1
  Er  Er3  1  0.750000  0.515585  0.309911  1
  Ga  Ga4  1  0.250000  0.304626  0.107929  1
  Ga  Ga5  1  0.750000  0.695374  0.892071  1
  Si  Si6  1  0.250000  0.802246  0.399656  1
  Si  Si7  1  0.750000  0.197754  0.600344  1
  Ru  Ru8  1  0.750000  0.849808  0.553884  1
  Ru  Ru9  1  0.250000  0.150192  0.446116  1
  Ru  Ru10  1  0.750000  0.328301  0.919505  1
  Ru  Ru11  1  0.250000  0.671699  0.080495  1
