# generated using pymatgen
data_ReSiP
_symmetry_space_group_name_H-M   'P 1'
_cell_length_a   4.60477930
_cell_length_b   4.60477879
_cell_length_c   7.50734303
_cell_angle_alpha   61.02176430
_cell_angle_beta   61.02176497
_cell_angle_gamma   39.29160074
_symmetry_Int_Tables_number   1
_chemical_formula_structural   ReSiP
_chemical_formula_sum   'Re2 Si2 P2'
_cell_volume   86.44578813
_cell_formula_units_Z   2
loop_
 _symmetry_equiv_pos_site_id
 _symmetry_equiv_pos_as_xyz
  1  'x, y, z'
loop_
 _atom_site_type_symbol
 _atom_site_label
 _atom_site_symmetry_multiplicity
 _atom_site_fract_x
 _atom_site_fract_y
 _atom_site_fract_z
 _atom_site_occupancy
  Re  Re0  1  0.165297  0.165297  0.783593  1
  Re  Re1  1  0.834703  0.834703  0.216407  1
  Si  Si2  1  0.390809  0.390809  0.906572  1
  Si  Si3  1  0.609191  0.609191  0.093428  1
  P  P4  1  0.866416  0.866416  0.521334  1
  P  P5  1  0.133584  0.133584  0.478666  1
