# generated using pymatgen
data_HfSc2Ti3(SiRu)6
_symmetry_space_group_name_H-M   'P 1'
_cell_length_a   7.51067906
_cell_length_b   7.51072408
_cell_length_c   7.51067905
_cell_angle_alpha   127.67463340
_cell_angle_beta   123.51656114
_cell_angle_gamma   80.59817996
_symmetry_Int_Tables_number   1
_chemical_formula_structural   HfSc2Ti3(SiRu)6
_chemical_formula_sum   'Hf1 Sc2 Ti3 Si6 Ru6'
_cell_volume   269.67497109
_cell_formula_units_Z   1
loop_
 _symmetry_equiv_pos_site_id
 _symmetry_equiv_pos_as_xyz
  1  'x, y, z'
loop_
 _atom_site_type_symbol
 _atom_site_label
 _atom_site_symmetry_multiplicity
 _atom_site_fract_x
 _atom_site_fract_y
 _atom_site_fract_z
 _atom_site_occupancy
  Hf  Hf0  1  0.033125  0.055361  0.522236  1
  Sc  Sc1  1  0.241764  0.904026  0.162262  1
  Sc  Sc2  1  0.968334  0.495417  0.027082  1
  Ti  Ti3  1  0.442080  0.482479  0.540399  1
  Ti  Ti4  1  0.757213  0.925807  0.668593  1
  Ti  Ti5  1  0.552791  0.107807  0.055015  1
  Si  Si6  1  0.777556  0.550035  0.272480  1
  Si  Si7  1  0.176414  0.161050  0.004759  1
  Si  Si8  1  0.656291  0.161050  0.484634  1
  Si  Si9  1  0.354545  0.825630  0.516310  1
  Si  Si10  1  0.230254  0.469830  0.739576  1
  Si  Si11  1  0.809321  0.825630  0.971085  1
  Ru  Ru12  1  0.522429  0.246145  0.769870  1
  Ru  Ru13  1  0.976275  0.246145  0.223716  1
  Ru  Ru14  1  0.841679  0.493472  0.587352  1
  Ru  Ru15  1  0.593065  0.749427  0.088684  1
  Ru  Ru16  1  0.406119  0.493472  0.151792  1
  Ru  Ru17  1  0.160743  0.749427  0.656364  1
