# generated using pymatgen
data_Lu5Al2HgC4
_symmetry_space_group_name_H-M   'P 1'
_cell_length_a   10.73929500
_cell_length_b   10.73929500
_cell_length_c   3.44020800
_cell_angle_alpha   90.00000000
_cell_angle_beta   90.00000000
_cell_angle_gamma   90.00000000
_symmetry_Int_Tables_number   1
_chemical_formula_structural   Lu5Al2HgC4
_chemical_formula_sum   'Lu10 Al4 Hg2 C8'
_cell_volume   396.76764156
_cell_formula_units_Z   2
loop_
 _symmetry_equiv_pos_site_id
 _symmetry_equiv_pos_as_xyz
  1  'x, y, z'
loop_
 _atom_site_type_symbol
 _atom_site_label
 _atom_site_symmetry_multiplicity
 _atom_site_fract_x
 _atom_site_fract_y
 _atom_site_fract_z
 _atom_site_occupancy
  Lu  Lu0  1  0.549107  0.734236  0.500000  1
  Lu  Lu1  1  0.450893  0.265764  0.500000  1
  Lu  Lu2  1  0.049107  0.765764  0.500000  1
  Lu  Lu3  1  0.950893  0.234236  0.500000  1
  Lu  Lu4  1  0.265764  0.549107  0.500000  1
  Lu  Lu5  1  0.734236  0.450893  0.500000  1
  Lu  Lu6  1  0.234236  0.049107  0.500000  1
  Lu  Lu7  1  0.765764  0.950893  0.500000  1
  Lu  Lu8  1  0.500000  0.000000  0.000000  1
  Lu  Lu9  1  0.000000  0.500000  0.000000  1
  Al  Al10  1  0.703704  0.203704  0.000000  1
  Al  Al11  1  0.296296  0.796296  0.000000  1
  Al  Al12  1  0.203704  0.296296  0.000000  1
  Al  Al13  1  0.796296  0.703704  0.000000  1
  Hg  Hg14  1  0.500000  0.500000  0.000000  1
  Hg  Hg15  1  0.000000  0.000000  0.000000  1
  C  C16  1  0.629414  0.129414  0.500000  1
  C  C17  1  0.370586  0.870586  0.500000  1
  C  C18  1  0.129414  0.370586  0.500000  1
  C  C19  1  0.870586  0.629414  0.500000  1
  C  C20  1  0.160165  0.660165  0.000000  1
  C  C21  1  0.839835  0.339835  0.000000  1
  C  C22  1  0.660165  0.839835  0.000000  1
  C  C23  1  0.339835  0.160165  0.000000  1
