# generated using pymatgen
data_BaI19
_symmetry_space_group_name_H-M   'P 1'
_cell_length_a   11.12300929
_cell_length_b   12.45741498
_cell_length_c   10.17789140
_cell_angle_alpha   65.77884295
_cell_angle_beta   76.15239121
_cell_angle_gamma   84.85816753
_symmetry_Int_Tables_number   1
_chemical_formula_structural   BaI19
_chemical_formula_sum   'Ba1 I19'
_cell_volume   1248.70001082
_cell_formula_units_Z   1
loop_
 _symmetry_equiv_pos_site_id
 _symmetry_equiv_pos_as_xyz
  1  'x, y, z'
loop_
 _atom_site_type_symbol
 _atom_site_label
 _atom_site_symmetry_multiplicity
 _atom_site_fract_x
 _atom_site_fract_y
 _atom_site_fract_z
 _atom_site_occupancy
  Ba  Ba0  1  0.868489  0.670108  0.284282  1
  I  I1  1  0.383763  0.493993  0.501003  1
  I  I2  1  0.873641  0.541991  0.031368  1
  I  I3  1  0.640022  0.423550  0.502085  1
  I  I4  1  0.118322  0.604160  0.027334  1
  I  I5  1  0.075497  0.640187  0.507074  1
  I  I6  1  0.597151  0.324372  0.018656  1
  I  I7  1  0.909955  0.365718  0.494582  1
  I  I8  1  0.362740  0.688321  0.032190  1
  I  I9  1  0.149052  0.857856  0.514461  1
  I  I10  1  0.707623  0.103977  0.987529  1
  I  I11  1  0.844424  0.140730  0.438104  1
  I  I12  1  0.256441  0.908746  0.041793  1
  I  I13  1  0.219708  0.066655  0.547541  1
  I  I14  1  0.800453  0.888102  0.961533  1
  I  I15  1  0.738723  0.953911  0.413171  1
  I  I16  1  0.139240  0.123248  0.060755  1
  I  I17  1  0.649651  0.701354  0.570749  1
  I  I18  1  0.260071  0.304932  0.783529  1
  I  I19  1  0.405035  0.198091  0.282263  1
