# generated using pymatgen
data_Dy12InGa(CoOs)2
_symmetry_space_group_name_H-M   'P 1'
_cell_length_a   8.39705284
_cell_length_b   8.39705390
_cell_length_c   8.39705345
_cell_angle_alpha   112.87034915
_cell_angle_beta   110.37767914
_cell_angle_gamma   105.25681232
_symmetry_Int_Tables_number   1
_chemical_formula_structural   Dy12InGa(CoOs)2
_chemical_formula_sum   'Dy12 In1 Ga1 Co2 Os2'
_cell_volume   453.71938307
_cell_formula_units_Z   1
loop_
 _symmetry_equiv_pos_site_id
 _symmetry_equiv_pos_as_xyz
  1  'x, y, z'
loop_
 _atom_site_type_symbol
 _atom_site_label
 _atom_site_symmetry_multiplicity
 _atom_site_fract_x
 _atom_site_fract_y
 _atom_site_fract_z
 _atom_site_occupancy
  Dy  Dy0  1  0.433055  0.239215  0.193841  1
  Dy  Dy1  1  0.566945  0.760785  0.806159  1
  Dy  Dy2  1  0.045373  0.239215  0.806159  1
  Dy  Dy3  1  0.954627  0.760785  0.193841  1
  Dy  Dy4  1  0.180059  0.280344  0.460405  1
  Dy  Dy5  1  0.819941  0.719656  0.539595  1
  Dy  Dy6  1  0.180059  0.719656  0.899714  1
  Dy  Dy7  1  0.819941  0.280344  0.100286  1
  Dy  Dy8  1  0.324764  0.642032  0.317268  1
  Dy  Dy9  1  0.675236  0.357968  0.682732  1
  Dy  Dy10  1  0.324764  0.007496  0.682732  1
  Dy  Dy11  1  0.675236  0.992504  0.317268  1
  In  In12  1  0.500000  0.500000  0.000000  1
  Ga  Ga13  1  0.000000  0.000000  0.000000  1
  Co  Co14  1  0.111213  0.611213  0.500000  1
  Co  Co15  1  0.888787  0.388787  0.500000  1
  Os  Os16  1  0.329043  0.000000  0.329043  1
  Os  Os17  1  0.670957  0.000000  0.670957  1
