# generated using pymatgen
data_La11PrSn4(GeRh2)4
_symmetry_space_group_name_H-M   'P 1'
_cell_length_a   5.82220786
_cell_length_b   8.52411368
_cell_length_c   13.82722800
_cell_angle_alpha   90.00000000
_cell_angle_beta   90.00000000
_cell_angle_gamma   90.09120502
_symmetry_Int_Tables_number   1
_chemical_formula_structural   La11PrSn4(GeRh2)4
_chemical_formula_sum   'La11 Pr1 Sn4 Ge4 Rh8'
_cell_volume   686.23286413
_cell_formula_units_Z   1
loop_
 _symmetry_equiv_pos_site_id
 _symmetry_equiv_pos_as_xyz
  1  'x, y, z'
loop_
 _atom_site_type_symbol
 _atom_site_label
 _atom_site_symmetry_multiplicity
 _atom_site_fract_x
 _atom_site_fract_y
 _atom_site_fract_z
 _atom_site_occupancy
  La  La0  1  0.644274  0.251744  0.250000  1
  La  La1  1  0.355047  0.747585  0.750000  1
  La  La2  1  0.355368  0.752270  0.250000  1
  La  La3  1  0.160677  0.395219  0.099918  1
  La  La4  1  0.839209  0.604240  0.900274  1
  La  La5  1  0.839209  0.604240  0.599726  1
  La  La6  1  0.839639  0.895661  0.400131  1
  La  La7  1  0.160677  0.395219  0.400082  1
  La  La8  1  0.160618  0.104651  0.600018  1
  La  La9  1  0.160618  0.104651  0.899982  1
  La  La10  1  0.839639  0.895661  0.099869  1
  Pr  Pr11  1  0.646424  0.248258  0.750000  1
  Sn  Sn12  1  0.657292  0.249943  0.999188  1
  Sn  Sn13  1  0.343311  0.750043  0.999938  1
  Sn  Sn14  1  0.343311  0.750043  0.500062  1
  Sn  Sn15  1  0.657292  0.249943  0.500812  1
  Ge  Ge16  1  0.146009  0.104411  0.250000  1
  Ge  Ge17  1  0.851942  0.897373  0.750000  1
  Ge  Ge18  1  0.853888  0.604932  0.250000  1
  Ge  Ge19  1  0.147213  0.392998  0.750000  1
  Rh  Rh20  1  0.377846  0.038212  0.095919  1
  Rh  Rh21  1  0.622091  0.961977  0.903996  1
  Rh  Rh22  1  0.622091  0.961977  0.596004  1
  Rh  Rh23  1  0.622520  0.537957  0.404273  1
  Rh  Rh24  1  0.377846  0.038212  0.404081  1
  Rh  Rh25  1  0.376716  0.462312  0.595894  1
  Rh  Rh26  1  0.376716  0.462312  0.904106  1
  Rh  Rh27  1  0.622520  0.537957  0.095727  1
