# generated using pymatgen
data_Na2Cu17Si8Ni
_symmetry_space_group_name_H-M   'P 1'
_cell_length_a   8.16588392
_cell_length_b   8.16588460
_cell_length_c   8.11717254
_cell_angle_alpha   120.61631136
_cell_angle_beta   120.61631177
_cell_angle_gamma   89.28396939
_symmetry_Int_Tables_number   1
_chemical_formula_structural   Na2Cu17Si8Ni
_chemical_formula_sum   'Na2 Cu17 Si8 Ni1'
_cell_volume   377.95026620
_cell_formula_units_Z   1
loop_
 _symmetry_equiv_pos_site_id
 _symmetry_equiv_pos_as_xyz
  1  'x, y, z'
loop_
 _atom_site_type_symbol
 _atom_site_label
 _atom_site_symmetry_multiplicity
 _atom_site_fract_x
 _atom_site_fract_y
 _atom_site_fract_z
 _atom_site_occupancy
  Na  Na0  1  0.250000  0.250000  0.000000  1
  Na  Na1  1  0.750000  0.750000  0.000000  1
  Cu  Cu2  1  0.934951  0.203819  0.138770  1
  Cu  Cu3  1  0.202407  0.066947  0.269354  1
  Cu  Cu4  1  0.797593  0.933053  0.730646  1
  Cu  Cu5  1  0.433053  0.297593  0.730646  1
  Cu  Cu6  1  0.065049  0.796181  0.861230  1
  Cu  Cu7  1  0.810161  0.058505  0.500000  1
  Cu  Cu8  1  0.558505  0.310161  0.500000  1
  Cu  Cu9  1  0.189839  0.941495  0.500000  1
  Cu  Cu10  1  0.441495  0.689839  0.500000  1
  Cu  Cu11  1  0.943760  0.443760  0.757462  1
  Cu  Cu12  1  0.686297  0.186297  0.242538  1
  Cu  Cu13  1  0.056240  0.556240  0.242538  1
  Cu  Cu14  1  0.703819  0.434951  0.138770  1
  Cu  Cu15  1  0.566947  0.702407  0.269354  1
  Cu  Cu16  1  0.000000  0.500000  0.500000  1
  Cu  Cu17  1  0.313703  0.813703  0.757462  1
  Cu  Cu18  1  0.296181  0.565049  0.861230  1
  Si  Si19  1  0.784734  0.284734  0.843042  1
  Si  Si20  1  0.558308  0.058308  0.843042  1
  Si  Si21  1  0.058278  0.208285  0.500000  1
  Si  Si22  1  0.291715  0.441722  0.500000  1
  Si  Si23  1  0.941722  0.791715  0.500000  1
  Si  Si24  1  0.441692  0.941692  0.156958  1
  Si  Si25  1  0.215266  0.715266  0.156958  1
  Si  Si26  1  0.708285  0.558278  0.500000  1
  Ni  Ni27  1  0.500000  0.000000  0.500000  1
