# generated using pymatgen
data_HoEr3(WO6)2
_symmetry_space_group_name_H-M   'P 1'
_cell_length_a   5.36216600
_cell_length_b   7.66620670
_cell_length_c   11.40789900
_cell_angle_alpha   75.33627585
_cell_angle_beta   90.00000000
_cell_angle_gamma   90.00000000
_symmetry_Int_Tables_number   1
_chemical_formula_structural   HoEr3(WO6)2
_chemical_formula_sum   'Ho2 Er6 W4 O24'
_cell_volume   453.67536675
_cell_formula_units_Z   2
loop_
 _symmetry_equiv_pos_site_id
 _symmetry_equiv_pos_as_xyz
  1  'x, y, z'
loop_
 _atom_site_type_symbol
 _atom_site_label
 _atom_site_symmetry_multiplicity
 _atom_site_fract_x
 _atom_site_fract_y
 _atom_site_fract_z
 _atom_site_occupancy
  Ho  Ho0  1  0.684316  0.500000  0.250000  1
  Ho  Ho1  1  0.315684  0.500000  0.750000  1
  Er  Er2  1  0.183493  0.205683  0.421765  1
  Er  Er3  1  0.183493  0.794317  0.078235  1
  Er  Er4  1  0.816507  0.794317  0.578235  1
  Er  Er5  1  0.816507  0.205683  0.921765  1
  Er  Er6  1  0.740145  0.000000  0.250000  1
  Er  Er7  1  0.259855  0.000000  0.750000  1
  W  W8  1  0.256149  0.276337  0.114818  1
  W  W9  1  0.256149  0.723663  0.385182  1
  W  W10  1  0.743851  0.723663  0.885182  1
  W  W11  1  0.743851  0.276337  0.614818  1
  O  O12  1  0.458817  0.208051  0.273772  1
  O  O13  1  0.458817  0.791949  0.226228  1
  O  O14  1  0.541183  0.791949  0.726228  1
  O  O15  1  0.541183  0.208051  0.773772  1
  O  O16  1  0.043565  0.059518  0.104595  1
  O  O17  1  0.043565  0.940482  0.395405  1
  O  O18  1  0.956435  0.940482  0.895405  1
  O  O19  1  0.956435  0.059518  0.604595  1
  O  O20  1  0.979785  0.289239  0.228934  1
  O  O21  1  0.979785  0.710761  0.271066  1
  O  O22  1  0.020215  0.710761  0.771066  1
  O  O23  1  0.020215  0.289239  0.728934  1
  O  O24  1  0.849084  0.365854  0.451010  1
  O  O25  1  0.849084  0.634146  0.048990  1
  O  O26  1  0.150916  0.634146  0.548990  1
  O  O27  1  0.150916  0.365854  0.951010  1
  O  O28  1  0.638770  0.511156  0.614628  1
  O  O29  1  0.638770  0.488844  0.885372  1
  O  O30  1  0.361230  0.488844  0.385372  1
  O  O31  1  0.361230  0.511156  0.114628  1
  O  O32  1  0.463727  0.152895  0.569429  1
  O  O33  1  0.463727  0.847105  0.930571  1
  O  O34  1  0.536273  0.847105  0.430571  1
  O  O35  1  0.536273  0.152895  0.069429  1
