# generated using pymatgen
data_BaSm2(H6Ru)2
_symmetry_space_group_name_H-M   'P 1'
_cell_length_a   5.06251900
_cell_length_b   5.06252006
_cell_length_c   8.59170500
_cell_angle_alpha   90.00000000
_cell_angle_beta   90.00000000
_cell_angle_gamma   119.99999959
_symmetry_Int_Tables_number   1
_chemical_formula_structural   BaSm2(H6Ru)2
_chemical_formula_sum   'Ba1 Sm2 H12 Ru2'
_cell_volume   190.69680375
_cell_formula_units_Z   1
loop_
 _symmetry_equiv_pos_site_id
 _symmetry_equiv_pos_as_xyz
  1  'x, y, z'
loop_
 _atom_site_type_symbol
 _atom_site_label
 _atom_site_symmetry_multiplicity
 _atom_site_fract_x
 _atom_site_fract_y
 _atom_site_fract_z
 _atom_site_occupancy
  Ba  Ba0  1  0.000000  0.000000  0.000000  1
  Sm  Sm1  1  0.666667  0.333333  0.364849  1
  Sm  Sm2  1  0.333333  0.666667  0.635151  1
  H  H3  1  0.169084  0.830916  0.383603  1
  H  H4  1  0.661831  0.830916  0.383603  1
  H  H5  1  0.169084  0.338169  0.383603  1
  H  H6  1  0.830916  0.169084  0.616397  1
  H  H7  1  0.338169  0.169084  0.616397  1
  H  H8  1  0.830916  0.661831  0.616397  1
  H  H9  1  0.510308  0.020617  0.845126  1
  H  H10  1  0.510308  0.489692  0.845126  1
  H  H11  1  0.979383  0.489692  0.845126  1
  H  H12  1  0.489692  0.979383  0.154874  1
  H  H13  1  0.489692  0.510308  0.154874  1
  H  H14  1  0.020617  0.510308  0.154874  1
  Ru  Ru15  1  0.666667  0.333333  0.724462  1
  Ru  Ru16  1  0.333333  0.666667  0.275538  1
