# generated using pymatgen
data_Tb2Y2Tc3B8Os
_symmetry_space_group_name_H-M   'P 1'
_cell_length_a   5.95983518
_cell_length_b   5.31116900
_cell_length_c   6.45074801
_cell_angle_alpha   90.00000000
_cell_angle_beta   90.32808770
_cell_angle_gamma   90.00000000
_symmetry_Int_Tables_number   1
_chemical_formula_structural   Tb2Y2Tc3B8Os
_chemical_formula_sum   'Tb2 Y2 Tc3 B8 Os1'
_cell_volume   204.18664199
_cell_formula_units_Z   1
loop_
 _symmetry_equiv_pos_site_id
 _symmetry_equiv_pos_as_xyz
  1  'x, y, z'
loop_
 _atom_site_type_symbol
 _atom_site_label
 _atom_site_symmetry_multiplicity
 _atom_site_fract_x
 _atom_site_fract_y
 _atom_site_fract_z
 _atom_site_occupancy
  Tb  Tb0  1  0.013882  0.250000  0.339058  1
  Tb  Tb1  1  0.513456  0.250000  0.160323  1
  Y  Y2  1  0.985117  0.750000  0.663009  1
  Y  Y3  1  0.485020  0.750000  0.837125  1
  Tc  Tc4  1  0.181230  0.250000  0.814661  1
  Tc  Tc5  1  0.679095  0.250000  0.683569  1
  Tc  Tc6  1  0.820143  0.750000  0.185565  1
  B  B7  1  0.369665  0.078514  0.536750  1
  B  B8  1  0.871529  0.420903  0.963446  1
  B  B9  1  0.630131  0.580644  0.463449  1
  B  B10  1  0.131179  0.920278  0.037420  1
  B  B11  1  0.630131  0.919356  0.463449  1
  B  B12  1  0.131179  0.579722  0.037420  1
  B  B13  1  0.369665  0.421486  0.536750  1
  B  B14  1  0.871529  0.079097  0.963446  1
  Os  Os15  1  0.317048  0.750000  0.314559  1
