# generated using pymatgen
data_Ho4TmHf3(Co4P3)4
_symmetry_space_group_name_H-M   'P 1'
_cell_length_a   12.26161204
_cell_length_b   12.26161074
_cell_length_c   3.69940900
_cell_angle_alpha   90.00000000
_cell_angle_beta   90.00000000
_cell_angle_gamma   120.00934892
_symmetry_Int_Tables_number   1
_chemical_formula_structural   Ho4TmHf3(Co4P3)4
_chemical_formula_sum   'Ho4 Tm1 Hf3 Co16 P12'
_cell_volume   481.63401993
_cell_formula_units_Z   1
loop_
 _symmetry_equiv_pos_site_id
 _symmetry_equiv_pos_as_xyz
  1  'x, y, z'
loop_
 _atom_site_type_symbol
 _atom_site_label
 _atom_site_symmetry_multiplicity
 _atom_site_fract_x
 _atom_site_fract_y
 _atom_site_fract_z
 _atom_site_occupancy
  Ho  Ho0  1  0.666705  0.333344  0.000000  1
  Ho  Ho1  1  0.333344  0.666705  0.000000  1
  Ho  Ho2  1  0.182669  0.999961  0.500000  1
  Ho  Ho3  1  0.999961  0.182669  0.500000  1
  Tm  Tm4  1  0.817228  0.817228  0.500000  1
  Hf  Hf5  1  0.441033  0.441033  0.000000  1
  Hf  Hf6  1  0.559055  0.999995  0.000000  1
  Hf  Hf7  1  0.999995  0.559055  0.000000  1
  Co  Co8  1  0.875404  0.355999  0.500000  1
  Co  Co9  1  0.644053  0.519509  0.500000  1
  Co  Co10  1  0.480613  0.124560  0.500000  1
  Co  Co11  1  0.355999  0.875404  0.500000  1
  Co  Co12  1  0.519509  0.644053  0.500000  1
  Co  Co13  1  0.124560  0.480613  0.500000  1
  Co  Co14  1  0.804545  0.178255  0.000000  1
  Co  Co15  1  0.821720  0.626600  0.000000  1
  Co  Co16  1  0.373700  0.195455  0.000000  1
  Co  Co17  1  0.178255  0.804545  0.000000  1
  Co  Co18  1  0.626600  0.821720  0.000000  1
  Co  Co19  1  0.195455  0.373700  0.000000  1
  Co  Co20  1  0.278489  0.278489  0.500000  1
  Co  Co21  1  0.721580  0.999838  0.500000  1
  Co  Co22  1  0.999838  0.721580  0.500000  1
  Co  Co23  1  0.999583  0.999583  0.000000  1
  P  P24  1  0.692356  0.171641  0.500000  1
  P  P25  1  0.828355  0.520659  0.500000  1
  P  P26  1  0.479295  0.307682  0.500000  1
  P  P27  1  0.171641  0.692356  0.500000  1
  P  P28  1  0.520659  0.828355  0.500000  1
  P  P29  1  0.307682  0.479295  0.500000  1
  P  P30  1  0.177915  0.177915  0.000000  1
  P  P31  1  0.822119  0.999602  0.000000  1
  P  P32  1  0.999602  0.822119  0.000000  1
  P  P33  1  0.648624  0.648624  0.000000  1
  P  P34  1  0.351866  0.999991  0.000000  1
  P  P35  1  0.999991  0.351866  0.000000  1
