# generated using pymatgen
data_Ac3CdAg(HgAu)2
_symmetry_space_group_name_H-M   'P 1'
_cell_length_a   8.37161645
_cell_length_b   8.37161622
_cell_length_c   4.14039300
_cell_angle_alpha   90.00000000
_cell_angle_beta   90.00000000
_cell_angle_gamma   120.46517941
_symmetry_Int_Tables_number   1
_chemical_formula_structural   Ac3CdAg(HgAu)2
_chemical_formula_sum   'Ac3 Cd1 Ag1 Hg2 Au2'
_cell_volume   250.11281798
_cell_formula_units_Z   1
loop_
 _symmetry_equiv_pos_site_id
 _symmetry_equiv_pos_as_xyz
  1  'x, y, z'
loop_
 _atom_site_type_symbol
 _atom_site_label
 _atom_site_symmetry_multiplicity
 _atom_site_fract_x
 _atom_site_fract_y
 _atom_site_fract_z
 _atom_site_occupancy
  Ac  Ac0  1  0.591598  0.006865  0.000000  1
  Ac  Ac1  1  0.006865  0.591598  0.000000  1
  Ac  Ac2  1  0.400848  0.400848  0.000000  1
  Cd  Cd3  1  0.746091  0.746091  0.500000  1
  Ag  Ag4  1  0.993256  0.993256  0.000000  1
  Hg  Hg5  1  0.254659  0.995062  0.500000  1
  Hg  Hg6  1  0.995062  0.254659  0.500000  1
  Au  Au7  1  0.344237  0.667384  0.500000  1
  Au  Au8  1  0.667384  0.344237  0.500000  1
