# generated using pymatgen
data_Er3MnSi3Ru
_symmetry_space_group_name_H-M   'P 1'
_cell_length_a   5.71295526
_cell_length_b   5.71295524
_cell_length_c   13.65084856
_cell_angle_alpha   89.87376081
_cell_angle_beta   90.12623923
_cell_angle_gamma   137.62985043
_symmetry_Int_Tables_number   1
_chemical_formula_structural   Er3MnSi3Ru
_chemical_formula_sum   'Er6 Mn2 Si6 Ru2'
_cell_volume   300.25265724
_cell_formula_units_Z   2
loop_
 _symmetry_equiv_pos_site_id
 _symmetry_equiv_pos_as_xyz
  1  'x, y, z'
loop_
 _atom_site_type_symbol
 _atom_site_label
 _atom_site_symmetry_multiplicity
 _atom_site_fract_x
 _atom_site_fract_y
 _atom_site_fract_z
 _atom_site_occupancy
  Er  Er0  1  0.640174  0.359826  0.250376  1
  Er  Er1  1  0.359826  0.640174  0.749624  1
  Er  Er2  1  0.923852  0.076148  0.115190  1
  Er  Er3  1  0.076148  0.923852  0.884810  1
  Er  Er4  1  0.077551  0.922449  0.614266  1
  Er  Er5  1  0.922449  0.077551  0.385734  1
  Mn  Mn6  1  0.782082  0.217918  0.580770  1
  Mn  Mn7  1  0.217918  0.782082  0.419230  1
  Si  Si8  1  0.330924  0.669076  0.249355  1
  Si  Si9  1  0.669076  0.330924  0.750645  1
  Si  Si10  1  0.616093  0.383907  0.038532  1
  Si  Si11  1  0.383907  0.616093  0.961468  1
  Si  Si12  1  0.390814  0.609186  0.538687  1
  Si  Si13  1  0.609186  0.390814  0.461313  1
  Ru  Ru14  1  0.213066  0.786934  0.081640  1
  Ru  Ru15  1  0.786934  0.213066  0.918360  1
