# generated using pymatgen
data_Dy4Al4PdRh3
_symmetry_space_group_name_H-M   'P 1'
_cell_length_a   4.24195200
_cell_length_b   6.91724254
_cell_length_c   7.96445664
_cell_angle_alpha   89.95432487
_cell_angle_beta   90.00000000
_cell_angle_gamma   90.00000000
_symmetry_Int_Tables_number   1
_chemical_formula_structural   Dy4Al4PdRh3
_chemical_formula_sum   'Dy4 Al4 Pd1 Rh3'
_cell_volume   233.69787749
_cell_formula_units_Z   1
loop_
 _symmetry_equiv_pos_site_id
 _symmetry_equiv_pos_as_xyz
  1  'x, y, z'
loop_
 _atom_site_type_symbol
 _atom_site_label
 _atom_site_symmetry_multiplicity
 _atom_site_fract_x
 _atom_site_fract_y
 _atom_site_fract_z
 _atom_site_occupancy
  Dy  Dy0  1  0.250000  0.032410  0.323503  1
  Dy  Dy1  1  0.250000  0.541304  0.181093  1
  Dy  Dy2  1  0.750000  0.965208  0.679817  1
  Dy  Dy3  1  0.750000  0.467193  0.816521  1
  Al  Al4  1  0.250000  0.134218  0.935893  1
  Al  Al5  1  0.250000  0.636063  0.561145  1
  Al  Al6  1  0.750000  0.860055  0.061033  1
  Al  Al7  1  0.750000  0.366151  0.440882  1
  Pd  Pd8  1  0.750000  0.231808  0.120743  1
  Rh  Rh9  1  0.250000  0.264830  0.619536  1
  Rh  Rh10  1  0.250000  0.763977  0.880763  1
  Rh  Rh11  1  0.750000  0.736784  0.379071  1
