# generated using pymatgen
data_TaAl2NiPt8
_symmetry_space_group_name_H-M   'P 1'
_cell_length_a   3.95898700
_cell_length_b   3.95898700
_cell_length_c   11.50889900
_cell_angle_alpha   90.00000000
_cell_angle_beta   90.00000000
_cell_angle_gamma   90.00000000
_symmetry_Int_Tables_number   1
_chemical_formula_structural   TaAl2NiPt8
_chemical_formula_sum   'Ta1 Al2 Ni1 Pt8'
_cell_volume   180.38562693
_cell_formula_units_Z   1
loop_
 _symmetry_equiv_pos_site_id
 _symmetry_equiv_pos_as_xyz
  1  'x, y, z'
loop_
 _atom_site_type_symbol
 _atom_site_label
 _atom_site_symmetry_multiplicity
 _atom_site_fract_x
 _atom_site_fract_y
 _atom_site_fract_z
 _atom_site_occupancy
  Ta  Ta0  1  0.000000  0.000000  0.995785  1
  Al  Al1  1  0.000000  0.000000  0.345913  1
  Al  Al2  1  0.000000  0.000000  0.660801  1
  Ni  Ni3  1  0.500000  0.500000  0.665539  1
  Pt  Pt4  1  0.500000  0.500000  0.995101  1
  Pt  Pt5  1  0.500000  0.500000  0.338650  1
  Pt  Pt6  1  0.500000  0.000000  0.165779  1
  Pt  Pt7  1  0.500000  0.000000  0.511513  1
  Pt  Pt8  1  0.500000  0.000000  0.821813  1
  Pt  Pt9  1  0.000000  0.500000  0.165779  1
  Pt  Pt10  1  0.000000  0.500000  0.511513  1
  Pt  Pt11  1  0.000000  0.500000  0.821813  1
