# generated using pymatgen
data_TmFe(PIr)2
_symmetry_space_group_name_H-M   'P 1'
_cell_length_a   3.86555100
_cell_length_b   11.09583600
_cell_length_c   12.47058000
_cell_angle_alpha   90.00000000
_cell_angle_beta   90.00000000
_cell_angle_gamma   90.00000000
_symmetry_Int_Tables_number   1
_chemical_formula_structural   TmFe(PIr)2
_chemical_formula_sum   'Tm6 Fe6 P12 Ir12'
_cell_volume   534.88213080
_cell_formula_units_Z   6
loop_
 _symmetry_equiv_pos_site_id
 _symmetry_equiv_pos_as_xyz
  1  'x, y, z'
loop_
 _atom_site_type_symbol
 _atom_site_label
 _atom_site_symmetry_multiplicity
 _atom_site_fract_x
 _atom_site_fract_y
 _atom_site_fract_z
 _atom_site_occupancy
  Tm  Tm0  1  0.000000  0.500000  0.519759  1
  Tm  Tm1  1  0.500000  0.000000  0.480277  1
  Tm  Tm2  1  0.500000  0.816876  0.197487  1
  Tm  Tm3  1  0.500000  0.183124  0.197487  1
  Tm  Tm4  1  0.000000  0.675473  0.803278  1
  Tm  Tm5  1  0.000000  0.324527  0.803278  1
  Fe  Fe6  1  0.500000  0.500000  0.157614  1
  Fe  Fe7  1  0.000000  0.000000  0.838494  1
  Fe  Fe8  1  0.000000  0.500000  0.987515  1
  Fe  Fe9  1  0.500000  0.000000  0.008729  1
  Fe  Fe10  1  0.500000  0.337187  0.996505  1
  Fe  Fe11  1  0.500000  0.662813  0.996505  1
  P  P12  1  0.500000  0.500000  0.893863  1
  P  P13  1  0.000000  0.000000  0.114005  1
  P  P14  1  0.500000  0.500000  0.340766  1
  P  P15  1  0.000000  0.000000  0.658176  1
  P  P16  1  0.500000  0.313609  0.622641  1
  P  P17  1  0.500000  0.686391  0.622641  1
  P  P18  1  0.000000  0.187253  0.378068  1
  P  P19  1  0.000000  0.812747  0.378068  1
  P  P20  1  0.500000  0.839570  0.899563  1
  P  P21  1  0.500000  0.160430  0.899563  1
  P  P22  1  0.000000  0.649400  0.097010  1
  P  P23  1  0.000000  0.350600  0.097010  1
  Ir  Ir24  1  0.500000  0.500000  0.702417  1
  Ir  Ir25  1  0.000000  0.000000  0.299212  1
  Ir  Ir26  1  0.000000  0.167468  0.005038  1
  Ir  Ir27  1  0.000000  0.832532  0.005038  1
  Ir  Ir28  1  0.500000  0.296239  0.429355  1
  Ir  Ir29  1  0.500000  0.703761  0.429355  1
  Ir  Ir30  1  0.000000  0.205114  0.571296  1
  Ir  Ir31  1  0.000000  0.794886  0.571296  1
  Ir  Ir32  1  0.500000  0.872556  0.718166  1
  Ir  Ir33  1  0.500000  0.127444  0.718166  1
  Ir  Ir34  1  0.000000  0.626975  0.281180  1
  Ir  Ir35  1  0.000000  0.373025  0.281180  1
