# generated using pymatgen
data_Dy3ZnAg3Ge2
_symmetry_space_group_name_H-M   'P 1'
_cell_length_a   7.21815600
_cell_length_b   7.21815510
_cell_length_c   4.15898500
_cell_angle_alpha   90.00000000
_cell_angle_beta   90.00000000
_cell_angle_gamma   119.99999497
_symmetry_Int_Tables_number   1
_chemical_formula_structural   Dy3ZnAg3Ge2
_chemical_formula_sum   'Dy3 Zn1 Ag3 Ge2'
_cell_volume   187.65946817
_cell_formula_units_Z   1
loop_
 _symmetry_equiv_pos_site_id
 _symmetry_equiv_pos_as_xyz
  1  'x, y, z'
loop_
 _atom_site_type_symbol
 _atom_site_label
 _atom_site_symmetry_multiplicity
 _atom_site_fract_x
 _atom_site_fract_y
 _atom_site_fract_z
 _atom_site_occupancy
  Dy  Dy0  1  0.000000  0.582236  0.000000  1
  Dy  Dy1  1  0.582236  0.000000  0.000000  1
  Dy  Dy2  1  0.417764  0.417764  0.000000  1
  Zn  Zn3  1  0.000000  0.000000  0.000000  1
  Ag  Ag4  1  0.752054  0.752054  0.500000  1
  Ag  Ag5  1  0.247946  0.000000  0.500000  1
  Ag  Ag6  1  0.000000  0.247946  0.500000  1
  Ge  Ge7  1  0.666667  0.333333  0.500000  1
  Ge  Ge8  1  0.333333  0.666667  0.500000  1
