# generated using pymatgen
data_DyHo5(ScAu5)2
_symmetry_space_group_name_H-M   'P 1'
_cell_length_a   7.90034049
_cell_length_b   7.90108675
_cell_length_c   7.89944805
_cell_angle_alpha   66.25519561
_cell_angle_beta   66.26549284
_cell_angle_gamma   66.24884534
_symmetry_Int_Tables_number   1
_chemical_formula_structural   DyHo5(ScAu5)2
_chemical_formula_sum   'Dy1 Ho5 Sc2 Au10'
_cell_volume   395.76419094
_cell_formula_units_Z   1
loop_
 _symmetry_equiv_pos_site_id
 _symmetry_equiv_pos_as_xyz
  1  'x, y, z'
loop_
 _atom_site_type_symbol
 _atom_site_label
 _atom_site_symmetry_multiplicity
 _atom_site_fract_x
 _atom_site_fract_y
 _atom_site_fract_z
 _atom_site_occupancy
  Dy  Dy0  1  0.891503  0.189063  0.618546  1
  Ho  Ho1  1  0.618563  0.891528  0.189056  1
  Ho  Ho2  1  0.189068  0.618563  0.891549  1
  Ho  Ho3  1  0.108475  0.810914  0.381390  1
  Ho  Ho4  1  0.381325  0.108482  0.810940  1
  Ho  Ho5  1  0.810954  0.381392  0.108485  1
  Sc  Sc6  1  0.658543  0.658637  0.658594  1
  Sc  Sc7  1  0.341549  0.341383  0.341394  1
  Au  Au8  1  0.000041  0.999865  0.000247  1
  Au  Au9  1  0.499931  0.500096  0.499945  1
  Au  Au10  1  0.806800  0.806592  0.806998  1
  Au  Au11  1  0.193241  0.193109  0.193038  1
  Au  Au12  1  0.937173  0.551402  0.317519  1
  Au  Au13  1  0.317984  0.937044  0.551058  1
  Au  Au14  1  0.550884  0.317877  0.937299  1
  Au  Au15  1  0.062948  0.449019  0.682221  1
  Au  Au16  1  0.682137  0.062809  0.448836  1
  Au  Au17  1  0.448883  0.682226  0.062885  1
