# generated using pymatgen
data_Th2Be2NbRu5
_symmetry_space_group_name_H-M   'P 1'
_cell_length_a   9.85275400
_cell_length_b   9.85275400
_cell_length_c   3.31258600
_cell_angle_alpha   90.00000000
_cell_angle_beta   90.00000000
_cell_angle_gamma   90.00000000
_symmetry_Int_Tables_number   1
_chemical_formula_structural   Th2Be2NbRu5
_chemical_formula_sum   'Th4 Be4 Nb2 Ru10'
_cell_volume   321.57512069
_cell_formula_units_Z   2
loop_
 _symmetry_equiv_pos_site_id
 _symmetry_equiv_pos_as_xyz
  1  'x, y, z'
loop_
 _atom_site_type_symbol
 _atom_site_label
 _atom_site_symmetry_multiplicity
 _atom_site_fract_x
 _atom_site_fract_y
 _atom_site_fract_z
 _atom_site_occupancy
  Th  Th0  1  0.825927  0.674073  0.000000  1
  Th  Th1  1  0.174073  0.325927  0.000000  1
  Th  Th2  1  0.325927  0.825927  0.000000  1
  Th  Th3  1  0.674073  0.174073  0.000000  1
  Be  Be4  1  0.620468  0.879532  0.000000  1
  Be  Be5  1  0.379532  0.120468  0.000000  1
  Be  Be6  1  0.120468  0.620468  0.000000  1
  Be  Be7  1  0.879532  0.379532  0.000000  1
  Nb  Nb8  1  0.500000  0.500000  0.000000  1
  Nb  Nb9  1  0.000000  0.000000  0.000000  1
  Ru  Ru10  1  0.572001  0.709958  0.500000  1
  Ru  Ru11  1  0.427999  0.290042  0.500000  1
  Ru  Ru12  1  0.072001  0.790042  0.500000  1
  Ru  Ru13  1  0.927999  0.209958  0.500000  1
  Ru  Ru14  1  0.290042  0.572001  0.500000  1
  Ru  Ru15  1  0.709958  0.427999  0.500000  1
  Ru  Ru16  1  0.209958  0.072001  0.500000  1
  Ru  Ru17  1  0.790042  0.927999  0.500000  1
  Ru  Ru18  1  0.500000  0.000000  0.500000  1
  Ru  Ru19  1  0.000000  0.500000  0.500000  1
