# generated using pymatgen
data_Tm8Lu2Os3Ru
_symmetry_space_group_name_H-M   'P 1'
_cell_length_a   6.25022969
_cell_length_b   7.28760259
_cell_length_c   8.28035527
_cell_angle_alpha   96.97521128
_cell_angle_beta   112.16424557
_cell_angle_gamma   89.93074382
_symmetry_Int_Tables_number   1
_chemical_formula_structural   Tm8Lu2Os3Ru
_chemical_formula_sum   'Tm8 Lu2 Os3 Ru1'
_cell_volume   346.29981278
_cell_formula_units_Z   1
loop_
 _symmetry_equiv_pos_site_id
 _symmetry_equiv_pos_as_xyz
  1  'x, y, z'
loop_
 _atom_site_type_symbol
 _atom_site_label
 _atom_site_symmetry_multiplicity
 _atom_site_fract_x
 _atom_site_fract_y
 _atom_site_fract_z
 _atom_site_occupancy
  Tm  Tm0  1  0.523803  0.083301  0.815630  1
  Tm  Tm1  1  0.475840  0.916393  0.181556  1
  Tm  Tm2  1  0.707469  0.415921  0.181704  1
  Tm  Tm3  1  0.291608  0.582680  0.817629  1
  Tm  Tm4  1  0.300203  0.316995  0.435952  1
  Tm  Tm5  1  0.700968  0.683905  0.564588  1
  Tm  Tm6  1  0.862814  0.184886  0.565600  1
  Tm  Tm7  1  0.136054  0.816144  0.435412  1
  Lu  Lu8  1  0.079650  0.250644  0.999985  1
  Lu  Lu9  1  0.920911  0.749365  0.999476  1
  Os  Os10  1  0.320367  0.578089  0.218247  1
  Os  Os11  1  0.680103  0.421908  0.782692  1
  Os  Os12  1  0.101884  0.922788  0.781707  1
  Ru  Ru13  1  0.898325  0.076981  0.219822  1
