# generated using pymatgen
data_Ti3Ga2PdC
_symmetry_space_group_name_H-M   'P 1'
_cell_length_a   8.23525608
_cell_length_b   8.23525662
_cell_length_c   8.23525600
_cell_angle_alpha   60.00000250
_cell_angle_beta   60.00000034
_cell_angle_gamma   60.00000007
_symmetry_Int_Tables_number   1
_chemical_formula_structural   Ti3Ga2PdC
_chemical_formula_sum   'Ti12 Ga8 Pd4 C4'
_cell_volume   394.92657732
_cell_formula_units_Z   4
loop_
 _symmetry_equiv_pos_site_id
 _symmetry_equiv_pos_as_xyz
  1  'x, y, z'
loop_
 _atom_site_type_symbol
 _atom_site_label
 _atom_site_symmetry_multiplicity
 _atom_site_fract_x
 _atom_site_fract_y
 _atom_site_fract_z
 _atom_site_occupancy
  Ti  Ti0  1  0.934517  0.934517  0.565483  1
  Ti  Ti1  1  0.684517  0.315483  0.315483  1
  Ti  Ti2  1  0.315483  0.684517  0.684517  1
  Ti  Ti3  1  0.684517  0.684517  0.315483  1
  Ti  Ti4  1  0.684517  0.315483  0.684517  1
  Ti  Ti5  1  0.315483  0.684517  0.315483  1
  Ti  Ti6  1  0.565483  0.934517  0.565483  1
  Ti  Ti7  1  0.565483  0.934517  0.934517  1
  Ti  Ti8  1  0.934517  0.565483  0.565483  1
  Ti  Ti9  1  0.934517  0.565483  0.934517  1
  Ti  Ti10  1  0.315483  0.315483  0.684517  1
  Ti  Ti11  1  0.565483  0.565483  0.934517  1
  Ga  Ga12  1  0.911920  0.264240  0.911920  1
  Ga  Ga13  1  0.338080  0.338080  0.985760  1
  Ga  Ga14  1  0.985760  0.338080  0.338080  1
  Ga  Ga15  1  0.338080  0.338080  0.338080  1
  Ga  Ga16  1  0.264240  0.911920  0.911920  1
  Ga  Ga17  1  0.911920  0.911920  0.911920  1
  Ga  Ga18  1  0.911920  0.911920  0.264240  1
  Ga  Ga19  1  0.338080  0.985760  0.338080  1
  Pd  Pd20  1  0.125000  0.625000  0.125000  1
  Pd  Pd21  1  0.125000  0.125000  0.625000  1
  Pd  Pd22  1  0.625000  0.125000  0.125000  1
  Pd  Pd23  1  0.125000  0.125000  0.125000  1
  C  C24  1  0.625000  0.125000  0.625000  1
  C  C25  1  0.625000  0.625000  0.125000  1
  C  C26  1  0.125000  0.625000  0.625000  1
  C  C27  1  0.625000  0.625000  0.625000  1
