# generated using pymatgen
data_SmY4(MnB3)2
_symmetry_space_group_name_H-M   'P 1'
_cell_length_a   8.28437940
_cell_length_b   8.28438014
_cell_length_c   8.28437895
_cell_angle_alpha   38.39944355
_cell_angle_beta   38.39943807
_cell_angle_gamma   38.39943856
_symmetry_Int_Tables_number   1
_chemical_formula_structural   SmY4(MnB3)2
_chemical_formula_sum   'Sm1 Y4 Mn2 B6'
_cell_volume   197.05348128
_cell_formula_units_Z   1
loop_
 _symmetry_equiv_pos_site_id
 _symmetry_equiv_pos_as_xyz
  1  'x, y, z'
loop_
 _atom_site_type_symbol
 _atom_site_label
 _atom_site_symmetry_multiplicity
 _atom_site_fract_x
 _atom_site_fract_y
 _atom_site_fract_z
 _atom_site_occupancy
  Sm  Sm0  1  0.000000  0.000000  0.000000  1
  Y  Y1  1  0.583456  0.583456  0.583456  1
  Y  Y2  1  0.416544  0.416544  0.416544  1
  Y  Y3  1  0.749216  0.749216  0.749216  1
  Y  Y4  1  0.250784  0.250784  0.250784  1
  Mn  Mn5  1  0.885015  0.885015  0.885015  1
  Mn  Mn6  1  0.114985  0.114985  0.114985  1
  B  B7  1  0.500000  0.834060  0.165940  1
  B  B8  1  0.165940  0.500000  0.834060  1
  B  B9  1  0.834060  0.165940  0.500000  1
  B  B10  1  0.500000  0.165940  0.834060  1
  B  B11  1  0.834060  0.500000  0.165940  1
  B  B12  1  0.165940  0.834060  0.500000  1
