# generated using pymatgen
data_TmPa(SiRu)2
_symmetry_space_group_name_H-M   'P 1'
_cell_length_a   4.30044700
_cell_length_b   7.05607541
_cell_length_c   7.01188289
_cell_angle_alpha   89.82571598
_cell_angle_beta   90.00000000
_cell_angle_gamma   90.00000000
_symmetry_Int_Tables_number   1
_chemical_formula_structural   TmPa(SiRu)2
_chemical_formula_sum   'Tm2 Pa2 Si4 Ru4'
_cell_volume   212.76954173
_cell_formula_units_Z   2
loop_
 _symmetry_equiv_pos_site_id
 _symmetry_equiv_pos_as_xyz
  1  'x, y, z'
loop_
 _atom_site_type_symbol
 _atom_site_label
 _atom_site_symmetry_multiplicity
 _atom_site_fract_x
 _atom_site_fract_y
 _atom_site_fract_z
 _atom_site_occupancy
  Tm  Tm0  1  0.250000  0.485706  0.684181  1
  Tm  Tm1  1  0.750000  0.514294  0.315819  1
  Pa  Pa2  1  0.250000  0.984853  0.826043  1
  Pa  Pa3  1  0.750000  0.015147  0.173957  1
  Si  Si4  1  0.250000  0.307381  0.111926  1
  Si  Si5  1  0.750000  0.692619  0.888074  1
  Si  Si6  1  0.250000  0.792182  0.391361  1
  Si  Si7  1  0.750000  0.207818  0.608639  1
  Ru  Ru8  1  0.750000  0.859287  0.567793  1
  Ru  Ru9  1  0.250000  0.140713  0.432207  1
  Ru  Ru10  1  0.750000  0.344444  0.938913  1
  Ru  Ru11  1  0.250000  0.655556  0.061087  1
