# generated using pymatgen
data_La3Nd5(Si3Rh)4
_symmetry_space_group_name_H-M   'P 1'
_cell_length_a   8.27429500
_cell_length_b   8.27436098
_cell_length_c   8.48389700
_cell_angle_alpha   90.00000000
_cell_angle_beta   90.00000000
_cell_angle_gamma   120.00031590
_symmetry_Int_Tables_number   1
_chemical_formula_structural   La3Nd5(Si3Rh)4
_chemical_formula_sum   'La3 Nd5 Si12 Rh4'
_cell_volume   503.02561511
_cell_formula_units_Z   1
loop_
 _symmetry_equiv_pos_site_id
 _symmetry_equiv_pos_as_xyz
  1  'x, y, z'
loop_
 _atom_site_type_symbol
 _atom_site_label
 _atom_site_symmetry_multiplicity
 _atom_site_fract_x
 _atom_site_fract_y
 _atom_site_fract_z
 _atom_site_occupancy
  La  La0  1  0.500446  0.499542  0.250000  1
  La  La1  1  0.999108  0.499545  0.250000  1
  La  La2  1  0.500463  0.000895  0.250000  1
  Nd  Nd3  1  0.000002  0.000011  0.750000  1
  Nd  Nd4  1  0.000001  0.000005  0.250000  1
  Nd  Nd5  1  0.499821  0.500160  0.750000  1
  Nd  Nd6  1  0.499833  0.999668  0.750000  1
  Nd  Nd7  1  0.000336  0.500161  0.750000  1
  Si  Si8  1  0.834094  0.165904  0.997017  1
  Si  Si9  1  0.834095  0.668193  0.997016  1
  Si  Si10  1  0.331812  0.165907  0.997016  1
  Si  Si11  1  0.834094  0.165904  0.502983  1
  Si  Si12  1  0.834095  0.668193  0.502984  1
  Si  Si13  1  0.331812  0.165907  0.502984  1
  Si  Si14  1  0.165904  0.834096  0.503012  1
  Si  Si15  1  0.668187  0.834096  0.503011  1
  Si  Si16  1  0.165902  0.331807  0.503014  1
  Si  Si17  1  0.165904  0.834096  0.996988  1
  Si  Si18  1  0.668187  0.834096  0.996989  1
  Si  Si19  1  0.165902  0.331807  0.996986  1
  Rh  Rh20  1  0.666668  0.333341  0.996413  1
  Rh  Rh21  1  0.666668  0.333341  0.503587  1
  Rh  Rh22  1  0.333333  0.666662  0.502548  1
  Rh  Rh23  1  0.333333  0.666662  0.997452  1
