# generated using pymatgen
data_TbNd3(WN3)4
_symmetry_space_group_name_H-M   'P 1'
_cell_length_a   7.37958392
_cell_length_b   7.37958316
_cell_length_c   6.33887389
_cell_angle_alpha   75.26559438
_cell_angle_beta   75.26560574
_cell_angle_gamma   83.44937831
_symmetry_Int_Tables_number   1
_chemical_formula_structural   TbNd3(WN3)4
_chemical_formula_sum   'Tb1 Nd3 W4 N12'
_cell_volume   322.42286685
_cell_formula_units_Z   1
loop_
 _symmetry_equiv_pos_site_id
 _symmetry_equiv_pos_as_xyz
  1  'x, y, z'
loop_
 _atom_site_type_symbol
 _atom_site_label
 _atom_site_symmetry_multiplicity
 _atom_site_fract_x
 _atom_site_fract_y
 _atom_site_fract_z
 _atom_site_occupancy
  Tb  Tb0  1  0.908827  0.091173  0.250000  1
  Nd  Nd1  1  0.697731  0.302269  0.750000  1
  Nd  Nd2  1  0.088692  0.911308  0.750000  1
  Nd  Nd3  1  0.303035  0.696965  0.250000  1
  W  W4  1  0.380898  0.200864  0.241544  1
  W  W5  1  0.620576  0.798824  0.754440  1
  W  W6  1  0.799136  0.619102  0.258456  1
  W  W7  1  0.201176  0.379424  0.745560  1
  N  N8  1  0.619574  0.111137  0.158752  1
  N  N9  1  0.360233  0.341456  0.469758  1
  N  N10  1  0.000829  0.222241  0.856514  1
  N  N11  1  0.383857  0.887816  0.846936  1
  N  N12  1  0.777759  0.999171  0.643486  1
  N  N13  1  0.112184  0.616143  0.653064  1
  N  N14  1  0.888863  0.380426  0.341248  1
  N  N15  1  0.634409  0.650056  0.534967  1
  N  N16  1  0.658544  0.639767  0.030242  1
  N  N17  1  0.349944  0.365591  0.965033  1
  N  N18  1  0.995014  0.781278  0.158479  1
  N  N19  1  0.218722  0.004986  0.341521  1
