# generated using pymatgen
data_Sr2GdOsO6
_symmetry_space_group_name_H-M   'P 1'
_cell_length_a   5.85630675
_cell_length_b   5.92154800
_cell_length_c   10.12825300
_cell_angle_alpha   90.00000000
_cell_angle_beta   124.90683128
_cell_angle_gamma   90.00000000
_symmetry_Int_Tables_number   1
_chemical_formula_structural   Sr2GdOsO6
_chemical_formula_sum   'Sr4 Gd2 Os2 O12'
_cell_volume   288.03931393
_cell_formula_units_Z   2
loop_
 _symmetry_equiv_pos_site_id
 _symmetry_equiv_pos_as_xyz
  1  'x, y, z'
loop_
 _atom_site_type_symbol
 _atom_site_label
 _atom_site_symmetry_multiplicity
 _atom_site_fract_x
 _atom_site_fract_y
 _atom_site_fract_z
 _atom_site_occupancy
  Sr  Sr0  1  0.260393  0.037359  0.750972  1
  Sr  Sr1  1  0.260393  0.462641  0.250972  1
  Sr  Sr2  1  0.739607  0.962641  0.249028  1
  Sr  Sr3  1  0.739607  0.537359  0.749028  1
  Gd  Gd4  1  0.000000  0.500000  0.500000  1
  Gd  Gd5  1  0.000000  0.000000  0.000000  1
  Os  Os6  1  0.500000  0.000000  0.500000  1
  Os  Os7  1  0.500000  0.500000  0.000000  1
  O  O8  1  0.187388  0.477316  0.767603  1
  O  O9  1  0.187388  0.022684  0.267603  1
  O  O10  1  0.812612  0.522684  0.232397  1
  O  O11  1  0.812612  0.977316  0.732397  1
  O  O12  1  0.728894  0.196010  0.458172  1
  O  O13  1  0.728894  0.303990  0.958172  1
  O  O14  1  0.271106  0.803990  0.541828  1
  O  O15  1  0.271106  0.696010  0.041828  1
  O  O16  1  0.647835  0.727345  0.456034  1
  O  O17  1  0.647835  0.772655  0.956034  1
  O  O18  1  0.352165  0.272655  0.543966  1
  O  O19  1  0.352165  0.227345  0.043966  1
