# generated using pymatgen
data_YbCePr(Si3Pd10)2
_symmetry_space_group_name_H-M   'P 1'
_cell_length_a   8.75455969
_cell_length_b   8.75456034
_cell_length_c   8.75456000
_cell_angle_alpha   60.00000128
_cell_angle_beta   59.99999883
_cell_angle_gamma   60.00000603
_symmetry_Int_Tables_number   1
_chemical_formula_structural   YbCePr(Si3Pd10)2
_chemical_formula_sum   'Yb1 Ce1 Pr1 Si6 Pd20'
_cell_volume   474.44731617
_cell_formula_units_Z   1
loop_
 _symmetry_equiv_pos_site_id
 _symmetry_equiv_pos_as_xyz
  1  'x, y, z'
loop_
 _atom_site_type_symbol
 _atom_site_label
 _atom_site_symmetry_multiplicity
 _atom_site_fract_x
 _atom_site_fract_y
 _atom_site_fract_z
 _atom_site_occupancy
  Yb  Yb0  1  0.750000  0.750000  0.750000  1
  Ce  Ce1  1  0.000000  0.000000  0.000000  1
  Pr  Pr2  1  0.250000  0.250000  0.250000  1
  Si  Si3  1  0.730778  0.269222  0.269222  1
  Si  Si4  1  0.269222  0.730778  0.730778  1
  Si  Si5  1  0.269222  0.730778  0.269222  1
  Si  Si6  1  0.730778  0.269222  0.730778  1
  Si  Si7  1  0.269222  0.269222  0.730778  1
  Si  Si8  1  0.730778  0.730778  0.269222  1
  Pd  Pd9  1  0.386100  0.386100  0.386100  1
  Pd  Pd10  1  0.616796  0.616796  0.616796  1
  Pd  Pd11  1  0.386100  0.386100  0.841702  1
  Pd  Pd12  1  0.386100  0.841702  0.386100  1
  Pd  Pd13  1  0.616796  0.616796  0.149611  1
  Pd  Pd14  1  0.616796  0.149611  0.616796  1
  Pd  Pd15  1  0.841702  0.386100  0.386100  1
  Pd  Pd16  1  0.149611  0.616796  0.616796  1
  Pd  Pd17  1  0.345367  0.999472  0.999472  1
  Pd  Pd18  1  0.655689  0.999472  0.999472  1
  Pd  Pd19  1  0.999472  0.345367  0.655689  1
  Pd  Pd20  1  0.999472  0.655689  0.345367  1
  Pd  Pd21  1  0.999472  0.345367  0.999472  1
  Pd  Pd22  1  0.655689  0.999472  0.345367  1
  Pd  Pd23  1  0.999472  0.655689  0.999472  1
  Pd  Pd24  1  0.345367  0.999472  0.655689  1
  Pd  Pd25  1  0.999472  0.999472  0.345367  1
  Pd  Pd26  1  0.999472  0.999472  0.655689  1
  Pd  Pd27  1  0.655689  0.345367  0.999472  1
  Pd  Pd28  1  0.345367  0.655689  0.999472  1
