# generated using pymatgen
data_Pr8Ho12Si15Os
_symmetry_space_group_name_H-M   'P 1'
_cell_length_a   7.51229403
_cell_length_b   7.80231869
_cell_length_c   14.86292400
_cell_angle_alpha   90.00000000
_cell_angle_beta   90.00000000
_cell_angle_gamma   89.60776517
_symmetry_Int_Tables_number   1
_chemical_formula_structural   Pr8Ho12Si15Os
_chemical_formula_sum   'Pr8 Ho12 Si15 Os1'
_cell_volume   871.14478922
_cell_formula_units_Z   1
loop_
 _symmetry_equiv_pos_site_id
 _symmetry_equiv_pos_as_xyz
  1  'x, y, z'
loop_
 _atom_site_type_symbol
 _atom_site_label
 _atom_site_symmetry_multiplicity
 _atom_site_fract_x
 _atom_site_fract_y
 _atom_site_fract_z
 _atom_site_occupancy
  Pr  Pr0  1  0.969341  0.816540  0.099813  1
  Pr  Pr1  1  0.480286  0.677372  0.401217  1
  Pr  Pr2  1  0.524232  0.321280  0.901356  1
  Pr  Pr3  1  0.024003  0.177602  0.597913  1
  Pr  Pr4  1  0.024003  0.177602  0.902087  1
  Pr  Pr5  1  0.524232  0.321280  0.598644  1
  Pr  Pr6  1  0.480286  0.677372  0.098783  1
  Pr  Pr7  1  0.969341  0.816540  0.400187  1
  Ho  Ho8  1  0.656351  0.980332  0.250000  1
  Ho  Ho9  1  0.137510  0.516044  0.250000  1
  Ho  Ho10  1  0.850599  0.488421  0.750000  1
  Ho  Ho11  1  0.350266  0.008791  0.750000  1
  Ho  Ho12  1  0.680755  0.822175  0.876329  1
  Ho  Ho13  1  0.181440  0.679469  0.622500  1
  Ho  Ho14  1  0.816343  0.327861  0.125326  1
  Ho  Ho15  1  0.320404  0.177200  0.376806  1
  Ho  Ho16  1  0.320404  0.177200  0.123194  1
  Ho  Ho17  1  0.816343  0.327861  0.374674  1
  Ho  Ho18  1  0.181440  0.679469  0.877500  1
  Ho  Ho19  1  0.680755  0.822175  0.623671  1
  Si  Si20  1  0.267041  0.885756  0.250000  1
  Si  Si21  1  0.732298  0.120297  0.750000  1
  Si  Si22  1  0.230970  0.380015  0.750000  1
  Si  Si23  1  0.029376  0.113244  0.250000  1
  Si  Si24  1  0.522359  0.390736  0.250000  1
  Si  Si25  1  0.475284  0.613830  0.750000  1
  Si  Si26  1  0.974981  0.885164  0.750000  1
  Si  Si27  1  0.857574  0.530100  0.959026  1
  Si  Si28  1  0.357482  0.971318  0.540997  1
  Si  Si29  1  0.643880  0.032988  0.038745  1
  Si  Si30  1  0.146571  0.465036  0.461701  1
  Si  Si31  1  0.146571  0.465036  0.038299  1
  Si  Si32  1  0.643880  0.032988  0.461255  1
  Si  Si33  1  0.357482  0.971318  0.959003  1
  Si  Si34  1  0.857574  0.530100  0.540974  1
  Os  Os35  1  0.768342  0.619485  0.250000  1
