# generated using pymatgen
data_La4Dy3Tm3Sn8
_symmetry_space_group_name_H-M   'P 1'
_cell_length_a   8.10633900
_cell_length_b   8.29385111
_cell_length_c   15.64627200
_cell_angle_alpha   90.04088978
_cell_angle_beta   90.00000000
_cell_angle_gamma   90.00000000
_symmetry_Int_Tables_number   1
_chemical_formula_structural   La4Dy3Tm3Sn8
_chemical_formula_sum   'La8 Dy6 Tm6 Sn16'
_cell_volume   1051.94191898
_cell_formula_units_Z   2
loop_
 _symmetry_equiv_pos_site_id
 _symmetry_equiv_pos_as_xyz
  1  'x, y, z'
loop_
 _atom_site_type_symbol
 _atom_site_label
 _atom_site_symmetry_multiplicity
 _atom_site_fract_x
 _atom_site_fract_y
 _atom_site_fract_z
 _atom_site_occupancy
  La  La0  1  0.513340  0.323208  0.903021  1
  La  La1  1  0.013340  0.176792  0.596979  1
  La  La2  1  0.487101  0.677926  0.404110  1
  La  La3  1  0.987101  0.822074  0.095890  1
  La  La4  1  0.487474  0.678067  0.095435  1
  La  La5  1  0.987474  0.821933  0.404565  1
  La  La6  1  0.512376  0.322461  0.597108  1
  La  La7  1  0.012376  0.177539  0.902892  1
  Dy  Dy8  1  0.643561  0.164017  0.377492  1
  Dy  Dy9  1  0.143561  0.335983  0.122508  1
  Dy  Dy10  1  0.643081  0.164230  0.123492  1
  Dy  Dy11  1  0.143081  0.335770  0.376508  1
  Dy  Dy12  1  0.357086  0.836277  0.623312  1
  Dy  Dy13  1  0.857086  0.663723  0.876688  1
  Tm  Tm14  1  0.356246  0.836158  0.874888  1
  Tm  Tm15  1  0.856246  0.663842  0.625112  1
  Tm  Tm16  1  0.190219  0.503198  0.750182  1
  Tm  Tm17  1  0.690219  0.996802  0.749818  1
  Tm  Tm18  1  0.810024  0.497284  0.250313  1
  Tm  Tm19  1  0.310024  0.002716  0.249687  1
  Sn  Sn20  1  0.308458  0.039868  0.040934  1
  Sn  Sn21  1  0.808458  0.460132  0.459066  1
  Sn  Sn22  1  0.694114  0.957186  0.543634  1
  Sn  Sn23  1  0.194114  0.542814  0.956366  1
  Sn  Sn24  1  0.688843  0.958865  0.956620  1
  Sn  Sn25  1  0.188843  0.541135  0.543380  1
  Sn  Sn26  1  0.307532  0.040846  0.456967  1
  Sn  Sn27  1  0.807532  0.459154  0.043033  1
  Sn  Sn28  1  0.554607  0.625316  0.749722  1
  Sn  Sn29  1  0.054607  0.874684  0.750278  1
  Sn  Sn30  1  0.445336  0.375395  0.250246  1
  Sn  Sn31  1  0.945336  0.124605  0.249754  1
  Sn  Sn32  1  0.321377  0.141929  0.750368  1
  Sn  Sn33  1  0.821377  0.358071  0.749632  1
  Sn  Sn34  1  0.679228  0.857335  0.250108  1
  Sn  Sn35  1  0.179228  0.642665  0.249892  1
