# generated using pymatgen
data_Sm10In7HgRh4
_symmetry_space_group_name_H-M   'P 1'
_cell_length_a   8.14801602
_cell_length_b   18.56279605
_cell_length_c   3.71137500
_cell_angle_alpha   90.00000000
_cell_angle_beta   90.00000000
_cell_angle_gamma   89.99157093
_symmetry_Int_Tables_number   1
_chemical_formula_structural   Sm10In7HgRh4
_chemical_formula_sum   'Sm10 In7 Hg1 Rh4'
_cell_volume   561.34531285
_cell_formula_units_Z   1
loop_
 _symmetry_equiv_pos_site_id
 _symmetry_equiv_pos_as_xyz
  1  'x, y, z'
loop_
 _atom_site_type_symbol
 _atom_site_label
 _atom_site_symmetry_multiplicity
 _atom_site_fract_x
 _atom_site_fract_y
 _atom_site_fract_z
 _atom_site_occupancy
  Sm  Sm0  1  0.501223  0.500237  0.000000  1
  Sm  Sm1  1  0.997834  0.998627  0.000000  1
  Sm  Sm2  1  0.752168  0.277712  0.000000  1
  Sm  Sm3  1  0.248236  0.721907  0.000000  1
  Sm  Sm4  1  0.747843  0.780312  0.000000  1
  Sm  Sm5  1  0.251118  0.222253  0.000000  1
  Sm  Sm6  1  0.619501  0.087932  0.000000  1
  Sm  Sm7  1  0.387654  0.912005  0.000000  1
  Sm  Sm8  1  0.879532  0.588855  0.000000  1
  Sm  Sm9  1  0.119459  0.412008  0.000000  1
  In  In10  1  0.292026  0.069291  0.500000  1
  In  In11  1  0.793654  0.430057  0.500000  1
  In  In12  1  0.205710  0.569421  0.500000  1
  In  In13  1  0.563480  0.650741  0.500000  1
  In  In14  1  0.438021  0.349706  0.500000  1
  In  In15  1  0.938175  0.149737  0.500000  1
  In  In16  1  0.064357  0.849828  0.500000  1
  Hg  Hg17  1  0.709069  0.931974  0.500000  1
  Rh  Rh18  1  0.523201  0.194325  0.500000  1
  Rh  Rh19  1  0.468580  0.802765  0.500000  1
  Rh  Rh20  1  0.974574  0.694733  0.500000  1
  Rh  Rh21  1  0.024585  0.305574  0.500000  1
