# generated using pymatgen
data_Tb3Tm2Pb3
_symmetry_space_group_name_H-M   'P 1'
_cell_length_a   6.58068300
_cell_length_b   9.07414029
_cell_length_c   9.07660802
_cell_angle_alpha   119.99100525
_cell_angle_beta   90.00000000
_cell_angle_gamma   90.00000000
_symmetry_Int_Tables_number   1
_chemical_formula_structural   Tb3Tm2Pb3
_chemical_formula_sum   'Tb6 Tm4 Pb6'
_cell_volume   469.42912179
_cell_formula_units_Z   2
loop_
 _symmetry_equiv_pos_site_id
 _symmetry_equiv_pos_as_xyz
  1  'x, y, z'
loop_
 _atom_site_type_symbol
 _atom_site_label
 _atom_site_symmetry_multiplicity
 _atom_site_fract_x
 _atom_site_fract_y
 _atom_site_fract_z
 _atom_site_occupancy
  Tb  Tb0  1  0.750003  0.238705  0.000000  1
  Tb  Tb1  1  0.749997  0.761196  0.761261  1
  Tb  Tb2  1  0.749997  0.999934  0.238739  1
  Tb  Tb3  1  0.250003  0.761295  0.000000  1
  Tb  Tb4  1  0.249997  0.238804  0.238739  1
  Tb  Tb5  1  0.249997  0.000066  0.761261  1
  Tm  Tm6  1  0.499999  0.333334  0.666714  1
  Tm  Tm7  1  0.499999  0.666620  0.333286  1
  Tm  Tm8  1  0.999999  0.666666  0.333286  1
  Tm  Tm9  1  0.999999  0.333380  0.666714  1
  Pb  Pb10  1  0.749995  0.604489  0.000000  1
  Pb  Pb11  1  0.750005  0.395439  0.395408  1
  Pb  Pb12  1  0.750005  0.000031  0.604592  1
  Pb  Pb13  1  0.249995  0.395511  0.000000  1
  Pb  Pb14  1  0.250005  0.604561  0.604592  1
  Pb  Pb15  1  0.250005  0.999969  0.395408  1
