# generated using pymatgen
data_Tb3AlSn2Pt3
_symmetry_space_group_name_H-M   'P 1'
_cell_length_a   7.51635950
_cell_length_b   7.51635922
_cell_length_c   3.98303300
_cell_angle_alpha   90.00000000
_cell_angle_beta   90.00000000
_cell_angle_gamma   120.93556666
_symmetry_Int_Tables_number   1
_chemical_formula_structural   Tb3AlSn2Pt3
_chemical_formula_sum   'Tb3 Al1 Sn2 Pt3'
_cell_volume   193.01348648
_cell_formula_units_Z   1
loop_
 _symmetry_equiv_pos_site_id
 _symmetry_equiv_pos_as_xyz
  1  'x, y, z'
loop_
 _atom_site_type_symbol
 _atom_site_label
 _atom_site_symmetry_multiplicity
 _atom_site_fract_x
 _atom_site_fract_y
 _atom_site_fract_z
 _atom_site_occupancy
  Tb  Tb0  1  0.414573  0.414573  0.500000  1
  Tb  Tb1  1  0.592596  0.994001  0.500000  1
  Tb  Tb2  1  0.994001  0.592596  0.500000  1
  Al  Al3  1  0.746179  0.746179  0.000000  1
  Sn  Sn4  1  0.254274  0.996660  0.000000  1
  Sn  Sn5  1  0.996660  0.254274  0.000000  1
  Pt  Pt6  1  0.670278  0.351565  0.000000  1
  Pt  Pt7  1  0.351565  0.670278  0.000000  1
  Pt  Pt8  1  0.979874  0.979874  0.500000  1
