# generated using pymatgen
data_ScZn3CuPd
_symmetry_space_group_name_H-M   'P 1'
_cell_length_a   4.96084696
_cell_length_b   5.01210701
_cell_length_c   5.01210700
_cell_angle_alpha   60.00000668
_cell_angle_beta   59.65760370
_cell_angle_gamma   59.65760802
_symmetry_Int_Tables_number   1
_chemical_formula_structural   ScZn3CuPd
_chemical_formula_sum   'Sc1 Zn3 Cu1 Pd1'
_cell_volume   87.66261663
_cell_formula_units_Z   1
loop_
 _symmetry_equiv_pos_site_id
 _symmetry_equiv_pos_as_xyz
  1  'x, y, z'
loop_
 _atom_site_type_symbol
 _atom_site_label
 _atom_site_symmetry_multiplicity
 _atom_site_fract_x
 _atom_site_fract_y
 _atom_site_fract_z
 _atom_site_occupancy
  Sc  Sc0  1  0.247668  0.250778  0.250778  1
  Zn  Zn1  1  0.625582  0.626113  0.626113  1
  Zn  Zn2  1  0.625582  0.626113  0.122190  1
  Zn  Zn3  1  0.625582  0.122190  0.626113  1
  Cu  Cu4  1  0.126821  0.624392  0.624392  1
  Pd  Pd5  1  0.998765  0.000412  0.000412  1
