# generated using pymatgen
data_AlV3Tc3Ge
_symmetry_space_group_name_H-M   'P 1'
_cell_length_a   4.80319801
_cell_length_b   4.80319801
_cell_length_c   4.80319801
_cell_angle_alpha   90.12820940
_cell_angle_beta   89.87179060
_cell_angle_gamma   90.12820940
_symmetry_Int_Tables_number   1
_chemical_formula_structural   AlV3Tc3Ge
_chemical_formula_sum   'Al1 V3 Tc3 Ge1'
_cell_volume   110.81236242
_cell_formula_units_Z   1
loop_
 _symmetry_equiv_pos_site_id
 _symmetry_equiv_pos_as_xyz
  1  'x, y, z'
loop_
 _atom_site_type_symbol
 _atom_site_label
 _atom_site_symmetry_multiplicity
 _atom_site_fract_x
 _atom_site_fract_y
 _atom_site_fract_z
 _atom_site_occupancy
  Al  Al0  1  0.499057  0.500943  0.499057  1
  V  V1  1  0.001122  0.501387  0.249813  1
  V  V2  1  0.498613  0.750187  0.001122  1
  V  V3  1  0.249813  0.998878  0.498613  1
  Tc  Tc4  1  0.002361  0.502000  0.749212  1
  Tc  Tc5  1  0.498000  0.250788  0.002361  1
  Tc  Tc6  1  0.749212  0.997639  0.498000  1
  Ge  Ge7  1  0.001822  0.998178  0.001822  1
