# generated using pymatgen
data_Nd8Zn8CuRh7
_symmetry_space_group_name_H-M   'P 1'
_cell_length_a   4.03022400
_cell_length_b   7.32538363
_cell_length_c   16.61190602
_cell_angle_alpha   90.37152425
_cell_angle_beta   90.00000000
_cell_angle_gamma   90.00000000
_symmetry_Int_Tables_number   1
_chemical_formula_structural   Nd8Zn8CuRh7
_chemical_formula_sum   'Nd8 Zn8 Cu1 Rh7'
_cell_volume   490.42194293
_cell_formula_units_Z   1
loop_
 _symmetry_equiv_pos_site_id
 _symmetry_equiv_pos_as_xyz
  1  'x, y, z'
loop_
 _atom_site_type_symbol
 _atom_site_label
 _atom_site_symmetry_multiplicity
 _atom_site_fract_x
 _atom_site_fract_y
 _atom_site_fract_z
 _atom_site_occupancy
  Nd  Nd0  1  0.250000  0.168300  0.939510  1
  Nd  Nd1  1  0.250000  0.667138  0.564421  1
  Nd  Nd2  1  0.750000  0.327744  0.439889  1
  Nd  Nd3  1  0.750000  0.953016  0.282500  1
  Nd  Nd4  1  0.750000  0.832192  0.060422  1
  Nd  Nd5  1  0.750000  0.451353  0.216055  1
  Nd  Nd6  1  0.250000  0.049034  0.715405  1
  Nd  Nd7  1  0.250000  0.547172  0.784566  1
  Zn  Zn8  1  0.750000  0.002258  0.560938  1
  Zn  Zn9  1  0.250000  0.627216  0.349266  1
  Zn  Zn10  1  0.750000  0.377336  0.651007  1
  Zn  Zn11  1  0.250000  0.498719  0.060445  1
  Zn  Zn12  1  0.750000  0.501531  0.939473  1
  Zn  Zn13  1  0.250000  0.997264  0.438592  1
  Zn  Zn14  1  0.250000  0.124113  0.150761  1
  Zn  Zn15  1  0.750000  0.876078  0.848991  1
  Cu  Cu16  1  0.750000  0.758610  0.434596  1
  Rh  Rh17  1  0.250000  0.247418  0.313977  1
  Rh  Rh18  1  0.750000  0.252546  0.812916  1
  Rh  Rh19  1  0.750000  0.753494  0.684478  1
  Rh  Rh20  1  0.250000  0.242865  0.564207  1
  Rh  Rh21  1  0.250000  0.746583  0.187858  1
  Rh  Rh22  1  0.750000  0.254352  0.064962  1
  Rh  Rh23  1  0.250000  0.743670  0.934767  1
