# generated using pymatgen
data_ErTm(Co2O5)2
_symmetry_space_group_name_H-M   'P 1'
_cell_length_a   5.67701700
_cell_length_b   7.13718419
_cell_length_c   8.32572123
_cell_angle_alpha   90.02674330
_cell_angle_beta   90.00000000
_cell_angle_gamma   90.00000000
_symmetry_Int_Tables_number   1
_chemical_formula_structural   ErTm(Co2O5)2
_chemical_formula_sum   'Er2 Tm2 Co8 O20'
_cell_volume   337.34083659
_cell_formula_units_Z   2
loop_
 _symmetry_equiv_pos_site_id
 _symmetry_equiv_pos_as_xyz
  1  'x, y, z'
loop_
 _atom_site_type_symbol
 _atom_site_label
 _atom_site_symmetry_multiplicity
 _atom_site_fract_x
 _atom_site_fract_y
 _atom_site_fract_z
 _atom_site_occupancy
  Er  Er0  1  0.500000  0.362982  0.328359  1
  Er  Er1  1  0.500000  0.637018  0.671641  1
  Tm  Tm2  1  0.500000  0.137356  0.828471  1
  Tm  Tm3  1  0.500000  0.862644  0.171529  1
  Co  Co4  1  0.000000  0.090624  0.151061  1
  Co  Co5  1  0.000000  0.909376  0.848939  1
  Co  Co6  1  0.000000  0.409249  0.651276  1
  Co  Co7  1  0.000000  0.590751  0.348724  1
  Co  Co8  1  0.245712  0.000000  0.500000  1
  Co  Co9  1  0.754288  0.000000  0.500000  1
  Co  Co10  1  0.754278  0.500000  0.000000  1
  Co  Co11  1  0.245722  0.500000  0.000000  1
  O  O12  1  0.228310  0.000000  0.000000  1
  O  O13  1  0.771690  0.000000  0.000000  1
  O  O14  1  0.773444  0.500000  0.500000  1
  O  O15  1  0.226556  0.500000  0.500000  1
  O  O16  1  0.000000  0.347398  0.068976  1
  O  O17  1  0.000000  0.652602  0.931024  1
  O  O18  1  0.000000  0.152994  0.568931  1
  O  O19  1  0.000000  0.847006  0.431069  1
  O  O20  1  0.500000  0.334832  0.054708  1
  O  O21  1  0.500000  0.665168  0.945292  1
  O  O22  1  0.500000  0.164837  0.556128  1
  O  O23  1  0.500000  0.835163  0.443872  1
  O  O24  1  0.258145  0.104227  0.292279  1
  O  O25  1  0.741855  0.895773  0.707721  1
  O  O26  1  0.258145  0.895773  0.707721  1
  O  O27  1  0.741811  0.394580  0.792465  1
  O  O28  1  0.741855  0.104227  0.292279  1
  O  O29  1  0.258189  0.605420  0.207535  1
  O  O30  1  0.741811  0.605420  0.207535  1
  O  O31  1  0.258189  0.394580  0.792465  1
