# generated using pymatgen
data_Y4TcI4
_symmetry_space_group_name_H-M   'P 1'
_cell_length_a   11.44066247
_cell_length_b   11.44066406
_cell_length_c   6.21295400
_cell_angle_alpha   90.01572060
_cell_angle_beta   90.01573223
_cell_angle_gamma   88.37931447
_symmetry_Int_Tables_number   1
_chemical_formula_structural   Y4TcI4
_chemical_formula_sum   'Y8 Tc2 I8'
_cell_volume   812.88057773
_cell_formula_units_Z   2
loop_
 _symmetry_equiv_pos_site_id
 _symmetry_equiv_pos_as_xyz
  1  'x, y, z'
loop_
 _atom_site_type_symbol
 _atom_site_label
 _atom_site_symmetry_multiplicity
 _atom_site_fract_x
 _atom_site_fract_y
 _atom_site_fract_z
 _atom_site_occupancy
  Y  Y0  1  0.802356  0.083997  0.999005  1
  Y  Y1  1  0.083997  0.802356  0.499005  1
  Y  Y2  1  0.078518  0.195156  0.000430  1
  Y  Y3  1  0.195156  0.078518  0.500430  1
  Y  Y4  1  0.921482  0.804844  0.999570  1
  Y  Y5  1  0.916003  0.197644  0.500995  1
  Y  Y6  1  0.197644  0.916003  0.000995  1
  Y  Y7  1  0.804844  0.921482  0.499570  1
  Tc  Tc8  1  0.999844  0.000156  0.250000  1
  Tc  Tc9  1  0.000156  0.999844  0.750000  1
  I  I10  1  0.644638  0.152456  0.510316  1
  I  I11  1  0.858256  0.648266  0.505630  1
  I  I12  1  0.351734  0.141744  0.994370  1
  I  I13  1  0.141744  0.351734  0.494370  1
  I  I14  1  0.648266  0.858256  0.005630  1
  I  I15  1  0.355362  0.847544  0.489684  1
  I  I16  1  0.152456  0.644638  0.010316  1
  I  I17  1  0.847544  0.355362  0.989684  1
