# generated using pymatgen
data_Er11Tm(Zn3C)4
_symmetry_space_group_name_H-M   'P 1'
_cell_length_a   9.08364273
_cell_length_b   9.08218071
_cell_length_c   9.08218126
_cell_angle_alpha   59.97289367
_cell_angle_beta   59.99467172
_cell_angle_gamma   59.99467067
_symmetry_Int_Tables_number   1
_chemical_formula_structural   Er11Tm(Zn3C)4
_chemical_formula_sum   'Er11 Tm1 Zn12 C4'
_cell_volume   529.66506999
_cell_formula_units_Z   1
loop_
 _symmetry_equiv_pos_site_id
 _symmetry_equiv_pos_as_xyz
  1  'x, y, z'
loop_
 _atom_site_type_symbol
 _atom_site_label
 _atom_site_symmetry_multiplicity
 _atom_site_fract_x
 _atom_site_fract_y
 _atom_site_fract_z
 _atom_site_occupancy
  Er  Er0  1  0.446796  0.447016  0.053007  1
  Er  Er1  1  0.053182  0.447016  0.053007  1
  Er  Er2  1  0.446877  0.053123  0.053123  1
  Er  Er3  1  0.053182  0.053007  0.447016  1
  Er  Er4  1  0.446796  0.053007  0.447016  1
  Er  Er5  1  0.053210  0.446790  0.446790  1
  Er  Er6  1  0.803180  0.803153  0.196787  1
  Er  Er7  1  0.196880  0.803153  0.196787  1
  Er  Er8  1  0.803117  0.196883  0.196883  1
  Er  Er9  1  0.196880  0.196787  0.803153  1
  Er  Er10  1  0.803180  0.196787  0.803153  1
  Tm  Tm11  1  0.196647  0.803353  0.803353  1
  Zn  Zn12  1  0.827163  0.827124  0.518552  1
  Zn  Zn13  1  0.827163  0.518552  0.827124  1
  Zn  Zn14  1  0.518434  0.827157  0.827157  1
  Zn  Zn15  1  0.827253  0.827157  0.827157  1
  Zn  Zn16  1  0.422789  0.422956  0.731465  1
  Zn  Zn17  1  0.422789  0.731465  0.422956  1
  Zn  Zn18  1  0.731439  0.422836  0.422836  1
  Zn  Zn19  1  0.422889  0.422836  0.422836  1
  Zn  Zn20  1  0.625000  0.625013  0.124988  1
  Zn  Zn21  1  0.625000  0.124988  0.625013  1
  Zn  Zn22  1  0.124992  0.625071  0.625071  1
  Zn  Zn23  1  0.624866  0.625071  0.625071  1
  C  C24  1  0.125140  0.124410  0.625310  1
  C  C25  1  0.125140  0.625310  0.124410  1
  C  C26  1  0.625023  0.124990  0.124990  1
  C  C27  1  0.124997  0.124990  0.124990  1
