# generated using pymatgen
data_KLa6IrI12
_symmetry_space_group_name_H-M   'P 1'
_cell_length_a   10.20155381
_cell_length_b   10.20155337
_cell_length_c   10.20155381
_cell_angle_alpha   105.46394565
_cell_angle_beta   105.46393673
_cell_angle_gamma   105.46392852
_symmetry_Int_Tables_number   1
_chemical_formula_structural   KLa6IrI12
_chemical_formula_sum   'K1 La6 Ir1 I12'
_cell_volume   918.72425220
_cell_formula_units_Z   1
loop_
 _symmetry_equiv_pos_site_id
 _symmetry_equiv_pos_as_xyz
  1  'x, y, z'
loop_
 _atom_site_type_symbol
 _atom_site_label
 _atom_site_symmetry_multiplicity
 _atom_site_fract_x
 _atom_site_fract_y
 _atom_site_fract_z
 _atom_site_occupancy
  K  K0  1  0.500000  0.500000  0.500000  1
  La  La1  1  0.099086  0.302945  0.020250  1
  La  La2  1  0.302945  0.020251  0.099085  1
  La  La3  1  0.020251  0.099085  0.302946  1
  La  La4  1  0.979750  0.900915  0.697055  1
  La  La5  1  0.697055  0.979750  0.900915  1
  La  La6  1  0.900914  0.697055  0.979750  1
  Ir  Ir7  1  0.000000  0.000000  0.000000  1
  I  I8  1  0.222717  0.677101  0.075917  1
  I  I9  1  0.440294  0.355279  0.124982  1
  I  I10  1  0.677102  0.075917  0.222717  1
  I  I11  1  0.924084  0.777283  0.322899  1
  I  I12  1  0.124982  0.440294  0.355279  1
  I  I13  1  0.355279  0.124982  0.440294  1
  I  I14  1  0.644721  0.875018  0.559707  1
  I  I15  1  0.875019  0.559706  0.644721  1
  I  I16  1  0.075917  0.222717  0.677102  1
  I  I17  1  0.322899  0.924084  0.777283  1
  I  I18  1  0.559706  0.644721  0.875019  1
  I  I19  1  0.777283  0.322899  0.924083  1
