# generated using pymatgen
data_Nb4Fe4Si3Ge
_symmetry_space_group_name_H-M   'P 1'
_cell_length_a   3.69731900
_cell_length_b   6.28457502
_cell_length_c   7.17761514
_cell_angle_alpha   88.73838787
_cell_angle_beta   90.00000000
_cell_angle_gamma   90.00000000
_symmetry_Int_Tables_number   1
_chemical_formula_structural   Nb4Fe4Si3Ge
_chemical_formula_sum   'Nb4 Fe4 Si3 Ge1'
_cell_volume   166.73919975
_cell_formula_units_Z   1
loop_
 _symmetry_equiv_pos_site_id
 _symmetry_equiv_pos_as_xyz
  1  'x, y, z'
loop_
 _atom_site_type_symbol
 _atom_site_label
 _atom_site_symmetry_multiplicity
 _atom_site_fract_x
 _atom_site_fract_y
 _atom_site_fract_z
 _atom_site_occupancy
  Nb  Nb0  1  0.250000  0.520069  0.190417  1
  Nb  Nb1  1  0.750000  0.470255  0.811515  1
  Nb  Nb2  1  0.750000  0.981654  0.674981  1
  Nb  Nb3  1  0.250000  0.021189  0.323773  1
  Fe  Fe4  1  0.250000  0.640802  0.557072  1
  Fe  Fe5  1  0.750000  0.355829  0.436379  1
  Fe  Fe6  1  0.750000  0.864126  0.069021  1
  Fe  Fe7  1  0.250000  0.148341  0.937539  1
  Si  Si8  1  0.750000  0.230467  0.126251  1
  Si  Si9  1  0.750000  0.723158  0.385462  1
  Si  Si10  1  0.250000  0.276767  0.613322  1
  Ge  Ge11  1  0.250000  0.767344  0.874267  1
