# generated using pymatgen
data_Sc4AlZnSi3Ge
_symmetry_space_group_name_H-M   'P 1'
_cell_length_a   6.65803964
_cell_length_b   6.66249365
_cell_length_c   3.99115000
_cell_angle_alpha   90.00000000
_cell_angle_beta   90.00000000
_cell_angle_gamma   89.94957141
_symmetry_Int_Tables_number   1
_chemical_formula_structural   Sc4AlZnSi3Ge
_chemical_formula_sum   'Sc4 Al1 Zn1 Si3 Ge1'
_cell_volume   177.04394026
_cell_formula_units_Z   1
loop_
 _symmetry_equiv_pos_site_id
 _symmetry_equiv_pos_as_xyz
  1  'x, y, z'
loop_
 _atom_site_type_symbol
 _atom_site_label
 _atom_site_symmetry_multiplicity
 _atom_site_fract_x
 _atom_site_fract_y
 _atom_site_fract_z
 _atom_site_occupancy
  Sc  Sc0  1  0.827211  0.673723  0.500000  1
  Sc  Sc1  1  0.174804  0.324123  0.500000  1
  Sc  Sc2  1  0.675715  0.179079  0.500000  1
  Sc  Sc3  1  0.320396  0.824535  0.500000  1
  Al  Al4  1  0.498562  0.496320  0.000000  1
  Zn  Zn5  1  0.004114  0.001624  0.000000  1
  Si  Si6  1  0.370450  0.128232  0.000000  1
  Si  Si7  1  0.875479  0.374164  0.000000  1
  Si  Si8  1  0.124924  0.625320  0.000000  1
  Ge  Ge9  1  0.628346  0.872879  0.000000  1
