# generated using pymatgen
data_Dy16InTc2Hg5
_symmetry_space_group_name_H-M   'P 1'
_cell_length_a   10.28457332
_cell_length_b   10.28457446
_cell_length_c   7.14762985
_cell_angle_alpha   89.71552602
_cell_angle_beta   90.28446662
_cell_angle_gamma   120.38205559
_symmetry_Int_Tables_number   1
_chemical_formula_structural   Dy16InTc2Hg5
_chemical_formula_sum   'Dy16 In1 Tc2 Hg5'
_cell_volume   652.18875733
_cell_formula_units_Z   1
loop_
 _symmetry_equiv_pos_site_id
 _symmetry_equiv_pos_as_xyz
  1  'x, y, z'
loop_
 _atom_site_type_symbol
 _atom_site_label
 _atom_site_symmetry_multiplicity
 _atom_site_fract_x
 _atom_site_fract_y
 _atom_site_fract_z
 _atom_site_occupancy
  Dy  Dy0  1  0.534295  0.074133  0.517943  1
  Dy  Dy1  1  0.925867  0.465705  0.517943  1
  Dy  Dy2  1  0.536371  0.463629  0.524474  1
  Dy  Dy3  1  0.469151  0.926788  0.019833  1
  Dy  Dy4  1  0.073212  0.530849  0.019833  1
  Dy  Dy5  1  0.460322  0.539678  0.017280  1
  Dy  Dy6  1  0.169381  0.344119  0.706049  1
  Dy  Dy7  1  0.655881  0.830619  0.706049  1
  Dy  Dy8  1  0.173724  0.826276  0.723307  1
  Dy  Dy9  1  0.818573  0.649342  0.204242  1
  Dy  Dy10  1  0.350658  0.181427  0.204242  1
  Dy  Dy11  1  0.828728  0.171272  0.213357  1
  Dy  Dy12  1  0.667369  0.332631  0.901990  1
  Dy  Dy13  1  0.334044  0.665956  0.402493  1
  Dy  Dy14  1  0.005272  0.994728  0.491850  1
  Dy  Dy15  1  0.002310  0.997690  0.994118  1
  In  In16  1  0.164864  0.835136  0.266268  1
  Tc  Tc17  1  0.667071  0.332929  0.282064  1
  Tc  Tc18  1  0.333374  0.666626  0.780462  1
  Hg  Hg19  1  0.832030  0.666185  0.768579  1
  Hg  Hg20  1  0.333815  0.167970  0.768579  1
  Hg  Hg21  1  0.830812  0.169188  0.771660  1
  Hg  Hg22  1  0.168443  0.335569  0.270795  1
  Hg  Hg23  1  0.664431  0.831557  0.270795  1
