# generated using pymatgen
data_Nb8SnRuS16
_symmetry_space_group_name_H-M   'P 1'
_cell_length_a   6.64367600
_cell_length_b   6.64367670
_cell_length_c   13.27276000
_cell_angle_alpha   90.00000000
_cell_angle_beta   90.00000000
_cell_angle_gamma   119.99999651
_symmetry_Int_Tables_number   1
_chemical_formula_structural   Nb8SnRuS16
_chemical_formula_sum   'Nb8 Sn1 Ru1 S16'
_cell_volume   507.35135357
_cell_formula_units_Z   1
loop_
 _symmetry_equiv_pos_site_id
 _symmetry_equiv_pos_as_xyz
  1  'x, y, z'
loop_
 _atom_site_type_symbol
 _atom_site_label
 _atom_site_symmetry_multiplicity
 _atom_site_fract_x
 _atom_site_fract_y
 _atom_site_fract_z
 _atom_site_occupancy
  Nb  Nb0  1  0.000000  0.000000  0.225413  1
  Nb  Nb1  1  0.000000  0.000000  0.774587  1
  Nb  Nb2  1  0.505098  0.010195  0.222733  1
  Nb  Nb3  1  0.989805  0.494902  0.222733  1
  Nb  Nb4  1  0.505098  0.494902  0.222733  1
  Nb  Nb5  1  0.494902  0.989805  0.777267  1
  Nb  Nb6  1  0.010195  0.505098  0.777267  1
  Nb  Nb7  1  0.494902  0.505098  0.777267  1
  Sn  Sn8  1  0.000000  0.000000  0.500000  1
  Ru  Ru9  1  0.000000  0.000000  0.000000  1
  S  S10  1  0.333333  0.666667  0.898419  1
  S  S11  1  0.666667  0.333333  0.101581  1
  S  S12  1  0.666667  0.333333  0.345064  1
  S  S13  1  0.333333  0.666667  0.654936  1
  S  S14  1  0.169087  0.830913  0.342873  1
  S  S15  1  0.169087  0.338173  0.342873  1
  S  S16  1  0.661827  0.830913  0.342873  1
  S  S17  1  0.830913  0.169087  0.657127  1
  S  S18  1  0.830913  0.661827  0.657127  1
  S  S19  1  0.338173  0.169087  0.657127  1
  S  S20  1  0.833922  0.166078  0.893255  1
  S  S21  1  0.833922  0.667845  0.893255  1
  S  S22  1  0.332155  0.166078  0.893255  1
  S  S23  1  0.166078  0.833922  0.106745  1
  S  S24  1  0.166078  0.332155  0.106745  1
  S  S25  1  0.667845  0.833922  0.106745  1
