# generated using pymatgen
data_Tb4DyHoCoCl10
_symmetry_space_group_name_H-M   'P 1'
_cell_length_a   7.11139242
_cell_length_b   8.77988786
_cell_length_c   8.93679784
_cell_angle_alpha   108.66547586
_cell_angle_beta   96.51959275
_cell_angle_gamma   105.44729489
_symmetry_Int_Tables_number   1
_chemical_formula_structural   Tb4DyHoCoCl10
_chemical_formula_sum   'Tb4 Dy1 Ho1 Co1 Cl10'
_cell_volume   497.32432756
_cell_formula_units_Z   1
loop_
 _symmetry_equiv_pos_site_id
 _symmetry_equiv_pos_as_xyz
  1  'x, y, z'
loop_
 _atom_site_type_symbol
 _atom_site_label
 _atom_site_symmetry_multiplicity
 _atom_site_fract_x
 _atom_site_fract_y
 _atom_site_fract_z
 _atom_site_occupancy
  Tb  Tb0  1  0.533598  0.705605  0.905071  1
  Tb  Tb1  1  0.466728  0.294495  0.095147  1
  Tb  Tb2  1  0.635082  0.055605  0.755840  1
  Tb  Tb3  1  0.365404  0.944617  0.244370  1
  Dy  Dy4  1  0.138412  0.861942  0.813406  1
  Ho  Ho5  1  0.860725  0.137880  0.186209  1
  Co  Co6  1  0.500185  0.000084  0.000060  1
  Cl  Cl7  1  0.739200  0.079597  0.449473  1
  Cl  Cl8  1  0.261412  0.920693  0.550118  1
  Cl  Cl9  1  0.951810  0.826060  0.076512  1
  Cl  Cl10  1  0.048202  0.174589  0.924233  1
  Cl  Cl11  1  0.278735  0.246606  0.341156  1
  Cl  Cl12  1  0.719992  0.753121  0.658430  1
  Cl  Cl13  1  0.589154  0.372770  0.837338  1
  Cl  Cl14  1  0.410848  0.627223  0.162662  1
  Cl  Cl15  1  0.843734  0.448347  0.274008  1
  Cl  Cl16  1  0.156780  0.550767  0.725970  1
