# generated using pymatgen
data_TbHgBPd6
_symmetry_space_group_name_H-M   'P 1'
_cell_length_a   5.89631338
_cell_length_b   5.89631212
_cell_length_c   5.89631200
_cell_angle_alpha   59.99998944
_cell_angle_beta   59.99999654
_cell_angle_gamma   59.99999060
_symmetry_Int_Tables_number   1
_chemical_formula_structural   TbHgBPd6
_chemical_formula_sum   'Tb1 Hg1 B1 Pd6'
_cell_volume   144.95273146
_cell_formula_units_Z   1
loop_
 _symmetry_equiv_pos_site_id
 _symmetry_equiv_pos_as_xyz
  1  'x, y, z'
loop_
 _atom_site_type_symbol
 _atom_site_label
 _atom_site_symmetry_multiplicity
 _atom_site_fract_x
 _atom_site_fract_y
 _atom_site_fract_z
 _atom_site_occupancy
  Tb  Tb0  1  0.750000  0.750000  0.750000  1
  Hg  Hg1  1  0.250001  0.250001  0.250001  1
  B  B2  1  0.500000  0.500000  0.500000  1
  Pd  Pd3  1  0.245166  0.754834  0.245166  1
  Pd  Pd4  1  0.754834  0.245166  0.245166  1
  Pd  Pd5  1  0.754834  0.754834  0.245166  1
  Pd  Pd6  1  0.245166  0.245166  0.754834  1
  Pd  Pd7  1  0.754834  0.245166  0.754834  1
  Pd  Pd8  1  0.245166  0.754834  0.754834  1
