# generated using pymatgen
data_Pr6NdPa(ZnRh)8
_symmetry_space_group_name_H-M   'P 1'
_cell_length_a   3.99433500
_cell_length_b   7.39425985
_cell_length_c   16.67023844
_cell_angle_alpha   89.51371013
_cell_angle_beta   90.00000000
_cell_angle_gamma   90.00000000
_symmetry_Int_Tables_number   1
_chemical_formula_structural   Pr6NdPa(ZnRh)8
_chemical_formula_sum   'Pr6 Nd1 Pa1 Zn8 Rh8'
_cell_volume   492.34027507
_cell_formula_units_Z   1
loop_
 _symmetry_equiv_pos_site_id
 _symmetry_equiv_pos_as_xyz
  1  'x, y, z'
loop_
 _atom_site_type_symbol
 _atom_site_label
 _atom_site_symmetry_multiplicity
 _atom_site_fract_x
 _atom_site_fract_y
 _atom_site_fract_z
 _atom_site_occupancy
  Pr  Pr0  1  0.750000  0.948173  0.282943  1
  Pr  Pr1  1  0.750000  0.823196  0.060488  1
  Pr  Pr2  1  0.250000  0.168875  0.939769  1
  Pr  Pr3  1  0.250000  0.547705  0.784150  1
  Pr  Pr4  1  0.750000  0.333872  0.439736  1
  Pr  Pr5  1  0.250000  0.672071  0.560756  1
  Nd  Nd6  1  0.250000  0.049117  0.715553  1
  Pa  Pa7  1  0.750000  0.445373  0.214639  1
  Zn  Zn8  1  0.250000  0.003067  0.439151  1
  Zn  Zn9  1  0.750000  0.502130  0.939921  1
  Zn  Zn10  1  0.750000  0.003589  0.560491  1
  Zn  Zn11  1  0.250000  0.623653  0.350632  1
  Zn  Zn12  1  0.750000  0.376595  0.650942  1
  Zn  Zn13  1  0.750000  0.880216  0.848646  1
  Zn  Zn14  1  0.250000  0.498633  0.057534  1
  Zn  Zn15  1  0.250000  0.118604  0.151496  1
  Rh  Rh16  1  0.250000  0.245264  0.565142  1
  Rh  Rh17  1  0.750000  0.269405  0.076495  1
  Rh  Rh18  1  0.250000  0.267461  0.300047  1
  Rh  Rh19  1  0.750000  0.252251  0.815983  1
  Rh  Rh20  1  0.250000  0.748809  0.934690  1
  Rh  Rh21  1  0.750000  0.754997  0.686452  1
  Rh  Rh22  1  0.750000  0.763611  0.433988  1
  Rh  Rh23  1  0.250000  0.703330  0.190356  1
