# generated using pymatgen
data_ErNp8O18
_symmetry_space_group_name_H-M   'P 1'
_cell_length_a   6.59006069
_cell_length_b   6.59651595
_cell_length_c   8.51133101
_cell_angle_alpha   82.59814650
_cell_angle_beta   75.00801644
_cell_angle_gamma   80.41599389
_symmetry_Int_Tables_number   1
_chemical_formula_structural   ErNp8O18
_chemical_formula_sum   'Er1 Np8 O18'
_cell_volume   350.98593032
_cell_formula_units_Z   1
loop_
 _symmetry_equiv_pos_site_id
 _symmetry_equiv_pos_as_xyz
  1  'x, y, z'
loop_
 _atom_site_type_symbol
 _atom_site_label
 _atom_site_symmetry_multiplicity
 _atom_site_fract_x
 _atom_site_fract_y
 _atom_site_fract_z
 _atom_site_occupancy
  Er  Er0  1  0.000000  0.000000  0.500000  1
  Np  Np1  1  0.332610  0.668535  0.167843  1
  Np  Np2  1  0.779810  0.554740  0.389798  1
  Np  Np3  1  0.110633  0.221801  0.057952  1
  Np  Np4  1  0.667390  0.331465  0.832157  1
  Np  Np5  1  0.220190  0.445260  0.610202  1
  Np  Np6  1  0.555511  0.110529  0.280030  1
  Np  Np7  1  0.889367  0.778199  0.942048  1
  Np  Np8  1  0.444489  0.889471  0.719970  1
  O  O9  1  0.582301  0.666335  0.915612  1
  O  O10  1  0.029098  0.556105  0.137648  1
  O  O11  1  0.417699  0.333665  0.084388  1
  O  O12  1  0.084547  0.663065  0.414783  1
  O  O13  1  0.805237  0.110118  0.028037  1
  O  O14  1  0.472613  0.446473  0.361180  1
  O  O15  1  0.859591  0.225262  0.304246  1
  O  O16  1  0.527387  0.553527  0.638820  1
  O  O17  1  0.253809  0.999879  0.247843  1
  O  O18  1  0.915453  0.336935  0.585217  1
  O  O19  1  0.194763  0.889882  0.971963  1
  O  O20  1  0.746191  0.000121  0.752157  1
  O  O21  1  0.690953  0.885559  0.471833  1
  O  O22  1  0.359557  0.223364  0.807003  1
  O  O23  1  0.640443  0.776636  0.192997  1
  O  O24  1  0.309047  0.114441  0.528167  1
  O  O25  1  0.970902  0.443895  0.862352  1
  O  O26  1  0.140409  0.774738  0.695754  1
