# generated using pymatgen
data_Li4Y(ThSi2)2
_symmetry_space_group_name_H-M   'P 1'
_cell_length_a   4.36125099
_cell_length_b   6.78958698
_cell_length_c   8.22274927
_cell_angle_alpha   114.38423449
_cell_angle_beta   105.37849028
_cell_angle_gamma   89.99999335
_symmetry_Int_Tables_number   1
_chemical_formula_structural   Li4Y(ThSi2)2
_chemical_formula_sum   'Li4 Y1 Th2 Si4'
_cell_volume   212.15652401
_cell_formula_units_Z   1
loop_
 _symmetry_equiv_pos_site_id
 _symmetry_equiv_pos_as_xyz
  1  'x, y, z'
loop_
 _atom_site_type_symbol
 _atom_site_label
 _atom_site_symmetry_multiplicity
 _atom_site_fract_x
 _atom_site_fract_y
 _atom_site_fract_z
 _atom_site_occupancy
  Li  Li0  1  0.672284  0.987241  0.344566  1
  Li  Li1  1  0.329702  0.020667  0.659404  1
  Li  Li2  1  0.329702  0.638738  0.659404  1
  Li  Li3  1  0.672284  0.357325  0.344566  1
  Y  Y4  1  0.871204  0.371204  0.742410  1
  Th  Th5  1  0.998712  0.998712  0.997423  1
  Th  Th6  1  0.127471  0.627471  0.254942  1
  Si  Si7  1  0.500153  0.679366  0.000306  1
  Si  Si8  1  0.500153  0.320940  0.000306  1
  Si  Si9  1  0.784456  0.784456  0.568912  1
  Si  Si10  1  0.213878  0.213878  0.427757  1
