# generated using pymatgen
data_LiTb3In4Rh
_symmetry_space_group_name_H-M   'P 1'
_cell_length_a   8.06440300
_cell_length_b   8.06440337
_cell_length_c   3.77199000
_cell_angle_alpha   90.00000000
_cell_angle_beta   90.00000000
_cell_angle_gamma   120.00000259
_symmetry_Int_Tables_number   1
_chemical_formula_structural   LiTb3In4Rh
_chemical_formula_sum   'Li1 Tb3 In4 Rh1'
_cell_volume   212.44456153
_cell_formula_units_Z   1
loop_
 _symmetry_equiv_pos_site_id
 _symmetry_equiv_pos_as_xyz
  1  'x, y, z'
loop_
 _atom_site_type_symbol
 _atom_site_label
 _atom_site_symmetry_multiplicity
 _atom_site_fract_x
 _atom_site_fract_y
 _atom_site_fract_z
 _atom_site_occupancy
  Li  Li0  1  0.000000  0.000000  0.500000  1
  Tb  Tb1  1  0.387888  0.424791  0.500000  1
  Tb  Tb2  1  0.036904  0.612113  0.500000  1
  Tb  Tb3  1  0.575209  0.963096  0.500000  1
  In  In4  1  0.001114  0.259814  0.000000  1
  In  In5  1  0.666667  0.333334  0.000000  1
  In  In6  1  0.740185  0.741300  0.000000  1
  In  In7  1  0.258701  0.998886  0.000000  1
  Rh  Rh8  1  0.333334  0.666667  0.000000  1
