# generated using pymatgen
data_Ba14Bi11Pb
_symmetry_space_group_name_H-M   'P 1'
_cell_length_a   18.28576848
_cell_length_b   18.28577785
_cell_length_c   18.28578400
_cell_angle_alpha   94.39898146
_cell_angle_beta   117.49359848
_cell_angle_gamma   117.49361902
_symmetry_Int_Tables_number   1
_chemical_formula_structural   Ba14Bi11Pb
_chemical_formula_sum   'Ba56 Bi44 Pb4'
_cell_volume   4472.92213169
_cell_formula_units_Z   4
loop_
 _symmetry_equiv_pos_site_id
 _symmetry_equiv_pos_as_xyz
  1  'x, y, z'
loop_
 _atom_site_type_symbol
 _atom_site_label
 _atom_site_symmetry_multiplicity
 _atom_site_fract_x
 _atom_site_fract_y
 _atom_site_fract_z
 _atom_site_occupancy
  Ba  Ba0  1  0.099393  0.124143  0.978489  1
  Ba  Ba1  1  0.352022  0.250001  0.602021  1
  Ba  Ba2  1  0.030596  0.785529  0.403837  1
  Ba  Ba3  1  0.088820  0.523027  0.752328  1
  Ba  Ba4  1  0.647978  0.749999  0.397979  1
  Ba  Ba5  1  0.647982  0.397981  0.250002  1
  Ba  Ba6  1  0.881691  0.754934  0.785528  1
  Ba  Ba7  1  0.400608  0.379104  0.024751  1
  Ba  Ba8  1  0.270699  0.336491  0.747672  1
  Ba  Ba9  1  0.088816  0.065790  0.336490  1
  Ba  Ba10  1  0.911184  0.934210  0.663510  1
  Ba  Ba11  1  0.729301  0.663509  0.252328  1
  Ba  Ba12  1  0.645653  0.120903  0.521512  1
  Ba  Ba13  1  0.854346  0.978490  0.379090  1
  Ba  Ba14  1  0.147978  0.750002  0.897978  1
  Ba  Ba15  1  0.599392  0.620896  0.975249  1
  Ba  Ba16  1  0.729299  0.565792  0.476970  1
  Ba  Ba17  1  0.588822  0.252328  0.023027  1
  Ba  Ba18  1  0.400606  0.521516  0.375855  1
  Ba  Ba19  1  0.229297  0.976969  0.065790  1
  Ba  Ba20  1  0.411178  0.747672  0.976973  1
  Ba  Ba21  1  0.145649  0.624143  0.524754  1
  Ba  Ba22  1  0.381689  0.285529  0.254933  1
  Ba  Ba23  1  0.530597  0.126757  0.245069  1
  Ba  Ba24  1  0.911180  0.476973  0.247672  1
  Ba  Ba25  1  0.588818  0.836491  0.565788  1
  Ba  Ba26  1  0.881688  0.626758  0.096162  1
  Ba  Ba27  1  0.118312  0.373242  0.903838  1
  Ba  Ba28  1  0.354347  0.879097  0.478488  1
  Ba  Ba29  1  0.469403  0.873243  0.754931  1
  Ba  Ba30  1  0.354343  0.975250  0.875854  1
  Ba  Ba31  1  0.900607  0.875857  0.021511  1
  Ba  Ba32  1  0.854351  0.375857  0.475246  1
  Ba  Ba33  1  0.852022  0.249998  0.102022  1
  Ba  Ba34  1  0.900603  0.524747  0.879093  1
  Ba  Ba35  1  0.099397  0.475253  0.120907  1
  Ba  Ba36  1  0.118309  0.245066  0.214472  1
  Ba  Ba37  1  0.530594  0.903838  0.285528  1
  Ba  Ba38  1  0.599394  0.478484  0.624145  1
  Ba  Ba39  1  0.229303  0.752328  0.163510  1
  Ba  Ba40  1  0.618314  0.403839  0.873244  1
  Ba  Ba41  1  0.381686  0.596161  0.126756  1
  Ba  Ba42  1  0.030596  0.745071  0.626757  1
  Ba  Ba43  1  0.969404  0.214471  0.596163  1
  Ba  Ba44  1  0.770697  0.247672  0.836490  1
  Ba  Ba45  1  0.352018  0.602019  0.749998  1
  Ba  Ba46  1  0.411182  0.163509  0.434212  1
  Ba  Ba47  1  0.145654  0.021510  0.620910  1
  Ba  Ba48  1  0.645657  0.024750  0.124146  1
  Ba  Ba49  1  0.852022  0.102020  0.750000  1
  Ba  Ba50  1  0.618311  0.714471  0.745067  1
  Ba  Ba51  1  0.270701  0.434208  0.523030  1
  Ba  Ba52  1  0.147978  0.897980  0.250000  1
  Ba  Ba53  1  0.469406  0.096162  0.714472  1
  Ba  Ba54  1  0.770703  0.023031  0.934210  1
  Ba  Ba55  1  0.969404  0.254929  0.373243  1
  Bi  Bi56  1  0.487772  0.493887  0.743886  1
  Bi  Bi57  1  0.395018  0.914765  0.072886  1
  Bi  Bi58  1  0.512228  0.506113  0.256114  1
  Bi  Bi59  1  0.104980  0.177867  0.519744  1
  Bi  Bi60  1  0.895019  0.572885  0.414765  1
  Bi  Bi61  1  0.750000  0.993887  0.506113  1
  Bi  Bi62  1  0.604982  0.085235  0.927114  1
  Bi  Bi63  1  0.395020  0.980257  0.322134  1
  Bi  Bi64  1  0.388290  0.685255  0.583230  1
  Bi  Bi65  1  0.658122  0.677866  0.572888  1
  Bi  Bi66  1  0.750000  0.125000  0.375000  1
  Bi  Bi67  1  0.895020  0.822133  0.480256  1
  Bi  Bi68  1  0.102035  0.416783  0.305069  1
  Bi  Bi69  1  0.888286  0.305067  0.703032  1
  Bi  Bi70  1  0.888265  0.083191  0.185243  1
  Bi  Bi71  1  0.611719  0.796970  0.194928  1
  Bi  Bi72  1  0.397984  0.194941  0.083242  1
  Bi  Bi73  1  0.602059  0.296981  0.685241  1
  Bi  Bi74  1  0.397941  0.703019  0.314759  1
  Bi  Bi75  1  0.250000  0.374999  0.125001  1
  Bi  Bi76  1  0.102044  0.185251  0.796974  1
  Bi  Bi77  1  0.250000  0.006113  0.493887  1
  Bi  Bi78  1  0.111714  0.694933  0.296968  1
  Bi  Bi79  1  0.750000  0.625001  0.874999  1
  Bi  Bi80  1  0.111735  0.916809  0.814757  1
  Bi  Bi81  1  0.104981  0.427115  0.585235  1
  Bi  Bi82  1  0.250000  0.875000  0.625000  1
  Bi  Bi83  1  0.604980  0.019743  0.677866  1
  Bi  Bi84  1  0.841878  0.927113  0.822134  1
  Bi  Bi85  1  0.341878  0.322134  0.427112  1
  Bi  Bi86  1  0.841880  0.414764  0.019746  1
  Bi  Bi87  1  0.897956  0.814749  0.203026  1
  Bi  Bi88  1  0.158120  0.585236  0.980254  1
  Bi  Bi89  1  0.250001  0.743886  0.756113  1
  Bi  Bi90  1  0.897965  0.583217  0.694931  1
  Bi  Bi91  1  0.749999  0.256114  0.243887  1
  Bi  Bi92  1  0.611710  0.314745  0.416770  1
  Bi  Bi93  1  0.388281  0.203030  0.805072  1
  Bi  Bi94  1  0.658120  0.480255  0.085235  1
  Bi  Bi95  1  0.341880  0.519745  0.914765  1
  Bi  Bi96  1  0.158122  0.072887  0.177866  1
  Bi  Bi97  1  0.012227  0.756113  0.006113  1
  Bi  Bi98  1  0.987773  0.243887  0.993887  1
  Bi  Bi99  1  0.602016  0.805059  0.916758  1
  Pb  Pb100  1  0.750267  0.875194  0.125241  1
  Pb  Pb101  1  0.749841  0.374943  0.625170  1
  Pb  Pb102  1  0.250159  0.625057  0.374830  1
  Pb  Pb103  1  0.249733  0.124806  0.874759  1
