# generated using pymatgen
data_Ba5Pt2Br2O9
_symmetry_space_group_name_H-M   'P 1'
_cell_length_a   5.91146900
_cell_length_b   5.91146847
_cell_length_c   26.29424700
_cell_angle_alpha   90.00000000
_cell_angle_beta   90.00000000
_cell_angle_gamma   119.99999739
_symmetry_Int_Tables_number   1
_chemical_formula_structural   Ba5Pt2Br2O9
_chemical_formula_sum   'Ba10 Pt4 Br4 O18'
_cell_volume   795.76012853
_cell_formula_units_Z   2
loop_
 _symmetry_equiv_pos_site_id
 _symmetry_equiv_pos_as_xyz
  1  'x, y, z'
loop_
 _atom_site_type_symbol
 _atom_site_label
 _atom_site_symmetry_multiplicity
 _atom_site_fract_x
 _atom_site_fract_y
 _atom_site_fract_z
 _atom_site_occupancy
  Ba  Ba0  1  0.333333  0.666667  0.913385  1
  Ba  Ba1  1  0.666667  0.333333  0.413385  1
  Ba  Ba2  1  0.666667  0.333333  0.086615  1
  Ba  Ba3  1  0.333333  0.666667  0.170810  1
  Ba  Ba4  1  0.666667  0.333333  0.670810  1
  Ba  Ba5  1  0.333333  0.666667  0.329190  1
  Ba  Ba6  1  0.666667  0.333333  0.829190  1
  Ba  Ba7  1  0.666667  0.333333  0.250000  1
  Ba  Ba8  1  0.333333  0.666667  0.586615  1
  Ba  Ba9  1  0.333333  0.666667  0.750000  1
  Pt  Pt10  1  0.000000  0.000000  0.802735  1
  Pt  Pt11  1  0.000000  0.000000  0.302735  1
  Pt  Pt12  1  0.000000  0.000000  0.697265  1
  Pt  Pt13  1  0.000000  0.000000  0.197265  1
  Br  Br14  1  0.333333  0.666667  0.454145  1
  Br  Br15  1  0.333333  0.666667  0.045855  1
  Br  Br16  1  0.666667  0.333333  0.545855  1
  Br  Br17  1  0.666667  0.333333  0.954145  1
  O  O18  1  0.161879  0.838121  0.657303  1
  O  O19  1  0.676243  0.838121  0.842697  1
  O  O20  1  0.161879  0.323757  0.657303  1
  O  O21  1  0.846210  0.153790  0.750000  1
  O  O22  1  0.307581  0.153790  0.750000  1
  O  O23  1  0.153790  0.307581  0.250000  1
  O  O24  1  0.153790  0.846210  0.250000  1
  O  O25  1  0.692419  0.846210  0.250000  1
  O  O26  1  0.838121  0.161879  0.342697  1
  O  O27  1  0.323757  0.161879  0.157303  1
  O  O28  1  0.846210  0.692419  0.750000  1
  O  O29  1  0.838121  0.676243  0.157303  1
  O  O30  1  0.323757  0.161879  0.342697  1
  O  O31  1  0.838121  0.161879  0.157303  1
  O  O32  1  0.161879  0.323757  0.842697  1
  O  O33  1  0.838121  0.676243  0.342697  1
  O  O34  1  0.676243  0.838121  0.657303  1
  O  O35  1  0.161879  0.838121  0.842697  1
