# generated using pymatgen
data_Ta3GeRu2N
_symmetry_space_group_name_H-M   'P 1'
_cell_length_a   8.23754455
_cell_length_b   8.23754436
_cell_length_c   8.23754500
_cell_angle_alpha   60.00000146
_cell_angle_beta   60.00000220
_cell_angle_gamma   60.00000305
_symmetry_Int_Tables_number   1
_chemical_formula_structural   Ta3GeRu2N
_chemical_formula_sum   'Ta12 Ge4 Ru8 N4'
_cell_volume   395.25590504
_cell_formula_units_Z   4
loop_
 _symmetry_equiv_pos_site_id
 _symmetry_equiv_pos_as_xyz
  1  'x, y, z'
loop_
 _atom_site_type_symbol
 _atom_site_label
 _atom_site_symmetry_multiplicity
 _atom_site_fract_x
 _atom_site_fract_y
 _atom_site_fract_z
 _atom_site_occupancy
  Ta  Ta0  1  0.808983  0.808983  0.191017  1
  Ta  Ta1  1  0.191017  0.191017  0.808983  1
  Ta  Ta2  1  0.808983  0.191017  0.808983  1
  Ta  Ta3  1  0.191017  0.808983  0.191017  1
  Ta  Ta4  1  0.191017  0.808983  0.808983  1
  Ta  Ta5  1  0.808983  0.191017  0.191017  1
  Ta  Ta6  1  0.441017  0.441017  0.058983  1
  Ta  Ta7  1  0.058983  0.058983  0.441017  1
  Ta  Ta8  1  0.441017  0.058983  0.441017  1
  Ta  Ta9  1  0.058983  0.441017  0.058983  1
  Ta  Ta10  1  0.058983  0.441017  0.441017  1
  Ta  Ta11  1  0.441017  0.058983  0.058983  1
  Ge  Ge12  1  0.125000  0.625000  0.625000  1
  Ge  Ge13  1  0.625000  0.125000  0.625000  1
  Ge  Ge14  1  0.625000  0.625000  0.125000  1
  Ge  Ge15  1  0.625000  0.625000  0.625000  1
  Ru  Ru16  1  0.764249  0.411918  0.411918  1
  Ru  Ru17  1  0.411918  0.764249  0.411918  1
  Ru  Ru18  1  0.411918  0.411918  0.764249  1
  Ru  Ru19  1  0.411918  0.411918  0.411918  1
  Ru  Ru20  1  0.485751  0.838082  0.838082  1
  Ru  Ru21  1  0.838082  0.485751  0.838082  1
  Ru  Ru22  1  0.838082  0.838082  0.485751  1
  Ru  Ru23  1  0.838082  0.838082  0.838082  1
  N  N24  1  0.625000  0.125000  0.125000  1
  N  N25  1  0.125000  0.625000  0.125000  1
  N  N26  1  0.125000  0.125000  0.625000  1
  N  N27  1  0.125000  0.125000  0.125000  1
