# generated using pymatgen
data_LiPr3In3Cu2
_symmetry_space_group_name_H-M   'P 1'
_cell_length_a   7.73780100
_cell_length_b   7.73780155
_cell_length_c   4.11912600
_cell_angle_alpha   90.00000000
_cell_angle_beta   90.00000000
_cell_angle_gamma   120.00001049
_symmetry_Int_Tables_number   1
_chemical_formula_structural   LiPr3In3Cu2
_chemical_formula_sum   'Li1 Pr3 In3 Cu2'
_cell_volume   213.58502800
_cell_formula_units_Z   1
loop_
 _symmetry_equiv_pos_site_id
 _symmetry_equiv_pos_as_xyz
  1  'x, y, z'
loop_
 _atom_site_type_symbol
 _atom_site_label
 _atom_site_symmetry_multiplicity
 _atom_site_fract_x
 _atom_site_fract_y
 _atom_site_fract_z
 _atom_site_occupancy
  Li  Li0  1  0.000000  0.000000  0.500000  1
  Pr  Pr1  1  0.418945  0.418945  0.500000  1
  Pr  Pr2  1  0.581055  0.000000  0.500000  1
  Pr  Pr3  1  0.000000  0.581055  0.500000  1
  In  In4  1  0.749138  0.749138  0.000000  1
  In  In5  1  0.250862  0.000000  0.000000  1
  In  In6  1  0.000000  0.250862  0.000000  1
  Cu  Cu7  1  0.666667  0.333333  0.000000  1
  Cu  Cu8  1  0.333333  0.666667  0.000000  1
