# generated using pymatgen
data_Lu4B12MoIr
_symmetry_space_group_name_H-M   'P 1'
_cell_length_a   3.59824900
_cell_length_b   9.08807193
_cell_length_c   11.48205071
_cell_angle_alpha   89.70173584
_cell_angle_beta   90.00000000
_cell_angle_gamma   90.00000000
_symmetry_Int_Tables_number   1
_chemical_formula_structural   Lu4B12MoIr
_chemical_formula_sum   'Lu8 B24 Mo2 Ir2'
_cell_volume   375.47112610
_cell_formula_units_Z   2
loop_
 _symmetry_equiv_pos_site_id
 _symmetry_equiv_pos_as_xyz
  1  'x, y, z'
loop_
 _atom_site_type_symbol
 _atom_site_label
 _atom_site_symmetry_multiplicity
 _atom_site_fract_x
 _atom_site_fract_y
 _atom_site_fract_z
 _atom_site_occupancy
  Lu  Lu0  1  0.000000  0.325056  0.417192  1
  Lu  Lu1  1  0.000000  0.674944  0.582808  1
  Lu  Lu2  1  0.000000  0.816117  0.089287  1
  Lu  Lu3  1  0.000000  0.183883  0.910713  1
  Lu  Lu4  1  0.000000  0.942660  0.374189  1
  Lu  Lu5  1  0.000000  0.057340  0.625811  1
  Lu  Lu6  1  0.000000  0.445581  0.127363  1
  Lu  Lu7  1  0.000000  0.554419  0.872637  1
  B  B8  1  0.500000  0.551229  0.434350  1
  B  B9  1  0.500000  0.448771  0.565650  1
  B  B10  1  0.500000  0.053804  0.064984  1
  B  B11  1  0.500000  0.946196  0.935016  1
  B  B12  1  0.500000  0.750761  0.421391  1
  B  B13  1  0.500000  0.249239  0.578609  1
  B  B14  1  0.500000  0.250115  0.078560  1
  B  B15  1  0.500000  0.749885  0.921440  1
  B  B16  1  0.500000  0.796106  0.263349  1
  B  B17  1  0.500000  0.203894  0.736651  1
  B  B18  1  0.500000  0.291315  0.233905  1
  B  B19  1  0.500000  0.708685  0.766095  1
  B  B20  1  0.500000  0.632240  0.181909  1
  B  B21  1  0.500000  0.367760  0.818091  1
  B  B22  1  0.500000  0.130820  0.315885  1
  B  B23  1  0.500000  0.869180  0.684115  1
  B  B24  1  0.500000  0.981847  0.212017  1
  B  B25  1  0.500000  0.018153  0.787983  1
  B  B26  1  0.500000  0.478080  0.285940  1
  B  B27  1  0.500000  0.521920  0.714060  1
  B  B28  1  0.500000  0.605960  0.027904  1
  B  B29  1  0.500000  0.394040  0.972096  1
  B  B30  1  0.500000  0.104170  0.470060  1
  B  B31  1  0.500000  0.895830  0.529940  1
  Mo  Mo32  1  0.000000  0.638964  0.319143  1
  Mo  Mo33  1  0.000000  0.361036  0.680857  1
  Ir  Ir34  1  0.000000  0.137211  0.177606  1
  Ir  Ir35  1  0.000000  0.862789  0.822394  1
