# generated using pymatgen
data_Sb8Pd5Br2
_symmetry_space_group_name_H-M   'P 1'
_cell_length_a   20.32245583
_cell_length_b   20.32245475
_cell_length_c   6.67745934
_cell_angle_alpha   72.73403799
_cell_angle_beta   72.73403847
_cell_angle_gamma   8.34186376
_symmetry_Int_Tables_number   1
_chemical_formula_structural   Sb8Pd5Br2
_chemical_formula_sum   'Sb8 Pd5 Br2'
_cell_volume   381.97235520
_cell_formula_units_Z   1
loop_
 _symmetry_equiv_pos_site_id
 _symmetry_equiv_pos_as_xyz
  1  'x, y, z'
loop_
 _atom_site_type_symbol
 _atom_site_label
 _atom_site_symmetry_multiplicity
 _atom_site_fract_x
 _atom_site_fract_y
 _atom_site_fract_z
 _atom_site_occupancy
  Sb  Sb0  1  0.679804  0.679804  0.683221  1
  Sb  Sb1  1  0.278405  0.278405  0.728909  1
  Sb  Sb2  1  0.876124  0.876124  0.768540  1
  Sb  Sb3  1  0.540200  0.540200  0.247008  1
  Sb  Sb4  1  0.139796  0.139796  0.197162  1
  Sb  Sb5  1  0.733658  0.733658  0.242786  1
  Sb  Sb6  1  0.330173  0.330173  0.286868  1
  Sb  Sb7  1  0.928477  0.928477  0.323486  1
  Pd  Pd8  1  0.996502  0.996502  0.078197  1
  Pd  Pd9  1  0.607808  0.607808  0.945409  1
  Pd  Pd10  1  0.207697  0.207697  0.958225  1
  Pd  Pd11  1  0.804689  0.804689  0.008464  1
  Pd  Pd12  1  0.398697  0.398697  0.062638  1
  Br  Br13  1  0.083322  0.083322  0.684182  1
  Br  Br14  1  0.480370  0.480370  0.784907  1
