# generated using pymatgen
data_Y4Os3Ru5
_symmetry_space_group_name_H-M   'P 1'
_cell_length_a   5.30611230
_cell_length_b   5.28890021
_cell_length_c   8.98879700
_cell_angle_alpha   90.00000000
_cell_angle_beta   90.00000000
_cell_angle_gamma   119.89275218
_symmetry_Int_Tables_number   1
_chemical_formula_structural   Y4Os3Ru5
_chemical_formula_sum   'Y4 Os3 Ru5'
_cell_volume   218.69675669
_cell_formula_units_Z   1
loop_
 _symmetry_equiv_pos_site_id
 _symmetry_equiv_pos_as_xyz
  1  'x, y, z'
loop_
 _atom_site_type_symbol
 _atom_site_label
 _atom_site_symmetry_multiplicity
 _atom_site_fract_x
 _atom_site_fract_y
 _atom_site_fract_z
 _atom_site_occupancy
  Y  Y0  1  0.339760  0.669881  0.432943  1
  Y  Y1  1  0.673500  0.336749  0.566336  1
  Y  Y2  1  0.673500  0.336749  0.933664  1
  Y  Y3  1  0.339760  0.669881  0.067057  1
  Os  Os4  1  0.162628  0.330530  0.750000  1
  Os  Os5  1  0.162628  0.832098  0.750000  1
  Os  Os6  1  0.313887  0.156943  0.250000  1
  Ru  Ru7  1  0.818358  0.647336  0.250000  1
  Ru  Ru8  1  0.641761  0.820881  0.750000  1
  Ru  Ru9  1  0.027930  0.013965  0.000260  1
  Ru  Ru10  1  0.818358  0.171023  0.250000  1
  Ru  Ru11  1  0.027930  0.013965  0.499740  1
