# generated using pymatgen
data_Er16In5Pt2Au
_symmetry_space_group_name_H-M   'P 1'
_cell_length_a   10.30541100
_cell_length_b   10.32037004
_cell_length_c   6.97472250
_cell_angle_alpha   89.96251153
_cell_angle_beta   90.00000000
_cell_angle_gamma   119.95205396
_symmetry_Int_Tables_number   1
_chemical_formula_structural   Er16In5Pt2Au
_chemical_formula_sum   'Er16 In5 Pt2 Au1'
_cell_volume   642.72863382
_cell_formula_units_Z   1
loop_
 _symmetry_equiv_pos_site_id
 _symmetry_equiv_pos_as_xyz
  1  'x, y, z'
loop_
 _atom_site_type_symbol
 _atom_site_label
 _atom_site_symmetry_multiplicity
 _atom_site_fract_x
 _atom_site_fract_y
 _atom_site_fract_z
 _atom_site_occupancy
  Er  Er0  1  0.528565  0.057130  0.795721  1
  Er  Er1  1  0.931940  0.481251  0.795512  1
  Er  Er2  1  0.549310  0.481251  0.795512  1
  Er  Er3  1  0.469487  0.938973  0.290543  1
  Er  Er4  1  0.063581  0.525987  0.294443  1
  Er  Er5  1  0.462407  0.525987  0.294443  1
  Er  Er6  1  0.826668  0.653337  0.462429  1
  Er  Er7  1  0.350952  0.174407  0.508531  1
  Er  Er8  1  0.823453  0.174407  0.508531  1
  Er  Er9  1  0.174587  0.349174  0.991653  1
  Er  Er10  1  0.659606  0.820655  0.013351  1
  Er  Er11  1  0.161050  0.820655  0.013351  1
  Er  Er12  1  0.669707  0.339413  0.164517  1
  Er  Er13  1  0.333978  0.667957  0.670146  1
  Er  Er14  1  0.994088  0.988176  0.778049  1
  Er  Er15  1  0.005804  0.011608  0.279318  1
  In  In16  1  0.329630  0.163860  0.039649  1
  In  In17  1  0.834229  0.163860  0.039649  1
  In  In18  1  0.162853  0.325706  0.541011  1
  In  In19  1  0.671392  0.835309  0.542423  1
  In  In20  1  0.163917  0.835309  0.542423  1
  Pt  Pt21  1  0.667083  0.334164  0.562724  1
  Pt  Pt22  1  0.333912  0.667825  0.064650  1
  Au  Au23  1  0.831799  0.663599  0.047327  1
