# generated using pymatgen
data_Tb3Lu9(Si3Ir)4
_symmetry_space_group_name_H-M   'P 1'
_cell_length_a   4.21195100
_cell_length_b   10.48432691
_cell_length_c   12.11671986
_cell_angle_alpha   90.14590288
_cell_angle_beta   90.00000000
_cell_angle_gamma   90.00000000
_symmetry_Int_Tables_number   1
_chemical_formula_structural   Tb3Lu9(Si3Ir)4
_chemical_formula_sum   'Tb3 Lu9 Si12 Ir4'
_cell_volume   535.06620708
_cell_formula_units_Z   1
loop_
 _symmetry_equiv_pos_site_id
 _symmetry_equiv_pos_as_xyz
  1  'x, y, z'
loop_
 _atom_site_type_symbol
 _atom_site_label
 _atom_site_symmetry_multiplicity
 _atom_site_fract_x
 _atom_site_fract_y
 _atom_site_fract_z
 _atom_site_occupancy
  Tb  Tb0  1  0.250000  0.841680  0.302331  1
  Tb  Tb1  1  0.750000  0.342754  0.197572  1
  Tb  Tb2  1  0.750000  0.157574  0.697420  1
  Lu  Lu3  1  0.250000  0.878570  0.020981  1
  Lu  Lu4  1  0.250000  0.620384  0.523054  1
  Lu  Lu5  1  0.750000  0.119346  0.978264  1
  Lu  Lu6  1  0.750000  0.380988  0.478531  1
  Lu  Lu7  1  0.250000  0.918015  0.604275  1
  Lu  Lu8  1  0.250000  0.580759  0.102630  1
  Lu  Lu9  1  0.750000  0.081844  0.396419  1
  Lu  Lu10  1  0.750000  0.419233  0.895691  1
  Lu  Lu11  1  0.250000  0.659667  0.800936  1
  Si  Si12  1  0.250000  0.009470  0.822570  1
  Si  Si13  1  0.250000  0.490777  0.322440  1
  Si  Si14  1  0.750000  0.989907  0.177516  1
  Si  Si15  1  0.750000  0.511894  0.678780  1
  Si  Si16  1  0.250000  0.247327  0.840520  1
  Si  Si17  1  0.250000  0.252452  0.340384  1
  Si  Si18  1  0.750000  0.751150  0.158507  1
  Si  Si19  1  0.750000  0.747169  0.660764  1
  Si  Si20  1  0.250000  0.199816  0.541151  1
  Si  Si21  1  0.250000  0.300737  0.040474  1
  Si  Si22  1  0.750000  0.801387  0.459710  1
  Si  Si23  1  0.750000  0.696172  0.956171  1
  Ir  Ir24  1  0.250000  0.392328  0.679596  1
  Ir  Ir25  1  0.250000  0.110511  0.176083  1
  Ir  Ir26  1  0.750000  0.610556  0.323070  1
  Ir  Ir27  1  0.750000  0.887535  0.824167  1
