# generated using pymatgen
data_Na2(Ga3Ir)3
_symmetry_space_group_name_H-M   'P 1'
_cell_length_a   7.49224662
_cell_length_b   7.49224557
_cell_length_c   9.81795400
_cell_angle_alpha   90.00000000
_cell_angle_beta   90.00000000
_cell_angle_gamma   119.34367795
_symmetry_Int_Tables_number   1
_chemical_formula_structural   Na2(Ga3Ir)3
_chemical_formula_sum   'Na4 Ga18 Ir6'
_cell_volume   480.40784425
_cell_formula_units_Z   2
loop_
 _symmetry_equiv_pos_site_id
 _symmetry_equiv_pos_as_xyz
  1  'x, y, z'
loop_
 _atom_site_type_symbol
 _atom_site_label
 _atom_site_symmetry_multiplicity
 _atom_site_fract_x
 _atom_site_fract_y
 _atom_site_fract_z
 _atom_site_occupancy
  Na  Na0  1  0.000761  0.327695  0.750000  1
  Na  Na1  1  0.999239  0.672305  0.250000  1
  Na  Na2  1  0.327695  0.000761  0.750000  1
  Na  Na3  1  0.672305  0.999239  0.250000  1
  Ga  Ga4  1  0.663612  0.663612  0.432873  1
  Ga  Ga5  1  0.336388  0.336388  0.932873  1
  Ga  Ga6  1  0.663612  0.663612  0.067127  1
  Ga  Ga7  1  0.336388  0.336388  0.567127  1
  Ga  Ga8  1  0.003838  0.335284  0.426282  1
  Ga  Ga9  1  0.996162  0.664716  0.926282  1
  Ga  Ga10  1  0.335284  0.003838  0.073718  1
  Ga  Ga11  1  0.664716  0.996162  0.573718  1
  Ga  Ga12  1  0.996162  0.664716  0.573718  1
  Ga  Ga13  1  0.003838  0.335284  0.073718  1
  Ga  Ga14  1  0.664716  0.996162  0.926282  1
  Ga  Ga15  1  0.335284  0.003838  0.426282  1
  Ga  Ga16  1  0.128213  0.128213  0.250000  1
  Ga  Ga17  1  0.871787  0.871787  0.750000  1
  Ga  Ga18  1  0.661208  0.446554  0.750000  1
  Ga  Ga19  1  0.338792  0.553446  0.250000  1
  Ga  Ga20  1  0.446554  0.661208  0.750000  1
  Ga  Ga21  1  0.553446  0.338792  0.250000  1
  Ir  Ir22  1  0.000000  0.000000  0.500000  1
  Ir  Ir23  1  0.000000  0.000000  0.000000  1
  Ir  Ir24  1  0.673249  0.326751  0.500000  1
  Ir  Ir25  1  0.326751  0.673249  0.000000  1
  Ir  Ir26  1  0.326751  0.673249  0.500000  1
  Ir  Ir27  1  0.673249  0.326751  0.000000  1
