# generated using pymatgen
data_Y12Er4MgCd3Ir4
_symmetry_space_group_name_H-M   'P 1'
_cell_length_a   9.66826406
_cell_length_b   9.66826322
_cell_length_c   9.66826380
_cell_angle_alpha   59.73829330
_cell_angle_beta   59.73829634
_cell_angle_gamma   59.73829942
_symmetry_Int_Tables_number   1
_chemical_formula_structural   Y12Er4MgCd3Ir4
_chemical_formula_sum   'Y12 Er4 Mg1 Cd3 Ir4'
_cell_volume   635.24561744
_cell_formula_units_Z   1
loop_
 _symmetry_equiv_pos_site_id
 _symmetry_equiv_pos_as_xyz
  1  'x, y, z'
loop_
 _atom_site_type_symbol
 _atom_site_label
 _atom_site_symmetry_multiplicity
 _atom_site_fract_x
 _atom_site_fract_y
 _atom_site_fract_z
 _atom_site_occupancy
  Y  Y0  1  0.808605  0.190729  0.190729  1
  Y  Y1  1  0.187685  0.810727  0.810727  1
  Y  Y2  1  0.190729  0.808605  0.190729  1
  Y  Y3  1  0.810727  0.187685  0.810727  1
  Y  Y4  1  0.190729  0.190729  0.808605  1
  Y  Y5  1  0.810727  0.810727  0.187685  1
  Y  Y6  1  0.940192  0.561864  0.561864  1
  Y  Y7  1  0.561615  0.938451  0.938451  1
  Y  Y8  1  0.561864  0.940192  0.561864  1
  Y  Y9  1  0.938451  0.561615  0.938451  1
  Y  Y10  1  0.561864  0.561864  0.940192  1
  Y  Y11  1  0.938451  0.938451  0.561615  1
  Er  Er12  1  0.348605  0.348605  0.348605  1
  Er  Er13  1  0.347753  0.347753  0.957838  1
  Er  Er14  1  0.347753  0.957838  0.347753  1
  Er  Er15  1  0.957838  0.347753  0.347753  1
  Mg  Mg16  1  0.575369  0.575369  0.575369  1
  Cd  Cd17  1  0.581004  0.581004  0.256240  1
  Cd  Cd18  1  0.581004  0.256240  0.581004  1
  Cd  Cd19  1  0.256240  0.581004  0.581004  1
  Ir  Ir20  1  0.142723  0.142723  0.142723  1
  Ir  Ir21  1  0.143719  0.143719  0.572633  1
  Ir  Ir22  1  0.143719  0.572633  0.143719  1
  Ir  Ir23  1  0.572633  0.143719  0.143719  1
