# generated using pymatgen
data_LaNd3(NiP)8
_symmetry_space_group_name_H-M   'P 1'
_cell_length_a   3.91467400
_cell_length_b   8.27941822
_cell_length_c   9.86668400
_cell_angle_alpha   90.01283126
_cell_angle_beta   90.00000000
_cell_angle_gamma   90.00000000
_symmetry_Int_Tables_number   1
_chemical_formula_structural   LaNd3(NiP)8
_chemical_formula_sum   'La1 Nd3 Ni8 P8'
_cell_volume   319.79128994
_cell_formula_units_Z   1
loop_
 _symmetry_equiv_pos_site_id
 _symmetry_equiv_pos_as_xyz
  1  'x, y, z'
loop_
 _atom_site_type_symbol
 _atom_site_label
 _atom_site_symmetry_multiplicity
 _atom_site_fract_x
 _atom_site_fract_y
 _atom_site_fract_z
 _atom_site_occupancy
  La  La0  1  0.750000  0.239767  0.167722  1
  Nd  Nd1  1  0.250000  0.259618  0.667995  1
  Nd  Nd2  1  0.750000  0.740688  0.332262  1
  Nd  Nd3  1  0.250000  0.759142  0.831464  1
  Ni  Ni4  1  0.750000  0.087438  0.455457  1
  Ni  Ni5  1  0.250000  0.911917  0.545950  1
  Ni  Ni6  1  0.750000  0.588895  0.045534  1
  Ni  Ni7  1  0.250000  0.413852  0.953853  1
  Ni  Ni8  1  0.250000  0.951208  0.125336  1
  Ni  Ni9  1  0.750000  0.044541  0.872495  1
  Ni  Ni10  1  0.250000  0.456353  0.375507  1
  Ni  Ni11  1  0.750000  0.545420  0.626275  1
  P  P12  1  0.250000  0.139073  0.948089  1
  P  P13  1  0.750000  0.860793  0.049153  1
  P  P14  1  0.250000  0.640387  0.550924  1
  P  P15  1  0.750000  0.360608  0.450893  1
  P  P16  1  0.250000  0.533144  0.159725  1
  P  P17  1  0.750000  0.469684  0.841153  1
  P  P18  1  0.250000  0.028892  0.341445  1
  P  P19  1  0.750000  0.968582  0.658768  1
