# generated using pymatgen
data_Nb4Si2AsPRu4
_symmetry_space_group_name_H-M   'P 1'
_cell_length_a   3.84286200
_cell_length_b   6.40792010
_cell_length_c   7.31867453
_cell_angle_alpha   90.34062598
_cell_angle_beta   90.00000000
_cell_angle_gamma   90.00000000
_symmetry_Int_Tables_number   1
_chemical_formula_structural   Nb4Si2AsPRu4
_chemical_formula_sum   'Nb4 Si2 As1 P1 Ru4'
_cell_volume   180.21736520
_cell_formula_units_Z   1
loop_
 _symmetry_equiv_pos_site_id
 _symmetry_equiv_pos_as_xyz
  1  'x, y, z'
loop_
 _atom_site_type_symbol
 _atom_site_label
 _atom_site_symmetry_multiplicity
 _atom_site_fract_x
 _atom_site_fract_y
 _atom_site_fract_z
 _atom_site_occupancy
  Nb  Nb0  1  0.250000  0.019892  0.820287  1
  Nb  Nb1  1  0.250000  0.523141  0.675366  1
  Nb  Nb2  1  0.750000  0.970527  0.178916  1
  Nb  Nb3  1  0.750000  0.480187  0.326540  1
  Si  Si4  1  0.250000  0.774321  0.378517  1
  Si  Si5  1  0.750000  0.726896  0.874675  1
  As  As6  1  0.250000  0.267564  0.124867  1
  P  P7  1  0.750000  0.227821  0.621736  1
  Ru  Ru8  1  0.250000  0.151248  0.449395  1
  Ru  Ru9  1  0.250000  0.651115  0.060551  1
  Ru  Ru10  1  0.750000  0.855403  0.562300  1
  Ru  Ru11  1  0.750000  0.351885  0.926849  1
