# generated using pymatgen
data_Y5Ho15Cd3Hg3Ru2
_symmetry_space_group_name_H-M   'P 1'
_cell_length_a   9.58093102
_cell_length_b   9.58093040
_cell_length_c   9.75306700
_cell_angle_alpha   90.00000000
_cell_angle_beta   90.00000000
_cell_angle_gamma   120.00681863
_symmetry_Int_Tables_number   1
_chemical_formula_structural   Y5Ho15Cd3Hg3Ru2
_chemical_formula_sum   'Y5 Ho15 Cd3 Hg3 Ru2'
_cell_volume   775.27788131
_cell_formula_units_Z   1
loop_
 _symmetry_equiv_pos_site_id
 _symmetry_equiv_pos_as_xyz
  1  'x, y, z'
loop_
 _atom_site_type_symbol
 _atom_site_label
 _atom_site_symmetry_multiplicity
 _atom_site_fract_x
 _atom_site_fract_y
 _atom_site_fract_z
 _atom_site_occupancy
  Y  Y0  1  0.541153  0.082441  0.250000  1
  Y  Y1  1  0.917559  0.458847  0.250000  1
  Y  Y2  1  0.458932  0.541068  0.750000  1
  Y  Y3  1  0.458926  0.917875  0.750000  1
  Y  Y4  1  0.082125  0.541074  0.750000  1
  Ho  Ho5  1  0.000016  0.999984  0.491370  1
  Ho  Ho6  1  0.000016  0.999984  0.008630  1
  Ho  Ho7  1  0.209502  0.790498  0.439120  1
  Ho  Ho8  1  0.209695  0.418998  0.439036  1
  Ho  Ho9  1  0.581002  0.790305  0.439036  1
  Ho  Ho10  1  0.790276  0.209724  0.559928  1
  Ho  Ho11  1  0.790112  0.580482  0.559771  1
  Ho  Ho12  1  0.419518  0.209888  0.559771  1
  Ho  Ho13  1  0.790276  0.209724  0.940072  1
  Ho  Ho14  1  0.790112  0.580482  0.940229  1
  Ho  Ho15  1  0.419518  0.209888  0.940229  1
  Ho  Ho16  1  0.209502  0.790498  0.060880  1
  Ho  Ho17  1  0.209695  0.418998  0.060964  1
  Ho  Ho18  1  0.581002  0.790305  0.060964  1
  Ho  Ho19  1  0.541018  0.458982  0.250000  1
  Cd  Cd20  1  0.113240  0.886760  0.750000  1
  Cd  Cd21  1  0.113251  0.226485  0.750000  1
  Cd  Cd22  1  0.773515  0.886749  0.750000  1
  Hg  Hg23  1  0.880028  0.119972  0.250000  1
  Hg  Hg24  1  0.879655  0.759745  0.250000  1
  Hg  Hg25  1  0.240255  0.120345  0.250000  1
  Ru  Ru26  1  0.333412  0.666588  0.250000  1
  Ru  Ru27  1  0.666684  0.333316  0.750000  1
