# generated using pymatgen
data_Ti2Nb2As3
_symmetry_space_group_name_H-M   'P 1'
_cell_length_a   7.43853509
_cell_length_b   7.43853546
_cell_length_c   19.02667400
_cell_angle_alpha   90.00000000
_cell_angle_beta   90.00000000
_cell_angle_gamma   152.67070923
_symmetry_Int_Tables_number   1
_chemical_formula_structural   Ti2Nb2As3
_chemical_formula_sum   'Ti8 Nb8 As12'
_cell_volume   483.33538821
_cell_formula_units_Z   4
loop_
 _symmetry_equiv_pos_site_id
 _symmetry_equiv_pos_as_xyz
  1  'x, y, z'
loop_
 _atom_site_type_symbol
 _atom_site_label
 _atom_site_symmetry_multiplicity
 _atom_site_fract_x
 _atom_site_fract_y
 _atom_site_fract_z
 _atom_site_occupancy
  Ti  Ti0  1  0.734953  0.265047  0.160073  1
  Ti  Ti1  1  0.265047  0.734953  0.839927  1
  Ti  Ti2  1  0.265047  0.734953  0.660073  1
  Ti  Ti3  1  0.734953  0.265047  0.339927  1
  Ti  Ti4  1  0.533552  0.466448  0.120425  1
  Ti  Ti5  1  0.466448  0.533552  0.879575  1
  Ti  Ti6  1  0.466448  0.533552  0.620425  1
  Ti  Ti7  1  0.533552  0.466448  0.379575  1
  Nb  Nb8  1  0.668257  0.331743  0.973650  1
  Nb  Nb9  1  0.331743  0.668257  0.026350  1
  Nb  Nb10  1  0.331743  0.668257  0.473650  1
  Nb  Nb11  1  0.668257  0.331743  0.526350  1
  Nb  Nb12  1  0.000000  0.000000  0.000000  1
  Nb  Nb13  1  0.000000  0.000000  0.500000  1
  Nb  Nb14  1  0.058778  0.941222  0.750000  1
  Nb  Nb15  1  0.941222  0.058778  0.250000  1
  As  As16  1  0.901281  0.098719  0.118111  1
  As  As17  1  0.098719  0.901281  0.881889  1
  As  As18  1  0.098719  0.901281  0.618111  1
  As  As19  1  0.901281  0.098719  0.381889  1
  As  As20  1  0.843358  0.156642  0.920060  1
  As  As21  1  0.156642  0.843358  0.079940  1
  As  As22  1  0.156642  0.843358  0.420060  1
  As  As23  1  0.843358  0.156642  0.579940  1
  As  As24  1  0.701944  0.298056  0.750000  1
  As  As25  1  0.298056  0.701944  0.250000  1
  As  As26  1  0.416057  0.583943  0.750000  1
  As  As27  1  0.583943  0.416057  0.250000  1
