# generated using pymatgen
data_TaTi2Re3Si2B
_symmetry_space_group_name_H-M   'P 1'
_cell_length_a   6.71846400
_cell_length_b   6.70746632
_cell_length_c   3.17718800
_cell_angle_alpha   90.00000000
_cell_angle_beta   90.00000000
_cell_angle_gamma   120.05425295
_symmetry_Int_Tables_number   1
_chemical_formula_structural   TaTi2Re3Si2B
_chemical_formula_sum   'Ta1 Ti2 Re3 Si2 B1'
_cell_volume   123.92654922
_cell_formula_units_Z   1
loop_
 _symmetry_equiv_pos_site_id
 _symmetry_equiv_pos_as_xyz
  1  'x, y, z'
loop_
 _atom_site_type_symbol
 _atom_site_label
 _atom_site_symmetry_multiplicity
 _atom_site_fract_x
 _atom_site_fract_y
 _atom_site_fract_z
 _atom_site_occupancy
  Ta  Ta0  1  0.606395  0.000000  0.000000  1
  Ti  Ti1  1  0.391797  0.390344  0.000000  1
  Ti  Ti2  1  0.001452  0.609656  0.000000  1
  Re  Re3  1  0.245424  0.000000  0.500000  1
  Re  Re4  1  0.755918  0.755113  0.500000  1
  Re  Re5  1  0.000804  0.244887  0.500000  1
  Si  Si6  1  0.328312  0.659919  0.500000  1
  Si  Si7  1  0.668395  0.340081  0.500000  1
  B  B8  1  0.001503  0.000000  0.000000  1
