# generated using pymatgen
data_DyTa2(Nb2Sn3)2
_symmetry_space_group_name_H-M   'P 1'
_cell_length_a   5.80798900
_cell_length_b   5.80601957
_cell_length_c   9.60225200
_cell_angle_alpha   90.00000000
_cell_angle_beta   90.00000000
_cell_angle_gamma   119.98877652
_symmetry_Int_Tables_number   1
_chemical_formula_structural   DyTa2(Nb2Sn3)2
_chemical_formula_sum   'Dy1 Ta2 Nb4 Sn6'
_cell_volume   280.45108025
_cell_formula_units_Z   1
loop_
 _symmetry_equiv_pos_site_id
 _symmetry_equiv_pos_as_xyz
  1  'x, y, z'
loop_
 _atom_site_type_symbol
 _atom_site_label
 _atom_site_symmetry_multiplicity
 _atom_site_fract_x
 _atom_site_fract_y
 _atom_site_fract_z
 _atom_site_occupancy
  Dy  Dy0  1  0.000000  0.000000  0.999956  1
  Ta  Ta1  1  0.500000  0.500000  0.750867  1
  Ta  Ta2  1  0.500000  0.000000  0.750867  1
  Nb  Nb3  1  0.000000  0.500000  0.750495  1
  Nb  Nb4  1  0.000000  0.500000  0.249511  1
  Nb  Nb5  1  0.500000  0.500000  0.249574  1
  Nb  Nb6  1  0.500000  0.000000  0.249574  1
  Sn  Sn7  1  0.666341  0.333170  0.499866  1
  Sn  Sn8  1  0.333659  0.666830  0.499866  1
  Sn  Sn9  1  0.666639  0.333319  0.000089  1
  Sn  Sn10  1  0.333361  0.666681  0.000089  1
  Sn  Sn11  1  0.000000  0.000000  0.668818  1
  Sn  Sn12  1  0.000000  0.000000  0.330427  1
