# generated using pymatgen
data_Li2VCo(PO3)8
_symmetry_space_group_name_H-M   'P 1'
_cell_length_a   8.36720700
_cell_length_b   9.21538300
_cell_length_c   12.67374300
_cell_angle_alpha   90.00000000
_cell_angle_beta   90.00000000
_cell_angle_gamma   90.00000000
_symmetry_Int_Tables_number   1
_chemical_formula_structural   Li2VCo(PO3)8
_chemical_formula_sum   'Li4 V2 Co2 P16 O48'
_cell_volume   977.23451880
_cell_formula_units_Z   2
loop_
 _symmetry_equiv_pos_site_id
 _symmetry_equiv_pos_as_xyz
  1  'x, y, z'
loop_
 _atom_site_type_symbol
 _atom_site_label
 _atom_site_symmetry_multiplicity
 _atom_site_fract_x
 _atom_site_fract_y
 _atom_site_fract_z
 _atom_site_occupancy
  Li  Li0  1  0.499940  0.750000  0.500000  1
  Li  Li1  1  0.493629  0.250000  0.500000  1
  Li  Li2  1  0.000060  0.250000  0.000000  1
  Li  Li3  1  0.006371  0.750000  0.000000  1
  V  V4  1  0.867403  0.750000  0.500000  1
  V  V5  1  0.632597  0.250000  0.000000  1
  Co  Co6  1  0.130952  0.250000  0.500000  1
  Co  Co7  1  0.369048  0.750000  0.000000  1
  P  P8  1  0.821613  0.003315  0.139383  1
  P  P9  1  0.821613  0.496685  0.860617  1
  P  P10  1  0.181915  0.506726  0.136295  1
  P  P11  1  0.678387  0.996685  0.639383  1
  P  P12  1  0.036026  0.505690  0.350507  1
  P  P13  1  0.463974  0.494310  0.850508  1
  P  P14  1  0.036026  0.994310  0.649492  1
  P  P15  1  0.318085  0.006726  0.363705  1
  P  P16  1  0.965274  0.015589  0.351084  1
  P  P17  1  0.678387  0.503315  0.360617  1
  P  P18  1  0.318085  0.493274  0.636295  1
  P  P19  1  0.534726  0.515589  0.148916  1
  P  P20  1  0.181915  0.993274  0.863705  1
  P  P21  1  0.463974  0.005690  0.149493  1
  P  P22  1  0.534726  0.984411  0.851085  1
  P  P23  1  0.965274  0.484411  0.648915  1
  O  O24  1  0.366684  0.871439  0.125080  1
  O  O25  1  0.305780  0.363583  0.561838  1
  O  O26  1  0.102326  0.927494  0.757335  1
  O  O27  1  0.644148  0.538097  0.820362  1
  O  O28  1  0.534331  0.633722  0.066078  1
  O  O29  1  0.591536  0.128862  0.606928  1
  O  O30  1  0.404045  0.623933  0.599821  1
  O  O31  1  0.855852  0.461903  0.320362  1
  O  O32  1  0.812297  0.369529  0.936852  1
  O  O33  1  0.534331  0.866278  0.933922  1
  O  O34  1  0.404045  0.876067  0.400179  1
  O  O35  1  0.644148  0.961903  0.179638  1
  O  O36  1  0.965669  0.133722  0.433922  1
  O  O37  1  0.601818  0.919636  0.743340  1
  O  O38  1  0.462144  0.126130  0.069318  1
  O  O39  1  0.908464  0.628862  0.893072  1
  O  O40  1  0.037856  0.626130  0.430682  1
  O  O41  1  0.965669  0.366278  0.566078  1
  O  O42  1  0.102326  0.572506  0.242665  1
  O  O43  1  0.898182  0.419636  0.756660  1
  O  O44  1  0.194220  0.636417  0.061838  1
  O  O45  1  0.591536  0.371138  0.393072  1
  O  O46  1  0.631555  0.118242  0.874608  1
  O  O47  1  0.631555  0.381758  0.125392  1
  O  O48  1  0.462144  0.373870  0.930682  1
  O  O49  1  0.898182  0.080364  0.243340  1
  O  O50  1  0.855852  0.038097  0.679638  1
  O  O51  1  0.142479  0.534231  0.678610  1
  O  O52  1  0.812297  0.130471  0.063148  1
  O  O53  1  0.095955  0.376067  0.099821  1
  O  O54  1  0.194220  0.863583  0.938162  1
  O  O55  1  0.142479  0.965769  0.321390  1
  O  O56  1  0.397674  0.072506  0.257335  1
  O  O57  1  0.133316  0.371439  0.374920  1
  O  O58  1  0.133316  0.128561  0.625080  1
  O  O59  1  0.397674  0.427494  0.742665  1
  O  O60  1  0.687703  0.869529  0.563148  1
  O  O61  1  0.357521  0.465769  0.178610  1
  O  O62  1  0.305780  0.136417  0.438162  1
  O  O63  1  0.687703  0.630471  0.436852  1
  O  O64  1  0.357521  0.034231  0.821390  1
  O  O65  1  0.908464  0.871138  0.106928  1
  O  O66  1  0.868445  0.881758  0.374608  1
  O  O67  1  0.366684  0.628561  0.874920  1
  O  O68  1  0.601818  0.580364  0.256660  1
  O  O69  1  0.095955  0.123933  0.900179  1
  O  O70  1  0.037856  0.873870  0.569318  1
  O  O71  1  0.868445  0.618242  0.625392  1
