# generated using pymatgen
data_DyB2OsRu
_symmetry_space_group_name_H-M   'P 1'
_cell_length_a   6.61805447
_cell_length_b   5.91863068
_cell_length_c   5.58542232
_cell_angle_alpha   70.17009653
_cell_angle_beta   57.27621864
_cell_angle_gamma   52.55367543
_symmetry_Int_Tables_number   1
_chemical_formula_structural   DyB2OsRu
_chemical_formula_sum   'Dy2 B4 Os2 Ru2'
_cell_volume   146.10865869
_cell_formula_units_Z   2
loop_
 _symmetry_equiv_pos_site_id
 _symmetry_equiv_pos_as_xyz
  1  'x, y, z'
loop_
 _atom_site_type_symbol
 _atom_site_label
 _atom_site_symmetry_multiplicity
 _atom_site_fract_x
 _atom_site_fract_y
 _atom_site_fract_z
 _atom_site_occupancy
  Dy  Dy0  1  0.000000  0.000000  0.000000  1
  Dy  Dy1  1  0.250000  0.250000  0.250000  1
  B  B2  1  0.307517  0.692483  0.307517  1
  B  B3  1  0.692483  0.307517  0.692483  1
  B  B4  1  0.561925  0.938075  0.561925  1
  B  B5  1  0.938075  0.561925  0.938075  1
  Os  Os6  1  0.611110  0.611110  0.888890  1
  Os  Os7  1  0.888890  0.888890  0.611110  1
  Ru  Ru8  1  0.638741  0.638741  0.361259  1
  Ru  Ru9  1  0.361259  0.361259  0.638741  1
