# generated using pymatgen
data_Rb4Mn6Se7O
_symmetry_space_group_name_H-M   'P 1'
_cell_length_a   9.89028414
_cell_length_b   9.78217333
_cell_length_c   9.82361314
_cell_angle_alpha   142.74201158
_cell_angle_beta   105.91235145
_cell_angle_gamma   84.99312282
_symmetry_Int_Tables_number   1
_chemical_formula_structural   Rb4Mn6Se7O
_chemical_formula_sum   'Rb4 Mn6 Se7 O1'
_cell_volume   539.16548424
_cell_formula_units_Z   1
loop_
 _symmetry_equiv_pos_site_id
 _symmetry_equiv_pos_as_xyz
  1  'x, y, z'
loop_
 _atom_site_type_symbol
 _atom_site_label
 _atom_site_symmetry_multiplicity
 _atom_site_fract_x
 _atom_site_fract_y
 _atom_site_fract_z
 _atom_site_occupancy
  Rb  Rb0  1  0.120604  0.238769  0.356211  1
  Rb  Rb1  1  0.389777  0.757766  0.128683  1
  Rb  Rb2  1  0.644265  0.276113  0.899356  1
  Rb  Rb3  1  0.880194  0.762693  0.639437  1
  Mn  Mn4  1  0.520181  0.760338  0.778443  1
  Mn  Mn5  1  0.980305  0.740931  0.220183  1
  Mn  Mn6  1  0.474010  0.265612  0.235300  1
  Mn  Mn7  1  0.756919  0.257340  0.510913  1
  Mn  Mn8  1  0.241308  0.780697  0.511945  1
  Mn  Mn9  1  0.041596  0.220871  0.755640  1
  Se  Se10  1  0.277218  0.887376  0.866937  1
  Se  Se11  1  0.023573  0.408710  0.136598  1
  Se  Se12  1  0.485311  0.657049  0.424130  1
  Se  Se13  1  0.777386  0.919725  0.408125  1
  Se  Se14  1  0.719746  0.139271  0.150525  1
  Se  Se15  1  0.003338  0.562010  0.846448  1
  Se  Se16  1  0.511366  0.372851  0.595797  1
  O  O17  1  0.152903  0.991879  0.535328  1
