# generated using pymatgen
data_SmEr5MgCo17P12
_symmetry_space_group_name_H-M   'P 1'
_cell_length_a   3.70027700
_cell_length_b   10.54541500
_cell_length_c   12.20118200
_cell_angle_alpha   90.00000000
_cell_angle_beta   90.00000000
_cell_angle_gamma   90.00000000
_symmetry_Int_Tables_number   1
_chemical_formula_structural   SmEr5MgCo17P12
_chemical_formula_sum   'Sm1 Er5 Mg1 Co17 P12'
_cell_volume   476.10179305
_cell_formula_units_Z   1
loop_
 _symmetry_equiv_pos_site_id
 _symmetry_equiv_pos_as_xyz
  1  'x, y, z'
loop_
 _atom_site_type_symbol
 _atom_site_label
 _atom_site_symmetry_multiplicity
 _atom_site_fract_x
 _atom_site_fract_y
 _atom_site_fract_z
 _atom_site_occupancy
  Sm  Sm0  1  0.250000  0.750000  0.522489  1
  Er  Er1  1  0.750000  0.250000  0.474570  1
  Er  Er2  1  0.250000  0.928070  0.793122  1
  Er  Er3  1  0.250000  0.571930  0.793122  1
  Er  Er4  1  0.750000  0.067799  0.205638  1
  Er  Er5  1  0.750000  0.432201  0.205638  1
  Mg  Mg6  1  0.250000  0.250000  0.845679  1
  Co  Co7  1  0.750000  0.750000  0.160472  1
  Co  Co8  1  0.250000  0.250000  0.295258  1
  Co  Co9  1  0.750000  0.750000  0.706073  1
  Co  Co10  1  0.750000  0.250000  0.013915  1
  Co  Co11  1  0.250000  0.750000  0.988246  1
  Co  Co12  1  0.250000  0.420641  0.006878  1
  Co  Co13  1  0.250000  0.079359  0.006878  1
  Co  Co14  1  0.750000  0.586377  0.998351  1
  Co  Co15  1  0.750000  0.913623  0.998351  1
  Co  Co16  1  0.250000  0.452347  0.567203  1
  Co  Co17  1  0.250000  0.047653  0.567203  1
  Co  Co18  1  0.750000  0.545467  0.429027  1
  Co  Co19  1  0.750000  0.954533  0.429027  1
  Co  Co20  1  0.250000  0.870786  0.290512  1
  Co  Co21  1  0.250000  0.629214  0.290512  1
  Co  Co22  1  0.750000  0.127302  0.707568  1
  Co  Co23  1  0.750000  0.372698  0.707568  1
  P  P24  1  0.250000  0.250000  0.116855  1
  P  P25  1  0.750000  0.750000  0.884223  1
  P  P26  1  0.250000  0.250000  0.645069  1
  P  P27  1  0.750000  0.750000  0.342843  1
  P  P28  1  0.250000  0.439084  0.382359  1
  P  P29  1  0.250000  0.060916  0.382359  1
  P  P30  1  0.750000  0.558873  0.615493  1
  P  P31  1  0.750000  0.941127  0.615493  1
  P  P32  1  0.250000  0.901447  0.110082  1
  P  P33  1  0.250000  0.598553  0.110082  1
  P  P34  1  0.750000  0.086790  0.895923  1
  P  P35  1  0.750000  0.413210  0.895923  1
