# generated using pymatgen
data_Tb3Ho6ThRu4
_symmetry_space_group_name_H-M   'P 1'
_cell_length_a   6.37174390
_cell_length_b   7.26141957
_cell_length_c   8.55403318
_cell_angle_alpha   96.32755082
_cell_angle_beta   112.24540522
_cell_angle_gamma   90.69522279
_symmetry_Int_Tables_number   1
_chemical_formula_structural   Tb3Ho6ThRu4
_chemical_formula_sum   'Tb3 Ho6 Th1 Ru4'
_cell_volume   363.46376612
_cell_formula_units_Z   1
loop_
 _symmetry_equiv_pos_site_id
 _symmetry_equiv_pos_as_xyz
  1  'x, y, z'
loop_
 _atom_site_type_symbol
 _atom_site_label
 _atom_site_symmetry_multiplicity
 _atom_site_fract_x
 _atom_site_fract_y
 _atom_site_fract_z
 _atom_site_occupancy
  Tb  Tb0  1  0.789230  0.582847  0.809098  1
  Tb  Tb1  1  0.022512  0.085166  0.811773  1
  Tb  Tb2  1  0.209743  0.415885  0.185820  1
  Ho  Ho3  1  0.639629  0.815799  0.435957  1
  Ho  Ho4  1  0.208629  0.684675  0.568257  1
  Ho  Ho5  1  0.358455  0.186822  0.568400  1
  Ho  Ho6  1  0.793328  0.314149  0.435254  1
  Ho  Ho7  1  0.420338  0.747781  0.997565  1
  Ho  Ho8  1  0.578742  0.250299  0.999863  1
  Th  Th9  1  0.986309  0.907939  0.188379  1
  Ru  Ru10  1  0.828503  0.588151  0.220752  1
  Ru  Ru11  1  0.606575  0.925554  0.782645  1
  Ru  Ru12  1  0.176932  0.424129  0.776876  1
  Ru  Ru13  1  0.381075  0.070801  0.219362  1
