# generated using pymatgen
data_La4P4Ru3RhO4
_symmetry_space_group_name_H-M   'P 1'
_cell_length_a   4.02914000
_cell_length_b   4.02914000
_cell_length_c   16.48116600
_cell_angle_alpha   90.00000000
_cell_angle_beta   90.00000000
_cell_angle_gamma   90.00000000
_symmetry_Int_Tables_number   1
_chemical_formula_structural   La4P4Ru3RhO4
_chemical_formula_sum   'La4 P4 Ru3 Rh1 O4'
_cell_volume   267.55474023
_cell_formula_units_Z   1
loop_
 _symmetry_equiv_pos_site_id
 _symmetry_equiv_pos_as_xyz
  1  'x, y, z'
loop_
 _atom_site_type_symbol
 _atom_site_label
 _atom_site_symmetry_multiplicity
 _atom_site_fract_x
 _atom_site_fract_y
 _atom_site_fract_z
 _atom_site_occupancy
  La  La0  1  0.500000  0.000000  0.178712  1
  La  La1  1  0.500000  0.000000  0.674348  1
  La  La2  1  0.000000  0.500000  0.821288  1
  La  La3  1  0.000000  0.500000  0.325652  1
  P  P4  1  0.500000  0.000000  0.927083  1
  P  P5  1  0.500000  0.000000  0.429210  1
  P  P6  1  0.000000  0.500000  0.072917  1
  P  P7  1  0.000000  0.500000  0.570790  1
  Ru  Ru8  1  0.500000  0.500000  0.500000  1
  Ru  Ru9  1  0.000000  0.000000  0.000000  1
  Ru  Ru10  1  0.000000  0.000000  0.500000  1
  Rh  Rh11  1  0.500000  0.500000  0.000000  1
  O  O12  1  0.500000  0.500000  0.748966  1
  O  O13  1  0.500000  0.500000  0.251034  1
  O  O14  1  0.000000  0.000000  0.748952  1
  O  O15  1  0.000000  0.000000  0.251048  1
