# generated using pymatgen
data_SrYbSmSbO6
_symmetry_space_group_name_H-M   'P 1'
_cell_length_a   5.94844247
_cell_length_b   5.70825911
_cell_length_c   9.98813801
_cell_angle_alpha   55.18311348
_cell_angle_beta   89.45064506
_cell_angle_gamma   89.90846703
_symmetry_Int_Tables_number   1
_chemical_formula_structural   SrYbSmSbO6
_chemical_formula_sum   'Sr2 Yb2 Sm2 Sb2 O12'
_cell_volume   278.41957367
_cell_formula_units_Z   2
loop_
 _symmetry_equiv_pos_site_id
 _symmetry_equiv_pos_as_xyz
  1  'x, y, z'
loop_
 _atom_site_type_symbol
 _atom_site_label
 _atom_site_symmetry_multiplicity
 _atom_site_fract_x
 _atom_site_fract_y
 _atom_site_fract_z
 _atom_site_occupancy
  Sr  Sr0  1  0.946222  0.761463  0.752287  1
  Sr  Sr1  1  0.053778  0.238537  0.247713  1
  Yb  Yb2  1  0.000000  0.500000  0.500000  1
  Yb  Yb3  1  0.500000  0.500000  0.000000  1
  Sm  Sm4  1  0.440979  0.230683  0.750283  1
  Sm  Sm5  1  0.559021  0.769317  0.249717  1
  Sb  Sb6  1  0.000000  0.000000  0.000000  1
  Sb  Sb7  1  0.500000  0.000000  0.500000  1
  O  O8  1  0.706712  0.890738  0.940091  1
  O  O9  1  0.293288  0.109262  0.059909  1
  O  O10  1  0.229996  0.126795  0.564990  1
  O  O11  1  0.770004  0.873205  0.435010  1
  O  O12  1  0.056310  0.328071  0.767175  1
  O  O13  1  0.943690  0.671929  0.232825  1
  O  O14  1  0.531684  0.645562  0.731022  1
  O  O15  1  0.468316  0.354438  0.268978  1
  O  O16  1  0.191262  0.770223  0.950228  1
  O  O17  1  0.808738  0.229777  0.049772  1
  O  O18  1  0.681029  0.231719  0.556513  1
  O  O19  1  0.318971  0.768281  0.443487  1
