# generated using pymatgen
data_Hf17ScNb2(Re3B)2
_symmetry_space_group_name_H-M   'P 1'
_cell_length_a   8.55578873
_cell_length_b   8.55578898
_cell_length_c   8.50713300
_cell_angle_alpha   90.00000000
_cell_angle_beta   90.00000000
_cell_angle_gamma   120.04749280
_symmetry_Int_Tables_number   1
_chemical_formula_structural   Hf17ScNb2(Re3B)2
_chemical_formula_sum   'Hf17 Sc1 Nb2 Re6 B2'
_cell_volume   539.04612978
_cell_formula_units_Z   1
loop_
 _symmetry_equiv_pos_site_id
 _symmetry_equiv_pos_as_xyz
  1  'x, y, z'
loop_
 _atom_site_type_symbol
 _atom_site_label
 _atom_site_symmetry_multiplicity
 _atom_site_fract_x
 _atom_site_fract_y
 _atom_site_fract_z
 _atom_site_occupancy
  Hf  Hf0  1  0.202877  0.797123  0.444482  1
  Hf  Hf1  1  0.204027  0.406436  0.443583  1
  Hf  Hf2  1  0.593564  0.795973  0.443583  1
  Hf  Hf3  1  0.796812  0.203188  0.555458  1
  Hf  Hf4  1  0.796493  0.593862  0.556021  1
  Hf  Hf5  1  0.406138  0.203507  0.556021  1
  Hf  Hf6  1  0.796812  0.203188  0.944542  1
  Hf  Hf7  1  0.796493  0.593862  0.943979  1
  Hf  Hf8  1  0.406138  0.203507  0.943979  1
  Hf  Hf9  1  0.202877  0.797123  0.055518  1
  Hf  Hf10  1  0.204027  0.406436  0.056417  1
  Hf  Hf11  1  0.593564  0.795973  0.056417  1
  Hf  Hf12  1  0.540230  0.081011  0.250000  1
  Hf  Hf13  1  0.918989  0.459770  0.250000  1
  Hf  Hf14  1  0.458297  0.541703  0.750000  1
  Hf  Hf15  1  0.459638  0.918843  0.750000  1
  Hf  Hf16  1  0.081157  0.540362  0.750000  1
  Sc  Sc17  1  0.542599  0.457401  0.250000  1
  Nb  Nb18  1  0.000104  0.999896  0.498280  1
  Nb  Nb19  1  0.000104  0.999896  0.001720  1
  Re  Re20  1  0.885861  0.114139  0.250000  1
  Re  Re21  1  0.886593  0.771602  0.250000  1
  Re  Re22  1  0.228398  0.113407  0.250000  1
  Re  Re23  1  0.113798  0.886202  0.750000  1
  Re  Re24  1  0.112643  0.226715  0.750000  1
  Re  Re25  1  0.773285  0.887357  0.750000  1
  B  B26  1  0.330914  0.669086  0.250000  1
  B  B27  1  0.667568  0.332432  0.750000  1
