# generated using pymatgen
data_RuAuF7
_symmetry_space_group_name_H-M   'P 1'
_cell_length_a   5.65469800
_cell_length_b   8.77675619
_cell_length_c   12.87251144
_cell_angle_alpha   70.93403047
_cell_angle_beta   90.00000000
_cell_angle_gamma   90.00000000
_symmetry_Int_Tables_number   1
_chemical_formula_structural   RuAuF7
_chemical_formula_sum   'Ru4 Au4 F28'
_cell_volume   603.81556213
_cell_formula_units_Z   4
loop_
 _symmetry_equiv_pos_site_id
 _symmetry_equiv_pos_as_xyz
  1  'x, y, z'
loop_
 _atom_site_type_symbol
 _atom_site_label
 _atom_site_symmetry_multiplicity
 _atom_site_fract_x
 _atom_site_fract_y
 _atom_site_fract_z
 _atom_site_occupancy
  Ru  Ru0  1  0.209247  0.288531  0.433940  1
  Ru  Ru1  1  0.709247  0.711469  0.066060  1
  Ru  Ru2  1  0.790753  0.711469  0.566060  1
  Ru  Ru3  1  0.290753  0.288531  0.933940  1
  Au  Au4  1  0.289841  0.861131  0.708440  1
  Au  Au5  1  0.789841  0.138869  0.791560  1
  Au  Au6  1  0.710159  0.138869  0.291560  1
  Au  Au7  1  0.210159  0.861131  0.208440  1
  F  F8  1  0.586345  0.981566  0.737186  1
  F  F9  1  0.086345  0.018434  0.762814  1
  F  F10  1  0.413655  0.018434  0.262814  1
  F  F11  1  0.913655  0.981566  0.237186  1
  F  F12  1  0.387546  0.313103  0.548776  1
  F  F13  1  0.887546  0.686897  0.951224  1
  F  F14  1  0.612454  0.686897  0.451224  1
  F  F15  1  0.112454  0.313103  0.048776  1
  F  F16  1  0.467176  0.262820  0.807865  1
  F  F17  1  0.967176  0.737180  0.692135  1
  F  F18  1  0.532824  0.737180  0.192135  1
  F  F19  1  0.032824  0.262820  0.307865  1
  F  F20  1  0.999921  0.304933  0.844860  1
  F  F21  1  0.499921  0.695067  0.655140  1
  F  F22  1  0.000079  0.695067  0.155140  1
  F  F23  1  0.500079  0.304933  0.344860  1
  F  F24  1  0.248421  0.062257  0.988367  1
  F  F25  1  0.748421  0.937743  0.511633  1
  F  F26  1  0.751579  0.937743  0.011633  1
  F  F27  1  0.251579  0.062257  0.488367  1
  F  F28  1  0.324530  0.512413  0.869639  1
  F  F29  1  0.824530  0.487587  0.630361  1
  F  F30  1  0.675470  0.487587  0.130361  1
  F  F31  1  0.175470  0.512413  0.369639  1
  F  F32  1  0.573678  0.271803  0.010713  1
  F  F33  1  0.073678  0.728197  0.489287  1
  F  F34  1  0.426322  0.728197  0.989287  1
  F  F35  1  0.926322  0.271803  0.510713  1
