# generated using pymatgen
data_La12Sn3HgI12
_symmetry_space_group_name_H-M   'P 1'
_cell_length_a   11.25876282
_cell_length_b   11.27110669
_cell_length_c   11.27110566
_cell_angle_alpha   109.49339636
_cell_angle_beta   109.44903443
_cell_angle_gamma   109.44903832
_symmetry_Int_Tables_number   1
_chemical_formula_structural   La12Sn3HgI12
_chemical_formula_sum   'La12 Sn3 Hg1 I12'
_cell_volume   1101.33816147
_cell_formula_units_Z   1
loop_
 _symmetry_equiv_pos_site_id
 _symmetry_equiv_pos_as_xyz
  1  'x, y, z'
loop_
 _atom_site_type_symbol
 _atom_site_label
 _atom_site_symmetry_multiplicity
 _atom_site_fract_x
 _atom_site_fract_y
 _atom_site_fract_z
 _atom_site_occupancy
  La  La0  1  0.481680  0.492212  0.240080  1
  La  La1  1  0.750000  0.242166  0.257834  1
  La  La2  1  0.750000  0.008348  0.491652  1
  La  La3  1  0.241652  0.483301  0.491652  1
  La  La4  1  0.258400  0.747868  0.240080  1
  La  La5  1  0.018320  0.259920  0.007788  1
  La  La6  1  0.007834  0.015669  0.257834  1
  La  La7  1  0.489469  0.747868  0.007788  1
  La  La8  1  0.492166  0.242166  0.484331  1
  La  La9  1  0.010531  0.492212  0.752132  1
  La  La10  1  0.258348  0.008348  0.016699  1
  La  La11  1  0.241600  0.259920  0.752132  1
  Sn  Sn12  1  0.250000  0.249967  0.250033  1
  Sn  Sn13  1  0.500033  0.000065  0.250033  1
  Sn  Sn14  1  0.999967  0.249967  0.499935  1
  Hg  Hg15  1  0.250000  0.500000  0.000000  1
  I  I16  1  0.250000  0.756827  0.743173  1
  I  I17  1  0.513175  0.506782  0.756533  1
  I  I18  1  0.986825  0.743467  0.993218  1
  I  I19  1  0.743359  0.249751  0.756533  1
  I  I20  1  0.993173  0.986344  0.743173  1
  I  I21  1  0.250000  0.994220  0.505780  1
  I  I22  1  0.755780  0.511562  0.505780  1
  I  I23  1  0.506391  0.249751  0.993218  1
  I  I24  1  0.756641  0.743467  0.250249  1
  I  I25  1  0.744220  0.994220  0.988438  1
  I  I26  1  0.993609  0.506782  0.250249  1
  I  I27  1  0.506827  0.756827  0.513656  1
