# generated using pymatgen
data_Eu5Th3(Si3Ir)4
_symmetry_space_group_name_H-M   'P 1'
_cell_length_a   8.20667100
_cell_length_b   8.25491700
_cell_length_c   8.44833500
_cell_angle_alpha   90.00000000
_cell_angle_beta   90.00000000
_cell_angle_gamma   119.47697480
_symmetry_Int_Tables_number   1
_chemical_formula_structural   Eu5Th3(Si3Ir)4
_chemical_formula_sum   'Eu5 Th3 Si12 Ir4'
_cell_volume   498.24888264
_cell_formula_units_Z   1
loop_
 _symmetry_equiv_pos_site_id
 _symmetry_equiv_pos_as_xyz
  1  'x, y, z'
loop_
 _atom_site_type_symbol
 _atom_site_label
 _atom_site_symmetry_multiplicity
 _atom_site_fract_x
 _atom_site_fract_y
 _atom_site_fract_z
 _atom_site_occupancy
  Eu  Eu0  1  0.999850  0.499891  0.250000  1
  Eu  Eu1  1  0.499913  0.999835  0.750000  1
  Eu  Eu2  1  0.500133  0.000215  0.250000  1
  Eu  Eu3  1  0.000001  0.999990  0.750000  1
  Eu  Eu4  1  0.999996  0.000006  0.250000  1
  Th  Th5  1  0.499952  0.500071  0.750000  1
  Th  Th6  1  0.500077  0.499926  0.250000  1
  Th  Th7  1  0.000172  0.500097  0.750000  1
  Si  Si8  1  0.830141  0.167309  0.999739  1
  Si  Si9  1  0.169856  0.832688  0.000140  1
  Si  Si10  1  0.331923  0.163278  0.999335  1
  Si  Si11  1  0.169856  0.832688  0.499860  1
  Si  Si12  1  0.668061  0.836711  0.999635  1
  Si  Si13  1  0.830141  0.167309  0.500261  1
  Si  Si14  1  0.838371  0.673850  0.000413  1
  Si  Si15  1  0.668061  0.836711  0.500365  1
  Si  Si16  1  0.161630  0.326152  0.000674  1
  Si  Si17  1  0.331923  0.163278  0.500665  1
  Si  Si18  1  0.161630  0.326152  0.499326  1
  Si  Si19  1  0.838371  0.673850  0.499587  1
  Ir  Ir20  1  0.666730  0.343218  0.996116  1
  Ir  Ir21  1  0.333243  0.656777  0.996235  1
  Ir  Ir22  1  0.333243  0.656777  0.503765  1
  Ir  Ir23  1  0.666730  0.343218  0.503884  1
