# generated using pymatgen
data_Sr5Pa5O18
_symmetry_space_group_name_H-M   'P 1'
_cell_length_a   7.01055411
_cell_length_b   7.88981791
_cell_length_c   8.86133877
_cell_angle_alpha   101.13231556
_cell_angle_beta   97.85571322
_cell_angle_gamma   107.22992571
_symmetry_Int_Tables_number   1
_chemical_formula_structural   Sr5Pa5O18
_chemical_formula_sum   'Sr5 Pa5 O18'
_cell_volume   449.39799666
_cell_formula_units_Z   1
loop_
 _symmetry_equiv_pos_site_id
 _symmetry_equiv_pos_as_xyz
  1  'x, y, z'
loop_
 _atom_site_type_symbol
 _atom_site_label
 _atom_site_symmetry_multiplicity
 _atom_site_fract_x
 _atom_site_fract_y
 _atom_site_fract_z
 _atom_site_occupancy
  Sr  Sr0  1  0.799912  0.103595  0.584156  1
  Sr  Sr1  1  0.595131  0.694728  0.195009  1
  Sr  Sr2  1  0.404869  0.305272  0.804991  1
  Sr  Sr3  1  0.200088  0.896405  0.415844  1
  Sr  Sr4  1  0.000000  0.500000  0.000000  1
  Pa  Pa5  1  0.000000  0.000000  0.000000  1
  Pa  Pa6  1  0.790132  0.576990  0.584751  1
  Pa  Pa7  1  0.628095  0.196842  0.193347  1
  Pa  Pa8  1  0.371905  0.803158  0.806653  1
  Pa  Pa9  1  0.209868  0.423010  0.415249  1
  O  O10  1  0.825544  0.784279  0.468447  1
  O  O11  1  0.999364  0.231636  0.182275  1
  O  O12  1  0.664192  0.397363  0.070669  1
  O  O13  1  0.451550  0.998983  0.683953  1
  O  O14  1  0.859322  0.352716  0.420023  1
  O  O15  1  0.497273  0.387305  0.351157  1
  O  O16  1  0.246755  0.607754  0.278365  1
  O  O17  1  0.975219  0.823042  0.146986  1
  O  O18  1  0.664757  0.946805  0.990656  1
  O  O19  1  0.335243  0.053195  0.009344  1
  O  O20  1  0.024781  0.176958  0.853014  1
  O  O21  1  0.753245  0.392246  0.721635  1
  O  O22  1  0.502727  0.612695  0.648843  1
  O  O23  1  0.140678  0.647284  0.579977  1
  O  O24  1  0.548450  0.001017  0.316047  1
  O  O25  1  0.335808  0.602637  0.929331  1
  O  O26  1  0.000636  0.768364  0.817725  1
  O  O27  1  0.174456  0.215721  0.531553  1
