# generated using pymatgen
data_As(WCl6)2
_symmetry_space_group_name_H-M   'P 1'
_cell_length_a   11.66528500
_cell_length_b   9.76632600
_cell_length_c   10.03476722
_cell_angle_alpha   88.72737197
_cell_angle_beta   90.00000000
_cell_angle_gamma   90.00000000
_symmetry_Int_Tables_number   1
_chemical_formula_structural   As(WCl6)2
_chemical_formula_sum   'As2 W4 Cl24'
_cell_volume   1142.94869077
_cell_formula_units_Z   2
loop_
 _symmetry_equiv_pos_site_id
 _symmetry_equiv_pos_as_xyz
  1  'x, y, z'
loop_
 _atom_site_type_symbol
 _atom_site_label
 _atom_site_symmetry_multiplicity
 _atom_site_fract_x
 _atom_site_fract_y
 _atom_site_fract_z
 _atom_site_occupancy
  As  As0  1  0.250000  0.823002  0.967108  1
  As  As1  1  0.750000  0.176998  0.032892  1
  W  W2  1  0.250000  0.157258  0.608026  1
  W  W3  1  0.750000  0.649648  0.592450  1
  W  W4  1  0.750000  0.842742  0.391974  1
  W  W5  1  0.250000  0.350352  0.407550  1
  Cl  Cl6  1  0.888648  0.622513  0.753810  1
  Cl  Cl7  1  0.605590  0.191370  0.891011  1
  Cl  Cl8  1  0.250000  0.569665  0.475383  1
  Cl  Cl9  1  0.111352  0.377487  0.246190  1
  Cl  Cl10  1  0.111549  0.991830  0.646442  1
  Cl  Cl11  1  0.750000  0.430335  0.524617  1
  Cl  Cl12  1  0.415424  0.303311  0.554217  1
  Cl  Cl13  1  0.105590  0.808630  0.108989  1
  Cl  Cl14  1  0.394410  0.808630  0.108989  1
  Cl  Cl15  1  0.250000  0.612330  0.893830  1
  Cl  Cl16  1  0.250000  0.239006  0.817658  1
  Cl  Cl17  1  0.915424  0.696689  0.445783  1
  Cl  Cl18  1  0.388648  0.377487  0.246190  1
  Cl  Cl19  1  0.750000  0.387670  0.106170  1
  Cl  Cl20  1  0.388451  0.991830  0.646442  1
  Cl  Cl21  1  0.084576  0.303311  0.554217  1
  Cl  Cl22  1  0.750000  0.760994  0.182342  1
  Cl  Cl23  1  0.250000  0.099733  0.368692  1
  Cl  Cl24  1  0.611549  0.008170  0.353558  1
  Cl  Cl25  1  0.894410  0.191370  0.891011  1
  Cl  Cl26  1  0.750000  0.900267  0.631308  1
  Cl  Cl27  1  0.584576  0.696689  0.445783  1
  Cl  Cl28  1  0.611352  0.622513  0.753810  1
  Cl  Cl29  1  0.888451  0.008170  0.353558  1
