# generated using pymatgen
data_TbYGa6
_symmetry_space_group_name_H-M   'P 1'
_cell_length_a   6.27223700
_cell_length_b   6.27223761
_cell_length_c   4.60709200
_cell_angle_alpha   90.00000000
_cell_angle_beta   90.00000000
_cell_angle_gamma   120.00000204
_symmetry_Int_Tables_number   1
_chemical_formula_structural   TbYGa6
_chemical_formula_sum   'Tb1 Y1 Ga6'
_cell_volume   156.96487199
_cell_formula_units_Z   1
loop_
 _symmetry_equiv_pos_site_id
 _symmetry_equiv_pos_as_xyz
  1  'x, y, z'
loop_
 _atom_site_type_symbol
 _atom_site_label
 _atom_site_symmetry_multiplicity
 _atom_site_fract_x
 _atom_site_fract_y
 _atom_site_fract_z
 _atom_site_occupancy
  Tb  Tb0  1  0.000000  0.000000  0.500000  1
  Y  Y1  1  0.333333  0.666667  0.000000  1
  Ga  Ga2  1  0.370797  0.185398  0.000000  1
  Ga  Ga3  1  0.814602  0.185398  0.000000  1
  Ga  Ga4  1  0.814602  0.629203  0.000000  1
  Ga  Ga5  1  0.962958  0.481479  0.500000  1
  Ga  Ga6  1  0.518521  0.481479  0.500000  1
  Ga  Ga7  1  0.518521  0.037042  0.500000  1
