# generated using pymatgen
data_Dy16MgZn(Co2Hg)2
_symmetry_space_group_name_H-M   'P 1'
_cell_length_a   9.48661055
_cell_length_b   9.45914119
_cell_length_c   9.45914057
_cell_angle_alpha   59.91903545
_cell_angle_beta   60.04600693
_cell_angle_gamma   60.04599802
_symmetry_Int_Tables_number   1
_chemical_formula_structural   Dy16MgZn(Co2Hg)2
_chemical_formula_sum   'Dy16 Mg1 Zn1 Co4 Hg2'
_cell_volume   600.25291201
_cell_formula_units_Z   1
loop_
 _symmetry_equiv_pos_site_id
 _symmetry_equiv_pos_as_xyz
  1  'x, y, z'
loop_
 _atom_site_type_symbol
 _atom_site_label
 _atom_site_symmetry_multiplicity
 _atom_site_fract_x
 _atom_site_fract_y
 _atom_site_fract_z
 _atom_site_occupancy
  Dy  Dy0  1  0.808513  0.190008  0.190008  1
  Dy  Dy1  1  0.185002  0.812482  0.812482  1
  Dy  Dy2  1  0.186221  0.812281  0.187732  1
  Dy  Dy3  1  0.808188  0.189493  0.810263  1
  Dy  Dy4  1  0.186221  0.187732  0.812281  1
  Dy  Dy5  1  0.808188  0.810263  0.189493  1
  Dy  Dy6  1  0.934478  0.562413  0.562413  1
  Dy  Dy7  1  0.560510  0.938068  0.938068  1
  Dy  Dy8  1  0.561587  0.935825  0.563362  1
  Dy  Dy9  1  0.937748  0.560887  0.939061  1
  Dy  Dy10  1  0.561587  0.563362  0.935825  1
  Dy  Dy11  1  0.937748  0.939061  0.560887  1
  Dy  Dy12  1  0.346202  0.344964  0.344964  1
  Dy  Dy13  1  0.348672  0.346634  0.961163  1
  Dy  Dy14  1  0.348672  0.961163  0.346634  1
  Dy  Dy15  1  0.951384  0.350243  0.350243  1
  Mg  Mg16  1  0.286147  0.571628  0.571628  1
  Zn  Zn17  1  0.582917  0.582827  0.582827  1
  Co  Co18  1  0.138317  0.143153  0.143153  1
  Co  Co19  1  0.139073  0.142975  0.578324  1
  Co  Co20  1  0.139073  0.578324  0.142975  1
  Co  Co21  1  0.577587  0.141791  0.141791  1
  Hg  Hg22  1  0.582982  0.586188  0.248233  1
  Hg  Hg23  1  0.582982  0.248233  0.586188  1
