# generated using pymatgen
data_Ce3DyLu4(ReB6)4
_symmetry_space_group_name_H-M   'P 1'
_cell_length_a   3.68478100
_cell_length_b   9.13527742
_cell_length_c   11.53302601
_cell_angle_alpha   90.06470218
_cell_angle_beta   90.00000000
_cell_angle_gamma   90.00000000
_symmetry_Int_Tables_number   1
_chemical_formula_structural   Ce3DyLu4(ReB6)4
_chemical_formula_sum   'Ce3 Dy1 Lu4 Re4 B24'
_cell_volume   388.21866902
_cell_formula_units_Z   1
loop_
 _symmetry_equiv_pos_site_id
 _symmetry_equiv_pos_as_xyz
  1  'x, y, z'
loop_
 _atom_site_type_symbol
 _atom_site_label
 _atom_site_symmetry_multiplicity
 _atom_site_fract_x
 _atom_site_fract_y
 _atom_site_fract_z
 _atom_site_occupancy
  Ce  Ce0  1  0.000000  0.321399  0.414580  1
  Ce  Ce1  1  0.000000  0.678348  0.586328  1
  Ce  Ce2  1  0.000000  0.823609  0.085380  1
  Dy  Dy3  1  0.000000  0.177743  0.913905  1
  Lu  Lu4  1  0.000000  0.944967  0.372446  1
  Lu  Lu5  1  0.000000  0.055818  0.628382  1
  Lu  Lu6  1  0.000000  0.443258  0.127663  1
  Lu  Lu7  1  0.000000  0.555638  0.871880  1
  Re  Re8  1  0.000000  0.639507  0.319850  1
  Re  Re9  1  0.000000  0.361579  0.679395  1
  Re  Re10  1  0.000000  0.139299  0.180080  1
  Re  Re11  1  0.000000  0.859775  0.820053  1
  B  B12  1  0.500000  0.554863  0.431260  1
  B  B13  1  0.500000  0.444990  0.569019  1
  B  B14  1  0.500000  0.054756  0.067490  1
  B  B15  1  0.500000  0.945771  0.931996  1
  B  B16  1  0.500000  0.750827  0.418067  1
  B  B17  1  0.500000  0.248791  0.582631  1
  B  B18  1  0.500000  0.250415  0.080871  1
  B  B19  1  0.500000  0.749974  0.918124  1
  B  B20  1  0.500000  0.792577  0.265499  1
  B  B21  1  0.500000  0.206821  0.735018  1
  B  B22  1  0.500000  0.292251  0.233311  1
  B  B23  1  0.500000  0.707748  0.766069  1
  B  B24  1  0.500000  0.630461  0.184847  1
  B  B25  1  0.500000  0.368888  0.815679  1
  B  B26  1  0.500000  0.130797  0.314396  1
  B  B27  1  0.500000  0.870007  0.685730  1
  B  B28  1  0.500000  0.983459  0.212690  1
  B  B29  1  0.500000  0.017859  0.787066  1
  B  B30  1  0.500000  0.482962  0.286268  1
  B  B31  1  0.500000  0.516592  0.714105  1
  B  B32  1  0.500000  0.599851  0.027548  1
  B  B33  1  0.500000  0.398280  0.971733  1
  B  B34  1  0.500000  0.102124  0.472209  1
  B  B35  1  0.500000  0.897996  0.528434  1
