# generated using pymatgen
data_Er4TmIn4
_symmetry_space_group_name_H-M   'P 1'
_cell_length_a   9.20676200
_cell_length_b   9.20676306
_cell_length_c   6.64850300
_cell_angle_alpha   90.00000000
_cell_angle_beta   90.00000000
_cell_angle_gamma   119.99999620
_symmetry_Int_Tables_number   1
_chemical_formula_structural   Er4TmIn4
_chemical_formula_sum   'Er8 Tm2 In8'
_cell_volume   488.05458868
_cell_formula_units_Z   2
loop_
 _symmetry_equiv_pos_site_id
 _symmetry_equiv_pos_as_xyz
  1  'x, y, z'
loop_
 _atom_site_type_symbol
 _atom_site_label
 _atom_site_symmetry_multiplicity
 _atom_site_fract_x
 _atom_site_fract_y
 _atom_site_fract_z
 _atom_site_occupancy
  Er  Er0  1  0.333333  0.666667  0.500000  1
  Er  Er1  1  0.666667  0.333333  0.500000  1
  Er  Er2  1  0.288684  0.000000  0.750090  1
  Er  Er3  1  0.711316  0.000000  0.249910  1
  Er  Er4  1  0.000000  0.288684  0.750090  1
  Er  Er5  1  0.000000  0.711316  0.249910  1
  Er  Er6  1  0.711316  0.711316  0.750090  1
  Er  Er7  1  0.288684  0.288684  0.249910  1
  Tm  Tm8  1  0.666667  0.333333  0.000000  1
  Tm  Tm9  1  0.333333  0.666667  0.000000  1
  In  In10  1  0.000000  0.000000  0.500000  1
  In  In11  1  0.000000  0.000000  0.000000  1
  In  In12  1  0.627895  0.000000  0.750167  1
  In  In13  1  0.372105  0.000000  0.249833  1
  In  In14  1  0.000000  0.627895  0.750167  1
  In  In15  1  0.000000  0.372105  0.249833  1
  In  In16  1  0.372105  0.372105  0.750167  1
  In  In17  1  0.627895  0.627895  0.249833  1
