# generated using pymatgen
data_LaNdZn5Si
_symmetry_space_group_name_H-M   'P 1'
_cell_length_a   8.37025537
_cell_length_b   8.37025618
_cell_length_c   8.85044600
_cell_angle_alpha   90.00000000
_cell_angle_beta   90.00000000
_cell_angle_gamma   149.13848725
_symmetry_Int_Tables_number   1
_chemical_formula_structural   LaNdZn5Si
_chemical_formula_sum   'La2 Nd2 Zn10 Si2'
_cell_volume   318.07543957
_cell_formula_units_Z   2
loop_
 _symmetry_equiv_pos_site_id
 _symmetry_equiv_pos_as_xyz
  1  'x, y, z'
loop_
 _atom_site_type_symbol
 _atom_site_label
 _atom_site_symmetry_multiplicity
 _atom_site_fract_x
 _atom_site_fract_y
 _atom_site_fract_z
 _atom_site_occupancy
  La  La0  1  0.000000  0.000000  0.500000  1
  La  La1  1  0.000000  0.000000  0.000000  1
  Nd  Nd2  1  0.203509  0.796491  0.250000  1
  Nd  Nd3  1  0.796491  0.203509  0.750000  1
  Zn  Zn4  1  0.813402  0.186598  0.392426  1
  Zn  Zn5  1  0.186598  0.813402  0.607574  1
  Zn  Zn6  1  0.813402  0.186598  0.107574  1
  Zn  Zn7  1  0.186598  0.813402  0.892426  1
  Zn  Zn8  1  0.651375  0.348625  0.476636  1
  Zn  Zn9  1  0.348625  0.651375  0.523364  1
  Zn  Zn10  1  0.651375  0.348625  0.023364  1
  Zn  Zn11  1  0.348625  0.651375  0.976636  1
  Zn  Zn12  1  0.405293  0.594707  0.250000  1
  Zn  Zn13  1  0.594707  0.405293  0.750000  1
  Si  Si14  1  0.559199  0.440801  0.250000  1
  Si  Si15  1  0.440801  0.559199  0.750000  1
