# generated using pymatgen
data_Zr10TlIn5CuAs
_symmetry_space_group_name_H-M   'P 1'
_cell_length_a   8.77357526
_cell_length_b   8.77362102
_cell_length_c   5.89251102
_cell_angle_alpha   90.00421923
_cell_angle_beta   90.00436667
_cell_angle_gamma   119.97202916
_symmetry_Int_Tables_number   1
_chemical_formula_structural   Zr10TlIn5CuAs
_chemical_formula_sum   'Zr10 Tl1 In5 Cu1 As1'
_cell_volume   392.92426086
_cell_formula_units_Z   1
loop_
 _symmetry_equiv_pos_site_id
 _symmetry_equiv_pos_as_xyz
  1  'x, y, z'
loop_
 _atom_site_type_symbol
 _atom_site_label
 _atom_site_symmetry_multiplicity
 _atom_site_fract_x
 _atom_site_fract_y
 _atom_site_fract_z
 _atom_site_occupancy
  Zr  Zr0  1  0.743584  0.743583  0.249498  1
  Zr  Zr1  1  0.256782  0.998501  0.249422  1
  Zr  Zr2  1  0.998497  0.256781  0.249422  1
  Zr  Zr3  1  0.257575  0.257574  0.750327  1
  Zr  Zr4  1  0.742229  0.999657  0.750758  1
  Zr  Zr5  1  0.999652  0.742228  0.750757  1
  Zr  Zr6  1  0.667265  0.333295  0.500851  1
  Zr  Zr7  1  0.333294  0.667268  0.500851  1
  Zr  Zr8  1  0.333202  0.667371  0.999261  1
  Zr  Zr9  1  0.667370  0.333203  0.999261  1
  Tl  Tl10  1  0.388382  0.388380  0.248305  1
  In  In11  1  0.611178  0.999856  0.248283  1
  In  In12  1  0.999883  0.611190  0.248285  1
  In  In13  1  0.612694  0.612715  0.751708  1
  In  In14  1  0.388565  0.999956  0.751673  1
  In  In15  1  0.999993  0.388584  0.751671  1
  Cu  Cu16  1  0.999704  0.999706  0.999426  1
  As  As17  1  0.000151  0.000152  0.500241  1
