# generated using pymatgen
data_YEr9Al3Ru
_symmetry_space_group_name_H-M   'P 1'
_cell_length_a   9.44309648
_cell_length_b   9.44309576
_cell_length_c   9.53567400
_cell_angle_alpha   90.00000000
_cell_angle_beta   90.00000000
_cell_angle_gamma   119.96363646
_symmetry_Int_Tables_number   1
_chemical_formula_structural   YEr9Al3Ru
_chemical_formula_sum   'Y2 Er18 Al6 Ru2'
_cell_volume   736.66471148
_cell_formula_units_Z   2
loop_
 _symmetry_equiv_pos_site_id
 _symmetry_equiv_pos_as_xyz
  1  'x, y, z'
loop_
 _atom_site_type_symbol
 _atom_site_label
 _atom_site_symmetry_multiplicity
 _atom_site_fract_x
 _atom_site_fract_y
 _atom_site_fract_z
 _atom_site_occupancy
  Y  Y0  1  0.460446  0.920266  0.750000  1
  Y  Y1  1  0.079734  0.539554  0.750000  1
  Er  Er2  1  0.999944  0.000056  0.499914  1
  Er  Er3  1  0.999944  0.000056  0.000086  1
  Er  Er4  1  0.206726  0.793274  0.438954  1
  Er  Er5  1  0.207184  0.413777  0.439545  1
  Er  Er6  1  0.586223  0.792816  0.439545  1
  Er  Er7  1  0.792893  0.207107  0.559341  1
  Er  Er8  1  0.792315  0.585604  0.559635  1
  Er  Er9  1  0.414396  0.207685  0.559635  1
  Er  Er10  1  0.792893  0.207107  0.940659  1
  Er  Er11  1  0.792315  0.585604  0.940365  1
  Er  Er12  1  0.414396  0.207685  0.940365  1
  Er  Er13  1  0.206726  0.793274  0.061046  1
  Er  Er14  1  0.207184  0.413777  0.060455  1
  Er  Er15  1  0.586223  0.792816  0.060455  1
  Er  Er16  1  0.540019  0.459981  0.250000  1
  Er  Er17  1  0.540118  0.080076  0.250000  1
  Er  Er18  1  0.919924  0.459882  0.250000  1
  Er  Er19  1  0.460650  0.539350  0.750000  1
  Al  Al20  1  0.888614  0.111386  0.250000  1
  Al  Al21  1  0.888510  0.777107  0.250000  1
  Al  Al22  1  0.222893  0.111490  0.250000  1
  Al  Al23  1  0.110869  0.889131  0.750000  1
  Al  Al24  1  0.111727  0.222489  0.750000  1
  Al  Al25  1  0.777511  0.888273  0.750000  1
  Ru  Ru26  1  0.333390  0.666610  0.250000  1
  Ru  Ru27  1  0.666232  0.333768  0.750000  1
