# generated using pymatgen
data_TbYAl20RuRh3
_symmetry_space_group_name_H-M   'P 1'
_cell_length_a   6.85846545
_cell_length_b   6.85712548
_cell_length_c   9.16527801
_cell_angle_alpha   90.11172626
_cell_angle_beta   90.08337329
_cell_angle_gamma   97.28696485
_symmetry_Int_Tables_number   1
_chemical_formula_structural   TbYAl20RuRh3
_chemical_formula_sum   'Tb1 Y1 Al20 Ru1 Rh3'
_cell_volume   427.55435291
_cell_formula_units_Z   1
loop_
 _symmetry_equiv_pos_site_id
 _symmetry_equiv_pos_as_xyz
  1  'x, y, z'
loop_
 _atom_site_type_symbol
 _atom_site_label
 _atom_site_symmetry_multiplicity
 _atom_site_fract_x
 _atom_site_fract_y
 _atom_site_fract_z
 _atom_site_occupancy
  Tb  Tb0  1  0.130951  0.871796  0.249875  1
  Y  Y1  1  0.868909  0.128301  0.750114  1
  Al  Al2  1  0.621155  0.375916  0.547798  1
  Al  Al3  1  0.378873  0.624061  0.452193  1
  Al  Al4  1  0.378217  0.622455  0.049358  1
  Al  Al5  1  0.621807  0.377523  0.950652  1
  Al  Al6  1  0.221563  0.220096  0.499215  1
  Al  Al7  1  0.778456  0.779879  0.500803  1
  Al  Al8  1  0.777365  0.777771  0.999981  1
  Al  Al9  1  0.222655  0.222201  0.999999  1
  Al  Al10  1  0.845043  0.155514  0.103791  1
  Al  Al11  1  0.154962  0.844487  0.896187  1
  Al  Al12  1  0.155794  0.845830  0.602548  1
  Al  Al13  1  0.844217  0.154171  0.397473  1
  Al  Al14  1  0.856872  0.590359  0.749430  1
  Al  Al15  1  0.143146  0.409566  0.250571  1
  Al  Al16  1  0.409787  0.142415  0.749000  1
  Al  Al17  1  0.590279  0.857561  0.250999  1
  Al  Al18  1  0.225353  0.480506  0.749918  1
  Al  Al19  1  0.774638  0.519460  0.250082  1
  Al  Al20  1  0.518850  0.776187  0.746672  1
  Al  Al21  1  0.481179  0.223829  0.253325  1
  Ru  Ru22  1  0.499954  0.999960  0.500023  1
  Rh  Rh23  1  0.000031  0.500090  0.500006  1
  Rh  Rh24  1  0.000038  0.500096  0.999995  1
  Rh  Rh25  1  0.499904  0.999969  0.999991  1
