# generated using pymatgen
data_CaZr7(Si4Mo3)4
_symmetry_space_group_name_H-M   'P 1'
_cell_length_a   6.63077308
_cell_length_b   6.79192237
_cell_length_c   12.74904318
_cell_angle_alpha   90.07678524
_cell_angle_beta   89.94530659
_cell_angle_gamma   90.06932072
_symmetry_Int_Tables_number   1
_chemical_formula_structural   CaZr7(Si4Mo3)4
_chemical_formula_sum   'Ca1 Zr7 Si16 Mo12'
_cell_volume   574.16083601
_cell_formula_units_Z   1
loop_
 _symmetry_equiv_pos_site_id
 _symmetry_equiv_pos_as_xyz
  1  'x, y, z'
loop_
 _atom_site_type_symbol
 _atom_site_label
 _atom_site_symmetry_multiplicity
 _atom_site_fract_x
 _atom_site_fract_y
 _atom_site_fract_z
 _atom_site_occupancy
  Ca  Ca0  1  0.996613  0.166103  0.089675  1
  Zr  Zr1  1  0.499304  0.329928  0.093720  1
  Zr  Zr2  1  0.997810  0.171457  0.407273  1
  Zr  Zr3  1  0.503556  0.670789  0.593407  1
  Zr  Zr4  1  0.004211  0.825218  0.903255  1
  Zr  Zr5  1  0.504514  0.670798  0.905494  1
  Zr  Zr6  1  0.002812  0.830181  0.594312  1
  Zr  Zr7  1  0.496003  0.329500  0.407915  1
  Si  Si8  1  0.666217  0.041740  0.542871  1
  Si  Si9  1  0.166665  0.460542  0.955117  1
  Si  Si10  1  0.337832  0.957882  0.042740  1
  Si  Si11  1  0.834344  0.541973  0.458081  1
  Si  Si12  1  0.333008  0.957989  0.458017  1
  Si  Si13  1  0.834524  0.542834  0.043399  1
  Si  Si14  1  0.664033  0.039954  0.955373  1
  Si  Si15  1  0.165639  0.458407  0.543613  1
  Si  Si16  1  0.532599  0.376913  0.749057  1
  Si  Si17  1  0.033040  0.126830  0.751269  1
  Si  Si18  1  0.465879  0.624381  0.250835  1
  Si  Si19  1  0.966131  0.873109  0.251235  1
  Si  Si20  1  0.797540  0.636201  0.749292  1
  Si  Si21  1  0.299707  0.864732  0.749174  1
  Si  Si22  1  0.200083  0.361920  0.250093  1
  Si  Si23  1  0.699947  0.137638  0.250584  1
  Mo  Mo24  1  0.832023  0.335663  0.623734  1
  Mo  Mo25  1  0.335646  0.164820  0.874945  1
  Mo  Mo26  1  0.168892  0.664931  0.124458  1
  Mo  Mo27  1  0.665271  0.834897  0.377365  1
  Mo  Mo28  1  0.168629  0.662751  0.377266  1
  Mo  Mo29  1  0.663946  0.832133  0.125088  1
  Mo  Mo30  1  0.828631  0.338348  0.874682  1
  Mo  Mo31  1  0.332834  0.164742  0.623304  1
  Mo  Mo32  1  0.667129  0.989970  0.748835  1
  Mo  Mo33  1  0.165876  0.512766  0.750354  1
  Mo  Mo34  1  0.335340  0.007347  0.251920  1
  Mo  Mo35  1  0.833774  0.494611  0.252248  1
