# generated using pymatgen
data_CaLa(PPd3)4
_symmetry_space_group_name_H-M   'P 1'
_cell_length_a   8.55852917
_cell_length_b   8.55801800
_cell_length_c   8.56186400
_cell_angle_alpha   90.00000000
_cell_angle_beta   90.28132757
_cell_angle_gamma   90.00000000
_symmetry_Int_Tables_number   1
_chemical_formula_structural   CaLa(PPd3)4
_chemical_formula_sum   'Ca2 La2 P8 Pd24'
_cell_volume   627.09800704
_cell_formula_units_Z   2
loop_
 _symmetry_equiv_pos_site_id
 _symmetry_equiv_pos_as_xyz
  1  'x, y, z'
loop_
 _atom_site_type_symbol
 _atom_site_label
 _atom_site_symmetry_multiplicity
 _atom_site_fract_x
 _atom_site_fract_y
 _atom_site_fract_z
 _atom_site_occupancy
  Ca  Ca0  1  0.000000  0.500000  0.500000  1
  Ca  Ca1  1  0.000000  0.000000  0.000000  1
  La  La2  1  0.500000  0.500000  0.000000  1
  La  La3  1  0.500000  0.000000  0.500000  1
  P  P4  1  0.808510  0.307586  0.190684  1
  P  P5  1  0.191490  0.807586  0.309316  1
  P  P6  1  0.691787  0.691019  0.693414  1
  P  P7  1  0.308213  0.191019  0.806586  1
  P  P8  1  0.191490  0.692414  0.809316  1
  P  P9  1  0.808510  0.192414  0.690684  1
  P  P10  1  0.308213  0.308981  0.306586  1
  P  P11  1  0.691787  0.808981  0.193414  1
  Pd  Pd12  1  0.419692  0.849040  0.164196  1
  Pd  Pd13  1  0.580308  0.349040  0.335804  1
  Pd  Pd14  1  0.078052  0.152788  0.663821  1
  Pd  Pd15  1  0.921948  0.652788  0.836179  1
  Pd  Pd16  1  0.165850  0.421240  0.849519  1
  Pd  Pd17  1  0.337233  0.579554  0.346735  1
  Pd  Pd18  1  0.662767  0.079554  0.153265  1
  Pd  Pd19  1  0.834150  0.921240  0.650481  1
  Pd  Pd20  1  0.847915  0.162969  0.420129  1
  Pd  Pd21  1  0.348244  0.334711  0.577766  1
  Pd  Pd22  1  0.152085  0.662969  0.079871  1
  Pd  Pd23  1  0.651756  0.834711  0.922234  1
  Pd  Pd24  1  0.580308  0.150960  0.835804  1
  Pd  Pd25  1  0.419692  0.650960  0.664196  1
  Pd  Pd26  1  0.921948  0.847212  0.336179  1
  Pd  Pd27  1  0.078052  0.347212  0.163821  1
  Pd  Pd28  1  0.834150  0.578760  0.150481  1
  Pd  Pd29  1  0.662767  0.420446  0.653265  1
  Pd  Pd30  1  0.337233  0.920446  0.846735  1
  Pd  Pd31  1  0.165850  0.078760  0.349519  1
  Pd  Pd32  1  0.152085  0.837031  0.579871  1
  Pd  Pd33  1  0.651756  0.665289  0.422234  1
  Pd  Pd34  1  0.847915  0.337031  0.920129  1
  Pd  Pd35  1  0.348244  0.165289  0.077766  1
