# generated using pymatgen
data_LiTb16Cd2HgPd4
_symmetry_space_group_name_H-M   'P 1'
_cell_length_a   9.72343136
_cell_length_b   9.72343007
_cell_length_c   9.71928275
_cell_angle_alpha   60.02135182
_cell_angle_beta   60.02135662
_cell_angle_gamma   59.98635824
_symmetry_Int_Tables_number   1
_chemical_formula_structural   LiTb16Cd2HgPd4
_chemical_formula_sum   'Li1 Tb16 Cd2 Hg1 Pd4'
_cell_volume   649.91048672
_cell_formula_units_Z   1
loop_
 _symmetry_equiv_pos_site_id
 _symmetry_equiv_pos_as_xyz
  1  'x, y, z'
loop_
 _atom_site_type_symbol
 _atom_site_label
 _atom_site_symmetry_multiplicity
 _atom_site_fract_x
 _atom_site_fract_y
 _atom_site_fract_z
 _atom_site_occupancy
  Li  Li0  1  0.572132  0.572132  0.570235  1
  Tb  Tb1  1  0.351703  0.351703  0.351455  1
  Tb  Tb2  1  0.354123  0.354123  0.939367  1
  Tb  Tb3  1  0.354932  0.937657  0.354168  1
  Tb  Tb4  1  0.937657  0.354932  0.354168  1
  Tb  Tb5  1  0.809885  0.192389  0.193138  1
  Tb  Tb6  1  0.188161  0.813163  0.813264  1
  Tb  Tb7  1  0.192389  0.809885  0.193138  1
  Tb  Tb8  1  0.813163  0.188161  0.813264  1
  Tb  Tb9  1  0.192281  0.192281  0.810274  1
  Tb  Tb10  1  0.812945  0.812945  0.188668  1
  Tb  Tb11  1  0.934477  0.566054  0.566555  1
  Tb  Tb12  1  0.564191  0.934223  0.936622  1
  Tb  Tb13  1  0.566054  0.934477  0.566555  1
  Tb  Tb14  1  0.934223  0.564191  0.936622  1
  Tb  Tb15  1  0.565748  0.565748  0.936371  1
  Tb  Tb16  1  0.935145  0.935145  0.564867  1
  Cd  Cd17  1  0.581656  0.253032  0.582647  1
  Cd  Cd18  1  0.253032  0.581656  0.582647  1
  Hg  Hg19  1  0.585640  0.585640  0.245268  1
  Pd  Pd20  1  0.145605  0.145605  0.146049  1
  Pd  Pd21  1  0.143418  0.143418  0.567732  1
  Pd  Pd22  1  0.143433  0.568006  0.143463  1
  Pd  Pd23  1  0.568006  0.143433  0.143463  1
