# generated using pymatgen
data_La5Nd5Ir5Os
_symmetry_space_group_name_H-M   'P 1'
_cell_length_a   11.37862668
_cell_length_b   11.33839300
_cell_length_c   6.62437339
_cell_angle_alpha   90.00000000
_cell_angle_beta   89.96048913
_cell_angle_gamma   90.00000000
_symmetry_Int_Tables_number   1
_chemical_formula_structural   La5Nd5Ir5Os
_chemical_formula_sum   'La10 Nd10 Ir10 Os2'
_cell_volume   854.64558948
_cell_formula_units_Z   2
loop_
 _symmetry_equiv_pos_site_id
 _symmetry_equiv_pos_as_xyz
  1  'x, y, z'
loop_
 _atom_site_type_symbol
 _atom_site_label
 _atom_site_symmetry_multiplicity
 _atom_site_fract_x
 _atom_site_fract_y
 _atom_site_fract_z
 _atom_site_occupancy
  La  La0  1  0.413998  0.796738  0.387880  1
  La  La1  1  0.413998  0.203262  0.887880  1
  La  La2  1  0.210424  0.407554  0.613198  1
  La  La3  1  0.210424  0.592446  0.113198  1
  La  La4  1  0.788903  0.407384  0.114843  1
  La  La5  1  0.788903  0.592616  0.614843  1
  La  La6  1  0.907802  0.710648  0.113719  1
  La  La7  1  0.907802  0.289352  0.613719  1
  La  La8  1  0.091477  0.710663  0.614759  1
  La  La9  1  0.091477  0.289337  0.114759  1
  Nd  Nd10  1  0.294378  0.087039  0.387018  1
  Nd  Nd11  1  0.294378  0.912961  0.887018  1
  Nd  Nd12  1  0.705307  0.086141  0.886951  1
  Nd  Nd13  1  0.705307  0.913859  0.386951  1
  Nd  Nd14  1  0.587466  0.795958  0.887625  1
  Nd  Nd15  1  0.587466  0.204042  0.387625  1
  Nd  Nd16  1  0.999917  0.000356  0.494068  1
  Nd  Nd17  1  0.999917  0.999644  0.994068  1
  Nd  Nd18  1  0.500405  0.500945  0.993831  1
  Nd  Nd19  1  0.500405  0.499055  0.493831  1
  Ir  Ir20  1  0.848396  0.154172  0.250319  1
  Ir  Ir21  1  0.848396  0.845828  0.750319  1
  Ir  Ir22  1  0.150070  0.154642  0.750426  1
  Ir  Ir23  1  0.150070  0.845358  0.250426  1
  Ir  Ir24  1  0.655482  0.349275  0.749937  1
  Ir  Ir25  1  0.655482  0.650725  0.249937  1
  Ir  Ir26  1  0.346006  0.347960  0.249769  1
  Ir  Ir27  1  0.346006  0.652040  0.749769  1
  Ir  Ir28  1  0.999966  0.500156  0.879650  1
  Ir  Ir29  1  0.999966  0.499844  0.379650  1
  Os  Os30  1  0.500004  0.999181  0.126001  1
  Os  Os31  1  0.500004  0.000819  0.626001  1
