# generated using pymatgen
data_Dy9Er(ThCo2)2
_symmetry_space_group_name_H-M   'P 1'
_cell_length_a   6.28010278
_cell_length_b   6.86486771
_cell_length_c   9.51986100
_cell_angle_alpha   90.00000000
_cell_angle_beta   90.00000000
_cell_angle_gamma   89.98996099
_symmetry_Int_Tables_number   1
_chemical_formula_structural   Dy9Er(ThCo2)2
_chemical_formula_sum   'Dy9 Er1 Th2 Co4'
_cell_volume   410.42095366
_cell_formula_units_Z   1
loop_
 _symmetry_equiv_pos_site_id
 _symmetry_equiv_pos_as_xyz
  1  'x, y, z'
loop_
 _atom_site_type_symbol
 _atom_site_label
 _atom_site_symmetry_multiplicity
 _atom_site_fract_x
 _atom_site_fract_y
 _atom_site_fract_z
 _atom_site_occupancy
  Dy  Dy0  1  0.676166  0.326795  0.929937  1
  Dy  Dy1  1  0.643713  0.045486  0.250000  1
  Dy  Dy2  1  0.174832  0.173801  0.430522  1
  Dy  Dy3  1  0.825539  0.828704  0.568667  1
  Dy  Dy4  1  0.174832  0.173801  0.069478  1
  Dy  Dy5  1  0.825539  0.828704  0.931333  1
  Dy  Dy6  1  0.676166  0.326795  0.570063  1
  Dy  Dy7  1  0.325076  0.670615  0.068117  1
  Dy  Dy8  1  0.325076  0.670615  0.431883  1
  Er  Er9  1  0.146164  0.453951  0.750000  1
  Th  Th10  1  0.345250  0.944942  0.750000  1
  Th  Th11  1  0.845268  0.555470  0.250000  1
  Co  Co12  1  0.538650  0.628993  0.750000  1
  Co  Co13  1  0.969613  0.110110  0.750000  1
  Co  Co14  1  0.039448  0.870715  0.250000  1
  Co  Co15  1  0.468668  0.390500  0.250000  1
