# generated using pymatgen
data_La3Th(Al8Pt3)3
_symmetry_space_group_name_H-M   'P 1'
_cell_length_a   7.60569332
_cell_length_b   7.63671333
_cell_length_c   13.36431776
_cell_angle_alpha   84.57197892
_cell_angle_beta   79.19817158
_cell_angle_gamma   59.89740398
_symmetry_Int_Tables_number   1
_chemical_formula_structural   La3Th(Al8Pt3)3
_chemical_formula_sum   'La3 Th1 Al24 Pt9'
_cell_volume   659.64240228
_cell_formula_units_Z   1
loop_
 _symmetry_equiv_pos_site_id
 _symmetry_equiv_pos_as_xyz
  1  'x, y, z'
loop_
 _atom_site_type_symbol
 _atom_site_label
 _atom_site_symmetry_multiplicity
 _atom_site_fract_x
 _atom_site_fract_y
 _atom_site_fract_z
 _atom_site_occupancy
  La  La0  1  0.605553  0.831746  0.192325  1
  La  La1  1  0.733612  0.498316  0.808154  1
  La  La2  1  0.266562  0.501546  0.192302  1
  Th  Th3  1  0.395136  0.168458  0.806130  1
  Al  Al4  1  0.687857  0.833305  0.946573  1
  Al  Al5  1  0.312687  0.166244  0.053775  1
  Al  Al6  1  0.146155  0.833362  0.559465  1
  Al  Al7  1  0.853846  0.166805  0.440504  1
  Al  Al8  1  0.480807  0.166801  0.556727  1
  Al  Al9  1  0.519463  0.832957  0.442944  1
  Al  Al10  1  0.213270  0.165758  0.335255  1
  Al  Al11  1  0.788566  0.832413  0.664588  1
  Al  Al12  1  0.437356  0.510009  0.664465  1
  Al  Al13  1  0.562583  0.492182  0.335164  1
  Al  Al14  1  0.109246  0.158118  0.663370  1
  Al  Al15  1  0.889137  0.841356  0.336475  1
  Al  Al16  1  0.348446  0.503648  0.946776  1
  Al  Al17  1  0.651316  0.497050  0.053292  1
  Al  Al18  1  0.014199  0.164762  0.957095  1
  Al  Al19  1  0.985333  0.834987  0.043860  1
  Al  Al20  1  0.185835  0.500409  0.442322  1
  Al  Al21  1  0.813927  0.499555  0.557906  1
  Al  Al22  1  0.737343  0.163523  0.183722  1
  Al  Al23  1  0.261038  0.838377  0.816154  1
  Al  Al24  1  0.063533  0.634245  0.814782  1
  Al  Al25  1  0.938065  0.365416  0.185233  1
  Al  Al26  1  0.859750  0.036288  0.815752  1
  Al  Al27  1  0.139674  0.962541  0.184408  1
  Pt  Pt28  1  0.122965  0.492057  0.637513  1
  Pt  Pt29  1  0.878566  0.505361  0.364050  1
  Pt  Pt30  1  0.657027  0.170763  0.998689  1
  Pt  Pt31  1  0.342839  0.830297  0.998825  1
  Pt  Pt32  1  0.539690  0.166605  0.363595  1
  Pt  Pt33  1  0.460130  0.835316  0.637520  1
  Pt  Pt34  1  0.779080  0.172537  0.636743  1
  Pt  Pt35  1  0.218171  0.827929  0.364821  1
  Pt  Pt36  1  0.001236  0.498959  0.998725  1
