# generated using pymatgen
data_Sc3Ti2Sn2Sb
_symmetry_space_group_name_H-M   'P 1'
_cell_length_a   8.33845800
_cell_length_b   8.33862554
_cell_length_c   5.69233700
_cell_angle_alpha   90.00000000
_cell_angle_beta   90.00000000
_cell_angle_gamma   120.00065351
_symmetry_Int_Tables_number   1
_chemical_formula_structural   Sc3Ti2Sn2Sb
_chemical_formula_sum   'Sc6 Ti4 Sn4 Sb2'
_cell_volume   342.76667574
_cell_formula_units_Z   2
loop_
 _symmetry_equiv_pos_site_id
 _symmetry_equiv_pos_as_xyz
  1  'x, y, z'
loop_
 _atom_site_type_symbol
 _atom_site_label
 _atom_site_symmetry_multiplicity
 _atom_site_fract_x
 _atom_site_fract_y
 _atom_site_fract_z
 _atom_site_occupancy
  Sc  Sc0  1  0.238950  0.999388  0.250000  1
  Sc  Sc1  1  0.238950  0.239562  0.750000  1
  Sc  Sc2  1  0.999798  0.760812  0.750000  1
  Sc  Sc3  1  0.999798  0.238986  0.250000  1
  Sc  Sc4  1  0.759529  0.759143  0.250000  1
  Sc  Sc5  1  0.759529  0.000386  0.750000  1
  Ti  Ti6  1  0.334786  0.667394  0.000000  1
  Ti  Ti7  1  0.666188  0.333093  0.500000  1
  Ti  Ti8  1  0.666188  0.333093  0.000000  1
  Ti  Ti9  1  0.334786  0.667394  0.500000  1
  Sn  Sn10  1  0.000038  0.399999  0.750000  1
  Sn  Sn11  1  0.000038  0.600039  0.250000  1
  Sn  Sn12  1  0.398073  0.397923  0.250000  1
  Sn  Sn13  1  0.398073  0.000150  0.750000  1
  Sb  Sb14  1  0.602639  0.000194  0.250000  1
  Sb  Sb15  1  0.602639  0.602445  0.750000  1
