# generated using pymatgen
data_Tb6Al16Os6Rh
_symmetry_space_group_name_H-M   'P 1'
_cell_length_a   8.95891117
_cell_length_b   8.95891063
_cell_length_c   8.95891100
_cell_angle_alpha   60.00000234
_cell_angle_beta   60.00000432
_cell_angle_gamma   60.00000090
_symmetry_Int_Tables_number   1
_chemical_formula_structural   Tb6Al16Os6Rh
_chemical_formula_sum   'Tb6 Al16 Os6 Rh1'
_cell_volume   508.45284769
_cell_formula_units_Z   1
loop_
 _symmetry_equiv_pos_site_id
 _symmetry_equiv_pos_as_xyz
  1  'x, y, z'
loop_
 _atom_site_type_symbol
 _atom_site_label
 _atom_site_symmetry_multiplicity
 _atom_site_fract_x
 _atom_site_fract_y
 _atom_site_fract_z
 _atom_site_occupancy
  Tb  Tb0  1  0.711974  0.288026  0.288026  1
  Tb  Tb1  1  0.711974  0.288026  0.711974  1
  Tb  Tb2  1  0.711974  0.711974  0.288026  1
  Tb  Tb3  1  0.288026  0.711974  0.711974  1
  Tb  Tb4  1  0.288026  0.711974  0.288026  1
  Tb  Tb5  1  0.288026  0.288026  0.711974  1
  Al  Al6  1  0.632781  0.122406  0.122406  1
  Al  Al7  1  0.122406  0.632781  0.122406  1
  Al  Al8  1  0.122406  0.122406  0.632781  1
  Al  Al9  1  0.122406  0.122406  0.122406  1
  Al  Al10  1  0.367219  0.877594  0.877594  1
  Al  Al11  1  0.877594  0.367219  0.877594  1
  Al  Al12  1  0.877594  0.877594  0.367219  1
  Al  Al13  1  0.877594  0.877594  0.877594  1
  Al  Al14  1  0.002240  0.332587  0.332587  1
  Al  Al15  1  0.332587  0.002240  0.332587  1
  Al  Al16  1  0.332587  0.332587  0.002240  1
  Al  Al17  1  0.332587  0.332587  0.332587  1
  Al  Al18  1  0.997760  0.667413  0.667413  1
  Al  Al19  1  0.667413  0.997760  0.667413  1
  Al  Al20  1  0.667413  0.667413  0.997760  1
  Al  Al21  1  0.667413  0.667413  0.667413  1
  Os  Os22  1  0.500000  0.000000  0.000000  1
  Os  Os23  1  0.500000  0.000000  0.500000  1
  Os  Os24  1  0.500000  0.500000  0.000000  1
  Os  Os25  1  0.000000  0.500000  0.500000  1
  Os  Os26  1  0.000000  0.500000  0.000000  1
  Os  Os27  1  0.000000  0.000000  0.500000  1
  Rh  Rh28  1  0.000000  0.000000  0.000000  1
