# generated using pymatgen
data_Ba2In7Pt2Pb
_symmetry_space_group_name_H-M   'P 1'
_cell_length_a   9.24796226
_cell_length_b   9.24796231
_cell_length_c   7.63837697
_cell_angle_alpha   90.31570252
_cell_angle_beta   89.68429834
_cell_angle_gamma   150.14610036
_symmetry_Int_Tables_number   1
_chemical_formula_structural   Ba2In7Pt2Pb
_chemical_formula_sum   'Ba2 In7 Pt2 Pb1'
_cell_volume   325.18638637
_cell_formula_units_Z   1
loop_
 _symmetry_equiv_pos_site_id
 _symmetry_equiv_pos_as_xyz
  1  'x, y, z'
loop_
 _atom_site_type_symbol
 _atom_site_label
 _atom_site_symmetry_multiplicity
 _atom_site_fract_x
 _atom_site_fract_y
 _atom_site_fract_z
 _atom_site_occupancy
  Ba  Ba0  1  0.121548  0.878452  0.750112  1
  Ba  Ba1  1  0.878452  0.121548  0.249888  1
  In  In2  1  0.309941  0.690059  0.946185  1
  In  In3  1  0.690059  0.309941  0.053815  1
  In  In4  1  0.312533  0.687467  0.550110  1
  In  In5  1  0.687467  0.312533  0.449890  1
  In  In6  1  0.500000  0.500000  0.500000  1
  In  In7  1  0.073107  0.926893  0.254560  1
  In  In8  1  0.926893  0.073107  0.745440  1
  Pt  Pt9  1  0.775941  0.224059  0.749658  1
  Pt  Pt10  1  0.224059  0.775941  0.250342  1
  Pb  Pb11  1  0.500000  0.500000  0.000000  1
