# generated using pymatgen
data_Pr10Co2Bi3Te
_symmetry_space_group_name_H-M   'P 1'
_cell_length_a   8.34466977
_cell_length_b   9.10711302
_cell_length_c   12.92469639
_cell_angle_alpha   90.10271991
_cell_angle_beta   90.41013158
_cell_angle_gamma   89.91909060
_symmetry_Int_Tables_number   1
_chemical_formula_structural   Pr10Co2Bi3Te
_chemical_formula_sum   'Pr20 Co4 Bi6 Te2'
_cell_volume   982.19559271
_cell_formula_units_Z   2
loop_
 _symmetry_equiv_pos_site_id
 _symmetry_equiv_pos_as_xyz
  1  'x, y, z'
loop_
 _atom_site_type_symbol
 _atom_site_label
 _atom_site_symmetry_multiplicity
 _atom_site_fract_x
 _atom_site_fract_y
 _atom_site_fract_z
 _atom_site_occupancy
  Pr  Pr0  1  0.356111  0.748383  0.699590  1
  Pr  Pr1  1  0.643889  0.251617  0.300410  1
  Pr  Pr2  1  0.850668  0.251376  0.800027  1
  Pr  Pr3  1  0.149332  0.748624  0.199973  1
  Pr  Pr4  1  0.879082  0.748704  0.807672  1
  Pr  Pr5  1  0.120918  0.251296  0.192328  1
  Pr  Pr6  1  0.379703  0.250375  0.693800  1
  Pr  Pr7  1  0.620297  0.749625  0.306200  1
  Pr  Pr8  1  0.680393  0.535113  0.562363  1
  Pr  Pr9  1  0.319607  0.464887  0.437637  1
  Pr  Pr10  1  0.178064  0.464817  0.934307  1
  Pr  Pr11  1  0.319067  0.037936  0.436965  1
  Pr  Pr12  1  0.821936  0.535183  0.065693  1
  Pr  Pr13  1  0.680933  0.962064  0.563035  1
  Pr  Pr14  1  0.817944  0.967978  0.061979  1
  Pr  Pr15  1  0.182056  0.032022  0.938021  1
  Pr  Pr16  1  0.047315  0.751073  0.496811  1
  Pr  Pr17  1  0.952685  0.248927  0.503189  1
  Pr  Pr18  1  0.544688  0.256568  0.002035  1
  Pr  Pr19  1  0.455312  0.743432  0.997965  1
  Co  Co20  1  0.070261  0.747170  0.991021  1
  Co  Co21  1  0.929739  0.252830  0.008979  1
  Co  Co22  1  0.570521  0.251060  0.511566  1
  Co  Co23  1  0.429479  0.748940  0.488434  1
  Bi  Bi24  1  0.075051  0.493954  0.674513  1
  Bi  Bi25  1  0.426223  0.007043  0.171841  1
  Bi  Bi26  1  0.924949  0.506046  0.325487  1
  Bi  Bi27  1  0.573777  0.992957  0.828159  1
  Bi  Bi28  1  0.924355  0.994701  0.324086  1
  Bi  Bi29  1  0.075645  0.005299  0.675914  1
  Te  Te30  1  0.576007  0.507226  0.823960  1
  Te  Te31  1  0.423993  0.492774  0.176040  1
