# generated using pymatgen
data_LiPr4Mn2FeO12
_symmetry_space_group_name_H-M   'P 1'
_cell_length_a   5.47082908
_cell_length_b   5.59451151
_cell_length_c   7.79928083
_cell_angle_alpha   90.14966767
_cell_angle_beta   90.08607955
_cell_angle_gamma   90.31446638
_symmetry_Int_Tables_number   1
_chemical_formula_structural   LiPr4Mn2FeO12
_chemical_formula_sum   'Li1 Pr4 Mn2 Fe1 O12'
_cell_volume   238.70491125
_cell_formula_units_Z   1
loop_
 _symmetry_equiv_pos_site_id
 _symmetry_equiv_pos_as_xyz
  1  'x, y, z'
loop_
 _atom_site_type_symbol
 _atom_site_label
 _atom_site_symmetry_multiplicity
 _atom_site_fract_x
 _atom_site_fract_y
 _atom_site_fract_z
 _atom_site_occupancy
  Li  Li0  1  0.000000  0.500000  0.500000  1
  Pr  Pr1  1  0.013352  0.944060  0.737463  1
  Pr  Pr2  1  0.508978  0.544307  0.261281  1
  Pr  Pr3  1  0.491022  0.455693  0.738719  1
  Pr  Pr4  1  0.986648  0.055940  0.262537  1
  Mn  Mn5  1  0.500000  0.000000  0.500000  1
  Mn  Mn6  1  0.000000  0.500000  0.000000  1
  Fe  Fe7  1  0.500000  0.000000  0.000000  1
  O  O8  1  0.697414  0.278745  0.460297  1
  O  O9  1  0.222696  0.197861  0.538163  1
  O  O10  1  0.791670  0.784136  0.047061  1
  O  O11  1  0.284399  0.709139  0.954512  1
  O  O12  1  0.302586  0.721255  0.539703  1
  O  O13  1  0.777304  0.802139  0.461837  1
  O  O14  1  0.208330  0.215864  0.952939  1
  O  O15  1  0.715601  0.290861  0.045488  1
  O  O16  1  0.080180  0.481204  0.236359  1
  O  O17  1  0.578957  0.017470  0.747376  1
  O  O18  1  0.421043  0.982530  0.252624  1
  O  O19  1  0.919820  0.518796  0.763641  1
