# generated using pymatgen
data_Hf18Ti2Re6PIr
_symmetry_space_group_name_H-M   'P 1'
_cell_length_a   8.65085900
_cell_length_b   8.65085955
_cell_length_c   8.52593600
_cell_angle_alpha   90.00000000
_cell_angle_beta   90.00000000
_cell_angle_gamma   120.00000174
_symmetry_Int_Tables_number   1
_chemical_formula_structural   Hf18Ti2Re6PIr
_chemical_formula_sum   'Hf18 Ti2 Re6 P1 Ir1'
_cell_volume   552.57494207
_cell_formula_units_Z   1
loop_
 _symmetry_equiv_pos_site_id
 _symmetry_equiv_pos_as_xyz
  1  'x, y, z'
loop_
 _atom_site_type_symbol
 _atom_site_label
 _atom_site_symmetry_multiplicity
 _atom_site_fract_x
 _atom_site_fract_y
 _atom_site_fract_z
 _atom_site_occupancy
  Hf  Hf0  1  0.196947  0.803053  0.447247  1
  Hf  Hf1  1  0.196947  0.393892  0.447247  1
  Hf  Hf2  1  0.606108  0.803053  0.447247  1
  Hf  Hf3  1  0.803654  0.196346  0.549276  1
  Hf  Hf4  1  0.803654  0.607307  0.549276  1
  Hf  Hf5  1  0.392693  0.196346  0.549276  1
  Hf  Hf6  1  0.803654  0.196346  0.950724  1
  Hf  Hf7  1  0.803654  0.607307  0.950724  1
  Hf  Hf8  1  0.392693  0.196346  0.950724  1
  Hf  Hf9  1  0.196947  0.803053  0.052753  1
  Hf  Hf10  1  0.196947  0.393892  0.052753  1
  Hf  Hf11  1  0.606108  0.803053  0.052753  1
  Hf  Hf12  1  0.541578  0.458422  0.250000  1
  Hf  Hf13  1  0.541578  0.083155  0.250000  1
  Hf  Hf14  1  0.916845  0.458422  0.250000  1
  Hf  Hf15  1  0.459284  0.540716  0.750000  1
  Hf  Hf16  1  0.459284  0.918569  0.750000  1
  Hf  Hf17  1  0.081431  0.540716  0.750000  1
  Ti  Ti18  1  0.000000  0.000000  0.499342  1
  Ti  Ti19  1  0.000000  0.000000  0.000658  1
  Re  Re20  1  0.886350  0.113650  0.250000  1
  Re  Re21  1  0.886350  0.772699  0.250000  1
  Re  Re22  1  0.227301  0.113650  0.250000  1
  Re  Re23  1  0.112020  0.887980  0.750000  1
  Re  Re24  1  0.112020  0.224041  0.750000  1
  Re  Re25  1  0.775959  0.887980  0.750000  1
  P  P26  1  0.666667  0.333333  0.750000  1
  Ir  Ir27  1  0.333333  0.666667  0.250000  1
