# generated using pymatgen
data_Zr4Ti12BiSb17
_symmetry_space_group_name_H-M   'P 1'
_cell_length_a   10.12881900
_cell_length_b   10.12881900
_cell_length_c   7.29337100
_cell_angle_alpha   90.00000000
_cell_angle_beta   90.00000000
_cell_angle_gamma   90.00000000
_symmetry_Int_Tables_number   1
_chemical_formula_structural   Zr4Ti12BiSb17
_chemical_formula_sum   'Zr4 Ti12 Bi1 Sb17'
_cell_volume   748.24862382
_cell_formula_units_Z   1
loop_
 _symmetry_equiv_pos_site_id
 _symmetry_equiv_pos_as_xyz
  1  'x, y, z'
loop_
 _atom_site_type_symbol
 _atom_site_label
 _atom_site_symmetry_multiplicity
 _atom_site_fract_x
 _atom_site_fract_y
 _atom_site_fract_z
 _atom_site_occupancy
  Zr  Zr0  1  0.500000  0.000000  0.085150  1
  Zr  Zr1  1  0.000000  0.500000  0.914850  1
  Zr  Zr2  1  0.500000  0.000000  0.582027  1
  Zr  Zr3  1  0.000000  0.500000  0.417973  1
  Ti  Ti4  1  0.144631  0.000000  0.155354  1
  Ti  Ti5  1  0.356439  0.500000  0.841412  1
  Ti  Ti6  1  0.000000  0.144631  0.844646  1
  Ti  Ti7  1  0.500000  0.643561  0.158588  1
  Ti  Ti8  1  0.000000  0.855369  0.844646  1
  Ti  Ti9  1  0.855369  0.000000  0.155354  1
  Ti  Ti10  1  0.250161  0.749839  0.000000  1
  Ti  Ti11  1  0.250161  0.250161  0.000000  1
  Ti  Ti12  1  0.749839  0.749839  0.000000  1
  Ti  Ti13  1  0.643561  0.500000  0.841412  1
  Ti  Ti14  1  0.500000  0.356439  0.158588  1
  Ti  Ti15  1  0.749839  0.250161  0.000000  1
  Bi  Bi16  1  0.000000  0.000000  0.500000  1
  Sb  Sb17  1  0.829456  0.670595  0.650032  1
  Sb  Sb18  1  0.256470  0.000000  0.815581  1
  Sb  Sb19  1  0.244117  0.500000  0.184264  1
  Sb  Sb20  1  0.670595  0.170544  0.349968  1
  Sb  Sb21  1  0.170544  0.329405  0.650032  1
  Sb  Sb22  1  0.829456  0.329405  0.650032  1
  Sb  Sb23  1  0.755883  0.500000  0.184264  1
  Sb  Sb24  1  0.329405  0.829456  0.349968  1
  Sb  Sb25  1  0.000000  0.256470  0.184419  1
  Sb  Sb26  1  0.670595  0.829456  0.349968  1
  Sb  Sb27  1  0.500000  0.755883  0.815736  1
  Sb  Sb28  1  0.000000  0.743530  0.184419  1
  Sb  Sb29  1  0.170544  0.670595  0.650032  1
  Sb  Sb30  1  0.743530  0.000000  0.815581  1
  Sb  Sb31  1  0.329405  0.170544  0.349968  1
  Sb  Sb32  1  0.500000  0.244117  0.815736  1
  Sb  Sb33  1  0.500000  0.500000  0.500000  1
