# generated using pymatgen
data_Yb3V2O8
_symmetry_space_group_name_H-M   'P 1'
_cell_length_a   7.01646882
_cell_length_b   7.01646849
_cell_length_c   7.01646952
_cell_angle_alpha   46.38932747
_cell_angle_beta   46.38933282
_cell_angle_gamma   46.38932065
_symmetry_Int_Tables_number   1
_chemical_formula_structural   Yb3V2O8
_chemical_formula_sum   'Yb3 V2 O8'
_cell_volume   165.31226392
_cell_formula_units_Z   1
loop_
 _symmetry_equiv_pos_site_id
 _symmetry_equiv_pos_as_xyz
  1  'x, y, z'
loop_
 _atom_site_type_symbol
 _atom_site_label
 _atom_site_symmetry_multiplicity
 _atom_site_fract_x
 _atom_site_fract_y
 _atom_site_fract_z
 _atom_site_occupancy
  Yb  Yb0  1  0.000000  0.000000  0.000000  1
  Yb  Yb1  1  0.805733  0.805733  0.805733  1
  Yb  Yb2  1  0.194267  0.194267  0.194267  1
  V  V3  1  0.596410  0.596410  0.596410  1
  V  V4  1  0.403590  0.403590  0.403590  1
  O  O5  1  0.738109  0.738109  0.221641  1
  O  O6  1  0.261891  0.261891  0.778359  1
  O  O7  1  0.687574  0.687574  0.687574  1
  O  O8  1  0.312426  0.312426  0.312426  1
  O  O9  1  0.778359  0.261891  0.261891  1
  O  O10  1  0.738109  0.221641  0.738109  1
  O  O11  1  0.221641  0.738109  0.738109  1
  O  O12  1  0.261891  0.778359  0.261891  1
