# generated using pymatgen
data_Th2Zr(ScSn2)2
_symmetry_space_group_name_H-M   'P 1'
_cell_length_a   7.90899600
_cell_length_b   7.96512800
_cell_length_c   14.93050600
_cell_angle_alpha   90.00000000
_cell_angle_beta   90.00000000
_cell_angle_gamma   90.00000000
_symmetry_Int_Tables_number   1
_chemical_formula_structural   Th2Zr(ScSn2)2
_chemical_formula_sum   'Th8 Zr4 Sc8 Sn16'
_cell_volume   940.56462685
_cell_formula_units_Z   4
loop_
 _symmetry_equiv_pos_site_id
 _symmetry_equiv_pos_as_xyz
  1  'x, y, z'
loop_
 _atom_site_type_symbol
 _atom_site_label
 _atom_site_symmetry_multiplicity
 _atom_site_fract_x
 _atom_site_fract_y
 _atom_site_fract_z
 _atom_site_occupancy
  Th  Th0  1  0.514564  0.325426  0.904846  1
  Th  Th1  1  0.014564  0.174574  0.595154  1
  Th  Th2  1  0.485436  0.674574  0.404846  1
  Th  Th3  1  0.985436  0.825426  0.095154  1
  Th  Th4  1  0.485436  0.674574  0.095154  1
  Th  Th5  1  0.985436  0.825426  0.404846  1
  Th  Th6  1  0.514564  0.325426  0.595154  1
  Th  Th7  1  0.014564  0.174574  0.904846  1
  Zr  Zr8  1  0.178804  0.497606  0.750000  1
  Zr  Zr9  1  0.678804  0.002394  0.750000  1
  Zr  Zr10  1  0.821196  0.502394  0.250000  1
  Zr  Zr11  1  0.321196  0.997606  0.250000  1
  Sc  Sc12  1  0.351352  0.839585  0.873140  1
  Sc  Sc13  1  0.851352  0.660415  0.626860  1
  Sc  Sc14  1  0.648648  0.160415  0.373140  1
  Sc  Sc15  1  0.148648  0.339585  0.126860  1
  Sc  Sc16  1  0.648648  0.160415  0.126860  1
  Sc  Sc17  1  0.148648  0.339585  0.373140  1
  Sc  Sc18  1  0.351352  0.839585  0.626860  1
  Sc  Sc19  1  0.851352  0.660415  0.873140  1
  Sn  Sn20  1  0.313389  0.046110  0.044864  1
  Sn  Sn21  1  0.813389  0.453890  0.455136  1
  Sn  Sn22  1  0.686611  0.953890  0.544864  1
  Sn  Sn23  1  0.186611  0.546110  0.955136  1
  Sn  Sn24  1  0.686611  0.953890  0.955136  1
  Sn  Sn25  1  0.186611  0.546110  0.544864  1
  Sn  Sn26  1  0.313389  0.046110  0.455136  1
  Sn  Sn27  1  0.813389  0.453890  0.044864  1
  Sn  Sn28  1  0.546482  0.631338  0.750000  1
  Sn  Sn29  1  0.046482  0.868662  0.750000  1
  Sn  Sn30  1  0.453518  0.368662  0.250000  1
  Sn  Sn31  1  0.953518  0.131338  0.250000  1
  Sn  Sn32  1  0.319153  0.141249  0.750000  1
  Sn  Sn33  1  0.819153  0.358751  0.750000  1
  Sn  Sn34  1  0.680847  0.858751  0.250000  1
  Sn  Sn35  1  0.180847  0.641249  0.250000  1
