# generated using pymatgen
data_La7Nd2Y3In20
_symmetry_space_group_name_H-M   'P 1'
_cell_length_a   6.78143337
_cell_length_b   10.76058161
_cell_length_c   12.48643895
_cell_angle_alpha   90.01229091
_cell_angle_beta   90.03427293
_cell_angle_gamma   90.03651006
_symmetry_Int_Tables_number   1
_chemical_formula_structural   La7Nd2Y3In20
_chemical_formula_sum   'La7 Nd2 Y3 In20'
_cell_volume   911.16214097
_cell_formula_units_Z   1
loop_
 _symmetry_equiv_pos_site_id
 _symmetry_equiv_pos_as_xyz
  1  'x, y, z'
loop_
 _atom_site_type_symbol
 _atom_site_label
 _atom_site_symmetry_multiplicity
 _atom_site_fract_x
 _atom_site_fract_y
 _atom_site_fract_z
 _atom_site_occupancy
  La  La0  1  0.887035  0.489504  0.143459  1
  La  La1  1  0.612996  0.011732  0.643046  1
  La  La2  1  0.110132  0.990635  0.855606  1
  La  La3  1  0.389342  0.510091  0.357157  1
  La  La4  1  0.110077  0.509416  0.855747  1
  La  La5  1  0.389661  0.989877  0.356993  1
  La  La6  1  0.887032  0.010377  0.143521  1
  Nd  Nd7  1  0.350101  0.749935  0.060019  1
  Nd  Nd8  1  0.612927  0.488277  0.643171  1
  Y  Y9  1  0.150558  0.750126  0.559187  1
  Y  Y10  1  0.649090  0.249959  0.940009  1
  Y  Y11  1  0.850291  0.250238  0.440906  1
  In  In12  1  0.619053  0.748749  0.505510  1
  In  In13  1  0.875011  0.750030  0.000738  1
  In  In14  1  0.383833  0.250442  0.497980  1
  In  In15  1  0.114574  0.250017  0.997625  1
  In  In16  1  0.659945  0.749862  0.245386  1
  In  In17  1  0.845331  0.749088  0.741991  1
  In  In18  1  0.346395  0.250768  0.755191  1
  In  In19  1  0.153912  0.250048  0.256196  1
  In  In20  1  0.109311  0.750034  0.288708  1
  In  In21  1  0.391665  0.749582  0.782911  1
  In  In22  1  0.892020  0.251188  0.714619  1
  In  In23  1  0.610339  0.250024  0.215777  1
  In  In24  1  0.875896  0.544711  0.406089  1
  In  In25  1  0.623270  0.955890  0.903945  1
  In  In26  1  0.125199  0.045654  0.594693  1
  In  In27  1  0.374740  0.451026  0.095116  1
  In  In28  1  0.126250  0.454983  0.595103  1
  In  In29  1  0.374861  0.048995  0.095388  1
  In  In30  1  0.876312  0.954871  0.405635  1
  In  In31  1  0.622838  0.543871  0.902576  1
