# generated using pymatgen
data_Ho3Fe8Ru
_symmetry_space_group_name_H-M   'P 1'
_cell_length_a   8.78041666
_cell_length_b   8.78041623
_cell_length_c   8.78041502
_cell_angle_alpha   33.62319270
_cell_angle_beta   33.62319835
_cell_angle_gamma   33.62320593
_symmetry_Int_Tables_number   1
_chemical_formula_structural   Ho3Fe8Ru
_chemical_formula_sum   'Ho3 Fe8 Ru1'
_cell_volume   184.89682517
_cell_formula_units_Z   1
loop_
 _symmetry_equiv_pos_site_id
 _symmetry_equiv_pos_as_xyz
  1  'x, y, z'
loop_
 _atom_site_type_symbol
 _atom_site_label
 _atom_site_symmetry_multiplicity
 _atom_site_fract_x
 _atom_site_fract_y
 _atom_site_fract_z
 _atom_site_occupancy
  Ho  Ho0  1  0.000000  0.000000  0.000000  1
  Ho  Ho1  1  0.141670  0.141670  0.141670  1
  Ho  Ho2  1  0.858330  0.858330  0.858331  1
  Fe  Fe3  1  0.332879  0.332879  0.332879  1
  Fe  Fe4  1  0.667121  0.667121  0.667121  1
  Fe  Fe5  1  0.581160  0.077645  0.581162  1
  Fe  Fe6  1  0.581160  0.581160  0.077647  1
  Fe  Fe7  1  0.077645  0.581160  0.581162  1
  Fe  Fe8  1  0.922355  0.418840  0.418839  1
  Fe  Fe9  1  0.418840  0.418840  0.922353  1
  Fe  Fe10  1  0.418840  0.922355  0.418839  1
  Ru  Ru11  1  0.500000  0.500000  0.500000  1
