# generated using pymatgen
data_Pr16Ho4Ir7Pt5
_symmetry_space_group_name_H-M   'P 1'
_cell_length_a   11.39112998
_cell_length_b   11.39112998
_cell_length_c   6.51458833
_cell_angle_alpha   90.05186394
_cell_angle_beta   90.05186394
_cell_angle_gamma   89.90625178
_symmetry_Int_Tables_number   1
_chemical_formula_structural   Pr16Ho4Ir7Pt5
_chemical_formula_sum   'Pr16 Ho4 Ir7 Pt5'
_cell_volume   845.31710158
_cell_formula_units_Z   1
loop_
 _symmetry_equiv_pos_site_id
 _symmetry_equiv_pos_as_xyz
  1  'x, y, z'
loop_
 _atom_site_type_symbol
 _atom_site_label
 _atom_site_symmetry_multiplicity
 _atom_site_fract_x
 _atom_site_fract_y
 _atom_site_fract_z
 _atom_site_occupancy
  Pr  Pr0  1  0.292442  0.090290  0.378197  1
  Pr  Pr1  1  0.293422  0.909467  0.877385  1
  Pr  Pr2  1  0.707143  0.086775  0.877468  1
  Pr  Pr3  1  0.707341  0.909259  0.377701  1
  Pr  Pr4  1  0.586602  0.787390  0.882156  1
  Pr  Pr5  1  0.584723  0.209465  0.377400  1
  Pr  Pr6  1  0.413692  0.788813  0.381890  1
  Pr  Pr7  1  0.410577  0.210633  0.883203  1
  Pr  Pr8  1  0.212610  0.413398  0.617844  1
  Pr  Pr9  1  0.211187  0.586308  0.118110  1
  Pr  Pr10  1  0.790535  0.415277  0.122600  1
  Pr  Pr11  1  0.789367  0.589423  0.616797  1
  Pr  Pr12  1  0.909710  0.707558  0.121803  1
  Pr  Pr13  1  0.913225  0.292857  0.622532  1
  Pr  Pr14  1  0.090533  0.706578  0.622615  1
  Pr  Pr15  1  0.090741  0.292659  0.122299  1
  Ho  Ho16  1  0.000046  0.999815  0.499715  1
  Ho  Ho17  1  0.000185  0.999954  0.000285  1
  Ho  Ho18  1  0.498180  0.501500  0.001079  1
  Ho  Ho19  1  0.498500  0.501820  0.498921  1
  Ir  Ir20  1  0.647774  0.646899  0.250264  1
  Ir  Ir21  1  0.353101  0.352226  0.249736  1
  Ir  Ir22  1  0.351861  0.648139  0.750000  1
  Ir  Ir23  1  0.500353  0.000173  0.119026  1
  Ir  Ir24  1  0.500153  0.000997  0.619515  1
  Ir  Ir25  1  0.999003  0.499847  0.880485  1
  Ir  Ir26  1  0.999827  0.499647  0.380974  1
  Pt  Pt27  1  0.853305  0.146695  0.250000  1
  Pt  Pt28  1  0.853941  0.854312  0.749669  1
  Pt  Pt29  1  0.145688  0.146059  0.750331  1
  Pt  Pt30  1  0.146337  0.853663  0.250000  1
  Pt  Pt31  1  0.647894  0.352106  0.750000  1
