# generated using pymatgen
data_Tb5Dy(Ho3Ir2)2
_symmetry_space_group_name_H-M   'P 1'
_cell_length_a   6.39280755
_cell_length_b   7.23494617
_cell_length_c   9.24891115
_cell_angle_alpha   89.99292872
_cell_angle_beta   90.17279493
_cell_angle_gamma   89.97624802
_symmetry_Int_Tables_number   1
_chemical_formula_structural   Tb5Dy(Ho3Ir2)2
_chemical_formula_sum   'Tb5 Dy1 Ho6 Ir4'
_cell_volume   427.77512469
_cell_formula_units_Z   1
loop_
 _symmetry_equiv_pos_site_id
 _symmetry_equiv_pos_as_xyz
  1  'x, y, z'
loop_
 _atom_site_type_symbol
 _atom_site_label
 _atom_site_symmetry_multiplicity
 _atom_site_fract_x
 _atom_site_fract_y
 _atom_site_fract_z
 _atom_site_occupancy
  Tb  Tb0  1  0.171707  0.176897  0.437539  1
  Tb  Tb1  1  0.868839  0.534255  0.250232  1
  Tb  Tb2  1  0.631130  0.034113  0.249676  1
  Tb  Tb3  1  0.130207  0.465826  0.749932  1
  Tb  Tb4  1  0.369814  0.965755  0.750171  1
  Dy  Dy5  1  0.328288  0.676842  0.062617  1
  Ho  Ho6  1  0.671288  0.323612  0.563420  1
  Ho  Ho7  1  0.828672  0.823544  0.936641  1
  Ho  Ho8  1  0.671434  0.323242  0.936709  1
  Ho  Ho9  1  0.828516  0.823159  0.563350  1
  Ho  Ho10  1  0.328907  0.676414  0.437235  1
  Ho  Ho11  1  0.171104  0.176437  0.062645  1
  Ir  Ir12  1  0.048610  0.882670  0.249795  1
  Ir  Ir13  1  0.451590  0.383000  0.249926  1
  Ir  Ir14  1  0.950463  0.117101  0.750906  1
  Ir  Ir15  1  0.549430  0.617131  0.749205  1
