# generated using pymatgen
data_NdGd3(B4W)4
_symmetry_space_group_name_H-M   'P 1'
_cell_length_a   6.07699408
_cell_length_b   11.75380742
_cell_length_c   3.65943400
_cell_angle_alpha   90.00000000
_cell_angle_beta   90.00000000
_cell_angle_gamma   89.92226290
_symmetry_Int_Tables_number   1
_chemical_formula_structural   NdGd3(B4W)4
_chemical_formula_sum   'Nd1 Gd3 B16 W4'
_cell_volume   261.38514554
_cell_formula_units_Z   1
loop_
 _symmetry_equiv_pos_site_id
 _symmetry_equiv_pos_as_xyz
  1  'x, y, z'
loop_
 _atom_site_type_symbol
 _atom_site_label
 _atom_site_symmetry_multiplicity
 _atom_site_fract_x
 _atom_site_fract_y
 _atom_site_fract_z
 _atom_site_occupancy
  Nd  Nd0  1  0.626204  0.349583  0.000000  1
  Gd  Gd1  1  0.373810  0.650298  0.000000  1
  Gd  Gd2  1  0.126234  0.149375  0.000000  1
  Gd  Gd3  1  0.873769  0.850073  0.000000  1
  B  B4  1  0.786255  0.184163  0.500000  1
  B  B5  1  0.214390  0.814062  0.500000  1
  B  B6  1  0.282742  0.313618  0.500000  1
  B  B7  1  0.714508  0.686667  0.500000  1
  B  B8  1  0.865472  0.031295  0.500000  1
  B  B9  1  0.134640  0.967326  0.500000  1
  B  B10  1  0.364309  0.469363  0.500000  1
  B  B11  1  0.635351  0.533955  0.500000  1
  B  B12  1  0.888957  0.454615  0.500000  1
  B  B13  1  0.114087  0.548172  0.500000  1
  B  B14  1  0.385957  0.046183  0.500000  1
  B  B15  1  0.613219  0.952428  0.500000  1
  B  B16  1  0.977824  0.307536  0.500000  1
  B  B17  1  0.024029  0.693222  0.500000  1
  B  B18  1  0.474168  0.190624  0.500000  1
  B  B19  1  0.523797  0.807324  0.500000  1
  W  W20  1  0.629819  0.082923  0.000000  1
  W  W21  1  0.369765  0.915304  0.000000  1
  W  W22  1  0.130030  0.416562  0.000000  1
  W  W23  1  0.870660  0.585330  0.000000  1
