# generated using pymatgen
data_NdTh3(ZnGe)4
_symmetry_space_group_name_H-M   'P 1'
_cell_length_a   4.24162900
_cell_length_b   4.24163021
_cell_length_c   16.99094100
_cell_angle_alpha   90.00000000
_cell_angle_beta   90.00000000
_cell_angle_gamma   120.00001395
_symmetry_Int_Tables_number   1
_chemical_formula_structural   NdTh3(ZnGe)4
_chemical_formula_sum   'Nd1 Th3 Zn4 Ge4'
_cell_volume   264.73629454
_cell_formula_units_Z   1
loop_
 _symmetry_equiv_pos_site_id
 _symmetry_equiv_pos_as_xyz
  1  'x, y, z'
loop_
 _atom_site_type_symbol
 _atom_site_label
 _atom_site_symmetry_multiplicity
 _atom_site_fract_x
 _atom_site_fract_y
 _atom_site_fract_z
 _atom_site_occupancy
  Nd  Nd0  1  0.000000  0.000000  0.750000  1
  Th  Th1  1  0.000000  0.000000  0.250000  1
  Th  Th2  1  0.000000  0.000000  0.999566  1
  Th  Th3  1  0.000000  0.000000  0.500434  1
  Zn  Zn4  1  0.333333  0.666667  0.129353  1
  Zn  Zn5  1  0.666667  0.333333  0.865476  1
  Zn  Zn6  1  0.666667  0.333333  0.634524  1
  Zn  Zn7  1  0.333333  0.666667  0.370647  1
  Ge  Ge8  1  0.333333  0.666667  0.618820  1
  Ge  Ge9  1  0.666667  0.333333  0.379012  1
  Ge  Ge10  1  0.666667  0.333333  0.120988  1
  Ge  Ge11  1  0.333333  0.666667  0.881180  1
