# generated using pymatgen
data_Er3MgIn4Ir
_symmetry_space_group_name_H-M   'P 1'
_cell_length_a   8.31046400
_cell_length_b   8.31046442
_cell_length_c   3.58702400
_cell_angle_alpha   90.00000000
_cell_angle_beta   90.00000000
_cell_angle_gamma   119.99999727
_symmetry_Int_Tables_number   1
_chemical_formula_structural   Er3MgIn4Ir
_chemical_formula_sum   'Er3 Mg1 In4 Ir1'
_cell_volume   214.54356502
_cell_formula_units_Z   1
loop_
 _symmetry_equiv_pos_site_id
 _symmetry_equiv_pos_as_xyz
  1  'x, y, z'
loop_
 _atom_site_type_symbol
 _atom_site_label
 _atom_site_symmetry_multiplicity
 _atom_site_fract_x
 _atom_site_fract_y
 _atom_site_fract_z
 _atom_site_occupancy
  Er  Er0  1  0.717145  0.963057  0.500000  1
  Er  Er1  1  0.245912  0.282855  0.500000  1
  Er  Er2  1  0.036943  0.754088  0.500000  1
  Mg  Mg3  1  0.666667  0.333333  0.500000  1
  In  In4  1  0.952336  0.341641  0.000000  1
  In  In5  1  0.389306  0.047664  0.000000  1
  In  In6  1  0.658359  0.610694  0.000000  1
  In  In7  1  0.333333  0.666667  0.000000  1
  Ir  Ir8  1  0.000000  0.000000  0.000000  1
