# generated using pymatgen
data_Yb2DyEr(Ru2O7)2
_symmetry_space_group_name_H-M   'P 1'
_cell_length_a   7.22261462
_cell_length_b   7.22261463
_cell_length_c   7.21768472
_cell_angle_alpha   60.08739838
_cell_angle_beta   60.08739966
_cell_angle_gamma   60.04829825
_symmetry_Int_Tables_number   1
_chemical_formula_structural   Yb2DyEr(Ru2O7)2
_chemical_formula_sum   'Yb2 Dy1 Er1 Ru4 O14'
_cell_volume   266.68767361
_cell_formula_units_Z   1
loop_
 _symmetry_equiv_pos_site_id
 _symmetry_equiv_pos_as_xyz
  1  'x, y, z'
loop_
 _atom_site_type_symbol
 _atom_site_label
 _atom_site_symmetry_multiplicity
 _atom_site_fract_x
 _atom_site_fract_y
 _atom_site_fract_z
 _atom_site_occupancy
  Yb  Yb0  1  0.125000  0.625000  0.125000  1
  Yb  Yb1  1  0.625000  0.125000  0.125000  1
  Dy  Dy2  1  0.125000  0.125000  0.625000  1
  Er  Er3  1  0.125000  0.125000  0.125000  1
  Ru  Ru4  1  0.625000  0.625000  0.125000  1
  Ru  Ru5  1  0.625000  0.125000  0.625000  1
  Ru  Ru6  1  0.125000  0.625000  0.625000  1
  Ru  Ru7  1  0.625000  0.625000  0.625000  1
  O  O8  1  0.244503  0.244503  0.253437  1
  O  O9  1  0.005497  0.005497  0.996563  1
  O  O10  1  0.545343  0.954200  0.547726  1
  O  O11  1  0.295823  0.705622  0.297216  1
  O  O12  1  0.551959  0.551959  0.948018  1
  O  O13  1  0.954200  0.545343  0.547726  1
  O  O14  1  0.544378  0.954177  0.952784  1
  O  O15  1  0.959694  0.959694  0.539343  1
  O  O16  1  0.954177  0.544378  0.952784  1
  O  O17  1  0.705622  0.295823  0.297216  1
  O  O18  1  0.295800  0.704657  0.702274  1
  O  O19  1  0.704657  0.295800  0.702274  1
  O  O20  1  0.290306  0.290306  0.710657  1
  O  O21  1  0.698041  0.698041  0.301982  1
