# generated using pymatgen
data_Ho4TlRh
_symmetry_space_group_name_H-M   'P 1'
_cell_length_a   9.64483900
_cell_length_b   9.64483946
_cell_length_c   9.64483900
_cell_angle_alpha   120.00000186
_cell_angle_beta   90.00000000
_cell_angle_gamma   120.00000186
_symmetry_Int_Tables_number   1
_chemical_formula_structural   Ho4TlRh
_chemical_formula_sum   'Ho16 Tl4 Rh4'
_cell_volume   634.40989129
_cell_formula_units_Z   4
loop_
 _symmetry_equiv_pos_site_id
 _symmetry_equiv_pos_as_xyz
  1  'x, y, z'
loop_
 _atom_site_type_symbol
 _atom_site_label
 _atom_site_symmetry_multiplicity
 _atom_site_fract_x
 _atom_site_fract_y
 _atom_site_fract_z
 _atom_site_occupancy
  Ho  Ho0  1  0.349681  0.699364  0.049045  1
  Ho  Ho1  1  0.937969  0.500000  0.062031  1
  Ho  Ho2  1  0.562031  0.124063  0.062031  1
  Ho  Ho3  1  0.562031  0.500000  0.062031  1
  Ho  Ho4  1  0.187509  0.000000  0.187509  1
  Ho  Ho5  1  0.187509  0.375019  0.187509  1
  Ho  Ho6  1  0.812491  0.000000  0.187510  1
  Ho  Ho7  1  0.562031  0.500000  0.437969  1
  Ho  Ho8  1  0.937969  0.500000  0.437969  1
  Ho  Ho9  1  0.937969  0.875937  0.437969  1
  Ho  Ho10  1  0.349681  0.300637  0.650319  1
  Ho  Ho11  1  0.950956  0.300637  0.650319  1
  Ho  Ho12  1  0.349681  0.699364  0.650319  1
  Ho  Ho13  1  0.812491  0.000000  0.812491  1
  Ho  Ho14  1  0.187510  0.000000  0.812491  1
  Ho  Ho15  1  0.812491  0.624980  0.812491  1
  Tl  Tl16  1  0.585671  0.171342  0.414329  1
  Tl  Tl17  1  0.242987  0.828658  0.414329  1
  Tl  Tl18  1  0.585671  0.828658  0.414329  1
  Tl  Tl19  1  0.585671  0.171342  0.757013  1
  Rh  Rh20  1  0.142741  0.285483  0.428224  1
  Rh  Rh21  1  0.142741  0.714518  0.857259  1
  Rh  Rh22  1  0.571777  0.714518  0.857259  1
  Rh  Rh23  1  0.142741  0.285483  0.857259  1
