# generated using pymatgen
data_Rb6I4O
_symmetry_space_group_name_H-M   'P 1'
_cell_length_a   10.09202689
_cell_length_b   10.09202658
_cell_length_c   10.09202830
_cell_angle_alpha   88.83052547
_cell_angle_beta   88.83052524
_cell_angle_gamma   88.83052823
_symmetry_Int_Tables_number   1
_chemical_formula_structural   Rb6I4O
_chemical_formula_sum   'Rb12 I8 O2'
_cell_volume   1027.22932400
_cell_formula_units_Z   2
loop_
 _symmetry_equiv_pos_site_id
 _symmetry_equiv_pos_as_xyz
  1  'x, y, z'
loop_
 _atom_site_type_symbol
 _atom_site_label
 _atom_site_symmetry_multiplicity
 _atom_site_fract_x
 _atom_site_fract_y
 _atom_site_fract_z
 _atom_site_occupancy
  Rb  Rb0  1  0.934968  0.056315  0.736343  1
  Rb  Rb1  1  0.943685  0.263657  0.065032  1
  Rb  Rb2  1  0.763657  0.443685  0.565032  1
  Rb  Rb3  1  0.434968  0.236343  0.556315  1
  Rb  Rb4  1  0.263657  0.065032  0.943685  1
  Rb  Rb5  1  0.556315  0.434968  0.236343  1
  Rb  Rb6  1  0.443685  0.565032  0.763657  1
  Rb  Rb7  1  0.565032  0.763657  0.443685  1
  Rb  Rb8  1  0.736343  0.934968  0.056315  1
  Rb  Rb9  1  0.236343  0.556315  0.434968  1
  Rb  Rb10  1  0.056315  0.736343  0.934968  1
  Rb  Rb11  1  0.065032  0.943685  0.263657  1
  I  I12  1  0.750000  0.123529  0.376471  1
  I  I13  1  0.623529  0.250000  0.876471  1
  I  I14  1  0.876471  0.623529  0.250000  1
  I  I15  1  0.750000  0.750000  0.750000  1
  I  I16  1  0.250000  0.250000  0.250000  1
  I  I17  1  0.123529  0.376471  0.750000  1
  I  I18  1  0.376471  0.750000  0.123529  1
  I  I19  1  0.250000  0.876471  0.623529  1
  O  O20  1  0.000000  0.000000  0.000000  1
  O  O21  1  0.500000  0.500000  0.500000  1
