# generated using pymatgen
data_Rb3Ta2Cu3S8
_symmetry_space_group_name_H-M   'P 1'
_cell_length_a   12.46483793
_cell_length_b   12.46483831
_cell_length_c   15.11624996
_cell_angle_alpha   61.19461520
_cell_angle_beta   61.19461436
_cell_angle_gamma   25.94715746
_symmetry_Int_Tables_number   1
_chemical_formula_structural   Rb3Ta2Cu3S8
_chemical_formula_sum   'Rb6 Ta4 Cu6 S16'
_cell_volume   893.21844220
_cell_formula_units_Z   2
loop_
 _symmetry_equiv_pos_site_id
 _symmetry_equiv_pos_as_xyz
  1  'x, y, z'
loop_
 _atom_site_type_symbol
 _atom_site_label
 _atom_site_symmetry_multiplicity
 _atom_site_fract_x
 _atom_site_fract_y
 _atom_site_fract_z
 _atom_site_occupancy
  Rb  Rb0  1  0.729664  0.653957  0.407323  1
  Rb  Rb1  1  0.346043  0.270336  0.092677  1
  Rb  Rb2  1  0.270336  0.346043  0.592677  1
  Rb  Rb3  1  0.653957  0.729664  0.907323  1
  Rb  Rb4  1  0.000000  0.000000  0.000000  1
  Rb  Rb5  1  0.000000  0.000000  0.500000  1
  Ta  Ta6  1  0.159594  0.593353  0.278964  1
  Ta  Ta7  1  0.406647  0.840406  0.221036  1
  Ta  Ta8  1  0.840406  0.406647  0.721036  1
  Ta  Ta9  1  0.593353  0.159594  0.778964  1
  Cu  Cu10  1  0.277400  0.722600  0.250000  1
  Cu  Cu11  1  0.722600  0.277400  0.750000  1
  Cu  Cu12  1  0.903556  0.338043  0.220381  1
  Cu  Cu13  1  0.661957  0.096444  0.279619  1
  Cu  Cu14  1  0.096444  0.661957  0.779619  1
  Cu  Cu15  1  0.338043  0.903556  0.720381  1
  S  S16  1  0.960002  0.864349  0.366384  1
  S  S17  1  0.135651  0.039998  0.133616  1
  S  S18  1  0.039998  0.135651  0.633616  1
  S  S19  1  0.864349  0.960002  0.866384  1
  S  S20  1  0.479380  0.441134  0.166717  1
  S  S21  1  0.558866  0.520620  0.333283  1
  S  S22  1  0.520620  0.558866  0.833283  1
  S  S23  1  0.441134  0.479380  0.666717  1
  S  S24  1  0.878256  0.811691  0.191437  1
  S  S25  1  0.188309  0.121744  0.308563  1
  S  S26  1  0.121744  0.188309  0.808563  1
  S  S27  1  0.811691  0.878256  0.691437  1
  S  S28  1  0.733903  0.675473  0.115673  1
  S  S29  1  0.324527  0.266097  0.384327  1
  S  S30  1  0.266097  0.324527  0.884327  1
  S  S31  1  0.675473  0.733903  0.615673  1
