# generated using pymatgen
data_Ho2Er4Al25Os7
_symmetry_space_group_name_H-M   'P 1'
_cell_length_a   8.86094111
_cell_length_b   8.85940382
_cell_length_c   9.54307500
_cell_angle_alpha   90.08483712
_cell_angle_beta   89.84816920
_cell_angle_gamma   119.89862786
_symmetry_Int_Tables_number   1
_chemical_formula_structural   Ho2Er4Al25Os7
_chemical_formula_sum   'Ho2 Er4 Al25 Os7'
_cell_volume   649.44818514
_cell_formula_units_Z   1
loop_
 _symmetry_equiv_pos_site_id
 _symmetry_equiv_pos_as_xyz
  1  'x, y, z'
loop_
 _atom_site_type_symbol
 _atom_site_label
 _atom_site_symmetry_multiplicity
 _atom_site_fract_x
 _atom_site_fract_y
 _atom_site_fract_z
 _atom_site_occupancy
  Ho  Ho0  1  0.192167  0.385440  0.245685  1
  Ho  Ho1  1  0.807833  0.614560  0.754315  1
  Er  Er2  1  0.613300  0.807603  0.246049  1
  Er  Er3  1  0.386700  0.192397  0.753951  1
  Er  Er4  1  0.194855  0.804853  0.255690  1
  Er  Er5  1  0.805145  0.195147  0.744310  1
  Al  Al6  1  0.327133  0.672870  0.023244  1
  Al  Al7  1  0.672867  0.327130  0.976756  1
  Al  Al8  1  0.666090  0.333968  0.519005  1
  Al  Al9  1  0.333910  0.666032  0.480995  1
  Al  Al10  1  0.162375  0.325524  0.571714  1
  Al  Al11  1  0.837625  0.674476  0.428286  1
  Al  Al12  1  0.674379  0.837592  0.571578  1
  Al  Al13  1  0.851802  0.678173  0.082493  1
  Al  Al14  1  0.325621  0.162408  0.428422  1
  Al  Al15  1  0.148198  0.321827  0.917507  1
  Al  Al16  1  0.162927  0.837147  0.576217  1
  Al  Al17  1  0.321802  0.147943  0.082131  1
  Al  Al18  1  0.837073  0.162853  0.423783  1
  Al  Al19  1  0.678198  0.852057  0.917869  1
  Al  Al20  1  0.836752  0.162891  0.076938  1
  Al  Al21  1  0.163248  0.837109  0.923062  1
  Al  Al22  1  0.562002  0.120663  0.249632  1
  Al  Al23  1  0.437998  0.879337  0.750368  1
  Al  Al24  1  0.879216  0.437965  0.249717  1
  Al  Al25  1  0.120784  0.562035  0.750283  1
  Al  Al26  1  0.565541  0.434992  0.258268  1
  Al  Al27  1  0.434459  0.565008  0.741732  1
  Al  Al28  1  0.998445  0.000056  0.250726  1
  Al  Al29  1  0.001555  0.999944  0.749274  1
  Al  Al30  1  0.500000  0.500000  0.000000  1
  Os  Os31  1  0.500000  0.000000  0.000000  1
  Os  Os32  1  0.000000  0.500000  0.000000  1
  Os  Os33  1  0.500000  0.000000  0.500000  1
  Os  Os34  1  0.000000  0.500000  0.500000  1
  Os  Os35  1  0.500000  0.500000  0.500000  1
  Os  Os36  1  0.000000  0.000000  0.000000  1
  Os  Os37  1  0.000000  0.000000  0.500000  1
