# generated using pymatgen
data_Tm8CrB24Ir2Ru
_symmetry_space_group_name_H-M   'P 1'
_cell_length_a   3.59552100
_cell_length_b   9.07669126
_cell_length_c   11.43538683
_cell_angle_alpha   89.95385347
_cell_angle_beta   90.00000000
_cell_angle_gamma   90.00000000
_symmetry_Int_Tables_number   1
_chemical_formula_structural   Tm8CrB24Ir2Ru
_chemical_formula_sum   'Tm8 Cr1 B24 Ir2 Ru1'
_cell_volume   373.19869161
_cell_formula_units_Z   1
loop_
 _symmetry_equiv_pos_site_id
 _symmetry_equiv_pos_as_xyz
  1  'x, y, z'
loop_
 _atom_site_type_symbol
 _atom_site_label
 _atom_site_symmetry_multiplicity
 _atom_site_fract_x
 _atom_site_fract_y
 _atom_site_fract_z
 _atom_site_occupancy
  Tm  Tm0  1  0.000000  0.325662  0.412094  1
  Tm  Tm1  1  0.000000  0.680327  0.581878  1
  Tm  Tm2  1  0.000000  0.816118  0.089085  1
  Tm  Tm3  1  0.000000  0.176552  0.914590  1
  Tm  Tm4  1  0.000000  0.940490  0.374346  1
  Tm  Tm5  1  0.000000  0.054763  0.626678  1
  Tm  Tm6  1  0.000000  0.447615  0.127984  1
  Tm  Tm7  1  0.000000  0.558151  0.873634  1
  Cr  Cr8  1  0.000000  0.638467  0.320958  1
  B  B9  1  0.500000  0.553118  0.433213  1
  B  B10  1  0.500000  0.447312  0.565373  1
  B  B11  1  0.500000  0.052792  0.066324  1
  B  B12  1  0.500000  0.946056  0.933963  1
  B  B13  1  0.500000  0.747873  0.419543  1
  B  B14  1  0.500000  0.251248  0.578296  1
  B  B15  1  0.500000  0.249849  0.079080  1
  B  B16  1  0.500000  0.751203  0.920443  1
  B  B17  1  0.500000  0.791843  0.265379  1
  B  B18  1  0.500000  0.207388  0.735040  1
  B  B19  1  0.500000  0.293054  0.234512  1
  B  B20  1  0.500000  0.708534  0.765289  1
  B  B21  1  0.500000  0.631501  0.185300  1
  B  B22  1  0.500000  0.367631  0.816872  1
  B  B23  1  0.500000  0.131958  0.316206  1
  B  B24  1  0.500000  0.868751  0.684437  1
  B  B25  1  0.500000  0.980524  0.213410  1
  B  B26  1  0.500000  0.017775  0.787219  1
  B  B27  1  0.500000  0.482528  0.287464  1
  B  B28  1  0.500000  0.518747  0.712761  1
  B  B29  1  0.500000  0.607096  0.029248  1
  B  B30  1  0.500000  0.392021  0.970315  1
  B  B31  1  0.500000  0.108628  0.470261  1
  B  B32  1  0.500000  0.892575  0.529963  1
  Ir  Ir33  1  0.000000  0.361919  0.679402  1
  Ir  Ir34  1  0.000000  0.137633  0.178274  1
  Ru  Ru35  1  0.000000  0.862298  0.821168  1
