# generated using pymatgen
data_Tb2YMg3Si2Ni
_symmetry_space_group_name_H-M   'P 1'
_cell_length_a   7.22496200
_cell_length_b   7.19948713
_cell_length_c   4.24948600
_cell_angle_alpha   90.00000000
_cell_angle_beta   90.00000000
_cell_angle_gamma   120.11711026
_symmetry_Int_Tables_number   1
_chemical_formula_structural   Tb2YMg3Si2Ni
_chemical_formula_sum   'Tb2 Y1 Mg3 Si2 Ni1'
_cell_volume   191.20112726
_cell_formula_units_Z   1
loop_
 _symmetry_equiv_pos_site_id
 _symmetry_equiv_pos_as_xyz
  1  'x, y, z'
loop_
 _atom_site_type_symbol
 _atom_site_label
 _atom_site_symmetry_multiplicity
 _atom_site_fract_x
 _atom_site_fract_y
 _atom_site_fract_z
 _atom_site_occupancy
  Tb  Tb0  1  0.999578  0.588424  0.000000  1
  Tb  Tb1  1  0.411154  0.411576  0.000000  1
  Y  Y2  1  0.587783  0.000000  0.000000  1
  Mg  Mg3  1  0.241149  0.000000  0.500000  1
  Mg  Mg4  1  0.759062  0.759398  0.500000  1
  Mg  Mg5  1  0.999664  0.240602  0.500000  1
  Si  Si6  1  0.666851  0.333392  0.500000  1
  Si  Si7  1  0.333458  0.666608  0.500000  1
  Ni  Ni8  1  0.001300  0.000000  0.000000  1
