# generated using pymatgen
data_CaTb3Sc6(Si5Ir2)4
_symmetry_space_group_name_H-M   'P 1'
_cell_length_a   12.51516670
_cell_length_b   12.51516693
_cell_length_c   4.15980500
_cell_angle_alpha   90.00000000
_cell_angle_beta   90.00000000
_cell_angle_gamma   90.01811100
_symmetry_Int_Tables_number   1
_chemical_formula_structural   CaTb3Sc6(Si5Ir2)4
_chemical_formula_sum   'Ca1 Tb3 Sc6 Si20 Ir8'
_cell_volume   651.54773027
_cell_formula_units_Z   1
loop_
 _symmetry_equiv_pos_site_id
 _symmetry_equiv_pos_as_xyz
  1  'x, y, z'
loop_
 _atom_site_type_symbol
 _atom_site_label
 _atom_site_symmetry_multiplicity
 _atom_site_fract_x
 _atom_site_fract_y
 _atom_site_fract_z
 _atom_site_occupancy
  Ca  Ca0  1  0.384576  0.115424  0.500000  1
  Tb  Tb1  1  0.115653  0.615682  0.500000  1
  Tb  Tb2  1  0.884318  0.384347  0.500000  1
  Tb  Tb3  1  0.616199  0.883801  0.500000  1
  Sc  Sc4  1  0.673838  0.174758  0.500000  1
  Sc  Sc5  1  0.325242  0.826162  0.500000  1
  Sc  Sc6  1  0.173594  0.326406  0.500000  1
  Sc  Sc7  1  0.826265  0.673735  0.500000  1
  Sc  Sc8  1  0.000197  0.999905  0.000000  1
  Sc  Sc9  1  0.500095  0.499803  0.000000  1
  Si  Si10  1  0.568186  0.067855  0.000000  1
  Si  Si11  1  0.432145  0.931814  0.000000  1
  Si  Si12  1  0.067993  0.432007  0.000000  1
  Si  Si13  1  0.932203  0.567797  0.000000  1
  Si  Si14  1  0.199630  0.165427  0.000000  1
  Si  Si15  1  0.800435  0.834308  0.000000  1
  Si  Si16  1  0.165274  0.800045  0.000000  1
  Si  Si17  1  0.699955  0.334726  0.000000  1
  Si  Si18  1  0.834454  0.199628  0.000000  1
  Si  Si19  1  0.300372  0.665546  0.000000  1
  Si  Si20  1  0.665692  0.699565  0.000000  1
  Si  Si21  1  0.334573  0.300370  0.000000  1
  Si  Si22  1  0.007955  0.151052  0.500000  1
  Si  Si23  1  0.992563  0.849447  0.500000  1
  Si  Si24  1  0.151104  0.993528  0.500000  1
  Si  Si25  1  0.506472  0.348896  0.500000  1
  Si  Si26  1  0.849485  0.008157  0.500000  1
  Si  Si27  1  0.491843  0.650515  0.500000  1
  Si  Si28  1  0.650553  0.507437  0.500000  1
  Si  Si29  1  0.348948  0.492045  0.500000  1
  Ir  Ir30  1  0.020388  0.243826  0.000000  1
  Ir  Ir31  1  0.979000  0.756229  0.000000  1
  Ir  Ir32  1  0.243393  0.978401  0.000000  1
  Ir  Ir33  1  0.521599  0.256607  0.000000  1
  Ir  Ir34  1  0.756052  0.020187  0.000000  1
  Ir  Ir35  1  0.479813  0.743948  0.000000  1
  Ir  Ir36  1  0.743771  0.521000  0.000000  1
  Ir  Ir37  1  0.256174  0.479612  0.000000  1
