# generated using pymatgen
data_HoSc3InPt11
_symmetry_space_group_name_H-M   'P 1'
_cell_length_a   4.08911400
_cell_length_b   5.73251175
_cell_length_c   11.47458274
_cell_angle_alpha   88.20243760
_cell_angle_beta   90.00000000
_cell_angle_gamma   90.00000000
_symmetry_Int_Tables_number   1
_chemical_formula_structural   HoSc3InPt11
_chemical_formula_sum   'Ho1 Sc3 In1 Pt11'
_cell_volume   268.84211490
_cell_formula_units_Z   1
loop_
 _symmetry_equiv_pos_site_id
 _symmetry_equiv_pos_as_xyz
  1  'x, y, z'
loop_
 _atom_site_type_symbol
 _atom_site_label
 _atom_site_symmetry_multiplicity
 _atom_site_fract_x
 _atom_site_fract_y
 _atom_site_fract_z
 _atom_site_occupancy
  Ho  Ho0  1  0.500000  0.753735  0.375663  1
  Sc  Sc1  1  0.500000  0.719359  0.861704  1
  Sc  Sc2  1  0.500000  0.280173  0.137797  1
  Sc  Sc3  1  0.500000  0.246465  0.624380  1
  In  In4  1  0.000000  0.000590  0.998763  1
  Pt  Pt5  1  0.000000  0.016799  0.245759  1
  Pt  Pt6  1  0.000000  0.988096  0.751650  1
  Pt  Pt7  1  0.000000  0.499526  0.998974  1
  Pt  Pt8  1  0.000000  0.494732  0.504037  1
  Pt  Pt9  1  0.000000  0.507801  0.246392  1
  Pt  Pt10  1  0.000000  0.487908  0.751156  1
  Pt  Pt11  1  0.500000  0.252158  0.377105  1
  Pt  Pt12  1  0.500000  0.236430  0.878734  1
  Pt  Pt13  1  0.500000  0.763501  0.117227  1
  Pt  Pt14  1  0.500000  0.748328  0.627011  1
  Pt  Pt15  1  0.000000  0.004399  0.503649  1
