# generated using pymatgen
data_YHo11Co5Bi
_symmetry_space_group_name_H-M   'P 1'
_cell_length_a   8.27855640
_cell_length_b   8.27850440
_cell_length_c   8.26159468
_cell_angle_alpha   110.77199057
_cell_angle_beta   110.79205982
_cell_angle_gamma   106.96638877
_symmetry_Int_Tables_number   1
_chemical_formula_structural   YHo11Co5Bi
_chemical_formula_sum   'Y1 Ho11 Co5 Bi1'
_cell_volume   434.75486871
_cell_formula_units_Z   1
loop_
 _symmetry_equiv_pos_site_id
 _symmetry_equiv_pos_as_xyz
  1  'x, y, z'
loop_
 _atom_site_type_symbol
 _atom_site_label
 _atom_site_symmetry_multiplicity
 _atom_site_fract_x
 _atom_site_fract_y
 _atom_site_fract_z
 _atom_site_occupancy
  Y  Y0  1  0.815678  0.712536  0.528175  1
  Ho  Ho1  1  0.183045  0.287533  0.470574  1
  Ho  Ho2  1  0.183362  0.711790  0.895132  1
  Ho  Ho3  1  0.817058  0.287780  0.104826  1
  Ho  Ho4  1  0.688016  0.378597  0.690942  1
  Ho  Ho5  1  0.310991  0.620914  0.308869  1
  Ho  Ho6  1  0.687898  0.997795  0.308819  1
  Ho  Ho7  1  0.312318  0.002846  0.690916  1
  Ho  Ho8  1  0.596731  0.792212  0.805485  1
  Ho  Ho9  1  0.402011  0.207221  0.194231  1
  Ho  Ho10  1  0.987008  0.792210  0.194222  1
  Ho  Ho11  1  0.013251  0.208739  0.805481  1
  Co  Co12  1  0.624662  0.000191  0.624872  1
  Co  Co13  1  0.375273  0.000090  0.375382  1
  Co  Co14  1  0.112969  0.610987  0.500471  1
  Co  Co15  1  0.889571  0.387608  0.500463  1
  Co  Co16  1  0.999975  0.000819  0.000808  1
  Bi  Bi17  1  0.500184  0.500132  0.000332  1
