# generated using pymatgen
data_Re24Mo3W2
_symmetry_space_group_name_H-M   'P 1'
_cell_length_a   8.36051961
_cell_length_b   8.36052020
_cell_length_c   8.35845100
_cell_angle_alpha   109.46621200
_cell_angle_beta   109.46621342
_cell_angle_gamma   109.47622939
_symmetry_Int_Tables_number   1
_chemical_formula_structural   Re24Mo3W2
_chemical_formula_sum   'Re24 Mo3 W2'
_cell_volume   449.77707010
_cell_formula_units_Z   1
loop_
 _symmetry_equiv_pos_site_id
 _symmetry_equiv_pos_as_xyz
  1  'x, y, z'
loop_
 _atom_site_type_symbol
 _atom_site_label
 _atom_site_symmetry_multiplicity
 _atom_site_fract_x
 _atom_site_fract_y
 _atom_site_fract_z
 _atom_site_occupancy
  Re  Re0  1  0.315371  0.315371  0.716844  1
  Re  Re1  1  0.401307  0.684545  0.999827  1
  Re  Re2  1  0.684545  0.401307  0.999827  1
  Re  Re3  1  0.598693  0.283238  0.598520  1
  Re  Re4  1  0.401606  0.000000  0.684543  1
  Re  Re5  1  0.000000  0.401606  0.684543  1
  Re  Re6  1  0.283238  0.598693  0.598520  1
  Re  Re7  1  0.716762  0.315455  0.315282  1
  Re  Re8  1  0.315455  0.716762  0.315282  1
  Re  Re9  1  0.684629  0.000000  0.401473  1
  Re  Re10  1  0.000000  0.684629  0.401473  1
  Re  Re11  1  0.598394  0.598394  0.282937  1
  Re  Re12  1  0.806559  0.806559  0.182296  1
  Re  Re13  1  0.375910  0.193489  0.000115  1
  Re  Re14  1  0.193489  0.375910  0.000115  1
  Re  Re15  1  0.624090  0.817580  0.624205  1
  Re  Re16  1  0.375583  0.000000  0.193475  1
  Re  Re17  1  0.000000  0.375583  0.193475  1
  Re  Re18  1  0.817580  0.624090  0.624205  1
  Re  Re19  1  0.182420  0.806511  0.806626  1
  Re  Re20  1  0.806511  0.182420  0.806626  1
  Re  Re21  1  0.193441  0.000000  0.375738  1
  Re  Re22  1  0.000000  0.193441  0.375738  1
  Re  Re23  1  0.624417  0.624417  0.817894  1
  Mo  Mo24  1  0.641288  0.000000  0.000014  1
  Mo  Mo25  1  0.000000  0.641288  0.000014  1
  Mo  Mo26  1  0.358712  0.358712  0.358725  1
  W  W27  1  0.000000  0.000000  0.000300  1
  W  W28  1  0.000000  0.000000  0.641368  1
