# generated using pymatgen
data_Dy7Ho3Si6O
_symmetry_space_group_name_H-M   'P 1'
_cell_length_a   8.42310900
_cell_length_b   8.42310793
_cell_length_c   6.34128900
_cell_angle_alpha   90.00000000
_cell_angle_beta   90.00000000
_cell_angle_gamma   119.99999243
_symmetry_Int_Tables_number   1
_chemical_formula_structural   Dy7Ho3Si6O
_chemical_formula_sum   'Dy7 Ho3 Si6 O1'
_cell_volume   389.63054622
_cell_formula_units_Z   1
loop_
 _symmetry_equiv_pos_site_id
 _symmetry_equiv_pos_as_xyz
  1  'x, y, z'
loop_
 _atom_site_type_symbol
 _atom_site_label
 _atom_site_symmetry_multiplicity
 _atom_site_fract_x
 _atom_site_fract_y
 _atom_site_fract_z
 _atom_site_occupancy
  Dy  Dy0  1  0.333333  0.666667  0.000000  1
  Dy  Dy1  1  0.999954  0.763848  0.260029  1
  Dy  Dy2  1  0.236152  0.236105  0.260029  1
  Dy  Dy3  1  0.763895  0.000046  0.260029  1
  Dy  Dy4  1  0.999954  0.236105  0.739971  1
  Dy  Dy5  1  0.763895  0.763848  0.739971  1
  Dy  Dy6  1  0.236152  0.000046  0.739971  1
  Ho  Ho7  1  0.333333  0.666667  0.500000  1
  Ho  Ho8  1  0.666667  0.333333  0.500000  1
  Ho  Ho9  1  0.666667  0.333333  0.000000  1
  Si  Si10  1  0.999608  0.397347  0.251186  1
  Si  Si11  1  0.602653  0.602261  0.251186  1
  Si  Si12  1  0.397739  0.000392  0.251186  1
  Si  Si13  1  0.999608  0.602261  0.748814  1
  Si  Si14  1  0.397739  0.397347  0.748814  1
  Si  Si15  1  0.602653  0.000392  0.748814  1
  O  O16  1  0.000000  0.000000  0.500000  1
