# generated using pymatgen
data_Pr3AlAu5
_symmetry_space_group_name_H-M   'P 1'
_cell_length_a   8.70094037
_cell_length_b   8.70094068
_cell_length_c   13.84042800
_cell_angle_alpha   90.00000000
_cell_angle_beta   90.00000000
_cell_angle_gamma   127.65487004
_symmetry_Int_Tables_number   1
_chemical_formula_structural   Pr3AlAu5
_chemical_formula_sum   'Pr12 Al4 Au20'
_cell_volume   829.55519958
_cell_formula_units_Z   4
loop_
 _symmetry_equiv_pos_site_id
 _symmetry_equiv_pos_as_xyz
  1  'x, y, z'
loop_
 _atom_site_type_symbol
 _atom_site_label
 _atom_site_symmetry_multiplicity
 _atom_site_fract_x
 _atom_site_fract_y
 _atom_site_fract_z
 _atom_site_occupancy
  Pr  Pr0  1  0.929448  0.070552  0.250000  1
  Pr  Pr1  1  0.070552  0.929448  0.750000  1
  Pr  Pr2  1  0.317080  0.682920  0.250000  1
  Pr  Pr3  1  0.682920  0.317080  0.750000  1
  Pr  Pr4  1  0.631507  0.368493  0.466749  1
  Pr  Pr5  1  0.368493  0.631507  0.533251  1
  Pr  Pr6  1  0.631507  0.368493  0.033251  1
  Pr  Pr7  1  0.368493  0.631507  0.966749  1
  Pr  Pr8  1  0.881920  0.118080  0.950514  1
  Pr  Pr9  1  0.118080  0.881920  0.049486  1
  Pr  Pr10  1  0.881920  0.118080  0.549486  1
  Pr  Pr11  1  0.118080  0.881920  0.450514  1
  Al  Al12  1  0.718216  0.281784  0.250000  1
  Al  Al13  1  0.281784  0.718216  0.750000  1
  Al  Al14  1  0.534060  0.465940  0.250000  1
  Al  Al15  1  0.465940  0.534060  0.750000  1
  Au  Au16  1  0.330048  0.074644  0.250000  1
  Au  Au17  1  0.074644  0.330048  0.750000  1
  Au  Au18  1  0.669952  0.925356  0.750000  1
  Au  Au19  1  0.925356  0.669952  0.250000  1
  Au  Au20  1  0.574961  0.007409  0.394136  1
  Au  Au21  1  0.007409  0.574961  0.605864  1
  Au  Au22  1  0.574961  0.007409  0.105864  1
  Au  Au23  1  0.007409  0.574961  0.894136  1
  Au  Au24  1  0.425039  0.992591  0.605864  1
  Au  Au25  1  0.992591  0.425039  0.394136  1
  Au  Au26  1  0.425039  0.992591  0.894136  1
  Au  Au27  1  0.992591  0.425039  0.105864  1
  Au  Au28  1  0.683420  0.737135  0.391940  1
  Au  Au29  1  0.737135  0.683420  0.608060  1
  Au  Au30  1  0.683420  0.737135  0.108060  1
  Au  Au31  1  0.737135  0.683420  0.891940  1
  Au  Au32  1  0.316580  0.262865  0.608060  1
  Au  Au33  1  0.262865  0.316580  0.391940  1
  Au  Au34  1  0.316580  0.262865  0.891940  1
  Au  Au35  1  0.262865  0.316580  0.108060  1
