# generated using pymatgen
data_CsPrGeS4
_symmetry_space_group_name_H-M   'P 1'
_cell_length_a   6.66293300
_cell_length_b   6.92202600
_cell_length_c   18.25149900
_cell_angle_alpha   90.00000000
_cell_angle_beta   90.00000000
_cell_angle_gamma   90.00000000
_symmetry_Int_Tables_number   1
_chemical_formula_structural   CsPrGeS4
_chemical_formula_sum   'Cs4 Pr4 Ge4 S16'
_cell_volume   841.77730256
_cell_formula_units_Z   4
loop_
 _symmetry_equiv_pos_site_id
 _symmetry_equiv_pos_as_xyz
  1  'x, y, z'
loop_
 _atom_site_type_symbol
 _atom_site_label
 _atom_site_symmetry_multiplicity
 _atom_site_fract_x
 _atom_site_fract_y
 _atom_site_fract_z
 _atom_site_occupancy
  Cs  Cs0  1  0.995302  0.006198  0.033257  1
  Cs  Cs1  1  0.004698  0.506199  0.466743  1
  Cs  Cs2  1  0.504698  0.993801  0.533257  1
  Cs  Cs3  1  0.495302  0.493802  0.966742  1
  Pr  Pr4  1  0.292808  0.480676  0.227664  1
  Pr  Pr5  1  0.707194  0.980677  0.272336  1
  Pr  Pr6  1  0.207193  0.519323  0.727664  1
  Pr  Pr7  1  0.792807  0.019324  0.772336  1
  Ge  Ge8  1  0.791160  0.513930  0.166190  1
  Ge  Ge9  1  0.208840  0.013929  0.333810  1
  Ge  Ge10  1  0.708841  0.486070  0.666190  1
  Ge  Ge11  1  0.291159  0.986071  0.833810  1
  S  S12  1  0.056299  0.511830  0.093720  1
  S  S13  1  0.565442  0.747647  0.145536  1
  S  S14  1  0.603278  0.246886  0.153624  1
  S  S15  1  0.108322  0.073582  0.219331  1
  S  S16  1  0.891678  0.573583  0.280669  1
  S  S17  1  0.396722  0.746885  0.346376  1
  S  S18  1  0.434558  0.247646  0.354465  1
  S  S19  1  0.943701  0.011829  0.406280  1
  S  S20  1  0.443702  0.488170  0.593720  1
  S  S21  1  0.934557  0.252354  0.645536  1
  S  S22  1  0.896723  0.753115  0.653624  1
  S  S23  1  0.391677  0.926418  0.719331  1
  S  S24  1  0.608323  0.426417  0.780669  1
  S  S25  1  0.103277  0.253115  0.846376  1
  S  S26  1  0.065443  0.752353  0.854465  1
  S  S27  1  0.556298  0.988170  0.906280  1
