# generated using pymatgen
data_Dy4Hf6Si7Ge
_symmetry_space_group_name_H-M   'P 1'
_cell_length_a   7.29758459
_cell_length_b   7.28617059
_cell_length_c   13.38619600
_cell_angle_alpha   90.00000000
_cell_angle_beta   90.00000000
_cell_angle_gamma   90.04602919
_symmetry_Int_Tables_number   1
_chemical_formula_structural   Dy4Hf6Si7Ge
_chemical_formula_sum   'Dy8 Hf12 Si14 Ge2'
_cell_volume   711.76317065
_cell_formula_units_Z   2
loop_
 _symmetry_equiv_pos_site_id
 _symmetry_equiv_pos_as_xyz
  1  'x, y, z'
loop_
 _atom_site_type_symbol
 _atom_site_label
 _atom_site_symmetry_multiplicity
 _atom_site_fract_x
 _atom_site_fract_y
 _atom_site_fract_z
 _atom_site_occupancy
  Dy  Dy0  1  0.496536  0.154778  0.534828  1
  Dy  Dy1  1  0.503464  0.845222  0.034828  1
  Dy  Dy2  1  0.653465  0.004282  0.285538  1
  Dy  Dy3  1  0.346535  0.995718  0.785538  1
  Dy  Dy4  1  0.846429  0.505776  0.964530  1
  Dy  Dy5  1  0.153571  0.494224  0.464530  1
  Dy  Dy6  1  0.003148  0.652403  0.715768  1
  Dy  Dy7  1  0.996852  0.347597  0.215768  1
  Hf  Hf8  1  0.675964  0.324185  0.750087  1
  Hf  Hf9  1  0.324036  0.675815  0.250087  1
  Hf  Hf10  1  0.821560  0.824088  0.499447  1
  Hf  Hf11  1  0.178440  0.175912  0.999447  1
  Hf  Hf12  1  0.494468  0.353562  0.124771  1
  Hf  Hf13  1  0.505532  0.646438  0.624771  1
  Hf  Hf14  1  0.852246  0.003747  0.873778  1
  Hf  Hf15  1  0.147754  0.996253  0.373778  1
  Hf  Hf16  1  0.648112  0.503548  0.375081  1
  Hf  Hf17  1  0.351888  0.496452  0.875081  1
  Hf  Hf18  1  0.005884  0.849717  0.125788  1
  Hf  Hf19  1  0.994116  0.150283  0.625788  1
  Si  Si20  1  0.639415  0.704394  0.817347  1
  Si  Si21  1  0.360585  0.295606  0.317347  1
  Si  Si22  1  0.860731  0.204095  0.432544  1
  Si  Si23  1  0.139269  0.795905  0.932544  1
  Si  Si24  1  0.704135  0.639455  0.182502  1
  Si  Si25  1  0.295865  0.360545  0.682502  1
  Si  Si26  1  0.547994  0.205991  0.934206  1
  Si  Si27  1  0.452006  0.794009  0.434206  1
  Si  Si28  1  0.705630  0.949450  0.685538  1
  Si  Si29  1  0.294370  0.050550  0.185538  1
  Si  Si30  1  0.794594  0.449576  0.564089  1
  Si  Si31  1  0.205406  0.550424  0.064089  1
  Si  Si32  1  0.949550  0.705884  0.314459  1
  Si  Si33  1  0.050450  0.294116  0.814459  1
  Ge  Ge34  1  0.796681  0.139105  0.069697  1
  Ge  Ge35  1  0.203319  0.860895  0.569697  1
