# generated using pymatgen
data_Y2Cd(BPt2)3
_symmetry_space_group_name_H-M   'P 1'
_cell_length_a   5.39804000
_cell_length_b   5.44250690
_cell_length_c   7.64642100
_cell_angle_alpha   90.00000000
_cell_angle_beta   90.00000000
_cell_angle_gamma   119.73009475
_symmetry_Int_Tables_number   1
_chemical_formula_structural   Y2Cd(BPt2)3
_chemical_formula_sum   'Y2 Cd1 B3 Pt6'
_cell_volume   195.07368198
_cell_formula_units_Z   1
loop_
 _symmetry_equiv_pos_site_id
 _symmetry_equiv_pos_as_xyz
  1  'x, y, z'
loop_
 _atom_site_type_symbol
 _atom_site_label
 _atom_site_symmetry_multiplicity
 _atom_site_fract_x
 _atom_site_fract_y
 _atom_site_fract_z
 _atom_site_occupancy
  Y  Y0  1  0.500000  0.500000  0.325630  1
  Y  Y1  1  0.000000  0.500000  0.674370  1
  Cd  Cd2  1  0.500000  0.000000  0.000000  1
  B  B3  1  0.000000  0.500000  0.159741  1
  B  B4  1  0.500000  0.500000  0.840259  1
  B  B5  1  0.500000  0.000000  0.500000  1
  Pt  Pt6  1  0.303314  0.153758  0.668555  1
  Pt  Pt7  1  0.149557  0.846242  0.331445  1
  Pt  Pt8  1  0.857318  0.714636  0.000000  1
  Pt  Pt9  1  0.850443  0.153758  0.331445  1
  Pt  Pt10  1  0.142682  0.285364  0.000000  1
  Pt  Pt11  1  0.696686  0.846242  0.668555  1
