# generated using pymatgen
data_YMnGa6Fe5
_symmetry_space_group_name_H-M   'P 1'
_cell_length_a   5.03662002
_cell_length_b   6.60048984
_cell_length_c   6.60048869
_cell_angle_alpha   80.37463324
_cell_angle_beta   67.57127264
_cell_angle_gamma   67.57127064
_symmetry_Int_Tables_number   1
_chemical_formula_structural   YMnGa6Fe5
_chemical_formula_sum   'Y1 Mn1 Ga6 Fe5'
_cell_volume   187.42589562
_cell_formula_units_Z   1
loop_
 _symmetry_equiv_pos_site_id
 _symmetry_equiv_pos_as_xyz
  1  'x, y, z'
loop_
 _atom_site_type_symbol
 _atom_site_label
 _atom_site_symmetry_multiplicity
 _atom_site_fract_x
 _atom_site_fract_y
 _atom_site_fract_z
 _atom_site_occupancy
  Y  Y0  1  0.000000  0.999786  0.000214  1
  Mn  Mn1  1  0.500000  0.242648  0.757352  1
  Ga  Ga2  1  0.000000  0.667597  0.332403  1
  Ga  Ga3  1  0.000000  0.332357  0.667643  1
  Ga  Ga4  1  0.344159  0.655780  0.655902  1
  Ga  Ga5  1  0.655841  0.344098  0.344220  1
  Ga  Ga6  1  0.317075  0.183134  0.182715  1
  Ga  Ga7  1  0.682925  0.817285  0.816866  1
  Fe  Fe8  1  0.500000  0.756543  0.243457  1
  Fe  Fe9  1  0.998838  0.501227  0.000841  1
  Fe  Fe10  1  0.499094  0.501227  0.000841  1
  Fe  Fe11  1  0.001162  0.999159  0.498773  1
  Fe  Fe12  1  0.500906  0.999159  0.498773  1
