# generated using pymatgen
data_Dy4Er3Tm(ReB6)4
_symmetry_space_group_name_H-M   'P 1'
_cell_length_a   3.66762400
_cell_length_b   9.14506100
_cell_length_c   11.53307200
_cell_angle_alpha   90.00252117
_cell_angle_beta   90.00000000
_cell_angle_gamma   90.00000000
_symmetry_Int_Tables_number   1
_chemical_formula_structural   Dy4Er3Tm(ReB6)4
_chemical_formula_sum   'Dy4 Er3 Tm1 Re4 B24'
_cell_volume   386.82667589
_cell_formula_units_Z   1
loop_
 _symmetry_equiv_pos_site_id
 _symmetry_equiv_pos_as_xyz
  1  'x, y, z'
loop_
 _atom_site_type_symbol
 _atom_site_label
 _atom_site_symmetry_multiplicity
 _atom_site_fract_x
 _atom_site_fract_y
 _atom_site_fract_z
 _atom_site_occupancy
  Dy  Dy0  1  0.000000  0.323401  0.413961  1
  Dy  Dy1  1  0.000000  0.676575  0.586123  1
  Dy  Dy2  1  0.000000  0.823374  0.086024  1
  Dy  Dy3  1  0.000000  0.176640  0.913933  1
  Er  Er4  1  0.000000  0.943347  0.370145  1
  Er  Er5  1  0.000000  0.056663  0.629880  1
  Er  Er6  1  0.000000  0.443355  0.129700  1
  Tm  Tm7  1  0.000000  0.556714  0.870048  1
  Re  Re8  1  0.000000  0.639066  0.320381  1
  Re  Re9  1  0.000000  0.361117  0.679777  1
  Re  Re10  1  0.000000  0.139078  0.179538  1
  Re  Re11  1  0.000000  0.860624  0.820445  1
  B  B12  1  0.500000  0.553552  0.432707  1
  B  B13  1  0.500000  0.446453  0.567357  1
  B  B14  1  0.500000  0.053554  0.067297  1
  B  B15  1  0.500000  0.946389  0.932680  1
  B  B16  1  0.500000  0.749876  0.418462  1
  B  B17  1  0.500000  0.250150  0.581556  1
  B  B18  1  0.500000  0.249888  0.081545  1
  B  B19  1  0.500000  0.749816  0.918446  1
  B  B20  1  0.500000  0.792559  0.265512  1
  B  B21  1  0.500000  0.207540  0.734518  1
  B  B22  1  0.500000  0.292546  0.234496  1
  B  B23  1  0.500000  0.707213  0.765584  1
  B  B24  1  0.500000  0.630709  0.185358  1
  B  B25  1  0.500000  0.369508  0.814759  1
  B  B26  1  0.500000  0.130738  0.314619  1
  B  B27  1  0.500000  0.869213  0.685417  1
  B  B28  1  0.500000  0.982245  0.212285  1
  B  B29  1  0.500000  0.017728  0.787739  1
  B  B30  1  0.500000  0.482228  0.287726  1
  B  B31  1  0.500000  0.517890  0.712463  1
  B  B32  1  0.500000  0.599077  0.027331  1
  B  B33  1  0.500000  0.401158  0.972179  1
  B  B34  1  0.500000  0.099164  0.472375  1
  B  B35  1  0.500000  0.900849  0.527636  1
