# generated using pymatgen
data_Y3Tm5Cd2CoIr
_symmetry_space_group_name_H-M   'P 1'
_cell_length_a   9.50682648
_cell_length_b   9.50682636
_cell_length_c   9.49327100
_cell_angle_alpha   60.04715223
_cell_angle_beta   60.04715266
_cell_angle_gamma   60.20622866
_symmetry_Int_Tables_number   1
_chemical_formula_structural   Y3Tm5Cd2CoIr
_chemical_formula_sum   'Y6 Tm10 Cd4 Co2 Ir2'
_cell_volume   608.07121562
_cell_formula_units_Z   2
loop_
 _symmetry_equiv_pos_site_id
 _symmetry_equiv_pos_as_xyz
  1  'x, y, z'
loop_
 _atom_site_type_symbol
 _atom_site_label
 _atom_site_symmetry_multiplicity
 _atom_site_fract_x
 _atom_site_fract_y
 _atom_site_fract_z
 _atom_site_occupancy
  Y  Y0  1  0.939960  0.560835  0.559644  1
  Y  Y1  1  0.560835  0.939960  0.939561  1
  Y  Y2  1  0.560835  0.939960  0.559644  1
  Y  Y3  1  0.939960  0.560835  0.939561  1
  Y  Y4  1  0.559032  0.559032  0.940968  1
  Y  Y5  1  0.938516  0.938516  0.561484  1
  Tm  Tm6  1  0.344812  0.344812  0.352609  1
  Tm  Tm7  1  0.344812  0.344812  0.957768  1
  Tm  Tm8  1  0.341542  0.961501  0.348479  1
  Tm  Tm9  1  0.961501  0.341542  0.348479  1
  Tm  Tm10  1  0.816602  0.187439  0.188618  1
  Tm  Tm11  1  0.187439  0.816602  0.807342  1
  Tm  Tm12  1  0.187439  0.816602  0.188618  1
  Tm  Tm13  1  0.816602  0.187439  0.807342  1
  Tm  Tm14  1  0.187280  0.187280  0.812720  1
  Tm  Tm15  1  0.811304  0.811304  0.188696  1
  Cd  Cd16  1  0.580215  0.580215  0.579502  1
  Cd  Cd17  1  0.580215  0.580215  0.260070  1
  Cd  Cd18  1  0.580979  0.258204  0.580409  1
  Cd  Cd19  1  0.258204  0.580979  0.580409  1
  Co  Co20  1  0.141431  0.141431  0.140116  1
  Co  Co21  1  0.141431  0.141431  0.577023  1
  Ir  Ir22  1  0.142747  0.576309  0.140472  1
  Ir  Ir23  1  0.576309  0.142747  0.140472  1
