# generated using pymatgen
data_Li4Si2Te5
_symmetry_space_group_name_H-M   'P 1'
_cell_length_a   7.49258207
_cell_length_b   9.03666369
_cell_length_c   9.95711050
_cell_angle_alpha   70.13293352
_cell_angle_beta   72.15454999
_cell_angle_gamma   68.95828574
_symmetry_Int_Tables_number   1
_chemical_formula_structural   Li4Si2Te5
_chemical_formula_sum   'Li8 Si4 Te10'
_cell_volume   578.56181934
_cell_formula_units_Z   2
loop_
 _symmetry_equiv_pos_site_id
 _symmetry_equiv_pos_as_xyz
  1  'x, y, z'
loop_
 _atom_site_type_symbol
 _atom_site_label
 _atom_site_symmetry_multiplicity
 _atom_site_fract_x
 _atom_site_fract_y
 _atom_site_fract_z
 _atom_site_occupancy
  Li  Li0  1  0.241043  0.445498  0.434597  1
  Li  Li1  1  0.758957  0.554502  0.565403  1
  Li  Li2  1  0.857860  0.377903  0.182403  1
  Li  Li3  1  0.142140  0.622097  0.817597  1
  Li  Li4  1  0.667702  0.053029  0.576199  1
  Li  Li5  1  0.332298  0.946971  0.423801  1
  Li  Li6  1  0.440490  0.737135  0.025169  1
  Li  Li7  1  0.559510  0.262865  0.974831  1
  Si  Si8  1  0.890830  0.762089  0.144192  1
  Si  Si9  1  0.109170  0.237911  0.855808  1
  Si  Si10  1  0.915902  0.939812  0.256599  1
  Si  Si11  1  0.084098  0.060188  0.743401  1
  Te  Te12  1  0.804551  0.474336  0.875874  1
  Te  Te13  1  0.195449  0.525664  0.124126  1
  Te  Te14  1  0.402072  0.837301  0.718504  1
  Te  Te15  1  0.597928  0.162699  0.281496  1
  Te  Te16  1  0.989640  0.235714  0.506189  1
  Te  Te17  1  0.010360  0.764286  0.493811  1
  Te  Te18  1  0.402247  0.337174  0.708214  1
  Te  Te19  1  0.597753  0.662826  0.291786  1
  Te  Te20  1  0.792140  0.946482  0.900341  1
  Te  Te21  1  0.207860  0.053518  0.099659  1
