# generated using pymatgen
data_NaLi4Pr3Si8
_symmetry_space_group_name_H-M   'P 1'
_cell_length_a   3.85673900
_cell_length_b   7.89739815
_cell_length_c   10.65636628
_cell_angle_alpha   89.82234444
_cell_angle_beta   90.00000000
_cell_angle_gamma   90.00000000
_symmetry_Int_Tables_number   1
_chemical_formula_structural   NaLi4Pr3Si8
_chemical_formula_sum   'Na1 Li4 Pr3 Si8'
_cell_volume   324.57221208
_cell_formula_units_Z   1
loop_
 _symmetry_equiv_pos_site_id
 _symmetry_equiv_pos_as_xyz
  1  'x, y, z'
loop_
 _atom_site_type_symbol
 _atom_site_label
 _atom_site_symmetry_multiplicity
 _atom_site_fract_x
 _atom_site_fract_y
 _atom_site_fract_z
 _atom_site_occupancy
  Na  Na0  1  0.750000  0.363723  0.365674  1
  Li  Li1  1  0.250000  0.005580  0.390968  1
  Li  Li2  1  0.750000  0.005688  0.608757  1
  Li  Li3  1  0.250000  0.493740  0.114921  1
  Li  Li4  1  0.750000  0.502070  0.891184  1
  Pr  Pr5  1  0.250000  0.131805  0.864343  1
  Pr  Pr6  1  0.750000  0.866865  0.133350  1
  Pr  Pr7  1  0.250000  0.630075  0.631606  1
  Si  Si8  1  0.750000  0.264423  0.068582  1
  Si  Si9  1  0.250000  0.728067  0.929302  1
  Si  Si10  1  0.750000  0.776427  0.427785  1
  Si  Si11  1  0.250000  0.235621  0.571996  1
  Si  Si12  1  0.750000  0.831064  0.820424  1
  Si  Si13  1  0.250000  0.162554  0.173506  1
  Si  Si14  1  0.750000  0.331553  0.682461  1
  Si  Si15  1  0.250000  0.670743  0.325140  1
