# generated using pymatgen
data_Pa3Al3Os2Pt
_symmetry_space_group_name_H-M   'P 1'
_cell_length_a   7.12462500
_cell_length_b   7.12462591
_cell_length_c   3.99768000
_cell_angle_alpha   90.00000000
_cell_angle_beta   90.00000000
_cell_angle_gamma   120.00000044
_symmetry_Int_Tables_number   1
_chemical_formula_structural   Pa3Al3Os2Pt
_chemical_formula_sum   'Pa3 Al3 Os2 Pt1'
_cell_volume   175.73680784
_cell_formula_units_Z   1
loop_
 _symmetry_equiv_pos_site_id
 _symmetry_equiv_pos_as_xyz
  1  'x, y, z'
loop_
 _atom_site_type_symbol
 _atom_site_label
 _atom_site_symmetry_multiplicity
 _atom_site_fract_x
 _atom_site_fract_y
 _atom_site_fract_z
 _atom_site_occupancy
  Pa  Pa0  1  0.423695  0.423695  0.500000  1
  Pa  Pa1  1  0.576305  0.000000  0.500000  1
  Pa  Pa2  1  0.000000  0.576305  0.500000  1
  Al  Al3  1  0.760150  0.760150  0.000000  1
  Al  Al4  1  0.239850  0.000000  0.000000  1
  Al  Al5  1  0.000000  0.239850  0.000000  1
  Os  Os6  1  0.666667  0.333333  0.000000  1
  Os  Os7  1  0.333333  0.666667  0.000000  1
  Pt  Pt8  1  0.000000  0.000000  0.500000  1
