# generated using pymatgen
data_Cs6SmNpI12
_symmetry_space_group_name_H-M   'P 1'
_cell_length_a   10.67349212
_cell_length_b   10.85370849
_cell_length_c   8.93335200
_cell_angle_alpha   90.00000000
_cell_angle_beta   90.00000000
_cell_angle_gamma   89.16180912
_symmetry_Int_Tables_number   1
_chemical_formula_structural   Cs6SmNpI12
_chemical_formula_sum   'Cs6 Sm1 Np1 I12'
_cell_volume   1034.79104019
_cell_formula_units_Z   1
loop_
 _symmetry_equiv_pos_site_id
 _symmetry_equiv_pos_as_xyz
  1  'x, y, z'
loop_
 _atom_site_type_symbol
 _atom_site_label
 _atom_site_symmetry_multiplicity
 _atom_site_fract_x
 _atom_site_fract_y
 _atom_site_fract_z
 _atom_site_occupancy
  Cs  Cs0  1  0.000000  0.000000  0.500000  1
  Cs  Cs1  1  0.000000  0.000000  0.000000  1
  Cs  Cs2  1  0.233288  0.586691  0.500000  1
  Cs  Cs3  1  0.766712  0.413309  0.500000  1
  Cs  Cs4  1  0.412419  0.233332  0.000000  1
  Cs  Cs5  1  0.587581  0.766668  0.000000  1
  Sm  Sm6  1  0.000000  0.500000  0.000000  1
  Np  Np7  1  0.500000  0.000000  0.500000  1
  I  I8  1  0.698141  0.059349  0.748322  1
  I  I9  1  0.301859  0.940651  0.748322  1
  I  I10  1  0.940100  0.696273  0.245413  1
  I  I11  1  0.059900  0.303727  0.245413  1
  I  I12  1  0.301859  0.940651  0.251678  1
  I  I13  1  0.698141  0.059349  0.251678  1
  I  I14  1  0.059900  0.303727  0.754587  1
  I  I15  1  0.940100  0.696273  0.754587  1
  I  I16  1  0.570572  0.720699  0.500000  1
  I  I17  1  0.429428  0.279301  0.500000  1
  I  I18  1  0.280459  0.569089  0.000000  1
  I  I19  1  0.719541  0.430911  0.000000  1
