# generated using pymatgen
data_Yb2YHo5(B6Ru)4
_symmetry_space_group_name_H-M   'P 1'
_cell_length_a   3.64987000
_cell_length_b   9.13485612
_cell_length_c   11.52549400
_cell_angle_alpha   89.82324394
_cell_angle_beta   90.00000000
_cell_angle_gamma   90.00000000
_symmetry_Int_Tables_number   1
_chemical_formula_structural   Yb2YHo5(B6Ru)4
_chemical_formula_sum   'Yb2 Y1 Ho5 B24 Ru4'
_cell_volume   384.27009681
_cell_formula_units_Z   1
loop_
 _symmetry_equiv_pos_site_id
 _symmetry_equiv_pos_as_xyz
  1  'x, y, z'
loop_
 _atom_site_type_symbol
 _atom_site_label
 _atom_site_symmetry_multiplicity
 _atom_site_fract_x
 _atom_site_fract_y
 _atom_site_fract_z
 _atom_site_occupancy
  Yb  Yb0  1  0.000000  0.325117  0.414940  1
  Yb  Yb1  1  0.000000  0.674871  0.585096  1
  Y  Y2  1  0.000000  0.822276  0.086055  1
  Ho  Ho3  1  0.000000  0.177587  0.913886  1
  Ho  Ho4  1  0.000000  0.941658  0.369696  1
  Ho  Ho5  1  0.000000  0.058425  0.630310  1
  Ho  Ho6  1  0.000000  0.442399  0.131058  1
  Ho  Ho7  1  0.000000  0.557423  0.868860  1
  B  B8  1  0.500000  0.554048  0.432543  1
  B  B9  1  0.500000  0.445849  0.567568  1
  B  B10  1  0.500000  0.054056  0.066780  1
  B  B11  1  0.500000  0.946577  0.932889  1
  B  B12  1  0.500000  0.747754  0.418028  1
  B  B13  1  0.500000  0.252260  0.582130  1
  B  B14  1  0.500000  0.248242  0.081198  1
  B  B15  1  0.500000  0.751832  0.918340  1
  B  B16  1  0.500000  0.790726  0.264966  1
  B  B17  1  0.500000  0.209127  0.735365  1
  B  B18  1  0.500000  0.289892  0.234478  1
  B  B19  1  0.500000  0.710146  0.765416  1
  B  B20  1  0.500000  0.631047  0.185502  1
  B  B21  1  0.500000  0.368581  0.814761  1
  B  B22  1  0.500000  0.130760  0.314038  1
  B  B23  1  0.500000  0.869409  0.685976  1
  B  B24  1  0.500000  0.983488  0.211649  1
  B  B25  1  0.500000  0.017028  0.788436  1
  B  B26  1  0.500000  0.483866  0.288479  1
  B  B27  1  0.500000  0.515941  0.711579  1
  B  B28  1  0.500000  0.603299  0.028415  1
  B  B29  1  0.500000  0.396183  0.971432  1
  B  B30  1  0.500000  0.099543  0.472472  1
  B  B31  1  0.500000  0.900519  0.527572  1
  Ru  Ru32  1  0.000000  0.639660  0.319269  1
  Ru  Ru33  1  0.000000  0.360094  0.680997  1
  Ru  Ru34  1  0.000000  0.137089  0.178225  1
  Ru  Ru35  1  0.000000  0.863225  0.821595  1
