# generated using pymatgen
data_CrCoSiMo3N
_symmetry_space_group_name_H-M   'P 1'
_cell_length_a   7.84334883
_cell_length_b   7.84334849
_cell_length_c   7.84334800
_cell_angle_alpha   59.99999362
_cell_angle_beta   59.99999507
_cell_angle_gamma   60.00000013
_symmetry_Int_Tables_number   1
_chemical_formula_structural   CrCoSiMo3N
_chemical_formula_sum   'Cr4 Co4 Si4 Mo12 N4'
_cell_volume   341.18465645
_cell_formula_units_Z   4
loop_
 _symmetry_equiv_pos_site_id
 _symmetry_equiv_pos_as_xyz
  1  'x, y, z'
loop_
 _atom_site_type_symbol
 _atom_site_label
 _atom_site_symmetry_multiplicity
 _atom_site_fract_x
 _atom_site_fract_y
 _atom_site_fract_z
 _atom_site_occupancy
  Cr  Cr0  1  0.236474  0.921176  0.921176  1
  Cr  Cr1  1  0.921176  0.236474  0.921176  1
  Cr  Cr2  1  0.921176  0.921176  0.921176  1
  Cr  Cr3  1  0.921176  0.921176  0.236474  1
  Co  Co4  1  0.989441  0.336853  0.336853  1
  Co  Co5  1  0.336853  0.336853  0.989441  1
  Co  Co6  1  0.336853  0.989441  0.336853  1
  Co  Co7  1  0.336853  0.336853  0.336853  1
  Si  Si8  1  0.600731  0.133090  0.133090  1
  Si  Si9  1  0.133090  0.133090  0.600731  1
  Si  Si10  1  0.133090  0.600731  0.133090  1
  Si  Si11  1  0.133090  0.133090  0.133090  1
  Mo  Mo12  1  0.705824  0.294176  0.705824  1
  Mo  Mo13  1  0.557142  0.557142  0.942858  1
  Mo  Mo14  1  0.557142  0.942858  0.557142  1
  Mo  Mo15  1  0.942858  0.942858  0.557142  1
  Mo  Mo16  1  0.942858  0.557142  0.557142  1
  Mo  Mo17  1  0.942858  0.557142  0.942858  1
  Mo  Mo18  1  0.705824  0.294176  0.294176  1
  Mo  Mo19  1  0.294176  0.705824  0.294176  1
  Mo  Mo20  1  0.294176  0.294176  0.705824  1
  Mo  Mo21  1  0.294176  0.705824  0.705824  1
  Mo  Mo22  1  0.705824  0.705824  0.294176  1
  Mo  Mo23  1  0.557142  0.942858  0.942858  1
  N  N24  1  0.623946  0.623946  0.623946  1
  N  N25  1  0.128162  0.623946  0.623946  1
  N  N26  1  0.623946  0.128162  0.623946  1
  N  N27  1  0.623946  0.623946  0.128162  1
