# generated using pymatgen
data_Gd4Dy(SiB4)2
_symmetry_space_group_name_H-M   'P 1'
_cell_length_a   7.26628600
_cell_length_b   7.26628600
_cell_length_c   8.19041300
_cell_angle_alpha   90.00000000
_cell_angle_beta   90.00000000
_cell_angle_gamma   90.00000000
_symmetry_Int_Tables_number   1
_chemical_formula_structural   Gd4Dy(SiB4)2
_chemical_formula_sum   'Gd8 Dy2 Si4 B16'
_cell_volume   432.44489715
_cell_formula_units_Z   2
loop_
 _symmetry_equiv_pos_site_id
 _symmetry_equiv_pos_as_xyz
  1  'x, y, z'
loop_
 _atom_site_type_symbol
 _atom_site_label
 _atom_site_symmetry_multiplicity
 _atom_site_fract_x
 _atom_site_fract_y
 _atom_site_fract_z
 _atom_site_occupancy
  Gd  Gd0  1  0.680459  0.180459  0.224898  1
  Gd  Gd1  1  0.319541  0.819541  0.775102  1
  Gd  Gd2  1  0.319541  0.819541  0.224898  1
  Gd  Gd3  1  0.819541  0.680459  0.224898  1
  Gd  Gd4  1  0.819541  0.680459  0.775102  1
  Gd  Gd5  1  0.680459  0.180459  0.775102  1
  Gd  Gd6  1  0.180459  0.319541  0.775102  1
  Gd  Gd7  1  0.180459  0.319541  0.224898  1
  Dy  Dy8  1  0.000000  0.000000  0.500000  1
  Dy  Dy9  1  0.500000  0.500000  0.500000  1
  Si  Si10  1  0.114516  0.614516  0.500000  1
  Si  Si11  1  0.885484  0.385484  0.500000  1
  Si  Si12  1  0.385484  0.114516  0.500000  1
  Si  Si13  1  0.614516  0.885484  0.500000  1
  B  B14  1  0.172081  0.039258  0.000000  1
  B  B15  1  0.827919  0.960742  0.000000  1
  B  B16  1  0.960742  0.172081  0.000000  1
  B  B17  1  0.327919  0.539258  0.000000  1
  B  B18  1  0.039258  0.827919  0.000000  1
  B  B19  1  0.672081  0.460742  0.000000  1
  B  B20  1  0.539258  0.672081  0.000000  1
  B  B21  1  0.460742  0.327919  0.000000  1
  B  B22  1  0.090175  0.590175  0.000000  1
  B  B23  1  0.909825  0.409825  0.000000  1
  B  B24  1  0.409825  0.090175  0.000000  1
  B  B25  1  0.590175  0.909825  0.000000  1
  B  B26  1  0.000000  0.000000  0.159620  1
  B  B27  1  0.000000  0.000000  0.840380  1
  B  B28  1  0.500000  0.500000  0.840380  1
  B  B29  1  0.500000  0.500000  0.159620  1
