# generated using pymatgen
data_Th10Si16Tc
_symmetry_space_group_name_H-M   'P 1'
_cell_length_a   11.41375500
_cell_length_b   11.49062840
_cell_length_c   11.41375524
_cell_angle_alpha   143.51948160
_cell_angle_beta   137.31489599
_cell_angle_gamma   57.25355820
_symmetry_Int_Tables_number   1
_chemical_formula_structural   Th10Si16Tc
_chemical_formula_sum   'Th10 Si16 Tc1'
_cell_volume   598.70518533
_cell_formula_units_Z   1
loop_
 _symmetry_equiv_pos_site_id
 _symmetry_equiv_pos_as_xyz
  1  'x, y, z'
loop_
 _atom_site_type_symbol
 _atom_site_label
 _atom_site_symmetry_multiplicity
 _atom_site_fract_x
 _atom_site_fract_y
 _atom_site_fract_z
 _atom_site_occupancy
  Th  Th0  1  0.048098  0.564025  0.007261  1
  Th  Th1  1  0.351232  0.369358  0.518881  1
  Th  Th2  1  0.146354  0.168229  0.517848  1
  Th  Th3  1  0.455960  0.962975  0.020422  1
  Th  Th4  1  0.650383  0.168229  0.021876  1
  Th  Th5  1  0.942551  0.962975  0.507014  1
  Th  Th6  1  0.850477  0.369358  0.018125  1
  Th  Th7  1  0.556764  0.564025  0.515927  1
  Th  Th8  1  0.240500  0.759963  0.001931  1
  Th  Th9  1  0.758032  0.759963  0.519463  1
  Si  Si10  1  0.110106  0.054570  0.944463  1
  Si  Si11  1  0.798071  0.211292  0.413221  1
  Si  Si12  1  0.299642  0.897145  0.597504  1
  Si  Si13  1  0.400887  0.504601  0.103714  1
  Si  Si14  1  0.893832  0.847736  0.953904  1
  Si  Si15  1  0.102802  0.701323  0.598521  1
  Si  Si16  1  0.200058  0.606217  0.406158  1
  Si  Si17  1  0.697469  0.291254  0.593787  1
  Si  Si18  1  0.001516  0.434870  0.433355  1
  Si  Si19  1  0.702807  0.645670  0.942862  1
  Si  Si20  1  0.598010  0.698667  0.100656  1
  Si  Si21  1  0.002725  0.093838  0.091113  1
  Si  Si22  1  0.499766  0.408385  0.908619  1
  Si  Si23  1  0.295144  0.241858  0.946715  1
  Si  Si24  1  0.590424  0.039025  0.448599  1
  Si  Si25  1  0.407874  0.856805  0.448931  1
  Tc  Tc26  1  0.898515  0.506562  0.608048  1
