# generated using pymatgen
data_TiNb3B4(AsRu5)2
_symmetry_space_group_name_H-M   'P 1'
_cell_length_a   9.33418535
_cell_length_b   9.33418535
_cell_length_c   2.97535300
_cell_angle_alpha   90.00000000
_cell_angle_beta   90.00000000
_cell_angle_gamma   89.65889566
_symmetry_Int_Tables_number   1
_chemical_formula_structural   TiNb3B4(AsRu5)2
_chemical_formula_sum   'Ti1 Nb3 B4 As2 Ru10'
_cell_volume   259.22903511
_cell_formula_units_Z   1
loop_
 _symmetry_equiv_pos_site_id
 _symmetry_equiv_pos_as_xyz
  1  'x, y, z'
loop_
 _atom_site_type_symbol
 _atom_site_label
 _atom_site_symmetry_multiplicity
 _atom_site_fract_x
 _atom_site_fract_y
 _atom_site_fract_z
 _atom_site_occupancy
  Ti  Ti0  1  0.824417  0.675583  0.000000  1
  Nb  Nb1  1  0.173963  0.326037  0.000000  1
  Nb  Nb2  1  0.324312  0.823204  0.000000  1
  Nb  Nb3  1  0.676796  0.175688  0.000000  1
  B  B4  1  0.624684  0.875316  0.000000  1
  B  B5  1  0.376317  0.123683  0.000000  1
  B  B6  1  0.122656  0.623862  0.000000  1
  B  B7  1  0.876138  0.377344  0.000000  1
  As  As8  1  0.501315  0.500527  0.000000  1
  As  As9  1  0.999473  0.998685  0.000000  1
  Ru  Ru10  1  0.570611  0.712742  0.500000  1
  Ru  Ru11  1  0.430870  0.287047  0.500000  1
  Ru  Ru12  1  0.069388  0.787234  0.500000  1
  Ru  Ru13  1  0.932573  0.213367  0.500000  1
  Ru  Ru14  1  0.286633  0.567427  0.500000  1
  Ru  Ru15  1  0.712766  0.430612  0.500000  1
  Ru  Ru16  1  0.212953  0.069130  0.500000  1
  Ru  Ru17  1  0.787258  0.929389  0.500000  1
  Ru  Ru18  1  0.500335  0.999665  0.500000  1
  Ru  Ru19  1  0.996544  0.503456  0.500000  1
