# generated using pymatgen
data_Tm2Th3Sn3N
_symmetry_space_group_name_H-M   'P 1'
_cell_length_a   9.15542900
_cell_length_b   9.15542867
_cell_length_c   6.38149400
_cell_angle_alpha   90.00000000
_cell_angle_beta   90.00000000
_cell_angle_gamma   119.99999759
_symmetry_Int_Tables_number   1
_chemical_formula_structural   Tm2Th3Sn3N
_chemical_formula_sum   'Tm4 Th6 Sn6 N2'
_cell_volume   463.24462586
_cell_formula_units_Z   2
loop_
 _symmetry_equiv_pos_site_id
 _symmetry_equiv_pos_as_xyz
  1  'x, y, z'
loop_
 _atom_site_type_symbol
 _atom_site_label
 _atom_site_symmetry_multiplicity
 _atom_site_fract_x
 _atom_site_fract_y
 _atom_site_fract_z
 _atom_site_occupancy
  Tm  Tm0  1  0.666667  0.333333  0.000000  1
  Tm  Tm1  1  0.333333  0.666667  0.000000  1
  Tm  Tm2  1  0.333333  0.666667  0.500000  1
  Tm  Tm3  1  0.666667  0.333333  0.500000  1
  Th  Th4  1  0.775509  0.775509  0.750000  1
  Th  Th5  1  0.224491  0.000000  0.750000  1
  Th  Th6  1  0.000000  0.224491  0.750000  1
  Th  Th7  1  0.224491  0.224491  0.250000  1
  Th  Th8  1  0.775509  0.000000  0.250000  1
  Th  Th9  1  0.000000  0.775509  0.250000  1
  Sn  Sn10  1  0.407796  0.407796  0.750000  1
  Sn  Sn11  1  0.592204  0.000000  0.750000  1
  Sn  Sn12  1  0.000000  0.592204  0.750000  1
  Sn  Sn13  1  0.592204  0.592204  0.250000  1
  Sn  Sn14  1  0.407796  0.000000  0.250000  1
  Sn  Sn15  1  0.000000  0.407796  0.250000  1
  N  N16  1  0.000000  0.000000  0.000000  1
  N  N17  1  0.000000  0.000000  0.500000  1
