# generated using pymatgen
data_TbThZn5Ge
_symmetry_space_group_name_H-M   'P 1'
_cell_length_a   8.34126029
_cell_length_b   8.34126078
_cell_length_c   8.85856900
_cell_angle_alpha   90.00000000
_cell_angle_beta   90.00000000
_cell_angle_gamma   150.04736610
_symmetry_Int_Tables_number   1
_chemical_formula_structural   TbThZn5Ge
_chemical_formula_sum   'Tb2 Th2 Zn10 Ge2'
_cell_volume   307.73330356
_cell_formula_units_Z   2
loop_
 _symmetry_equiv_pos_site_id
 _symmetry_equiv_pos_as_xyz
  1  'x, y, z'
loop_
 _atom_site_type_symbol
 _atom_site_label
 _atom_site_symmetry_multiplicity
 _atom_site_fract_x
 _atom_site_fract_y
 _atom_site_fract_z
 _atom_site_occupancy
  Tb  Tb0  1  0.198935  0.801065  0.250000  1
  Tb  Tb1  1  0.801065  0.198935  0.750000  1
  Th  Th2  1  0.000000  0.000000  0.500000  1
  Th  Th3  1  0.000000  0.000000  0.000000  1
  Zn  Zn4  1  0.812201  0.187799  0.393265  1
  Zn  Zn5  1  0.187799  0.812201  0.606735  1
  Zn  Zn6  1  0.812201  0.187799  0.106735  1
  Zn  Zn7  1  0.187799  0.812201  0.893265  1
  Zn  Zn8  1  0.652829  0.347171  0.475762  1
  Zn  Zn9  1  0.347171  0.652829  0.524238  1
  Zn  Zn10  1  0.652829  0.347171  0.024238  1
  Zn  Zn11  1  0.347171  0.652829  0.975762  1
  Zn  Zn12  1  0.399408  0.600592  0.250000  1
  Zn  Zn13  1  0.600592  0.399408  0.750000  1
  Ge  Ge14  1  0.555131  0.444869  0.250000  1
  Ge  Ge15  1  0.444869  0.555131  0.750000  1
