# generated using pymatgen
data_Lu6BiO12
_symmetry_space_group_name_H-M   'P 1'
_cell_length_a   6.42673328
_cell_length_b   6.42673336
_cell_length_c   6.42673319
_cell_angle_alpha   99.21643524
_cell_angle_beta   99.21643801
_cell_angle_gamma   99.21643931
_symmetry_Int_Tables_number   1
_chemical_formula_structural   Lu6BiO12
_chemical_formula_sum   'Lu6 Bi1 O12'
_cell_volume   253.88661343
_cell_formula_units_Z   1
loop_
 _symmetry_equiv_pos_site_id
 _symmetry_equiv_pos_as_xyz
  1  'x, y, z'
loop_
 _atom_site_type_symbol
 _atom_site_label
 _atom_site_symmetry_multiplicity
 _atom_site_fract_x
 _atom_site_fract_y
 _atom_site_fract_z
 _atom_site_occupancy
  Lu  Lu0  1  0.392789  0.686075  0.858585  1
  Lu  Lu1  1  0.858585  0.392789  0.686075  1
  Lu  Lu2  1  0.686075  0.858585  0.392789  1
  Lu  Lu3  1  0.607211  0.313925  0.141415  1
  Lu  Lu4  1  0.141415  0.607211  0.313925  1
  Lu  Lu5  1  0.313925  0.141415  0.607211  1
  Bi  Bi6  1  0.000000  0.000000  0.000000  1
  O  O7  1  0.179697  0.427944  0.582861  1
  O  O8  1  0.582861  0.179697  0.427944  1
  O  O9  1  0.427944  0.582861  0.179696  1
  O  O10  1  0.820304  0.572056  0.417139  1
  O  O11  1  0.417139  0.820304  0.572056  1
  O  O12  1  0.572056  0.417139  0.820304  1
  O  O13  1  0.918682  0.054643  0.680933  1
  O  O14  1  0.945357  0.319067  0.081318  1
  O  O15  1  0.319067  0.081318  0.945357  1
  O  O16  1  0.081318  0.945357  0.319067  1
  O  O17  1  0.054643  0.680933  0.918682  1
  O  O18  1  0.680933  0.918682  0.054643  1
