# generated using pymatgen
data_Sr4CaPa5O18
_symmetry_space_group_name_H-M   'P 1'
_cell_length_a   6.97242110
_cell_length_b   7.85143013
_cell_length_c   8.80644000
_cell_angle_alpha   101.28880439
_cell_angle_beta   98.12241371
_cell_angle_gamma   107.29992841
_symmetry_Int_Tables_number   1
_chemical_formula_structural   Sr4CaPa5O18
_chemical_formula_sum   'Sr4 Ca1 Pa5 O18'
_cell_volume   441.01487809
_cell_formula_units_Z   1
loop_
 _symmetry_equiv_pos_site_id
 _symmetry_equiv_pos_as_xyz
  1  'x, y, z'
loop_
 _atom_site_type_symbol
 _atom_site_label
 _atom_site_symmetry_multiplicity
 _atom_site_fract_x
 _atom_site_fract_y
 _atom_site_fract_z
 _atom_site_occupancy
  Sr  Sr0  1  0.597767  0.699191  0.197493  1
  Sr  Sr1  1  0.404091  0.302545  0.803255  1
  Sr  Sr2  1  0.204919  0.900002  0.417945  1
  Sr  Sr3  1  0.998927  0.498977  0.997551  1
  Ca  Ca4  1  0.802216  0.110677  0.581951  1
  Pa  Pa5  1  0.997459  0.998559  0.996732  1
  Pa  Pa6  1  0.788612  0.576941  0.584844  1
  Pa  Pa7  1  0.630557  0.198957  0.195138  1
  Pa  Pa8  1  0.372098  0.800823  0.805321  1
  Pa  Pa9  1  0.209456  0.423667  0.415273  1
  O  O10  1  0.819570  0.796675  0.481364  1
  O  O11  1  0.996265  0.236486  0.176484  1
  O  O12  1  0.665352  0.400694  0.072290  1
  O  O13  1  0.467717  0.997862  0.684171  1
  O  O14  1  0.862112  0.350667  0.424286  1
  O  O15  1  0.503218  0.393244  0.353137  1
  O  O16  1  0.249111  0.608595  0.277278  1
  O  O17  1  0.978844  0.828693  0.150384  1
  O  O18  1  0.661713  0.941843  0.996439  1
  O  O19  1  0.334771  0.057558  0.005852  1
  O  O20  1  0.010745  0.163848  0.838635  1
  O  O21  1  0.752070  0.383322  0.715803  1
  O  O22  1  0.493947  0.599800  0.650280  1
  O  O23  1  0.140128  0.655044  0.574383  1
  O  O24  1  0.553977  0.006350  0.323699  1
  O  O25  1  0.335061  0.599219  0.928570  1
  O  O26  1  0.001819  0.758126  0.822095  1
  O  O27  1  0.167482  0.211635  0.529349  1
