# generated using pymatgen
data_Co3Cu2P7Ru9
_symmetry_space_group_name_H-M   'P 1'
_cell_length_a   9.31814500
_cell_length_b   9.31814573
_cell_length_c   3.64851000
_cell_angle_alpha   90.00000000
_cell_angle_beta   90.00000000
_cell_angle_gamma   119.99999904
_symmetry_Int_Tables_number   1
_chemical_formula_structural   Co3Cu2P7Ru9
_chemical_formula_sum   'Co3 Cu2 P7 Ru9'
_cell_volume   274.35011054
_cell_formula_units_Z   1
loop_
 _symmetry_equiv_pos_site_id
 _symmetry_equiv_pos_as_xyz
  1  'x, y, z'
loop_
 _atom_site_type_symbol
 _atom_site_label
 _atom_site_symmetry_multiplicity
 _atom_site_fract_x
 _atom_site_fract_y
 _atom_site_fract_z
 _atom_site_occupancy
  Co  Co0  1  0.804474  0.605727  0.000000  1
  Co  Co1  1  0.394273  0.198747  0.000000  1
  Co  Co2  1  0.801253  0.195526  0.000000  1
  Cu  Cu3  1  0.000000  0.000000  0.000000  1
  Cu  Cu4  1  0.333333  0.666667  0.500000  1
  P  P5  1  0.755676  0.719609  0.500000  1
  P  P6  1  0.280391  0.036067  0.500000  1
  P  P7  1  0.963933  0.244324  0.500000  1
  P  P8  1  0.666667  0.333333  0.000000  1
  P  P9  1  0.060168  0.642038  0.000000  1
  P  P10  1  0.357962  0.418130  0.000000  1
  P  P11  1  0.581870  0.939832  0.000000  1
  Ru  Ru12  1  0.115388  0.426959  0.000000  1
  Ru  Ru13  1  0.573041  0.688429  0.000000  1
  Ru  Ru14  1  0.311571  0.884612  0.000000  1
  Ru  Ru15  1  0.033129  0.792156  0.500000  1
  Ru  Ru16  1  0.207844  0.240975  0.500000  1
  Ru  Ru17  1  0.759025  0.966871  0.500000  1
  Ru  Ru18  1  0.878725  0.440967  0.500000  1
  Ru  Ru19  1  0.559033  0.437757  0.500000  1
  Ru  Ru20  1  0.562243  0.121275  0.500000  1
