# generated using pymatgen
data_Tb6Er10CdHg3Ir4
_symmetry_space_group_name_H-M   'P 1'
_cell_length_a   9.57641658
_cell_length_b   9.57456937
_cell_length_c   9.57457100
_cell_angle_alpha   59.99999783
_cell_angle_beta   60.00637844
_cell_angle_gamma   60.00637893
_symmetry_Int_Tables_number   1
_chemical_formula_structural   Tb6Er10CdHg3Ir4
_chemical_formula_sum   'Tb6 Er10 Cd1 Hg3 Ir4'
_cell_volume   620.82395266
_cell_formula_units_Z   1
loop_
 _symmetry_equiv_pos_site_id
 _symmetry_equiv_pos_as_xyz
  1  'x, y, z'
loop_
 _atom_site_type_symbol
 _atom_site_label
 _atom_site_symmetry_multiplicity
 _atom_site_fract_x
 _atom_site_fract_y
 _atom_site_fract_z
 _atom_site_occupancy
  Tb  Tb0  1  0.188515  0.810518  0.810518  1
  Tb  Tb1  1  0.810111  0.189647  0.189647  1
  Tb  Tb2  1  0.810111  0.189647  0.810595  1
  Tb  Tb3  1  0.188515  0.810518  0.190450  1
  Tb  Tb4  1  0.810111  0.810595  0.189647  1
  Tb  Tb5  1  0.188515  0.190450  0.810518  1
  Er  Er6  1  0.599758  0.599650  0.599650  1
  Er  Er7  1  0.599758  0.599650  0.200943  1
  Er  Er8  1  0.599758  0.200943  0.599650  1
  Er  Er9  1  0.198885  0.600372  0.600372  1
  Er  Er10  1  0.060932  0.439141  0.439141  1
  Er  Er11  1  0.438287  0.061363  0.061363  1
  Er  Er12  1  0.438287  0.061363  0.438988  1
  Er  Er13  1  0.060932  0.439141  0.060787  1
  Er  Er14  1  0.438287  0.438988  0.061363  1
  Er  Er15  1  0.060932  0.060787  0.439141  1
  Cd  Cd16  1  0.509857  0.830048  0.830048  1
  Hg  Hg17  1  0.833289  0.834760  0.834760  1
  Hg  Hg18  1  0.833289  0.834760  0.497191  1
  Hg  Hg19  1  0.833289  0.497191  0.834760  1
  Ir  Ir20  1  0.391507  0.392326  0.392326  1
  Ir  Ir21  1  0.391507  0.392326  0.823840  1
  Ir  Ir22  1  0.391507  0.823840  0.392326  1
  Ir  Ir23  1  0.824064  0.391979  0.391979  1
