# generated using pymatgen
data_Pu4VB16Os3
_symmetry_space_group_name_H-M   'P 1'
_cell_length_a   5.99923782
_cell_length_b   11.61735709
_cell_length_c   3.52810100
_cell_angle_alpha   90.00000000
_cell_angle_beta   90.00000000
_cell_angle_gamma   90.19654811
_symmetry_Int_Tables_number   1
_chemical_formula_structural   Pu4VB16Os3
_chemical_formula_sum   'Pu4 V1 B16 Os3'
_cell_volume   245.89056874
_cell_formula_units_Z   1
loop_
 _symmetry_equiv_pos_site_id
 _symmetry_equiv_pos_as_xyz
  1  'x, y, z'
loop_
 _atom_site_type_symbol
 _atom_site_label
 _atom_site_symmetry_multiplicity
 _atom_site_fract_x
 _atom_site_fract_y
 _atom_site_fract_z
 _atom_site_occupancy
  Pu  Pu0  1  0.626630  0.349430  0.000000  1
  Pu  Pu1  1  0.373060  0.649406  0.000000  1
  Pu  Pu2  1  0.124848  0.151002  0.000000  1
  Pu  Pu3  1  0.874533  0.849221  0.000000  1
  V  V4  1  0.631816  0.087744  0.000000  1
  B  B5  1  0.785908  0.186474  0.500000  1
  B  B6  1  0.214817  0.814448  0.500000  1
  B  B7  1  0.286475  0.312843  0.500000  1
  B  B8  1  0.712280  0.686769  0.500000  1
  B  B9  1  0.864765  0.032235  0.500000  1
  B  B10  1  0.134761  0.967763  0.500000  1
  B  B11  1  0.365111  0.467875  0.500000  1
  B  B12  1  0.634835  0.531090  0.500000  1
  B  B13  1  0.885436  0.452686  0.500000  1
  B  B14  1  0.114558  0.546868  0.500000  1
  B  B15  1  0.384957  0.046566  0.500000  1
  B  B16  1  0.614418  0.953278  0.500000  1
  B  B17  1  0.972187  0.307819  0.500000  1
  B  B18  1  0.029102  0.691936  0.500000  1
  B  B19  1  0.474637  0.191534  0.500000  1
  B  B20  1  0.525437  0.808542  0.500000  1
  Os  Os21  1  0.370690  0.913154  0.000000  1
  Os  Os22  1  0.137753  0.408708  0.000000  1
  Os  Os23  1  0.860984  0.592612  0.000000  1
