# generated using pymatgen
data_Rb2NpF7
_symmetry_space_group_name_H-M   'P 1'
_cell_length_a   6.20405700
_cell_length_b   6.22456800
_cell_length_c   10.92083100
_cell_angle_alpha   90.00000000
_cell_angle_beta   90.00000000
_cell_angle_gamma   90.00000000
_symmetry_Int_Tables_number   1
_chemical_formula_structural   Rb2NpF7
_chemical_formula_sum   'Rb4 Np2 F14'
_cell_volume   421.73600663
_cell_formula_units_Z   2
loop_
 _symmetry_equiv_pos_site_id
 _symmetry_equiv_pos_as_xyz
  1  'x, y, z'
loop_
 _atom_site_type_symbol
 _atom_site_label
 _atom_site_symmetry_multiplicity
 _atom_site_fract_x
 _atom_site_fract_y
 _atom_site_fract_z
 _atom_site_occupancy
  Rb  Rb0  1  0.000000  0.500000  0.366226  1
  Rb  Rb1  1  0.500000  0.000000  0.633774  1
  Rb  Rb2  1  0.500000  0.500000  0.002963  1
  Rb  Rb3  1  0.000000  0.000000  0.997037  1
  Np  Np4  1  0.000000  0.500000  0.758689  1
  Np  Np5  1  0.500000  0.000000  0.241311  1
  F  F6  1  0.225691  0.252086  0.797798  1
  F  F7  1  0.274309  0.247914  0.202202  1
  F  F8  1  0.725691  0.752086  0.202202  1
  F  F9  1  0.774309  0.747914  0.797798  1
  F  F10  1  0.225691  0.747914  0.797798  1
  F  F11  1  0.725691  0.247914  0.202202  1
  F  F12  1  0.274309  0.752086  0.202202  1
  F  F13  1  0.774309  0.252086  0.797798  1
  F  F14  1  0.000000  0.500000  0.957738  1
  F  F15  1  0.500000  0.000000  0.042262  1
  F  F16  1  0.203526  0.500000  0.597731  1
  F  F17  1  0.796474  0.500000  0.597731  1
  F  F18  1  0.296474  0.000000  0.402269  1
  F  F19  1  0.703526  0.000000  0.402269  1
