# generated using pymatgen
data_Pr13Nd3Cd4(CoPt)2
_symmetry_space_group_name_H-M   'P 1'
_cell_length_a   9.96562649
_cell_length_b   9.96621812
_cell_length_c   9.96726000
_cell_angle_alpha   59.99654173
_cell_angle_beta   59.99457761
_cell_angle_gamma   60.23492492
_symmetry_Int_Tables_number   1
_chemical_formula_structural   Pr13Nd3Cd4(CoPt)2
_chemical_formula_sum   'Pr13 Nd3 Cd4 Co2 Pt2'
_cell_volume   701.18346345
_cell_formula_units_Z   1
loop_
 _symmetry_equiv_pos_site_id
 _symmetry_equiv_pos_as_xyz
  1  'x, y, z'
loop_
 _atom_site_type_symbol
 _atom_site_label
 _atom_site_symmetry_multiplicity
 _atom_site_fract_x
 _atom_site_fract_y
 _atom_site_fract_z
 _atom_site_occupancy
  Pr  Pr0  1  0.958543  0.340044  0.350706  1
  Pr  Pr1  1  0.818842  0.190113  0.189971  1
  Pr  Pr2  1  0.190175  0.819045  0.800601  1
  Pr  Pr3  1  0.190175  0.819045  0.190179  1
  Pr  Pr4  1  0.818842  0.190113  0.801074  1
  Pr  Pr5  1  0.189170  0.189195  0.810817  1
  Pr  Pr6  1  0.807580  0.807635  0.192393  1
  Pr  Pr7  1  0.937329  0.561664  0.563312  1
  Pr  Pr8  1  0.561498  0.937465  0.937800  1
  Pr  Pr9  1  0.561498  0.937465  0.563237  1
  Pr  Pr10  1  0.937329  0.561664  0.937694  1
  Pr  Pr11  1  0.559622  0.559813  0.940283  1
  Pr  Pr12  1  0.935555  0.935463  0.564491  1
  Nd  Nd13  1  0.344667  0.344441  0.357413  1
  Nd  Nd14  1  0.344667  0.344441  0.953480  1
  Nd  Nd15  1  0.340408  0.958943  0.350324  1
  Cd  Cd16  1  0.579282  0.579819  0.579127  1
  Cd  Cd17  1  0.579282  0.579819  0.261771  1
  Cd  Cd18  1  0.580465  0.259954  0.579790  1
  Cd  Cd19  1  0.260032  0.580951  0.579508  1
  Co  Co20  1  0.143339  0.142431  0.141121  1
  Co  Co21  1  0.143339  0.142431  0.573109  1
  Pt  Pt22  1  0.146373  0.572554  0.140537  1
  Pt  Pt23  1  0.571987  0.145490  0.141262  1
