# generated using pymatgen
data_Rb2Yb(PS3)2
_symmetry_space_group_name_H-M   'P 1'
_cell_length_a   12.64398200
_cell_length_b   6.56715416
_cell_length_c   9.59475776
_cell_angle_alpha   54.66615692
_cell_angle_beta   90.00000000
_cell_angle_gamma   90.00000000
_symmetry_Int_Tables_number   1
_chemical_formula_structural   Rb2Yb(PS3)2
_chemical_formula_sum   'Rb4 Yb2 P4 S12'
_cell_volume   649.94518680
_cell_formula_units_Z   2
loop_
 _symmetry_equiv_pos_site_id
 _symmetry_equiv_pos_as_xyz
  1  'x, y, z'
loop_
 _atom_site_type_symbol
 _atom_site_label
 _atom_site_symmetry_multiplicity
 _atom_site_fract_x
 _atom_site_fract_y
 _atom_site_fract_z
 _atom_site_occupancy
  Rb  Rb0  1  0.327064  0.204589  0.525306  1
  Rb  Rb1  1  0.672936  0.795411  0.474694  1
  Rb  Rb2  1  0.827064  0.795411  0.974694  1
  Rb  Rb3  1  0.172936  0.204589  0.025306  1
  Yb  Yb4  1  0.500000  0.500000  0.000000  1
  Yb  Yb5  1  0.000000  0.500000  0.500000  1
  P  P6  1  0.460296  0.848830  0.123940  1
  P  P7  1  0.039704  0.848830  0.623940  1
  P  P8  1  0.960296  0.151170  0.376060  1
  P  P9  1  0.539704  0.151170  0.876060  1
  S  S10  1  0.078094  0.010752  0.744986  1
  S  S11  1  0.667581  0.262179  0.946147  1
  S  S12  1  0.068316  0.432364  0.248476  1
  S  S13  1  0.921906  0.989248  0.255014  1
  S  S14  1  0.421906  0.010752  0.244986  1
  S  S15  1  0.332419  0.737821  0.053853  1
  S  S16  1  0.431684  0.432364  0.748476  1
  S  S17  1  0.568316  0.567636  0.251524  1
  S  S18  1  0.578094  0.989248  0.755014  1
  S  S19  1  0.167581  0.737821  0.553853  1
  S  S20  1  0.931684  0.567636  0.751524  1
  S  S21  1  0.832419  0.262179  0.446147  1
