# generated using pymatgen
data_Tm3ThZnRu
_symmetry_space_group_name_H-M   'P 1'
_cell_length_a   9.48138906
_cell_length_b   9.48146218
_cell_length_c   9.48481400
_cell_angle_alpha   59.98836173
_cell_angle_beta   59.98799422
_cell_angle_gamma   59.97486027
_symmetry_Int_Tables_number   1
_chemical_formula_structural   Tm3ThZnRu
_chemical_formula_sum   'Tm12 Th4 Zn4 Ru4'
_cell_volume   602.69963277
_cell_formula_units_Z   4
loop_
 _symmetry_equiv_pos_site_id
 _symmetry_equiv_pos_as_xyz
  1  'x, y, z'
loop_
 _atom_site_type_symbol
 _atom_site_label
 _atom_site_symmetry_multiplicity
 _atom_site_fract_x
 _atom_site_fract_y
 _atom_site_fract_z
 _atom_site_occupancy
  Tm  Tm0  1  0.059510  0.438675  0.441920  1
  Tm  Tm1  1  0.438684  0.059515  0.059884  1
  Tm  Tm2  1  0.438684  0.059511  0.441919  1
  Tm  Tm3  1  0.059510  0.438675  0.059895  1
  Tm  Tm4  1  0.440184  0.440171  0.059823  1
  Tm  Tm5  1  0.059577  0.059593  0.440416  1
  Tm  Tm6  1  0.183136  0.814960  0.816443  1
  Tm  Tm7  1  0.814951  0.183141  0.185464  1
  Tm  Tm8  1  0.814951  0.183142  0.816444  1
  Tm  Tm9  1  0.183137  0.814961  0.185459  1
  Tm  Tm10  1  0.815776  0.815794  0.184214  1
  Tm  Tm11  1  0.184464  0.184468  0.815534  1
  Th  Th12  1  0.602335  0.602329  0.601521  1
  Th  Th13  1  0.602333  0.602329  0.193817  1
  Th  Th14  1  0.602602  0.195115  0.601142  1
  Th  Th15  1  0.195119  0.602599  0.601142  1
  Zn  Zn16  1  0.830146  0.830154  0.831072  1
  Zn  Zn17  1  0.830145  0.830157  0.508625  1
  Zn  Zn18  1  0.829240  0.510591  0.830085  1
  Zn  Zn19  1  0.510579  0.829248  0.830086  1
  Ru  Ru20  1  0.393787  0.393772  0.390110  1
  Ru  Ru21  1  0.393784  0.393777  0.822332  1
  Ru  Ru22  1  0.395118  0.822230  0.391327  1
  Ru  Ru23  1  0.822249  0.395089  0.391326  1
