# generated using pymatgen
data_NdThGa6
_symmetry_space_group_name_H-M   'P 1'
_cell_length_a   6.44749500
_cell_length_b   6.44749398
_cell_length_c   4.66493800
_cell_angle_alpha   90.00000000
_cell_angle_beta   90.00000000
_cell_angle_gamma   120.00001034
_symmetry_Int_Tables_number   1
_chemical_formula_structural   NdThGa6
_chemical_formula_sum   'Nd1 Th1 Ga6'
_cell_volume   167.94165249
_cell_formula_units_Z   1
loop_
 _symmetry_equiv_pos_site_id
 _symmetry_equiv_pos_as_xyz
  1  'x, y, z'
loop_
 _atom_site_type_symbol
 _atom_site_label
 _atom_site_symmetry_multiplicity
 _atom_site_fract_x
 _atom_site_fract_y
 _atom_site_fract_z
 _atom_site_occupancy
  Nd  Nd0  1  0.333333  0.666667  0.750000  1
  Th  Th1  1  0.666667  0.333333  0.250000  1
  Ga  Ga2  1  0.858092  0.141908  0.750000  1
  Ga  Ga3  1  0.283818  0.141908  0.750000  1
  Ga  Ga4  1  0.858092  0.716182  0.750000  1
  Ga  Ga5  1  0.143178  0.856822  0.250000  1
  Ga  Ga6  1  0.713643  0.856822  0.250000  1
  Ga  Ga7  1  0.143178  0.286357  0.250000  1
