# generated using pymatgen
data_NdThHgPd2
_symmetry_space_group_name_H-M   'P 1'
_cell_length_a   7.92343204
_cell_length_b   7.92343243
_cell_length_c   3.84311900
_cell_angle_alpha   90.00000000
_cell_angle_beta   90.00000000
_cell_angle_gamma   91.87187337
_symmetry_Int_Tables_number   1
_chemical_formula_structural   NdThHgPd2
_chemical_formula_sum   'Nd2 Th2 Hg2 Pd4'
_cell_volume   241.14525152
_cell_formula_units_Z   2
loop_
 _symmetry_equiv_pos_site_id
 _symmetry_equiv_pos_as_xyz
  1  'x, y, z'
loop_
 _atom_site_type_symbol
 _atom_site_label
 _atom_site_symmetry_multiplicity
 _atom_site_fract_x
 _atom_site_fract_y
 _atom_site_fract_z
 _atom_site_occupancy
  Nd  Nd0  1  0.174820  0.325180  0.500000  1
  Nd  Nd1  1  0.825180  0.674820  0.500000  1
  Th  Th2  1  0.674326  0.174326  0.500000  1
  Th  Th3  1  0.325674  0.825674  0.500000  1
  Hg  Hg4  1  0.000000  0.000000  0.000000  1
  Hg  Hg5  1  0.500000  0.500000  0.000000  1
  Pd  Pd6  1  0.129991  0.629991  0.000000  1
  Pd  Pd7  1  0.870009  0.370009  0.000000  1
  Pd  Pd8  1  0.622620  0.877380  0.000000  1
  Pd  Pd9  1  0.377380  0.122620  0.000000  1
