# generated using pymatgen
data_La5Nd11Cd4(PdRu)2
_symmetry_space_group_name_H-M   'P 1'
_cell_length_a   9.99330247
_cell_length_b   10.03059339
_cell_length_c   10.11416175
_cell_angle_alpha   59.62783968
_cell_angle_beta   59.79914942
_cell_angle_gamma   59.83083289
_symmetry_Int_Tables_number   1
_chemical_formula_structural   La5Nd11Cd4(PdRu)2
_chemical_formula_sum   'La5 Nd11 Cd4 Pd2 Ru2'
_cell_volume   712.85430341
_cell_formula_units_Z   1
loop_
 _symmetry_equiv_pos_site_id
 _symmetry_equiv_pos_as_xyz
  1  'x, y, z'
loop_
 _atom_site_type_symbol
 _atom_site_label
 _atom_site_symmetry_multiplicity
 _atom_site_fract_x
 _atom_site_fract_y
 _atom_site_fract_z
 _atom_site_occupancy
  La  La0  1  0.344891  0.346046  0.359052  1
  La  La1  1  0.347767  0.347438  0.946584  1
  La  La2  1  0.343211  0.956000  0.349712  1
  La  La3  1  0.955552  0.344045  0.351263  1
  La  La4  1  0.822357  0.187948  0.188189  1
  Nd  Nd5  1  0.187298  0.816240  0.804893  1
  Nd  Nd6  1  0.191512  0.814725  0.189676  1
  Nd  Nd7  1  0.815731  0.187766  0.803151  1
  Nd  Nd8  1  0.189984  0.188074  0.809342  1
  Nd  Nd9  1  0.806993  0.805395  0.192139  1
  Nd  Nd10  1  0.934294  0.560850  0.568043  1
  Nd  Nd11  1  0.559653  0.935009  0.937754  1
  Nd  Nd12  1  0.559876  0.934094  0.568572  1
  Nd  Nd13  1  0.936189  0.560753  0.937364  1
  Nd  Nd14  1  0.562793  0.564304  0.936545  1
  Nd  Nd15  1  0.937016  0.935363  0.564571  1
  Cd  Cd16  1  0.580112  0.580351  0.580800  1
  Cd  Cd17  1  0.579775  0.582089  0.257713  1
  Cd  Cd18  1  0.580979  0.255957  0.582375  1
  Cd  Cd19  1  0.255914  0.581818  0.581059  1
  Pd  Pd20  1  0.147186  0.574337  0.140107  1
  Pd  Pd21  1  0.575259  0.147322  0.140586  1
  Ru  Ru22  1  0.138582  0.147066  0.139896  1
  Ru  Ru23  1  0.147076  0.147010  0.570613  1
