# generated using pymatgen
data_Nd10Ga2Si3Hg
_symmetry_space_group_name_H-M   'P 1'
_cell_length_a   7.75472875
_cell_length_b   7.74986206
_cell_length_c   14.68822100
_cell_angle_alpha   90.07936533
_cell_angle_beta   90.06979175
_cell_angle_gamma   89.94445484
_symmetry_Int_Tables_number   1
_chemical_formula_structural   Nd10Ga2Si3Hg
_chemical_formula_sum   'Nd20 Ga4 Si6 Hg2'
_cell_volume   882.73193888
_cell_formula_units_Z   2
loop_
 _symmetry_equiv_pos_site_id
 _symmetry_equiv_pos_as_xyz
  1  'x, y, z'
loop_
 _atom_site_type_symbol
 _atom_site_label
 _atom_site_symmetry_multiplicity
 _atom_site_fract_x
 _atom_site_fract_y
 _atom_site_fract_z
 _atom_site_occupancy
  Nd  Nd0  1  0.497878  0.003565  0.776508  1
  Nd  Nd1  1  0.336659  0.308295  0.110039  1
  Nd  Nd2  1  0.839074  0.816794  0.892842  1
  Nd  Nd3  1  0.992543  0.500354  0.219130  1
  Nd  Nd4  1  0.840018  0.188635  0.390933  1
  Nd  Nd5  1  0.167992  0.184081  0.890359  1
  Nd  Nd6  1  0.661358  0.688596  0.108633  1
  Nd  Nd7  1  0.006222  0.500885  0.723455  1
  Nd  Nd8  1  0.817973  0.836577  0.607221  1
  Nd  Nd9  1  0.310957  0.336771  0.391047  1
  Nd  Nd10  1  0.185881  0.844586  0.106791  1
  Nd  Nd11  1  0.184843  0.165900  0.609575  1
  Nd  Nd12  1  0.809965  0.158471  0.109353  1
  Nd  Nd13  1  0.330367  0.682311  0.609088  1
  Nd  Nd14  1  0.501486  0.004783  0.280675  1
  Nd  Nd15  1  0.684148  0.329677  0.890866  1
  Nd  Nd16  1  0.670123  0.314395  0.610097  1
  Nd  Nd17  1  0.316013  0.668940  0.890298  1
  Nd  Nd18  1  0.154060  0.811788  0.392749  1
  Nd  Nd19  1  0.691244  0.661482  0.390299  1
  Ga  Ga20  1  0.377906  0.620652  0.249882  1
  Ga  Ga21  1  0.622101  0.620201  0.749838  1
  Ga  Ga22  1  0.501410  0.998007  0.994199  1
  Ga  Ga23  1  0.999273  0.495899  0.506067  1
  Si  Si24  1  0.617109  0.381971  0.250077  1
  Si  Si25  1  0.883555  0.116009  0.750228  1
  Si  Si26  1  0.882610  0.882994  0.249512  1
  Si  Si27  1  0.116073  0.883848  0.749540  1
  Si  Si28  1  0.383751  0.382429  0.749962  1
  Si  Si29  1  0.116619  0.116757  0.250545  1
  Hg  Hg30  1  0.498910  0.997698  0.498164  1
  Hg  Hg31  1  0.001879  0.496653  0.002024  1
