# generated using pymatgen
data_Tb7CoTc2Ni3Sn23
_symmetry_space_group_name_H-M   'P 1'
_cell_length_a   9.78641226
_cell_length_b   9.78163225
_cell_length_c   10.05667117
_cell_angle_alpha   90.28106340
_cell_angle_beta   89.82919921
_cell_angle_gamma   119.31947343
_symmetry_Int_Tables_number   1
_chemical_formula_structural   Tb7CoTc2Ni3Sn23
_chemical_formula_sum   'Tb7 Co1 Tc2 Ni3 Sn23'
_cell_volume   839.36698927
_cell_formula_units_Z   1
loop_
 _symmetry_equiv_pos_site_id
 _symmetry_equiv_pos_as_xyz
  1  'x, y, z'
loop_
 _atom_site_type_symbol
 _atom_site_label
 _atom_site_symmetry_multiplicity
 _atom_site_fract_x
 _atom_site_fract_y
 _atom_site_fract_z
 _atom_site_occupancy
  Tb  Tb0  1  0.998268  0.998724  0.998689  1
  Tb  Tb1  1  0.479523  0.521670  0.307516  1
  Tb  Tb2  1  0.520173  0.479559  0.692723  1
  Tb  Tb3  1  0.481201  0.956569  0.306616  1
  Tb  Tb4  1  0.519353  0.042042  0.694587  1
  Tb  Tb5  1  0.042389  0.519147  0.305819  1
  Tb  Tb6  1  0.957562  0.481075  0.694350  1
  Co  Co7  1  0.659303  0.829941  0.801080  1
  Tc  Tc8  1  0.835508  0.164503  0.201794  1
  Tc  Tc9  1  0.163821  0.834828  0.797822  1
  Ni  Ni10  1  0.828815  0.657583  0.197966  1
  Ni  Ni11  1  0.169295  0.341249  0.801155  1
  Ni  Ni12  1  0.342311  0.170942  0.198505  1
  Sn  Sn13  1  0.347489  0.998012  0.003314  1
  Sn  Sn14  1  0.653642  0.999942  0.995323  1
  Sn  Sn15  1  0.997217  0.346540  0.996148  1
  Sn  Sn16  1  0.002139  0.652989  0.003626  1
  Sn  Sn17  1  0.651245  0.653760  0.998329  1
  Sn  Sn18  1  0.349384  0.349048  0.999520  1
  Sn  Sn19  1  0.335798  0.671040  0.817538  1
  Sn  Sn20  1  0.668282  0.331400  0.183011  1
  Sn  Sn21  1  0.999709  0.000105  0.499231  1
  Sn  Sn22  1  0.780010  0.220361  0.459011  1
  Sn  Sn23  1  0.220477  0.779270  0.541521  1
  Sn  Sn24  1  0.779984  0.561724  0.454039  1
  Sn  Sn25  1  0.219831  0.438824  0.546526  1
  Sn  Sn26  1  0.439563  0.220626  0.453535  1
  Sn  Sn27  1  0.563172  0.781153  0.547905  1
  Sn  Sn28  1  0.332907  0.666009  0.116780  1
  Sn  Sn29  1  0.665893  0.333926  0.883700  1
  Sn  Sn30  1  0.118350  0.882150  0.273210  1
  Sn  Sn31  1  0.879391  0.115377  0.727083  1
  Sn  Sn32  1  0.128183  0.240147  0.272473  1
  Sn  Sn33  1  0.870993  0.760791  0.729034  1
  Sn  Sn34  1  0.759490  0.871644  0.272514  1
  Sn  Sn35  1  0.239331  0.127330  0.728007  1
