# generated using pymatgen
data_Lu(TaS2)4
_symmetry_space_group_name_H-M   'P 1'
_cell_length_a   6.70129500
_cell_length_b   6.70129482
_cell_length_c   13.53119100
_cell_angle_alpha   90.00000000
_cell_angle_beta   90.00000000
_cell_angle_gamma   120.00069338
_symmetry_Int_Tables_number   1
_chemical_formula_structural   Lu(TaS2)4
_chemical_formula_sum   'Lu2 Ta8 S16'
_cell_volume   526.23663963
_cell_formula_units_Z   2
loop_
 _symmetry_equiv_pos_site_id
 _symmetry_equiv_pos_as_xyz
  1  'x, y, z'
loop_
 _atom_site_type_symbol
 _atom_site_label
 _atom_site_symmetry_multiplicity
 _atom_site_fract_x
 _atom_site_fract_y
 _atom_site_fract_z
 _atom_site_occupancy
  Lu  Lu0  1  0.999998  0.000002  0.500001  1
  Lu  Lu1  1  0.000002  0.999998  0.000001  1
  Ta  Ta2  1  0.505317  0.494683  0.749999  1
  Ta  Ta3  1  0.010627  0.505317  0.249997  1
  Ta  Ta4  1  0.494683  0.989373  0.249997  1
  Ta  Ta5  1  0.505317  0.010627  0.749997  1
  Ta  Ta6  1  0.989373  0.494683  0.749997  1
  Ta  Ta7  1  0.494683  0.505317  0.249999  1
  Ta  Ta8  1  0.000005  0.999995  0.749998  1
  Ta  Ta9  1  0.999995  0.000005  0.249998  1
  S  S10  1  0.831560  0.168440  0.365553  1
  S  S11  1  0.831563  0.663127  0.365549  1
  S  S12  1  0.336873  0.168437  0.365549  1
  S  S13  1  0.663127  0.831563  0.865549  1
  S  S14  1  0.168437  0.336875  0.634452  1
  S  S15  1  0.168440  0.831560  0.865553  1
  S  S16  1  0.168437  0.336873  0.865549  1
  S  S17  1  0.831562  0.168438  0.134450  1
  S  S18  1  0.336875  0.168437  0.134452  1
  S  S19  1  0.663125  0.831563  0.634452  1
  S  S20  1  0.333333  0.666667  0.132236  1
  S  S21  1  0.666667  0.333333  0.632236  1
  S  S22  1  0.666667  0.333333  0.867765  1
  S  S23  1  0.333333  0.666667  0.367765  1
  S  S24  1  0.831563  0.663125  0.134452  1
  S  S25  1  0.168438  0.831562  0.634450  1
