# generated using pymatgen
data_Dy4PuNbRu6
_symmetry_space_group_name_H-M   'P 1'
_cell_length_a   5.73758410
_cell_length_b   5.73758466
_cell_length_c   8.01234470
_cell_angle_alpha   89.95879502
_cell_angle_beta   90.04120863
_cell_angle_gamma   119.95790557
_symmetry_Int_Tables_number   1
_chemical_formula_structural   Dy4PuNbRu6
_chemical_formula_sum   'Dy4 Pu1 Nb1 Ru6'
_cell_volume   228.52427349
_cell_formula_units_Z   1
loop_
 _symmetry_equiv_pos_site_id
 _symmetry_equiv_pos_as_xyz
  1  'x, y, z'
loop_
 _atom_site_type_symbol
 _atom_site_label
 _atom_site_symmetry_multiplicity
 _atom_site_fract_x
 _atom_site_fract_y
 _atom_site_fract_z
 _atom_site_occupancy
  Dy  Dy0  1  0.666675  0.333325  0.563514  1
  Dy  Dy1  1  0.333325  0.666675  0.436486  1
  Dy  Dy2  1  0.333314  0.666686  0.057438  1
  Dy  Dy3  1  0.666686  0.333314  0.942562  1
  Pu  Pu4  1  0.000000  0.000000  0.500000  1
  Nb  Nb5  1  0.000000  0.000000  0.000000  1
  Ru  Ru6  1  0.170416  0.340823  0.746021  1
  Ru  Ru7  1  0.170358  0.829642  0.745946  1
  Ru  Ru8  1  0.659177  0.829584  0.746021  1
  Ru  Ru9  1  0.829584  0.659177  0.253979  1
  Ru  Ru10  1  0.829642  0.170358  0.254054  1
  Ru  Ru11  1  0.340823  0.170416  0.253979  1
