# generated using pymatgen
data_Yb7Np(Si3Pd)4
_symmetry_space_group_name_H-M   'P 1'
_cell_length_a   8.24805200
_cell_length_b   8.24805015
_cell_length_c   8.21696400
_cell_angle_alpha   90.00000000
_cell_angle_beta   90.00000000
_cell_angle_gamma   119.99999942
_symmetry_Int_Tables_number   1
_chemical_formula_structural   Yb7Np(Si3Pd)4
_chemical_formula_sum   'Yb7 Np1 Si12 Pd4'
_cell_volume   484.11072206
_cell_formula_units_Z   1
loop_
 _symmetry_equiv_pos_site_id
 _symmetry_equiv_pos_as_xyz
  1  'x, y, z'
loop_
 _atom_site_type_symbol
 _atom_site_label
 _atom_site_symmetry_multiplicity
 _atom_site_fract_x
 _atom_site_fract_y
 _atom_site_fract_z
 _atom_site_occupancy
  Yb  Yb0  1  0.500723  0.001447  0.250000  1
  Yb  Yb1  1  0.499146  0.998291  0.750000  1
  Yb  Yb2  1  0.998553  0.499277  0.250000  1
  Yb  Yb3  1  0.001709  0.500854  0.750000  1
  Yb  Yb4  1  0.500723  0.499277  0.250000  1
  Yb  Yb5  1  0.499146  0.500854  0.750000  1
  Yb  Yb6  1  0.000000  0.000000  0.250000  1
  Np  Np7  1  0.000000  0.000000  0.750000  1
  Si  Si8  1  0.164181  0.328363  0.995342  1
  Si  Si9  1  0.835796  0.671595  0.993993  1
  Si  Si10  1  0.671637  0.835819  0.995342  1
  Si  Si11  1  0.835796  0.671595  0.506007  1
  Si  Si12  1  0.328405  0.164204  0.993993  1
  Si  Si13  1  0.164181  0.328363  0.504658  1
  Si  Si14  1  0.164181  0.835819  0.995342  1
  Si  Si15  1  0.328405  0.164204  0.506007  1
  Si  Si16  1  0.835796  0.164204  0.993993  1
  Si  Si17  1  0.671637  0.835819  0.504658  1
  Si  Si18  1  0.835796  0.164204  0.506007  1
  Si  Si19  1  0.164181  0.835819  0.504658  1
  Pd  Pd20  1  0.333333  0.666667  0.001861  1
  Pd  Pd21  1  0.666667  0.333333  0.998828  1
  Pd  Pd22  1  0.666667  0.333333  0.501172  1
  Pd  Pd23  1  0.333333  0.666667  0.498139  1
