# generated using pymatgen
data_Dy6As13Rh20
_symmetry_space_group_name_H-M   'P 1'
_cell_length_a   13.84478600
_cell_length_b   13.84478517
_cell_length_c   3.98507300
_cell_angle_alpha   90.00000000
_cell_angle_beta   90.00000000
_cell_angle_gamma   119.99999721
_symmetry_Int_Tables_number   1
_chemical_formula_structural   Dy6As13Rh20
_chemical_formula_sum   'Dy6 As13 Rh20'
_cell_volume   661.51453868
_cell_formula_units_Z   1
loop_
 _symmetry_equiv_pos_site_id
 _symmetry_equiv_pos_as_xyz
  1  'x, y, z'
loop_
 _atom_site_type_symbol
 _atom_site_label
 _atom_site_symmetry_multiplicity
 _atom_site_fract_x
 _atom_site_fract_y
 _atom_site_fract_z
 _atom_site_occupancy
  Dy  Dy0  1  0.530569  0.718823  0.248068  1
  Dy  Dy1  1  0.281177  0.811745  0.248068  1
  Dy  Dy2  1  0.188255  0.469431  0.248068  1
  Dy  Dy3  1  0.469431  0.281177  0.751932  1
  Dy  Dy4  1  0.718823  0.188255  0.751932  1
  Dy  Dy5  1  0.811745  0.530569  0.751932  1
  As  As6  1  0.527281  0.139928  0.250885  1
  As  As7  1  0.860072  0.387354  0.250885  1
  As  As8  1  0.612646  0.472719  0.250885  1
  As  As9  1  0.945006  0.714697  0.251556  1
  As  As10  1  0.285303  0.230309  0.251556  1
  As  As11  1  0.769691  0.054994  0.251556  1
  As  As12  1  0.387354  0.527281  0.749115  1
  As  As13  1  0.472719  0.860072  0.749115  1
  As  As14  1  0.139928  0.612646  0.749115  1
  As  As15  1  0.714697  0.769691  0.748444  1
  As  As16  1  0.230309  0.945006  0.748444  1
  As  As17  1  0.054994  0.285303  0.748444  1
  As  As18  1  0.000000  0.000000  0.000000  1
  Rh  Rh19  1  0.333333  0.666667  0.753191  1
  Rh  Rh20  1  0.922198  0.251238  0.252491  1
  Rh  Rh21  1  0.748762  0.670960  0.252491  1
  Rh  Rh22  1  0.329040  0.077802  0.252491  1
  Rh  Rh23  1  0.439145  0.022694  0.751442  1
  Rh  Rh24  1  0.977306  0.416452  0.751442  1
  Rh  Rh25  1  0.583548  0.560855  0.751442  1
  Rh  Rh26  1  0.666667  0.333333  0.246809  1
  Rh  Rh27  1  0.092814  0.189672  0.251300  1
  Rh  Rh28  1  0.810328  0.903143  0.251300  1
  Rh  Rh29  1  0.096857  0.907186  0.251300  1
  Rh  Rh30  1  0.022694  0.583548  0.248558  1
  Rh  Rh31  1  0.416452  0.439145  0.248558  1
  Rh  Rh32  1  0.560855  0.977306  0.248558  1
  Rh  Rh33  1  0.670960  0.922198  0.747509  1
  Rh  Rh34  1  0.077802  0.748762  0.747509  1
  Rh  Rh35  1  0.251238  0.329040  0.747509  1
  Rh  Rh36  1  0.907186  0.810328  0.748700  1
  Rh  Rh37  1  0.189672  0.096857  0.748700  1
  Rh  Rh38  1  0.903143  0.092814  0.748700  1
