# generated using pymatgen
data_Er4Sn5PIr7
_symmetry_space_group_name_H-M   'P 1'
_cell_length_a   7.49426812
_cell_length_b   7.49426876
_cell_length_c   7.49426861
_cell_angle_alpha   109.29500346
_cell_angle_beta   109.55939962
_cell_angle_gamma   109.55939477
_symmetry_Int_Tables_number   1
_chemical_formula_structural   Er4Sn5PIr7
_chemical_formula_sum   'Er4 Sn5 P1 Ir7'
_cell_volume   324.01328360
_cell_formula_units_Z   1
loop_
 _symmetry_equiv_pos_site_id
 _symmetry_equiv_pos_as_xyz
  1  'x, y, z'
loop_
 _atom_site_type_symbol
 _atom_site_label
 _atom_site_symmetry_multiplicity
 _atom_site_fract_x
 _atom_site_fract_y
 _atom_site_fract_z
 _atom_site_occupancy
  Er  Er0  1  0.000000  0.987004  0.533518  1
  Er  Er1  1  0.000000  0.533518  0.987004  1
  Er  Er2  1  0.453486  0.987004  0.987004  1
  Er  Er3  1  0.546514  0.533518  0.533518  1
  Sn  Sn4  1  0.686767  0.702967  0.016199  1
  Sn  Sn5  1  0.313233  0.016199  0.329431  1
  Sn  Sn6  1  0.000000  0.285896  0.285896  1
  Sn  Sn7  1  0.313233  0.329431  0.016199  1
  Sn  Sn8  1  0.686767  0.016199  0.702967  1
  P  P9  1  0.000000  0.643151  0.643151  1
  Ir  Ir10  1  0.757763  0.254949  0.497185  1
  Ir  Ir11  1  0.757763  0.497185  0.254949  1
  Ir  Ir12  1  0.500000  0.262019  0.762019  1
  Ir  Ir13  1  0.242237  0.497185  0.739423  1
  Ir  Ir14  1  0.242237  0.739423  0.497185  1
  Ir  Ir15  1  0.500000  0.762019  0.262019  1
  Ir  Ir16  1  0.000000  0.952335  0.952335  1
