# generated using pymatgen
data_Y3Er3VB14W
_symmetry_space_group_name_H-M   'P 1'
_cell_length_a   8.12228567
_cell_length_b   8.12228426
_cell_length_c   9.45963551
_cell_angle_alpha   90.06347375
_cell_angle_beta   89.93652660
_cell_angle_gamma   155.54058179
_symmetry_Int_Tables_number   1
_chemical_formula_structural   Y3Er3VB14W
_chemical_formula_sum   'Y3 Er3 V1 B14 W1'
_cell_volume   258.39369740
_cell_formula_units_Z   1
loop_
 _symmetry_equiv_pos_site_id
 _symmetry_equiv_pos_as_xyz
  1  'x, y, z'
loop_
 _atom_site_type_symbol
 _atom_site_label
 _atom_site_symmetry_multiplicity
 _atom_site_fract_x
 _atom_site_fract_y
 _atom_site_fract_z
 _atom_site_occupancy
  Y  Y0  1  0.754400  0.245600  0.249823  1
  Y  Y1  1  0.243050  0.756950  0.750084  1
  Y  Y2  1  0.107024  0.892976  0.442375  1
  Er  Er3  1  0.894033  0.105967  0.938824  1
  Er  Er4  1  0.106408  0.893592  0.056093  1
  Er  Er5  1  0.894301  0.105699  0.561320  1
  V  V6  1  0.051987  0.948013  0.750406  1
  B  B7  1  0.545237  0.454763  0.248722  1
  B  B8  1  0.457522  0.542478  0.750445  1
  B  B9  1  0.520664  0.479336  0.904890  1
  B  B10  1  0.480590  0.519410  0.090094  1
  B  B11  1  0.480218  0.519782  0.408885  1
  B  B12  1  0.520499  0.479501  0.595932  1
  B  B13  1  0.632145  0.367855  0.850511  1
  B  B14  1  0.365540  0.634460  0.144597  1
  B  B15  1  0.727061  0.272939  0.967158  1
  B  B16  1  0.272773  0.727227  0.030962  1
  B  B17  1  0.273651  0.726349  0.469505  1
  B  B18  1  0.727939  0.272061  0.533844  1
  B  B19  1  0.632267  0.367733  0.650858  1
  B  B20  1  0.365698  0.634302  0.355167  1
  W  W21  1  0.946994  0.053006  0.249506  1
