# generated using pymatgen
data_Y2B4Ir4Ru
_symmetry_space_group_name_H-M   'P 1'
_cell_length_a   7.53468472
_cell_length_b   6.38243532
_cell_length_c   5.61714072
_cell_angle_alpha   77.50234999
_cell_angle_beta   55.79205675
_cell_angle_gamma   46.18449241
_symmetry_Int_Tables_number   1
_chemical_formula_structural   Y2B4Ir4Ru
_chemical_formula_sum   'Y2 B4 Ir4 Ru1'
_cell_volume   154.28702925
_cell_formula_units_Z   1
loop_
 _symmetry_equiv_pos_site_id
 _symmetry_equiv_pos_as_xyz
  1  'x, y, z'
loop_
 _atom_site_type_symbol
 _atom_site_label
 _atom_site_symmetry_multiplicity
 _atom_site_fract_x
 _atom_site_fract_y
 _atom_site_fract_z
 _atom_site_occupancy
  Y  Y0  1  0.861372  0.861371  0.138628  1
  Y  Y1  1  0.138629  0.138629  0.861371  1
  B  B2  1  0.476197  0.785524  0.205553  1
  B  B3  1  0.214476  0.523803  0.467274  1
  B  B4  1  0.785525  0.476196  0.532726  1
  B  B5  1  0.523805  0.214475  0.794445  1
  Ir  Ir6  1  0.249263  0.249263  0.250738  1
  Ir  Ir7  1  0.000001  0.999999  0.500000  1
  Ir  Ir8  1  0.500001  0.499999  0.499998  1
  Ir  Ir9  1  0.750738  0.750736  0.749263  1
  Ru  Ru10  1  0.499999  0.500001  0.999999  1
