# generated using pymatgen
data_Dy6Y2Re3TcC8
_symmetry_space_group_name_H-M   'P 1'
_cell_length_a   5.11510100
_cell_length_b   6.58836687
_cell_length_c   9.88886915
_cell_angle_alpha   90.05321332
_cell_angle_beta   90.00000000
_cell_angle_gamma   90.00000000
_symmetry_Int_Tables_number   1
_chemical_formula_structural   Dy6Y2Re3TcC8
_chemical_formula_sum   'Dy6 Y2 Re3 Tc1 C8'
_cell_volume   333.25634843
_cell_formula_units_Z   1
loop_
 _symmetry_equiv_pos_site_id
 _symmetry_equiv_pos_as_xyz
  1  'x, y, z'
loop_
 _atom_site_type_symbol
 _atom_site_label
 _atom_site_symmetry_multiplicity
 _atom_site_fract_x
 _atom_site_fract_y
 _atom_site_fract_z
 _atom_site_occupancy
  Dy  Dy0  1  0.750000  0.532583  0.784402  1
  Dy  Dy1  1  0.250000  0.966628  0.284021  1
  Dy  Dy2  1  0.750000  0.679131  0.443682  1
  Dy  Dy3  1  0.250000  0.822247  0.943694  1
  Dy  Dy4  1  0.750000  0.178775  0.056775  1
  Dy  Dy5  1  0.250000  0.320309  0.557145  1
  Y  Y6  1  0.250000  0.466277  0.216136  1
  Y  Y7  1  0.750000  0.033143  0.716120  1
  Re  Re8  1  0.250000  0.779643  0.634547  1
  Re  Re9  1  0.750000  0.220953  0.365563  1
  Re  Re10  1  0.750000  0.720596  0.134587  1
  Tc  Tc11  1  0.250000  0.279599  0.865544  1
  C  C12  1  0.250000  0.677755  0.451528  1
  C  C13  1  0.250000  0.547375  0.758083  1
  C  C14  1  0.750000  0.454182  0.241025  1
  C  C15  1  0.750000  0.821532  0.951668  1
  C  C16  1  0.250000  0.045784  0.740506  1
  C  C17  1  0.250000  0.177052  0.047340  1
  C  C18  1  0.750000  0.322617  0.548396  1
  C  C19  1  0.750000  0.953821  0.259239  1
