# generated using pymatgen
data_ErTm3Co14(P2Ru)6
_symmetry_space_group_name_H-M   'P 1'
_cell_length_a   3.71492300
_cell_length_b   10.41712756
_cell_length_c   11.83068062
_cell_angle_alpha   90.03733057
_cell_angle_beta   90.00000000
_cell_angle_gamma   90.00000000
_symmetry_Int_Tables_number   1
_chemical_formula_structural   ErTm3Co14(P2Ru)6
_chemical_formula_sum   'Er1 Tm3 Co14 P12 Ru6'
_cell_volume   457.83336265
_cell_formula_units_Z   1
loop_
 _symmetry_equiv_pos_site_id
 _symmetry_equiv_pos_as_xyz
  1  'x, y, z'
loop_
 _atom_site_type_symbol
 _atom_site_label
 _atom_site_symmetry_multiplicity
 _atom_site_fract_x
 _atom_site_fract_y
 _atom_site_fract_z
 _atom_site_occupancy
  Er  Er0  1  0.250000  0.586045  0.705609  1
  Tm  Tm1  1  0.250000  0.913866  0.205631  1
  Tm  Tm2  1  0.750000  0.415263  0.291900  1
  Tm  Tm3  1  0.750000  0.084779  0.791763  1
  Co  Co4  1  0.750000  0.597209  0.513540  1
  Co  Co5  1  0.750000  0.902845  0.014130  1
  Co  Co6  1  0.250000  0.225707  0.179487  1
  Co  Co7  1  0.250000  0.274183  0.679428  1
  Co  Co8  1  0.750000  0.776839  0.822215  1
  Co  Co9  1  0.750000  0.723591  0.322053  1
  Co  Co10  1  0.250000  0.884153  0.700594  1
  Co  Co11  1  0.250000  0.616201  0.200787  1
  Co  Co12  1  0.750000  0.113826  0.298094  1
  Co  Co13  1  0.750000  0.385826  0.798379  1
  Co  Co14  1  0.250000  0.464600  0.931190  1
  Co  Co15  1  0.250000  0.035247  0.430673  1
  Co  Co16  1  0.750000  0.538218  0.068586  1
  Co  Co17  1  0.750000  0.961930  0.568113  1
  P  P18  1  0.250000  0.423069  0.112912  1
  P  P19  1  0.250000  0.076984  0.612562  1
  P  P20  1  0.750000  0.578808  0.886948  1
  P  P21  1  0.750000  0.921262  0.386388  1
  P  P22  1  0.250000  0.271618  0.866030  1
  P  P23  1  0.250000  0.228339  0.365952  1
  P  P24  1  0.750000  0.731328  0.133181  1
  P  P25  1  0.750000  0.769112  0.632957  1
  P  P26  1  0.250000  0.600136  0.386459  1
  P  P27  1  0.250000  0.899899  0.886363  1
  P  P28  1  0.750000  0.402707  0.612815  1
  P  P29  1  0.750000  0.096812  0.112894  1
  Ru  Ru30  1  0.250000  0.714120  0.989497  1
  Ru  Ru31  1  0.250000  0.786019  0.489390  1
  Ru  Ru32  1  0.750000  0.290232  0.013770  1
  Ru  Ru33  1  0.750000  0.209416  0.513491  1
  Ru  Ru34  1  0.250000  0.408771  0.488056  1
  Ru  Ru35  1  0.250000  0.091041  0.988158  1
