# generated using pymatgen
data_Tb2NdCu4Ni9B2
_symmetry_space_group_name_H-M   'P 1'
_cell_length_a   5.03953000
_cell_length_b   5.03952913
_cell_length_c   10.87641400
_cell_angle_alpha   90.00000000
_cell_angle_beta   90.00000000
_cell_angle_gamma   120.00000570
_symmetry_Int_Tables_number   1
_chemical_formula_structural   Tb2NdCu4Ni9B2
_chemical_formula_sum   'Tb2 Nd1 Cu4 Ni9 B2'
_cell_volume   239.21936424
_cell_formula_units_Z   1
loop_
 _symmetry_equiv_pos_site_id
 _symmetry_equiv_pos_as_xyz
  1  'x, y, z'
loop_
 _atom_site_type_symbol
 _atom_site_label
 _atom_site_symmetry_multiplicity
 _atom_site_fract_x
 _atom_site_fract_y
 _atom_site_fract_z
 _atom_site_occupancy
  Tb  Tb0  1  0.000000  0.000000  0.668611  1
  Tb  Tb1  1  0.000000  0.000000  0.998557  1
  Nd  Nd2  1  0.000000  0.000000  0.332127  1
  Cu  Cu3  1  0.333333  0.666667  0.316698  1
  Cu  Cu4  1  0.666667  0.333333  0.316698  1
  Cu  Cu5  1  0.666667  0.333333  0.683713  1
  Cu  Cu6  1  0.333333  0.666667  0.683713  1
  Ni  Ni7  1  0.000000  0.500000  0.870386  1
  Ni  Ni8  1  0.500000  0.000000  0.501183  1
  Ni  Ni9  1  0.500000  0.500000  0.501183  1
  Ni  Ni10  1  0.000000  0.500000  0.501183  1
  Ni  Ni11  1  0.500000  0.000000  0.128556  1
  Ni  Ni12  1  0.500000  0.500000  0.128556  1
  Ni  Ni13  1  0.000000  0.500000  0.128556  1
  Ni  Ni14  1  0.500000  0.000000  0.870386  1
  Ni  Ni15  1  0.500000  0.500000  0.870386  1
  B  B16  1  0.666667  0.333333  0.999753  1
  B  B17  1  0.333333  0.666667  0.999753  1
