# generated using pymatgen
data_EuTh(AgAs2)2
_symmetry_space_group_name_H-M   'P 1'
_cell_length_a   4.08347400
_cell_length_b   4.08347400
_cell_length_c   10.55923800
_cell_angle_alpha   90.00000000
_cell_angle_beta   90.00000000
_cell_angle_gamma   90.00000000
_symmetry_Int_Tables_number   1
_chemical_formula_structural   EuTh(AgAs2)2
_chemical_formula_sum   'Eu1 Th1 Ag2 As4'
_cell_volume   176.07275847
_cell_formula_units_Z   1
loop_
 _symmetry_equiv_pos_site_id
 _symmetry_equiv_pos_as_xyz
  1  'x, y, z'
loop_
 _atom_site_type_symbol
 _atom_site_label
 _atom_site_symmetry_multiplicity
 _atom_site_fract_x
 _atom_site_fract_y
 _atom_site_fract_z
 _atom_site_occupancy
  Eu  Eu0  1  0.500000  0.000000  0.727608  1
  Th  Th1  1  0.000000  0.500000  0.273373  1
  Ag  Ag2  1  0.500000  0.500000  0.998433  1
  Ag  Ag3  1  0.000000  0.000000  0.998433  1
  As  As4  1  0.000000  0.500000  0.825744  1
  As  As5  1  0.500000  0.000000  0.185848  1
  As  As6  1  0.500000  0.500000  0.495281  1
  As  As7  1  0.000000  0.000000  0.495281  1
