# generated using pymatgen
data_TbZnCu5
_symmetry_space_group_name_H-M   'P 1'
_cell_length_a   4.99558800
_cell_length_b   8.07633400
_cell_length_c   10.20964100
_cell_angle_alpha   90.00000000
_cell_angle_beta   90.00000000
_cell_angle_gamma   90.00000000
_symmetry_Int_Tables_number   1
_chemical_formula_structural   TbZnCu5
_chemical_formula_sum   'Tb4 Zn4 Cu20'
_cell_volume   411.91855573
_cell_formula_units_Z   4
loop_
 _symmetry_equiv_pos_site_id
 _symmetry_equiv_pos_as_xyz
  1  'x, y, z'
loop_
 _atom_site_type_symbol
 _atom_site_label
 _atom_site_symmetry_multiplicity
 _atom_site_fract_x
 _atom_site_fract_y
 _atom_site_fract_z
 _atom_site_occupancy
  Tb  Tb0  1  0.250000  0.757968  0.063384  1
  Tb  Tb1  1  0.750000  0.242032  0.936616  1
  Tb  Tb2  1  0.750000  0.742032  0.563384  1
  Tb  Tb3  1  0.250000  0.257968  0.436616  1
  Zn  Zn4  1  0.250000  0.641178  0.360150  1
  Zn  Zn5  1  0.750000  0.358822  0.639850  1
  Zn  Zn6  1  0.750000  0.858822  0.860150  1
  Zn  Zn7  1  0.250000  0.141178  0.139850  1
  Cu  Cu8  1  0.250000  0.816123  0.749733  1
  Cu  Cu9  1  0.750000  0.183877  0.250267  1
  Cu  Cu10  1  0.750000  0.683877  0.249733  1
  Cu  Cu11  1  0.250000  0.316123  0.750267  1
  Cu  Cu12  1  0.505528  0.566847  0.809230  1
  Cu  Cu13  1  0.494472  0.433153  0.190770  1
  Cu  Cu14  1  0.494472  0.933153  0.309230  1
  Cu  Cu15  1  0.005528  0.433153  0.190770  1
  Cu  Cu16  1  0.505528  0.066847  0.690770  1
  Cu  Cu17  1  0.994472  0.566847  0.809230  1
  Cu  Cu18  1  0.994472  0.066847  0.690770  1
  Cu  Cu19  1  0.005528  0.933153  0.309230  1
  Cu  Cu20  1  0.250000  0.907313  0.516119  1
  Cu  Cu21  1  0.750000  0.092687  0.483881  1
  Cu  Cu22  1  0.750000  0.592687  0.016119  1
  Cu  Cu23  1  0.250000  0.407313  0.983881  1
  Cu  Cu24  1  0.250000  0.557955  0.596731  1
  Cu  Cu25  1  0.750000  0.442045  0.403269  1
  Cu  Cu26  1  0.750000  0.942045  0.096731  1
  Cu  Cu27  1  0.250000  0.057955  0.903269  1
