# generated using pymatgen
data_B2Pd7Pt3
_symmetry_space_group_name_H-M   'P 1'
_cell_length_a   6.47878363
_cell_length_b   6.48599069
_cell_length_c   8.19267000
_cell_angle_alpha   90.00000000
_cell_angle_beta   90.00000000
_cell_angle_gamma   89.82096979
_symmetry_Int_Tables_number   1
_chemical_formula_structural   B2Pd7Pt3
_chemical_formula_sum   'B4 Pd14 Pt6'
_cell_volume   344.26521163
_cell_formula_units_Z   2
loop_
 _symmetry_equiv_pos_site_id
 _symmetry_equiv_pos_as_xyz
  1  'x, y, z'
loop_
 _atom_site_type_symbol
 _atom_site_label
 _atom_site_symmetry_multiplicity
 _atom_site_fract_x
 _atom_site_fract_y
 _atom_site_fract_z
 _atom_site_occupancy
  B  B0  1  0.552870  0.655958  0.366802  1
  B  B1  1  0.052870  0.155958  0.133198  1
  B  B2  1  0.449920  0.347467  0.634886  1
  B  B3  1  0.949920  0.847467  0.865114  1
  Pd  Pd4  1  0.445392  0.343581  0.373020  1
  Pd  Pd5  1  0.945392  0.843581  0.126980  1
  Pd  Pd6  1  0.653971  0.959485  0.374650  1
  Pd  Pd7  1  0.153971  0.459485  0.125350  1
  Pd  Pd8  1  0.345291  0.043704  0.624727  1
  Pd  Pd9  1  0.845291  0.543704  0.875273  1
  Pd  Pd10  1  0.641289  0.950440  0.874721  1
  Pd  Pd11  1  0.141289  0.450440  0.625279  1
  Pd  Pd12  1  0.359537  0.046813  0.125289  1
  Pd  Pd13  1  0.859537  0.546813  0.374711  1
  Pd  Pd14  1  0.742574  0.255433  0.125172  1
  Pd  Pd15  1  0.242574  0.755433  0.374828  1
  Pd  Pd16  1  0.257998  0.744415  0.873811  1
  Pd  Pd17  1  0.757998  0.244415  0.626189  1
  Pt  Pt18  1  0.547321  0.648699  0.117283  1
  Pt  Pt19  1  0.047321  0.148699  0.382717  1
  Pt  Pt20  1  0.449896  0.349396  0.885730  1
  Pt  Pt21  1  0.949896  0.849396  0.614270  1
  Pt  Pt22  1  0.553943  0.654608  0.624722  1
  Pt  Pt23  1  0.053943  0.154608  0.875278  1
