# generated using pymatgen
data_PrDy7(AlRu)8
_symmetry_space_group_name_H-M   'P 1'
_cell_length_a   4.08921600
_cell_length_b   7.03913844
_cell_length_c   15.99312134
_cell_angle_alpha   89.86332864
_cell_angle_beta   90.00000000
_cell_angle_gamma   90.00000000
_symmetry_Int_Tables_number   1
_chemical_formula_structural   PrDy7(AlRu)8
_chemical_formula_sum   'Pr1 Dy7 Al8 Ru8'
_cell_volume   460.35361169
_cell_formula_units_Z   1
loop_
 _symmetry_equiv_pos_site_id
 _symmetry_equiv_pos_as_xyz
  1  'x, y, z'
loop_
 _atom_site_type_symbol
 _atom_site_label
 _atom_site_symmetry_multiplicity
 _atom_site_fract_x
 _atom_site_fract_y
 _atom_site_fract_z
 _atom_site_occupancy
  Pr  Pr0  1  0.250000  0.534085  0.721221  1
  Dy  Dy1  1  0.750000  0.964286  0.219562  1
  Dy  Dy2  1  0.250000  0.159859  0.561243  1
  Dy  Dy3  1  0.750000  0.843538  0.435853  1
  Dy  Dy4  1  0.750000  0.463677  0.280937  1
  Dy  Dy5  1  0.750000  0.339706  0.063771  1
  Dy  Dy6  1  0.250000  0.656943  0.938930  1
  Dy  Dy7  1  0.250000  0.035469  0.781844  1
  Al  Al8  1  0.750000  0.502745  0.562272  1
  Al  Al9  1  0.750000  0.359185  0.852526  1
  Al  Al10  1  0.750000  0.998644  0.936393  1
  Al  Al11  1  0.750000  0.869629  0.648789  1
  Al  Al12  1  0.250000  0.501258  0.433768  1
  Al  Al13  1  0.250000  0.997634  0.066296  1
  Al  Al14  1  0.250000  0.634213  0.151457  1
  Al  Al15  1  0.250000  0.136442  0.348564  1
  Ru  Ru16  1  0.750000  0.753948  0.814062  1
  Ru  Ru17  1  0.250000  0.233423  0.937908  1
  Ru  Ru18  1  0.750000  0.266391  0.435661  1
  Ru  Ru19  1  0.250000  0.753506  0.311468  1
  Ru  Ru20  1  0.750000  0.763575  0.064477  1
  Ru  Ru21  1  0.750000  0.240279  0.685067  1
  Ru  Ru22  1  0.250000  0.252743  0.187244  1
  Ru  Ru23  1  0.250000  0.738825  0.560689  1
