# generated using pymatgen
data_Tb3Er4TmIn3Co
_symmetry_space_group_name_H-M   'P 1'
_cell_length_a   10.31263009
_cell_length_b   10.31254934
_cell_length_c   7.00971702
_cell_angle_alpha   90.00759174
_cell_angle_beta   89.99102262
_cell_angle_gamma   120.01147476
_symmetry_Int_Tables_number   1
_chemical_formula_structural   Tb3Er4TmIn3Co
_chemical_formula_sum   'Tb6 Er8 Tm2 In6 Co2'
_cell_volume   645.52990072
_cell_formula_units_Z   2
loop_
 _symmetry_equiv_pos_site_id
 _symmetry_equiv_pos_as_xyz
  1  'x, y, z'
loop_
 _atom_site_type_symbol
 _atom_site_label
 _atom_site_symmetry_multiplicity
 _atom_site_fract_x
 _atom_site_fract_y
 _atom_site_fract_z
 _atom_site_occupancy
  Tb  Tb0  1  0.534428  0.069445  0.790294  1
  Tb  Tb1  1  0.930560  0.465531  0.790235  1
  Tb  Tb2  1  0.534767  0.465267  0.789985  1
  Tb  Tb3  1  0.465187  0.930797  0.290886  1
  Tb  Tb4  1  0.069236  0.534873  0.290909  1
  Tb  Tb5  1  0.465530  0.534460  0.291065  1
  Er  Er6  1  0.822125  0.177884  0.498397  1
  Er  Er7  1  0.178006  0.356114  0.998523  1
  Er  Er8  1  0.643979  0.821985  0.998532  1
  Er  Er9  1  0.177975  0.821926  0.998327  1
  Er  Er10  1  0.666516  0.333511  0.184397  1
  Er  Er11  1  0.333272  0.666598  0.683871  1
  Er  Er12  1  0.000190  0.999897  0.779279  1
  Er  Er13  1  0.000077  0.999927  0.280208  1
  Tm  Tm14  1  0.821861  0.643665  0.498332  1
  Tm  Tm15  1  0.356324  0.178146  0.498351  1
  In  In16  1  0.837269  0.674618  0.040940  1
  In  In17  1  0.325380  0.162722  0.040952  1
  In  In18  1  0.837312  0.162704  0.040439  1
  In  In19  1  0.163009  0.324975  0.540281  1
  In  In20  1  0.675028  0.837006  0.540303  1
  In  In21  1  0.162315  0.837642  0.540222  1
  Co  Co22  1  0.666348  0.333633  0.565448  1
  Co  Co23  1  0.333306  0.666674  0.065727  1
