# generated using pymatgen
data_CaEuBO4
_symmetry_space_group_name_H-M   'P 1'
_cell_length_a   3.69066700
_cell_length_b   9.92990900
_cell_length_c   10.58406300
_cell_angle_alpha   90.00000000
_cell_angle_beta   90.00000000
_cell_angle_gamma   90.00000000
_symmetry_Int_Tables_number   1
_chemical_formula_structural   CaEuBO4
_chemical_formula_sum   'Ca4 Eu4 B4 O16'
_cell_volume   387.88460809
_cell_formula_units_Z   4
loop_
 _symmetry_equiv_pos_site_id
 _symmetry_equiv_pos_as_xyz
  1  'x, y, z'
loop_
 _atom_site_type_symbol
 _atom_site_label
 _atom_site_symmetry_multiplicity
 _atom_site_fract_x
 _atom_site_fract_y
 _atom_site_fract_z
 _atom_site_occupancy
  Ca  Ca0  1  0.250000  0.683727  0.081262  1
  Ca  Ca1  1  0.750000  0.316273  0.918738  1
  Ca  Ca2  1  0.750000  0.183727  0.418738  1
  Ca  Ca3  1  0.250000  0.816273  0.581262  1
  Eu  Eu4  1  0.250000  0.079081  0.123625  1
  Eu  Eu5  1  0.750000  0.920919  0.876375  1
  Eu  Eu6  1  0.750000  0.579081  0.376375  1
  Eu  Eu7  1  0.250000  0.420919  0.623625  1
  B  B8  1  0.250000  0.368891  0.189604  1
  B  B9  1  0.750000  0.631109  0.810396  1
  B  B10  1  0.750000  0.868891  0.310396  1
  B  B11  1  0.250000  0.131109  0.689604  1
  O  O12  1  0.250000  0.502038  0.230945  1
  O  O13  1  0.750000  0.497962  0.769055  1
  O  O14  1  0.750000  0.002038  0.269055  1
  O  O15  1  0.250000  0.997962  0.730945  1
  O  O16  1  0.250000  0.261305  0.275402  1
  O  O17  1  0.750000  0.738695  0.724598  1
  O  O18  1  0.750000  0.761305  0.224598  1
  O  O19  1  0.250000  0.238695  0.775402  1
  O  O20  1  0.250000  0.340135  0.060805  1
  O  O21  1  0.750000  0.659865  0.939195  1
  O  O22  1  0.750000  0.840135  0.439195  1
  O  O23  1  0.250000  0.159865  0.560805  1
  O  O24  1  0.250000  0.607479  0.499132  1
  O  O25  1  0.750000  0.392521  0.500868  1
  O  O26  1  0.750000  0.107479  0.000868  1
  O  O27  1  0.250000  0.892521  0.999132  1
