# generated using pymatgen
data_NaEu4(GaSb3)2
_symmetry_space_group_name_H-M   'P 1'
_cell_length_a   4.51768300
_cell_length_b   12.35533300
_cell_length_c   14.24605200
_cell_angle_alpha   90.00000000
_cell_angle_beta   90.00000000
_cell_angle_gamma   90.00000000
_symmetry_Int_Tables_number   1
_chemical_formula_structural   NaEu4(GaSb3)2
_chemical_formula_sum   'Na2 Eu8 Ga4 Sb12'
_cell_volume   795.17869201
_cell_formula_units_Z   2
loop_
 _symmetry_equiv_pos_site_id
 _symmetry_equiv_pos_as_xyz
  1  'x, y, z'
loop_
 _atom_site_type_symbol
 _atom_site_label
 _atom_site_symmetry_multiplicity
 _atom_site_fract_x
 _atom_site_fract_y
 _atom_site_fract_z
 _atom_site_occupancy
  Na  Na0  1  0.500000  0.500000  0.000000  1
  Na  Na1  1  0.500000  0.000000  0.500000  1
  Eu  Eu2  1  0.500000  0.090006  0.743559  1
  Eu  Eu3  1  0.500000  0.409994  0.243559  1
  Eu  Eu4  1  0.500000  0.329657  0.522818  1
  Eu  Eu5  1  0.500000  0.909994  0.256441  1
  Eu  Eu6  1  0.500000  0.170343  0.022818  1
  Eu  Eu7  1  0.500000  0.829657  0.977182  1
  Eu  Eu8  1  0.500000  0.670343  0.477182  1
  Eu  Eu9  1  0.500000  0.590006  0.756441  1
  Ga  Ga10  1  0.000000  0.173721  0.213731  1
  Ga  Ga11  1  0.000000  0.826279  0.786269  1
  Ga  Ga12  1  0.000000  0.673721  0.286269  1
  Ga  Ga13  1  0.000000  0.326279  0.713731  1
  Sb  Sb14  1  0.000000  0.843762  0.408166  1
  Sb  Sb15  1  0.000000  0.156238  0.591834  1
  Sb  Sb16  1  0.000000  0.656238  0.908166  1
  Sb  Sb17  1  0.000000  0.343762  0.091834  1
  Sb  Sb18  1  0.500000  0.337485  0.825207  1
  Sb  Sb19  1  0.500000  0.662515  0.174793  1
  Sb  Sb20  1  0.500000  0.837485  0.674793  1
  Sb  Sb21  1  0.500000  0.162515  0.325207  1
  Sb  Sb22  1  0.000000  0.521725  0.601294  1
  Sb  Sb23  1  0.000000  0.478275  0.398706  1
  Sb  Sb24  1  0.000000  0.021725  0.898706  1
  Sb  Sb25  1  0.000000  0.978275  0.101294  1
