# generated using pymatgen
data_Tb4Fe(RhO4)3
_symmetry_space_group_name_H-M   'P 1'
_cell_length_a   5.31323148
_cell_length_b   5.78260574
_cell_length_c   7.68883865
_cell_angle_alpha   90.55848761
_cell_angle_beta   90.84884901
_cell_angle_gamma   90.14724505
_symmetry_Int_Tables_number   1
_chemical_formula_structural   Tb4Fe(RhO4)3
_chemical_formula_sum   'Tb4 Fe1 Rh3 O12'
_cell_volume   236.19634433
_cell_formula_units_Z   1
loop_
 _symmetry_equiv_pos_site_id
 _symmetry_equiv_pos_as_xyz
  1  'x, y, z'
loop_
 _atom_site_type_symbol
 _atom_site_label
 _atom_site_symmetry_multiplicity
 _atom_site_fract_x
 _atom_site_fract_y
 _atom_site_fract_z
 _atom_site_occupancy
  Tb  Tb0  1  0.467272  0.580773  0.749637  1
  Tb  Tb1  1  0.978376  0.919093  0.250257  1
  Tb  Tb2  1  0.021624  0.080907  0.749743  1
  Tb  Tb3  1  0.532728  0.419227  0.250363  1
  Fe  Fe4  1  0.500000  0.000000  0.500000  1
  Rh  Rh5  1  0.000000  0.500000  0.500000  1
  Rh  Rh6  1  0.000000  0.500000  0.000000  1
  Rh  Rh7  1  0.500000  0.000000  0.000000  1
  O  O8  1  0.812961  0.188617  0.443417  1
  O  O9  1  0.316098  0.300882  0.558911  1
  O  O10  1  0.679559  0.690792  0.062445  1
  O  O11  1  0.176113  0.808792  0.936607  1
  O  O12  1  0.187039  0.811383  0.556583  1
  O  O13  1  0.683902  0.699118  0.441089  1
  O  O14  1  0.320441  0.309208  0.937555  1
  O  O15  1  0.823887  0.191208  0.063393  1
  O  O16  1  0.381084  0.043937  0.252749  1
  O  O17  1  0.865566  0.451124  0.748585  1
  O  O18  1  0.134434  0.548876  0.251415  1
  O  O19  1  0.618916  0.956063  0.747251  1
