# generated using pymatgen
data_Yb5EuRh2
_symmetry_space_group_name_H-M   'P 1'
_cell_length_a   6.43765861
_cell_length_b   7.52768600
_cell_length_c   9.60422461
_cell_angle_alpha   90.00000000
_cell_angle_beta   89.50591990
_cell_angle_gamma   90.00000000
_symmetry_Int_Tables_number   1
_chemical_formula_structural   Yb5EuRh2
_chemical_formula_sum   'Yb10 Eu2 Rh4'
_cell_volume   465.40987973
_cell_formula_units_Z   2
loop_
 _symmetry_equiv_pos_site_id
 _symmetry_equiv_pos_as_xyz
  1  'x, y, z'
loop_
 _atom_site_type_symbol
 _atom_site_label
 _atom_site_symmetry_multiplicity
 _atom_site_fract_x
 _atom_site_fract_y
 _atom_site_fract_z
 _atom_site_occupancy
  Yb  Yb0  1  0.335005  0.667604  0.068873  1
  Yb  Yb1  1  0.164995  0.167604  0.431127  1
  Yb  Yb2  1  0.666955  0.330796  0.571287  1
  Yb  Yb3  1  0.833045  0.830796  0.928713  1
  Yb  Yb4  1  0.664480  0.332546  0.929103  1
  Yb  Yb5  1  0.835520  0.832546  0.570897  1
  Yb  Yb6  1  0.854839  0.544951  0.250668  1
  Yb  Yb7  1  0.645161  0.044951  0.249332  1
  Yb  Yb8  1  0.143925  0.454749  0.749648  1
  Yb  Yb9  1  0.356075  0.954749  0.750352  1
  Eu  Eu10  1  0.339240  0.671132  0.433253  1
  Eu  Eu11  1  0.160760  0.171132  0.066747  1
  Rh  Rh12  1  0.036172  0.879568  0.251066  1
  Rh  Rh13  1  0.463828  0.379568  0.248934  1
  Rh  Rh14  1  0.957322  0.118654  0.748436  1
  Rh  Rh15  1  0.542678  0.618654  0.751564  1
