# generated using pymatgen
data_NdEuNi2(P2Rh)2
_symmetry_space_group_name_H-M   'P 1'
_cell_length_a   4.04647000
_cell_length_b   4.04647000
_cell_length_c   9.36819100
_cell_angle_alpha   90.00000000
_cell_angle_beta   90.00000000
_cell_angle_gamma   90.00000000
_symmetry_Int_Tables_number   1
_chemical_formula_structural   NdEuNi2(P2Rh)2
_chemical_formula_sum   'Nd1 Eu1 Ni2 P4 Rh2'
_cell_volume   153.39400493
_cell_formula_units_Z   1
loop_
 _symmetry_equiv_pos_site_id
 _symmetry_equiv_pos_as_xyz
  1  'x, y, z'
loop_
 _atom_site_type_symbol
 _atom_site_label
 _atom_site_symmetry_multiplicity
 _atom_site_fract_x
 _atom_site_fract_y
 _atom_site_fract_z
 _atom_site_occupancy
  Nd  Nd0  1  0.500000  0.000000  0.736092  1
  Eu  Eu1  1  0.000000  0.500000  0.263981  1
  Ni  Ni2  1  0.000000  0.500000  0.612242  1
  Ni  Ni3  1  0.500000  0.000000  0.388971  1
  P  P4  1  0.000000  0.000000  0.498494  1
  P  P5  1  0.500000  0.500000  0.498494  1
  P  P6  1  0.000000  0.500000  0.855619  1
  P  P7  1  0.500000  0.000000  0.146631  1
  Rh  Rh8  1  0.000000  0.000000  0.999738  1
  Rh  Rh9  1  0.500000  0.500000  0.999738  1
