# generated using pymatgen
data_Pr7Y12ThSn16
_symmetry_space_group_name_H-M   'P 1'
_cell_length_a   8.11733260
_cell_length_b   8.33924020
_cell_length_c   15.70258100
_cell_angle_alpha   90.02481669
_cell_angle_beta   90.22680974
_cell_angle_gamma   89.66154485
_symmetry_Int_Tables_number   1
_chemical_formula_structural   Pr7Y12ThSn16
_chemical_formula_sum   'Pr7 Y12 Th1 Sn16'
_cell_volume   1062.91821628
_cell_formula_units_Z   1
loop_
 _symmetry_equiv_pos_site_id
 _symmetry_equiv_pos_as_xyz
  1  'x, y, z'
loop_
 _atom_site_type_symbol
 _atom_site_label
 _atom_site_symmetry_multiplicity
 _atom_site_fract_x
 _atom_site_fract_y
 _atom_site_fract_z
 _atom_site_occupancy
  Pr  Pr0  1  0.009033  0.178474  0.597171  1
  Pr  Pr1  1  0.491697  0.677571  0.403746  1
  Pr  Pr2  1  0.991442  0.820985  0.095593  1
  Pr  Pr3  1  0.489507  0.676805  0.096168  1
  Pr  Pr4  1  0.991470  0.822270  0.403885  1
  Pr  Pr5  1  0.507847  0.322731  0.596266  1
  Pr  Pr6  1  0.009417  0.179229  0.903593  1
  Y  Y7  1  0.353040  0.833917  0.875728  1
  Y  Y8  1  0.851016  0.665764  0.623993  1
  Y  Y9  1  0.648509  0.165937  0.375555  1
  Y  Y10  1  0.145968  0.335683  0.122454  1
  Y  Y11  1  0.646137  0.165545  0.124215  1
  Y  Y12  1  0.148059  0.334009  0.376472  1
  Y  Y13  1  0.352116  0.834324  0.625251  1
  Y  Y14  1  0.854146  0.664827  0.877398  1
  Y  Y15  1  0.185619  0.500382  0.750529  1
  Y  Y16  1  0.685026  0.999234  0.750402  1
  Y  Y17  1  0.813564  0.499600  0.249199  1
  Y  Y18  1  0.314525  0.001073  0.249774  1
  Th  Th19  1  0.512324  0.322408  0.903036  1
  Sn  Sn20  1  0.311243  0.041323  0.040497  1
  Sn  Sn21  1  0.811034  0.458895  0.458793  1
  Sn  Sn22  1  0.688099  0.960621  0.541691  1
  Sn  Sn23  1  0.195982  0.538084  0.957208  1
  Sn  Sn24  1  0.688811  0.962248  0.957919  1
  Sn  Sn25  1  0.188658  0.541849  0.541565  1
  Sn  Sn26  1  0.312082  0.039563  0.458940  1
  Sn  Sn27  1  0.804348  0.457684  0.040440  1
  Sn  Sn28  1  0.551088  0.620438  0.751145  1
  Sn  Sn29  1  0.049913  0.876719  0.750403  1
  Sn  Sn30  1  0.447700  0.378124  0.250153  1
  Sn  Sn31  1  0.949768  0.123662  0.249498  1
  Sn  Sn32  1  0.318166  0.143670  0.750927  1
  Sn  Sn33  1  0.815809  0.356858  0.750343  1
  Sn  Sn34  1  0.683738  0.856949  0.249961  1
  Sn  Sn35  1  0.183098  0.642541  0.250089  1
