# generated using pymatgen
data_La12Pr4Cd3InIr4
_symmetry_space_group_name_H-M   'P 1'
_cell_length_a   10.11686484
_cell_length_b   10.11520804
_cell_length_c   10.11552734
_cell_angle_alpha   59.96716065
_cell_angle_beta   59.94091189
_cell_angle_gamma   59.94391559
_symmetry_Int_Tables_number   1
_chemical_formula_structural   La12Pr4Cd3InIr4
_chemical_formula_sum   'La12 Pr4 Cd3 In1 Ir4'
_cell_volume   731.15258305
_cell_formula_units_Z   1
loop_
 _symmetry_equiv_pos_site_id
 _symmetry_equiv_pos_as_xyz
  1  'x, y, z'
loop_
 _atom_site_type_symbol
 _atom_site_label
 _atom_site_symmetry_multiplicity
 _atom_site_fract_x
 _atom_site_fract_y
 _atom_site_fract_z
 _atom_site_occupancy
  La  La0  1  0.347113  0.346291  0.346302  1
  La  La1  1  0.347687  0.348166  0.957967  1
  La  La2  1  0.347686  0.957972  0.348166  1
  La  La3  1  0.957952  0.347671  0.347670  1
  La  La4  1  0.810174  0.189786  0.189842  1
  La  La5  1  0.191644  0.806997  0.806972  1
  La  La6  1  0.189468  0.810596  0.189379  1
  La  La7  1  0.807527  0.191277  0.807474  1
  La  La8  1  0.189489  0.189410  0.810565  1
  La  La9  1  0.807487  0.807465  0.191303  1
  La  La10  1  0.940784  0.562448  0.562401  1
  La  La11  1  0.561500  0.937956  0.937978  1
  Pr  Pr12  1  0.561985  0.941110  0.562555  1
  Pr  Pr13  1  0.937989  0.561401  0.938312  1
  Pr  Pr14  1  0.561916  0.562492  0.941164  1
  Pr  Pr15  1  0.938049  0.938366  0.561334  1
  Cd  Cd16  1  0.579464  0.578648  0.260811  1
  Cd  Cd17  1  0.579482  0.260790  0.578647  1
  Cd  Cd18  1  0.261139  0.579500  0.579487  1
  In  In19  1  0.579595  0.579867  0.579868  1
  Ir  Ir20  1  0.141203  0.140757  0.140781  1
  Ir  Ir21  1  0.141526  0.141901  0.577589  1
  Ir  Ir22  1  0.141541  0.577589  0.141901  1
  Ir  Ir23  1  0.577594  0.141541  0.141529  1
