# generated using pymatgen
data_Nd2CrGeO8
_symmetry_space_group_name_H-M   'P 1'
_cell_length_a   6.16121620
_cell_length_b   6.16121553
_cell_length_c   6.16121568
_cell_angle_alpha   105.97512214
_cell_angle_beta   105.97511660
_cell_angle_gamma   116.71547111
_symmetry_Int_Tables_number   1
_chemical_formula_structural   Nd2CrGeO8
_chemical_formula_sum   'Nd2 Cr1 Ge1 O8'
_cell_volume   177.85882880
_cell_formula_units_Z   1
loop_
 _symmetry_equiv_pos_site_id
 _symmetry_equiv_pos_as_xyz
  1  'x, y, z'
loop_
 _atom_site_type_symbol
 _atom_site_label
 _atom_site_symmetry_multiplicity
 _atom_site_fract_x
 _atom_site_fract_y
 _atom_site_fract_z
 _atom_site_occupancy
  Nd  Nd0  1  0.000000  0.000000  0.000000  1
  Nd  Nd1  1  0.250000  0.750000  0.500000  1
  Cr  Cr2  1  0.500000  0.500000  0.000000  1
  Ge  Ge3  1  0.750000  0.250000  0.500000  1
  O  O4  1  0.341559  0.517538  0.175979  1
  O  O5  1  0.385834  0.068583  0.317250  1
  O  O6  1  0.751333  0.068583  0.682750  1
  O  O7  1  0.341559  0.165579  0.824021  1
  O  O8  1  0.834421  0.658441  0.175979  1
  O  O9  1  0.931417  0.248667  0.317250  1
  O  O10  1  0.931417  0.614166  0.682750  1
  O  O11  1  0.482462  0.658441  0.824021  1
