# generated using pymatgen
data_Tm6Co17TcP12
_symmetry_space_group_name_H-M   'P 1'
_cell_length_a   3.67634200
_cell_length_b   10.48103900
_cell_length_c   12.14699800
_cell_angle_alpha   90.00000000
_cell_angle_beta   90.00000000
_cell_angle_gamma   90.00000000
_symmetry_Int_Tables_number   1
_chemical_formula_structural   Tm6Co17TcP12
_chemical_formula_sum   'Tm6 Co17 Tc1 P12'
_cell_volume   468.04671642
_cell_formula_units_Z   1
loop_
 _symmetry_equiv_pos_site_id
 _symmetry_equiv_pos_as_xyz
  1  'x, y, z'
loop_
 _atom_site_type_symbol
 _atom_site_label
 _atom_site_symmetry_multiplicity
 _atom_site_fract_x
 _atom_site_fract_y
 _atom_site_fract_z
 _atom_site_occupancy
  Tm  Tm0  1  0.000000  0.500000  0.524456  1
  Tm  Tm1  1  0.500000  0.000000  0.477395  1
  Tm  Tm2  1  0.500000  0.817876  0.206823  1
  Tm  Tm3  1  0.500000  0.182124  0.206823  1
  Tm  Tm4  1  0.000000  0.682344  0.794859  1
  Tm  Tm5  1  0.000000  0.317656  0.794859  1
  Co  Co6  1  0.000000  0.000000  0.839491  1
  Co  Co7  1  0.500000  0.500000  0.702643  1
  Co  Co8  1  0.000000  0.000000  0.296731  1
  Co  Co9  1  0.000000  0.500000  0.987382  1
  Co  Co10  1  0.500000  0.000000  0.014812  1
  Co  Co11  1  0.500000  0.331930  0.990667  1
  Co  Co12  1  0.500000  0.668070  0.990667  1
  Co  Co13  1  0.000000  0.166444  0.006034  1
  Co  Co14  1  0.000000  0.833556  0.006034  1
  Co  Co15  1  0.500000  0.296793  0.431020  1
  Co  Co16  1  0.500000  0.703207  0.431020  1
  Co  Co17  1  0.000000  0.202903  0.568795  1
  Co  Co18  1  0.000000  0.797097  0.568795  1
  Co  Co19  1  0.500000  0.878339  0.708622  1
  Co  Co20  1  0.500000  0.121661  0.708622  1
  Co  Co21  1  0.000000  0.621540  0.292331  1
  Co  Co22  1  0.000000  0.378460  0.292331  1
  Tc  Tc23  1  0.500000  0.500000  0.157294  1
  P  P24  1  0.500000  0.500000  0.880481  1
  P  P25  1  0.000000  0.000000  0.118161  1
  P  P26  1  0.500000  0.500000  0.350472  1
  P  P27  1  0.000000  0.000000  0.654474  1
  P  P28  1  0.500000  0.312269  0.616925  1
  P  P29  1  0.500000  0.687731  0.616925  1
  P  P30  1  0.000000  0.187360  0.383708  1
  P  P31  1  0.000000  0.812640  0.383708  1
  P  P32  1  0.500000  0.849062  0.891281  1
  P  P33  1  0.500000  0.150938  0.891281  1
  P  P34  1  0.000000  0.656303  0.107037  1
  P  P35  1  0.000000  0.343697  0.107037  1
