# generated using pymatgen
data_LaPr11(PBr3)4
_symmetry_space_group_name_H-M   'P 1'
_cell_length_a   10.38029892
_cell_length_b   10.37475024
_cell_length_c   10.37620146
_cell_angle_alpha   109.50792968
_cell_angle_beta   109.44630001
_cell_angle_gamma   109.44062913
_symmetry_Int_Tables_number   1
_chemical_formula_structural   LaPr11(PBr3)4
_chemical_formula_sum   'La1 Pr11 P4 Br12'
_cell_volume   860.40834868
_cell_formula_units_Z   1
loop_
 _symmetry_equiv_pos_site_id
 _symmetry_equiv_pos_as_xyz
  1  'x, y, z'
loop_
 _atom_site_type_symbol
 _atom_site_label
 _atom_site_symmetry_multiplicity
 _atom_site_fract_x
 _atom_site_fract_y
 _atom_site_fract_z
 _atom_site_occupancy
  La  La0  1  0.476144  0.488072  0.238072  1
  Pr  Pr1  1  0.749972  0.235303  0.263754  1
  Pr  Pr2  1  0.749972  0.014669  0.486219  1
  Pr  Pr3  1  0.235557  0.471594  0.486182  1
  Pr  Pr4  1  0.263683  0.750329  0.235500  1
  Pr  Pr5  1  0.027247  0.263624  0.013624  1
  Pr  Pr6  1  0.013742  0.027969  0.264202  1
  Pr  Pr7  1  0.485188  0.750055  0.013559  1
  Pr  Pr8  1  0.485188  0.235133  0.471630  1
  Pr  Pr9  1  0.013742  0.485774  0.749541  1
  Pr  Pr10  1  0.263683  0.013354  0.028183  1
  Pr  Pr11  1  0.235557  0.263963  0.749374  1
  P  P12  1  0.249873  0.250183  0.249870  1
  P  P13  1  0.500043  0.000022  0.250022  1
  P  P14  1  0.999820  0.249910  0.499910  1
  P  P15  1  0.249873  0.499691  0.000003  1
  Br  Br16  1  0.249862  0.755605  0.744293  1
  Br  Br17  1  0.510903  0.505452  0.755452  1
  Br  Br18  1  0.988727  0.744363  0.994363  1
  Br  Br19  1  0.744500  0.250010  0.755531  1
  Br  Br20  1  0.994205  0.988924  0.744233  1
  Br  Br21  1  0.249862  0.994257  0.505568  1
  Br  Br22  1  0.756864  0.510945  0.507020  1
  Br  Br23  1  0.505111  0.247880  0.992463  1
  Br  Br24  1  0.756864  0.745918  0.249845  1
  Br  Br25  1  0.744500  0.994490  0.988970  1
  Br  Br26  1  0.994205  0.505282  0.249972  1
  Br  Br27  1  0.505111  0.757230  0.512647  1
