# generated using pymatgen
data_Lu2ThScAl2Rh3
_symmetry_space_group_name_H-M   'P 1'
_cell_length_a   7.29045769
_cell_length_b   7.11160388
_cell_length_c   4.06682700
_cell_angle_alpha   90.00000000
_cell_angle_beta   90.00000000
_cell_angle_gamma   120.34075305
_symmetry_Int_Tables_number   1
_chemical_formula_structural   Lu2ThScAl2Rh3
_chemical_formula_sum   'Lu2 Th1 Sc1 Al2 Rh3'
_cell_volume   181.97310308
_cell_formula_units_Z   1
loop_
 _symmetry_equiv_pos_site_id
 _symmetry_equiv_pos_as_xyz
  1  'x, y, z'
loop_
 _atom_site_type_symbol
 _atom_site_label
 _atom_site_symmetry_multiplicity
 _atom_site_fract_x
 _atom_site_fract_y
 _atom_site_fract_z
 _atom_site_occupancy
  Lu  Lu0  1  0.004214  0.395170  0.500000  1
  Lu  Lu1  1  0.566539  0.582720  0.500000  1
  Th  Th2  1  0.435533  0.010408  0.500000  1
  Sc  Sc3  1  0.984226  0.749625  0.000000  1
  Al  Al4  1  0.241813  0.252111  0.000000  1
  Al  Al5  1  0.769218  0.001696  0.000000  1
  Rh  Rh6  1  0.338018  0.678154  0.000000  1
  Rh  Rh7  1  0.655660  0.321986  0.000000  1
  Rh  Rh8  1  0.004780  0.008131  0.500000  1
