# generated using pymatgen
data_TbHoNb4(B2Ru5)2
_symmetry_space_group_name_H-M   'P 1'
_cell_length_a   9.57104729
_cell_length_b   9.57104799
_cell_length_c   3.09322200
_cell_angle_alpha   90.00000000
_cell_angle_beta   90.00000000
_cell_angle_gamma   90.75716617
_symmetry_Int_Tables_number   1
_chemical_formula_structural   TbHoNb4(B2Ru5)2
_chemical_formula_sum   'Tb1 Ho1 Nb4 B4 Ru10'
_cell_volume   283.32971403
_cell_formula_units_Z   1
loop_
 _symmetry_equiv_pos_site_id
 _symmetry_equiv_pos_as_xyz
  1  'x, y, z'
loop_
 _atom_site_type_symbol
 _atom_site_label
 _atom_site_symmetry_multiplicity
 _atom_site_fract_x
 _atom_site_fract_y
 _atom_site_fract_z
 _atom_site_occupancy
  Tb  Tb0  1  0.823894  0.676106  0.000000  1
  Ho  Ho1  1  0.176308  0.323692  0.000000  1
  Nb  Nb2  1  0.324516  0.824600  0.000000  1
  Nb  Nb3  1  0.675400  0.175484  0.000000  1
  Nb  Nb4  1  0.499530  0.499803  0.000000  1
  Nb  Nb5  1  0.000197  0.000470  0.000000  1
  B  B6  1  0.620389  0.879611  0.000000  1
  B  B7  1  0.379126  0.120874  0.000000  1
  B  B8  1  0.121601  0.621185  0.000000  1
  B  B9  1  0.878815  0.378399  0.000000  1
  Ru  Ru10  1  0.559096  0.723272  0.500000  1
  Ru  Ru11  1  0.440107  0.277039  0.500000  1
  Ru  Ru12  1  0.081790  0.784866  0.500000  1
  Ru  Ru13  1  0.919039  0.215225  0.500000  1
  Ru  Ru14  1  0.284775  0.580961  0.500000  1
  Ru  Ru15  1  0.715134  0.418210  0.500000  1
  Ru  Ru16  1  0.222961  0.059893  0.500000  1
  Ru  Ru17  1  0.776728  0.940904  0.500000  1
  Ru  Ru18  1  0.499864  0.000136  0.500000  1
  Ru  Ru19  1  0.000730  0.499270  0.500000  1
