# generated using pymatgen
data_Lu2Co9B6Sb
_symmetry_space_group_name_H-M   'P 1'
_cell_length_a   5.76088397
_cell_length_b   5.76088356
_cell_length_c   5.76088325
_cell_angle_alpha   95.66315515
_cell_angle_beta   95.66316131
_cell_angle_gamma   95.66316960
_symmetry_Int_Tables_number   1
_chemical_formula_structural   Lu2Co9B6Sb
_chemical_formula_sum   'Lu2 Co9 B6 Sb1'
_cell_volume   188.19103156
_cell_formula_units_Z   1
loop_
 _symmetry_equiv_pos_site_id
 _symmetry_equiv_pos_as_xyz
  1  'x, y, z'
loop_
 _atom_site_type_symbol
 _atom_site_label
 _atom_site_symmetry_multiplicity
 _atom_site_fract_x
 _atom_site_fract_y
 _atom_site_fract_z
 _atom_site_occupancy
  Lu  Lu0  1  0.672681  0.672681  0.672681  1
  Lu  Lu1  1  0.327319  0.327319  0.327319  1
  Co  Co2  1  0.000000  0.000000  0.500000  1
  Co  Co3  1  0.500000  0.000000  0.000000  1
  Co  Co4  1  0.000000  0.500000  0.000000  1
  Co  Co5  1  0.702841  0.197301  0.702841  1
  Co  Co6  1  0.702841  0.702841  0.197301  1
  Co  Co7  1  0.197301  0.702841  0.702841  1
  Co  Co8  1  0.297159  0.802699  0.297159  1
  Co  Co9  1  0.297159  0.297159  0.802699  1
  Co  Co10  1  0.802699  0.297159  0.297159  1
  B  B11  1  0.614341  0.385659  0.000000  1
  B  B12  1  0.000000  0.614341  0.385659  1
  B  B13  1  0.385659  0.000000  0.614341  1
  B  B14  1  0.000000  0.385659  0.614341  1
  B  B15  1  0.614341  0.000000  0.385659  1
  B  B16  1  0.385659  0.614341  0.000000  1
  Sb  Sb17  1  0.000000  0.000000  0.000000  1
