# generated using pymatgen
data_Y12AlZn2InCo2
_symmetry_space_group_name_H-M   'P 1'
_cell_length_a   8.50548753
_cell_length_b   8.50548774
_cell_length_c   8.50548788
_cell_angle_alpha   112.67836311
_cell_angle_beta   110.06385493
_cell_angle_gamma   105.74611384
_symmetry_Int_Tables_number   1
_chemical_formula_structural   Y12AlZn2InCo2
_chemical_formula_sum   'Y12 Al1 Zn2 In1 Co2'
_cell_volume   471.91708135
_cell_formula_units_Z   1
loop_
 _symmetry_equiv_pos_site_id
 _symmetry_equiv_pos_as_xyz
  1  'x, y, z'
loop_
 _atom_site_type_symbol
 _atom_site_label
 _atom_site_symmetry_multiplicity
 _atom_site_fract_x
 _atom_site_fract_y
 _atom_site_fract_z
 _atom_site_occupancy
  Y  Y0  1  0.432737  0.238748  0.193989  1
  Y  Y1  1  0.567263  0.761252  0.806011  1
  Y  Y2  1  0.044759  0.238748  0.806011  1
  Y  Y3  1  0.955241  0.761252  0.193989  1
  Y  Y4  1  0.181898  0.287268  0.469165  1
  Y  Y5  1  0.818102  0.712732  0.530835  1
  Y  Y6  1  0.181898  0.712732  0.894630  1
  Y  Y7  1  0.818102  0.287268  0.105370  1
  Y  Y8  1  0.306018  0.615747  0.309731  1
  Y  Y9  1  0.693982  0.384253  0.690269  1
  Y  Y10  1  0.306018  0.996288  0.690269  1
  Y  Y11  1  0.693982  0.003712  0.309731  1
  Al  Al12  1  0.000000  0.000000  0.000000  1
  Zn  Zn13  1  0.347981  0.000000  0.347981  1
  Zn  Zn14  1  0.652019  0.000000  0.652019  1
  In  In15  1  0.500000  0.500000  0.000000  1
  Co  Co16  1  0.108447  0.608447  0.500000  1
  Co  Co17  1  0.891553  0.391553  0.500000  1
