# generated using pymatgen
data_CaNd4GaSn2
_symmetry_space_group_name_H-M   'P 1'
_cell_length_a   9.20368914
_cell_length_b   9.20368923
_cell_length_c   9.24471554
_cell_angle_alpha   127.11163448
_cell_angle_beta   127.11164110
_cell_angle_gamma   77.75343193
_symmetry_Int_Tables_number   1
_chemical_formula_structural   CaNd4GaSn2
_chemical_formula_sum   'Ca2 Nd8 Ga2 Sn4'
_cell_volume   483.58653404
_cell_formula_units_Z   2
loop_
 _symmetry_equiv_pos_site_id
 _symmetry_equiv_pos_as_xyz
  1  'x, y, z'
loop_
 _atom_site_type_symbol
 _atom_site_label
 _atom_site_symmetry_multiplicity
 _atom_site_fract_x
 _atom_site_fract_y
 _atom_site_fract_z
 _atom_site_occupancy
  Ca  Ca0  1  0.500000  0.500000  0.000000  1
  Ca  Ca1  1  0.000000  0.000000  0.000000  1
  Nd  Nd2  1  0.510108  0.010108  0.818124  1
  Nd  Nd3  1  0.191983  0.691983  0.181876  1
  Nd  Nd4  1  0.033127  0.176303  0.500000  1
  Nd  Nd5  1  0.676303  0.533127  0.500000  1
  Nd  Nd6  1  0.489892  0.989892  0.181876  1
  Nd  Nd7  1  0.808017  0.308017  0.818124  1
  Nd  Nd8  1  0.966873  0.823697  0.500000  1
  Nd  Nd9  1  0.323697  0.466873  0.500000  1
  Ga  Ga10  1  0.379808  0.120192  0.500000  1
  Ga  Ga11  1  0.620192  0.879808  0.500000  1
  Sn  Sn12  1  0.250000  0.250000  0.000000  1
  Sn  Sn13  1  0.750000  0.750000  0.000000  1
  Sn  Sn14  1  0.870556  0.370556  0.241111  1
  Sn  Sn15  1  0.129444  0.629444  0.758889  1
