# generated using pymatgen
data_Be9Nb2W
_symmetry_space_group_name_H-M   'P 1'
_cell_length_a   7.45758724
_cell_length_b   7.45758736
_cell_length_c   7.45758739
_cell_angle_alpha   35.21343616
_cell_angle_beta   35.21343793
_cell_angle_gamma   35.21343273
_symmetry_Int_Tables_number   1
_chemical_formula_structural   Be9Nb2W
_chemical_formula_sum   'Be9 Nb2 W1'
_cell_volume   123.17784033
_cell_formula_units_Z   1
loop_
 _symmetry_equiv_pos_site_id
 _symmetry_equiv_pos_as_xyz
  1  'x, y, z'
loop_
 _atom_site_type_symbol
 _atom_site_label
 _atom_site_symmetry_multiplicity
 _atom_site_fract_x
 _atom_site_fract_y
 _atom_site_fract_z
 _atom_site_occupancy
  Be  Be0  1  0.499548  0.499548  0.499548  1
  Be  Be1  1  0.333886  0.333886  0.333887  1
  Be  Be2  1  0.665212  0.665212  0.665211  1
  Be  Be3  1  0.078383  0.583549  0.583549  1
  Be  Be4  1  0.583549  0.583549  0.078383  1
  Be  Be5  1  0.583549  0.078383  0.583549  1
  Be  Be6  1  0.415293  0.924398  0.415293  1
  Be  Be7  1  0.924398  0.415293  0.415293  1
  Be  Be8  1  0.415293  0.415293  0.924398  1
  Nb  Nb9  1  0.001299  0.001299  0.001299  1
  Nb  Nb10  1  0.857796  0.857796  0.857796  1
  W  W11  1  0.141792  0.141792  0.141792  1
