# generated using pymatgen
data_Cs2V(SeO3)3
_symmetry_space_group_name_H-M   'P 1'
_cell_length_a   8.09865900
_cell_length_b   8.09907302
_cell_length_c   10.00021000
_cell_angle_alpha   90.00000000
_cell_angle_beta   90.00000000
_cell_angle_gamma   119.99500485
_symmetry_Int_Tables_number   1
_chemical_formula_structural   Cs2V(SeO3)3
_chemical_formula_sum   'Cs4 V2 Se6 O18'
_cell_volume   568.08070293
_cell_formula_units_Z   2
loop_
 _symmetry_equiv_pos_site_id
 _symmetry_equiv_pos_as_xyz
  1  'x, y, z'
loop_
 _atom_site_type_symbol
 _atom_site_label
 _atom_site_symmetry_multiplicity
 _atom_site_fract_x
 _atom_site_fract_y
 _atom_site_fract_z
 _atom_site_occupancy
  Cs  Cs0  1  0.329642  0.661755  0.042754  1
  Cs  Cs1  1  0.329642  0.661755  0.457246  1
  Cs  Cs2  1  0.670384  0.338278  0.542714  1
  Cs  Cs3  1  0.670384  0.338278  0.957287  1
  V  V4  1  0.999991  0.000031  0.999970  1
  V  V5  1  0.999991  0.000031  0.500030  1
  Se  Se6  1  0.784382  0.081490  0.250000  1
  Se  Se7  1  0.301988  0.216751  0.250000  1
  Se  Se8  1  0.922313  0.696700  0.250000  1
  Se  Se9  1  0.077674  0.303274  0.750001  1
  Se  Se10  1  0.697982  0.783213  0.750001  1
  Se  Se11  1  0.215737  0.918517  0.750001  1
  O  O12  1  0.162306  0.220825  0.113122  1
  O  O13  1  0.780208  0.937766  0.112044  1
  O  O14  1  0.060702  0.831363  0.111149  1
  O  O15  1  0.557113  0.028777  0.250000  1
  O  O16  1  0.973528  0.519709  0.250000  1
  O  O17  1  0.475109  0.445665  0.250000  1
  O  O18  1  0.060702  0.831363  0.388851  1
  O  O19  1  0.780208  0.937766  0.387956  1
  O  O20  1  0.162306  0.220825  0.386877  1
  O  O21  1  0.939232  0.168623  0.611154  1
  O  O22  1  0.837659  0.779122  0.613063  1
  O  O23  1  0.219851  0.062243  0.612015  1
  O  O24  1  0.524755  0.554358  0.750001  1
  O  O25  1  0.026460  0.480261  0.750001  1
  O  O26  1  0.443001  0.971272  0.750001  1
  O  O27  1  0.939232  0.168623  0.888845  1
  O  O28  1  0.837659  0.779122  0.886937  1
  O  O29  1  0.219851  0.062243  0.887985  1
