# generated using pymatgen
data_La21Fe8Si(SnC2)6
_symmetry_space_group_name_H-M   'P 1'
_cell_length_a   11.61832906
_cell_length_b   11.59855472
_cell_length_c   11.61832980
_cell_angle_alpha   60.05628214
_cell_angle_beta   59.88742836
_cell_angle_gamma   60.05628544
_symmetry_Int_Tables_number   1
_chemical_formula_structural   La21Fe8Si(SnC2)6
_chemical_formula_sum   'La21 Fe8 Si1 Sn6 C12'
_cell_volume   1107.06654194
_cell_formula_units_Z   1
loop_
 _symmetry_equiv_pos_site_id
 _symmetry_equiv_pos_as_xyz
  1  'x, y, z'
loop_
 _atom_site_type_symbol
 _atom_site_label
 _atom_site_symmetry_multiplicity
 _atom_site_fract_x
 _atom_site_fract_y
 _atom_site_fract_z
 _atom_site_occupancy
  La  La0  1  0.630486  0.636218  0.097076  1
  La  La1  1  0.363782  0.902924  0.363782  1
  La  La2  1  0.634965  0.095934  0.634965  1
  La  La3  1  0.661527  0.000290  0.999710  1
  La  La4  1  0.999923  0.661654  0.999923  1
  La  La5  1  0.005697  0.662008  0.337992  1
  La  La6  1  0.338346  0.000077  0.661500  1
  La  La7  1  0.363782  0.369514  0.363782  1
  La  La8  1  0.097076  0.636218  0.630486  1
  La  La9  1  0.999710  0.000290  0.661527  1
  La  La10  1  0.661500  0.000077  0.338346  1
  La  La11  1  0.005697  0.994303  0.337992  1
  La  La12  1  0.661527  0.338473  0.999710  1
  La  La13  1  0.634965  0.634135  0.634965  1
  La  La14  1  0.337992  0.662008  0.005697  1
  La  La15  1  0.999710  0.338473  0.661527  1
  La  La16  1  0.487896  0.512104  0.487896  1
  La  La17  1  0.337992  0.994303  0.005697  1
  La  La18  1  0.365865  0.365035  0.904066  1
  La  La19  1  0.999923  0.338500  0.999923  1
  La  La20  1  0.904066  0.365035  0.365865  1
  Fe  Fe21  1  0.196456  0.196424  0.410695  1
  Fe  Fe22  1  0.803944  0.803670  0.588718  1
  Fe  Fe23  1  0.803576  0.589306  0.803576  1
  Fe  Fe24  1  0.803576  0.803544  0.803576  1
  Fe  Fe25  1  0.410695  0.196424  0.196456  1
  Fe  Fe26  1  0.196330  0.196056  0.196330  1
  Fe  Fe27  1  0.196330  0.411283  0.196330  1
  Fe  Fe28  1  0.588718  0.803670  0.803944  1
  Si  Si29  1  0.293317  0.706683  0.293317  1
  Sn  Sn30  1  0.711238  0.288762  0.290135  1
  Sn  Sn31  1  0.709316  0.290684  0.709316  1
  Sn  Sn32  1  0.290135  0.709865  0.711238  1
  Sn  Sn33  1  0.000541  0.999459  0.000541  1
  Sn  Sn34  1  0.711238  0.709865  0.290135  1
  Sn  Sn35  1  0.290135  0.288762  0.711238  1
  C  C36  1  0.609331  0.890148  0.891193  1
  C  C37  1  0.109852  0.390669  0.390671  1
  C  C38  1  0.609664  0.890336  0.609664  1
  C  C39  1  0.390671  0.390669  0.109852  1
  C  C40  1  0.609331  0.609329  0.891193  1
  C  C41  1  0.390305  0.109695  0.390305  1
  C  C42  1  0.109664  0.390336  0.109664  1
  C  C43  1  0.891193  0.890148  0.609331  1
  C  C44  1  0.890305  0.609695  0.890305  1
  C  C45  1  0.891193  0.609329  0.609331  1
  C  C46  1  0.109852  0.108807  0.390671  1
  C  C47  1  0.390671  0.108807  0.109852  1
