# generated using pymatgen
data_Ho4GaBr6
_symmetry_space_group_name_H-M   'P 1'
_cell_length_a   4.05943300
_cell_length_b   13.23385400
_cell_length_c   14.04813400
_cell_angle_alpha   90.00000000
_cell_angle_beta   90.00000000
_cell_angle_gamma   90.00000000
_symmetry_Int_Tables_number   1
_chemical_formula_structural   Ho4GaBr6
_chemical_formula_sum   'Ho8 Ga2 Br12'
_cell_volume   754.69306306
_cell_formula_units_Z   2
loop_
 _symmetry_equiv_pos_site_id
 _symmetry_equiv_pos_as_xyz
  1  'x, y, z'
loop_
 _atom_site_type_symbol
 _atom_site_label
 _atom_site_symmetry_multiplicity
 _atom_site_fract_x
 _atom_site_fract_y
 _atom_site_fract_z
 _atom_site_occupancy
  Ho  Ho0  1  0.500000  0.118917  0.339807  1
  Ho  Ho1  1  0.500000  0.881083  0.660193  1
  Ho  Ho2  1  0.500000  0.618917  0.160193  1
  Ho  Ho3  1  0.500000  0.381083  0.839807  1
  Ho  Ho4  1  0.000000  0.119678  0.579329  1
  Ho  Ho5  1  0.000000  0.880322  0.420671  1
  Ho  Ho6  1  0.000000  0.619678  0.920671  1
  Ho  Ho7  1  0.000000  0.380322  0.079329  1
  Ga  Ga8  1  0.500000  0.000000  0.500000  1
  Ga  Ga9  1  0.500000  0.500000  0.000000  1
  Br  Br10  1  0.500000  0.244309  0.162796  1
  Br  Br11  1  0.500000  0.755691  0.837204  1
  Br  Br12  1  0.500000  0.744309  0.337204  1
  Br  Br13  1  0.500000  0.255691  0.662796  1
  Br  Br14  1  0.000000  0.255431  0.411066  1
  Br  Br15  1  0.000000  0.744569  0.588934  1
  Br  Br16  1  0.000000  0.755431  0.088934  1
  Br  Br17  1  0.000000  0.244569  0.911066  1
  Br  Br18  1  0.000000  0.001915  0.243040  1
  Br  Br19  1  0.000000  0.998085  0.756960  1
  Br  Br20  1  0.000000  0.501915  0.256960  1
  Br  Br21  1  0.000000  0.498085  0.743040  1
