# generated using pymatgen
data_LuHf(SnIr)2
_symmetry_space_group_name_H-M   'P 1'
_cell_length_a   7.44321600
_cell_length_b   7.44321415
_cell_length_c   7.50276500
_cell_angle_alpha   90.00000000
_cell_angle_beta   90.00000000
_cell_angle_gamma   120.00000824
_symmetry_Int_Tables_number   1
_chemical_formula_structural   LuHf(SnIr)2
_chemical_formula_sum   'Lu3 Hf3 Sn6 Ir6'
_cell_volume   359.97560951
_cell_formula_units_Z   3
loop_
 _symmetry_equiv_pos_site_id
 _symmetry_equiv_pos_as_xyz
  1  'x, y, z'
loop_
 _atom_site_type_symbol
 _atom_site_label
 _atom_site_symmetry_multiplicity
 _atom_site_fract_x
 _atom_site_fract_y
 _atom_site_fract_z
 _atom_site_occupancy
  Lu  Lu0  1  0.000067  0.405400  0.750000  1
  Lu  Lu1  1  0.594600  0.594667  0.750000  1
  Lu  Lu2  1  0.405333  0.999933  0.750000  1
  Hf  Hf3  1  0.998614  0.390619  0.250000  1
  Hf  Hf4  1  0.609381  0.607994  0.250000  1
  Hf  Hf5  1  0.392006  0.001386  0.250000  1
  Sn  Sn6  1  0.266878  0.267477  0.496540  1
  Sn  Sn7  1  0.000597  0.733122  0.496540  1
  Sn  Sn8  1  0.000597  0.733122  0.003460  1
  Sn  Sn9  1  0.732523  0.999403  0.496540  1
  Sn  Sn10  1  0.732523  0.999403  0.003460  1
  Sn  Sn11  1  0.266878  0.267477  0.003460  1
  Ir  Ir12  1  0.333333  0.666667  0.466863  1
  Ir  Ir13  1  0.666667  0.333333  0.468710  1
  Ir  Ir14  1  0.333333  0.666667  0.033137  1
  Ir  Ir15  1  0.000000  0.000000  0.750000  1
  Ir  Ir16  1  0.000000  0.000000  0.250000  1
  Ir  Ir17  1  0.666667  0.333333  0.031290  1
