# generated using pymatgen
data_Hf9Ta(Sn3P)2
_symmetry_space_group_name_H-M   'P 1'
_cell_length_a   8.52134500
_cell_length_b   8.52134540
_cell_length_c   5.84212700
_cell_angle_alpha   90.00000000
_cell_angle_beta   90.00000000
_cell_angle_gamma   119.99999455
_symmetry_Int_Tables_number   1
_chemical_formula_structural   Hf9Ta(Sn3P)2
_chemical_formula_sum   'Hf9 Ta1 Sn6 P2'
_cell_volume   367.38207892
_cell_formula_units_Z   1
loop_
 _symmetry_equiv_pos_site_id
 _symmetry_equiv_pos_as_xyz
  1  'x, y, z'
loop_
 _atom_site_type_symbol
 _atom_site_label
 _atom_site_symmetry_multiplicity
 _atom_site_fract_x
 _atom_site_fract_y
 _atom_site_fract_z
 _atom_site_occupancy
  Hf  Hf0  1  0.666667  0.333333  0.500000  1
  Hf  Hf1  1  0.666667  0.333333  0.000000  1
  Hf  Hf2  1  0.333333  0.666667  0.500000  1
  Hf  Hf3  1  0.252370  0.999234  0.249516  1
  Hf  Hf4  1  0.252370  0.253136  0.750484  1
  Hf  Hf5  1  0.000766  0.747630  0.750484  1
  Hf  Hf6  1  0.000766  0.253136  0.249516  1
  Hf  Hf7  1  0.746864  0.747630  0.249516  1
  Hf  Hf8  1  0.746864  0.999234  0.750484  1
  Ta  Ta9  1  0.333333  0.666667  0.000000  1
  Sn  Sn10  1  0.599839  0.998193  0.248035  1
  Sn  Sn11  1  0.599839  0.601646  0.751965  1
  Sn  Sn12  1  0.001807  0.400161  0.751965  1
  Sn  Sn13  1  0.001807  0.601646  0.248035  1
  Sn  Sn14  1  0.398354  0.400161  0.248035  1
  Sn  Sn15  1  0.398354  0.998193  0.751965  1
  P  P16  1  0.000000  0.000000  0.000000  1
  P  P17  1  0.000000  0.000000  0.500000  1
