# generated using pymatgen
data_Ba3LiBiO6
_symmetry_space_group_name_H-M   'P 1'
_cell_length_a   7.29669921
_cell_length_b   7.29669921
_cell_length_c   7.29669936
_cell_angle_alpha   92.87577961
_cell_angle_beta   92.87577843
_cell_angle_gamma   92.87577288
_symmetry_Int_Tables_number   1
_chemical_formula_structural   Ba3LiBiO6
_chemical_formula_sum   'Ba6 Li2 Bi2 O12'
_cell_volume   386.97071930
_cell_formula_units_Z   2
loop_
 _symmetry_equiv_pos_site_id
 _symmetry_equiv_pos_as_xyz
  1  'x, y, z'
loop_
 _atom_site_type_symbol
 _atom_site_label
 _atom_site_symmetry_multiplicity
 _atom_site_fract_x
 _atom_site_fract_y
 _atom_site_fract_z
 _atom_site_occupancy
  Ba  Ba0  1  0.601047  0.898953  0.250000  1
  Ba  Ba1  1  0.250000  0.601047  0.898953  1
  Ba  Ba2  1  0.898953  0.250000  0.601047  1
  Ba  Ba3  1  0.750000  0.398953  0.101047  1
  Ba  Ba4  1  0.101047  0.750000  0.398953  1
  Ba  Ba5  1  0.398953  0.101047  0.750000  1
  Li  Li6  1  0.250000  0.250000  0.250000  1
  Li  Li7  1  0.750000  0.750000  0.750000  1
  Bi  Bi8  1  0.000000  0.000000  0.000000  1
  Bi  Bi9  1  0.500000  0.500000  0.500000  1
  O  O10  1  0.281690  0.955406  0.084763  1
  O  O11  1  0.084763  0.281690  0.955406  1
  O  O12  1  0.955406  0.084763  0.281690  1
  O  O13  1  0.584763  0.455406  0.781690  1
  O  O14  1  0.781690  0.584763  0.455406  1
  O  O15  1  0.455406  0.781690  0.584763  1
  O  O16  1  0.718310  0.044594  0.915237  1
  O  O17  1  0.915237  0.718310  0.044594  1
  O  O18  1  0.044594  0.915237  0.718310  1
  O  O19  1  0.415237  0.544594  0.218310  1
  O  O20  1  0.218310  0.415237  0.544594  1
  O  O21  1  0.544594  0.218310  0.415237  1
