# generated using pymatgen
data_Tb3Y4Ho13Pt16
_symmetry_space_group_name_H-M   'P 1'
_cell_length_a   7.48038201
_cell_length_b   7.55988614
_cell_length_c   14.75139200
_cell_angle_alpha   90.00376470
_cell_angle_beta   90.00140954
_cell_angle_gamma   89.99005585
_symmetry_Int_Tables_number   1
_chemical_formula_structural   Tb3Y4Ho13Pt16
_chemical_formula_sum   'Tb3 Y4 Ho13 Pt16'
_cell_volume   834.20353911
_cell_formula_units_Z   1
loop_
 _symmetry_equiv_pos_site_id
 _symmetry_equiv_pos_as_xyz
  1  'x, y, z'
loop_
 _atom_site_type_symbol
 _atom_site_label
 _atom_site_symmetry_multiplicity
 _atom_site_fract_x
 _atom_site_fract_y
 _atom_site_fract_z
 _atom_site_occupancy
  Tb  Tb0  1  0.498004  0.679927  0.093048  1
  Tb  Tb1  1  0.502070  0.320016  0.593015  1
  Tb  Tb2  1  0.001999  0.179952  0.906986  1
  Y  Y3  1  0.001777  0.179601  0.592894  1
  Y  Y4  1  0.501905  0.320125  0.906976  1
  Y  Y5  1  0.498102  0.680027  0.407002  1
  Y  Y6  1  0.998185  0.820075  0.093005  1
  Ho  Ho7  1  0.681398  0.988514  0.250164  1
  Ho  Ho8  1  0.181045  0.511559  0.250125  1
  Ho  Ho9  1  0.818780  0.488566  0.749958  1
  Ho  Ho10  1  0.318827  0.011391  0.749994  1
  Ho  Ho11  1  0.656411  0.832395  0.622260  1
  Ho  Ho12  1  0.156308  0.667645  0.877657  1
  Ho  Ho13  1  0.843804  0.332315  0.377717  1
  Ho  Ho14  1  0.343660  0.167633  0.122355  1
  Ho  Ho15  1  0.343326  0.167383  0.377727  1
  Ho  Ho16  1  0.843662  0.332337  0.122403  1
  Ho  Ho17  1  0.156121  0.667841  0.622212  1
  Ho  Ho18  1  0.656379  0.832360  0.877616  1
  Ho  Ho19  1  0.997504  0.819766  0.406852  1
  Pt  Pt20  1  0.816489  0.642471  0.250517  1
  Pt  Pt21  1  0.315753  0.857927  0.250058  1
  Pt  Pt22  1  0.683964  0.142059  0.749878  1
  Pt  Pt23  1  0.183992  0.357961  0.750103  1
  Pt  Pt24  1  0.546645  0.386370  0.249955  1
  Pt  Pt25  1  0.046447  0.113402  0.250246  1
  Pt  Pt26  1  0.953455  0.886256  0.750049  1
  Pt  Pt27  1  0.453467  0.613718  0.749956  1
  Pt  Pt28  1  0.817168  0.533415  0.541912  1
  Pt  Pt29  1  0.317026  0.966954  0.957930  1
  Pt  Pt30  1  0.683924  0.032388  0.457772  1
  Pt  Pt31  1  0.182925  0.467023  0.042052  1
  Pt  Pt32  1  0.182542  0.467817  0.457702  1
  Pt  Pt33  1  0.682814  0.033009  0.042086  1
  Pt  Pt34  1  0.316971  0.966830  0.541912  1
  Pt  Pt35  1  0.817147  0.532973  0.957905  1
