# generated using pymatgen
data_Ho6Al24Ir3Ru4Au
_symmetry_space_group_name_H-M   'P 1'
_cell_length_a   8.84786738
_cell_length_b   8.85283816
_cell_length_c   9.51800487
_cell_angle_alpha   89.73716781
_cell_angle_beta   90.15234101
_cell_angle_gamma   120.02418299
_symmetry_Int_Tables_number   1
_chemical_formula_structural   Ho6Al24Ir3Ru4Au
_chemical_formula_sum   'Ho6 Al24 Ir3 Ru4 Au1'
_cell_volume   645.48654410
_cell_formula_units_Z   1
loop_
 _symmetry_equiv_pos_site_id
 _symmetry_equiv_pos_as_xyz
  1  'x, y, z'
loop_
 _atom_site_type_symbol
 _atom_site_label
 _atom_site_symmetry_multiplicity
 _atom_site_fract_x
 _atom_site_fract_y
 _atom_site_fract_z
 _atom_site_occupancy
  Ho  Ho0  1  0.192864  0.386540  0.250590  1
  Ho  Ho1  1  0.807136  0.613460  0.749410  1
  Ho  Ho2  1  0.613277  0.807419  0.250171  1
  Ho  Ho3  1  0.386723  0.192581  0.749829  1
  Ho  Ho4  1  0.194218  0.806848  0.253683  1
  Ho  Ho5  1  0.805782  0.193152  0.746317  1
  Al  Al6  1  0.330267  0.673505  0.028024  1
  Al  Al7  1  0.669733  0.326495  0.971976  1
  Al  Al8  1  0.665431  0.334548  0.523472  1
  Al  Al9  1  0.334569  0.665452  0.476528  1
  Al  Al10  1  0.163000  0.325180  0.575871  1
  Al  Al11  1  0.837000  0.674820  0.424129  1
  Al  Al12  1  0.674715  0.837078  0.575438  1
  Al  Al13  1  0.848105  0.678252  0.079809  1
  Al  Al14  1  0.325285  0.162922  0.424562  1
  Al  Al15  1  0.151895  0.321748  0.920191  1
  Al  Al16  1  0.162845  0.837494  0.576887  1
  Al  Al17  1  0.322709  0.151008  0.079401  1
  Al  Al18  1  0.837155  0.162506  0.423113  1
  Al  Al19  1  0.677291  0.848992  0.920599  1
  Al  Al20  1  0.836000  0.161682  0.077249  1
  Al  Al21  1  0.164000  0.838318  0.922751  1
  Al  Al22  1  0.562215  0.122670  0.248123  1
  Al  Al23  1  0.437785  0.877330  0.751877  1
  Al  Al24  1  0.875912  0.437167  0.249722  1
  Al  Al25  1  0.124088  0.562833  0.750278  1
  Al  Al26  1  0.564556  0.435716  0.257477  1
  Al  Al27  1  0.435444  0.564284  0.742523  1
  Al  Al28  1  0.000282  0.000947  0.250372  1
  Al  Al29  1  0.999718  0.999053  0.749628  1
  Ir  Ir30  1  0.000000  0.500000  0.000000  1
  Ir  Ir31  1  0.500000  0.000000  0.500000  1
  Ir  Ir32  1  0.000000  0.500000  0.500000  1
  Ru  Ru33  1  0.500000  0.000000  0.000000  1
  Ru  Ru34  1  0.500000  0.500000  0.500000  1
  Ru  Ru35  1  0.000000  0.000000  0.000000  1
  Ru  Ru36  1  0.000000  0.000000  0.500000  1
  Au  Au37  1  0.500000  0.500000  0.000000  1
