# generated using pymatgen
data_Y8Cd2OsPd
_symmetry_space_group_name_H-M   'P 1'
_cell_length_a   9.70312485
_cell_length_b   9.70312509
_cell_length_c   9.80954600
_cell_angle_alpha   59.63651667
_cell_angle_beta   59.63651583
_cell_angle_gamma   59.44600455
_symmetry_Int_Tables_number   1
_chemical_formula_structural   Y8Cd2OsPd
_chemical_formula_sum   'Y16 Cd4 Os2 Pd2'
_cell_volume   646.72229849
_cell_formula_units_Z   2
loop_
 _symmetry_equiv_pos_site_id
 _symmetry_equiv_pos_as_xyz
  1  'x, y, z'
loop_
 _atom_site_type_symbol
 _atom_site_label
 _atom_site_symmetry_multiplicity
 _atom_site_fract_x
 _atom_site_fract_y
 _atom_site_fract_z
 _atom_site_occupancy
  Y  Y0  1  0.350380  0.350380  0.355001  1
  Y  Y1  1  0.350380  0.350380  0.944239  1
  Y  Y2  1  0.345596  0.954061  0.350172  1
  Y  Y3  1  0.954061  0.345596  0.350172  1
  Y  Y4  1  0.815466  0.187402  0.191170  1
  Y  Y5  1  0.187402  0.815466  0.805963  1
  Y  Y6  1  0.187402  0.815466  0.191170  1
  Y  Y7  1  0.815466  0.187402  0.805963  1
  Y  Y8  1  0.188177  0.188177  0.811823  1
  Y  Y9  1  0.808409  0.808409  0.191591  1
  Y  Y10  1  0.937035  0.557145  0.567619  1
  Y  Y11  1  0.557145  0.937035  0.938203  1
  Y  Y12  1  0.557145  0.937035  0.567619  1
  Y  Y13  1  0.937035  0.557145  0.938203  1
  Y  Y14  1  0.564119  0.564119  0.935881  1
  Y  Y15  1  0.938580  0.938580  0.561420  1
  Cd  Cd16  1  0.580089  0.580089  0.580737  1
  Cd  Cd17  1  0.580089  0.580089  0.259084  1
  Cd  Cd18  1  0.581330  0.255641  0.581514  1
  Cd  Cd19  1  0.255641  0.581330  0.581514  1
  Os  Os20  1  0.145188  0.145188  0.136735  1
  Os  Os21  1  0.145188  0.145188  0.572889  1
  Pd  Pd22  1  0.146299  0.572380  0.140661  1
  Pd  Pd23  1  0.572380  0.146299  0.140661  1
