# generated using pymatgen
data_Ba4Te3IrO16
_symmetry_space_group_name_H-M   'P 1'
_cell_length_a   5.17112722
_cell_length_b   6.03608420
_cell_length_c   13.69766300
_cell_angle_alpha   90.00000000
_cell_angle_beta   90.00000000
_cell_angle_gamma   89.75117660
_symmetry_Int_Tables_number   1
_chemical_formula_structural   Ba4Te3IrO16
_chemical_formula_sum   'Ba4 Te3 Ir1 O16'
_cell_volume   427.54604487
_cell_formula_units_Z   1
loop_
 _symmetry_equiv_pos_site_id
 _symmetry_equiv_pos_as_xyz
  1  'x, y, z'
loop_
 _atom_site_type_symbol
 _atom_site_label
 _atom_site_symmetry_multiplicity
 _atom_site_fract_x
 _atom_site_fract_y
 _atom_site_fract_z
 _atom_site_occupancy
  Ba  Ba0  1  0.250000  0.000000  0.163573  1
  Ba  Ba1  1  0.750000  0.000000  0.834213  1
  Ba  Ba2  1  0.250000  0.500000  0.661693  1
  Ba  Ba3  1  0.750000  0.500000  0.339540  1
  Te  Te4  1  0.750000  0.000000  0.565484  1
  Te  Te5  1  0.750000  0.500000  0.068131  1
  Te  Te6  1  0.250000  0.500000  0.933406  1
  Ir  Ir7  1  0.250000  0.000000  0.434730  1
  O  O8  1  0.360170  0.202020  0.339160  1
  O  O9  1  0.858236  0.207211  0.659890  1
  O  O10  1  0.927711  0.173886  0.454894  1
  O  O11  1  0.431138  0.176289  0.540585  1
  O  O12  1  0.429191  0.324689  0.042232  1
  O  O13  1  0.929235  0.324255  0.960287  1
  O  O14  1  0.855184  0.292269  0.162975  1
  O  O15  1  0.354729  0.291493  0.839592  1
  O  O16  1  0.644816  0.707731  0.162975  1
  O  O17  1  0.145271  0.708507  0.839592  1
  O  O18  1  0.070809  0.675311  0.042232  1
  O  O19  1  0.570765  0.675745  0.960287  1
  O  O20  1  0.572289  0.826114  0.454894  1
  O  O21  1  0.068862  0.823711  0.540585  1
  O  O22  1  0.139830  0.797980  0.339160  1
  O  O23  1  0.641764  0.792789  0.659890  1
