# generated using pymatgen
data_Tb8SnPd24
_symmetry_space_group_name_H-M   'P 1'
_cell_length_a   8.41844900
_cell_length_b   8.41844900
_cell_length_c   8.41844900
_cell_angle_alpha   90.00000000
_cell_angle_beta   90.00000000
_cell_angle_gamma   90.00000000
_symmetry_Int_Tables_number   1
_chemical_formula_structural   Tb8SnPd24
_chemical_formula_sum   'Tb8 Sn1 Pd24'
_cell_volume   596.61786781
_cell_formula_units_Z   1
loop_
 _symmetry_equiv_pos_site_id
 _symmetry_equiv_pos_as_xyz
  1  'x, y, z'
loop_
 _atom_site_type_symbol
 _atom_site_label
 _atom_site_symmetry_multiplicity
 _atom_site_fract_x
 _atom_site_fract_y
 _atom_site_fract_z
 _atom_site_occupancy
  Tb  Tb0  1  0.252837  0.252837  0.252837  1
  Tb  Tb1  1  0.747163  0.747163  0.747163  1
  Tb  Tb2  1  0.747163  0.747163  0.252837  1
  Tb  Tb3  1  0.747163  0.252837  0.747163  1
  Tb  Tb4  1  0.252837  0.252837  0.747163  1
  Tb  Tb5  1  0.252837  0.747163  0.252837  1
  Tb  Tb6  1  0.252837  0.747163  0.747163  1
  Tb  Tb7  1  0.747163  0.252837  0.252837  1
  Sn  Sn8  1  0.000000  0.000000  0.000000  1
  Pd  Pd9  1  0.265238  0.500000  0.000000  1
  Pd  Pd10  1  0.734762  0.500000  0.000000  1
  Pd  Pd11  1  0.000000  0.265238  0.500000  1
  Pd  Pd12  1  0.500000  0.265238  0.000000  1
  Pd  Pd13  1  0.000000  0.734762  0.500000  1
  Pd  Pd14  1  0.500000  0.734762  0.000000  1
  Pd  Pd15  1  0.500000  0.000000  0.265238  1
  Pd  Pd16  1  0.265238  0.000000  0.500000  1
  Pd  Pd17  1  0.500000  0.000000  0.734762  1
  Pd  Pd18  1  0.734762  0.000000  0.500000  1
  Pd  Pd19  1  0.000000  0.500000  0.265238  1
  Pd  Pd20  1  0.000000  0.500000  0.734762  1
  Pd  Pd21  1  0.254887  0.500000  0.500000  1
  Pd  Pd22  1  0.745113  0.500000  0.500000  1
  Pd  Pd23  1  0.500000  0.254887  0.500000  1
  Pd  Pd24  1  0.500000  0.745113  0.500000  1
  Pd  Pd25  1  0.500000  0.500000  0.254887  1
  Pd  Pd26  1  0.500000  0.500000  0.745113  1
  Pd  Pd27  1  0.308545  0.000000  0.000000  1
  Pd  Pd28  1  0.691455  0.000000  0.000000  1
  Pd  Pd29  1  0.000000  0.308545  0.000000  1
  Pd  Pd30  1  0.000000  0.691455  0.000000  1
  Pd  Pd31  1  0.000000  0.000000  0.308545  1
  Pd  Pd32  1  0.000000  0.000000  0.691455  1
