# generated using pymatgen
data_Ho5TmTh2(CdIr)2
_symmetry_space_group_name_H-M   'P 1'
_cell_length_a   9.70381945
_cell_length_b   9.70882853
_cell_length_c   9.70882729
_cell_angle_alpha   59.96586458
_cell_angle_beta   60.01706204
_cell_angle_gamma   60.01706392
_symmetry_Int_Tables_number   1
_chemical_formula_structural   Ho5TmTh2(CdIr)2
_chemical_formula_sum   'Ho10 Tm2 Th4 Cd4 Ir4'
_cell_volume   646.78666030
_cell_formula_units_Z   2
loop_
 _symmetry_equiv_pos_site_id
 _symmetry_equiv_pos_as_xyz
  1  'x, y, z'
loop_
 _atom_site_type_symbol
 _atom_site_label
 _atom_site_symmetry_multiplicity
 _atom_site_fract_x
 _atom_site_fract_y
 _atom_site_fract_z
 _atom_site_occupancy
  Ho  Ho0  1  0.437479  0.062521  0.437479  1
  Ho  Ho1  1  0.062521  0.437479  0.062521  1
  Ho  Ho2  1  0.437479  0.437479  0.062521  1
  Ho  Ho3  1  0.062521  0.062521  0.437479  1
  Ho  Ho4  1  0.185241  0.814759  0.814759  1
  Ho  Ho5  1  0.814759  0.185241  0.185241  1
  Ho  Ho6  1  0.814730  0.185270  0.814730  1
  Ho  Ho7  1  0.185270  0.814730  0.185270  1
  Ho  Ho8  1  0.814730  0.814730  0.185270  1
  Ho  Ho9  1  0.185270  0.185270  0.814730  1
  Tm  Tm10  1  0.062237  0.437763  0.437763  1
  Tm  Tm11  1  0.437763  0.062237  0.062237  1
  Th  Th12  1  0.600751  0.600017  0.600017  1
  Th  Th13  1  0.600017  0.600751  0.199215  1
  Th  Th14  1  0.600017  0.199215  0.600751  1
  Th  Th15  1  0.199215  0.600017  0.600017  1
  Cd  Cd16  1  0.832631  0.832767  0.832767  1
  Cd  Cd17  1  0.832767  0.832631  0.501835  1
  Cd  Cd18  1  0.832767  0.501835  0.832631  1
  Cd  Cd19  1  0.501835  0.832767  0.832767  1
  Ir  Ir20  1  0.392194  0.393172  0.393172  1
  Ir  Ir21  1  0.393172  0.392194  0.821462  1
  Ir  Ir22  1  0.393172  0.821462  0.392194  1
  Ir  Ir23  1  0.821462  0.393172  0.393172  1
