# generated using pymatgen
data_Tb7Sn23Os5Ru
_symmetry_space_group_name_H-M   'P 1'
_cell_length_a   9.87098009
_cell_length_b   9.87097973
_cell_length_c   10.15017142
_cell_angle_alpha   89.94867739
_cell_angle_beta   90.05132197
_cell_angle_gamma   119.96156641
_symmetry_Int_Tables_number   1
_chemical_formula_structural   Tb7Sn23Os5Ru
_chemical_formula_sum   'Tb7 Sn23 Os5 Ru1'
_cell_volume   856.82548748
_cell_formula_units_Z   1
loop_
 _symmetry_equiv_pos_site_id
 _symmetry_equiv_pos_as_xyz
  1  'x, y, z'
loop_
 _atom_site_type_symbol
 _atom_site_label
 _atom_site_symmetry_multiplicity
 _atom_site_fract_x
 _atom_site_fract_y
 _atom_site_fract_z
 _atom_site_occupancy
  Tb  Tb0  1  0.999835  0.000165  0.999592  1
  Tb  Tb1  1  0.484600  0.515400  0.302378  1
  Tb  Tb2  1  0.515767  0.484233  0.697657  1
  Tb  Tb3  1  0.483291  0.967957  0.302356  1
  Tb  Tb4  1  0.515229  0.030735  0.697904  1
  Tb  Tb5  1  0.032043  0.516709  0.302356  1
  Tb  Tb6  1  0.969265  0.484771  0.697904  1
  Sn  Sn7  1  0.349352  0.999685  0.999962  1
  Sn  Sn8  1  0.650424  0.999737  0.001083  1
  Sn  Sn9  1  0.000263  0.349576  0.001083  1
  Sn  Sn10  1  0.000315  0.650648  0.999962  1
  Sn  Sn11  1  0.650677  0.650394  0.999989  1
  Sn  Sn12  1  0.349606  0.349323  0.999989  1
  Sn  Sn13  1  0.333488  0.666512  0.823793  1
  Sn  Sn14  1  0.666971  0.333029  0.177499  1
  Sn  Sn15  1  0.999339  0.000661  0.499815  1
  Sn  Sn16  1  0.780739  0.219261  0.461240  1
  Sn  Sn17  1  0.219263  0.780737  0.537329  1
  Sn  Sn18  1  0.780988  0.561122  0.462404  1
  Sn  Sn19  1  0.219320  0.438887  0.537499  1
  Sn  Sn20  1  0.438878  0.219012  0.462404  1
  Sn  Sn21  1  0.561113  0.780680  0.537499  1
  Sn  Sn22  1  0.333628  0.666372  0.126887  1
  Sn  Sn23  1  0.666934  0.333066  0.873273  1
  Sn  Sn24  1  0.116771  0.883229  0.275739  1
  Sn  Sn25  1  0.882433  0.117567  0.724140  1
  Sn  Sn26  1  0.117414  0.235175  0.274126  1
  Sn  Sn27  1  0.882085  0.765177  0.725212  1
  Sn  Sn28  1  0.764825  0.882586  0.274126  1
  Sn  Sn29  1  0.234823  0.117915  0.725212  1
  Os  Os30  1  0.169951  0.830049  0.797385  1
  Os  Os31  1  0.830582  0.659990  0.202001  1
  Os  Os32  1  0.169397  0.339979  0.798205  1
  Os  Os33  1  0.340010  0.169418  0.202001  1
  Os  Os34  1  0.660021  0.830603  0.798205  1
  Ru  Ru35  1  0.830356  0.169644  0.201788  1
