# generated using pymatgen
data_TbHo2Lu3FeBi2
_symmetry_space_group_name_H-M   'P 1'
_cell_length_a   8.21498351
_cell_length_b   8.21999296
_cell_length_c   4.16019000
_cell_angle_alpha   90.00000000
_cell_angle_beta   90.00000000
_cell_angle_gamma   120.02016652
_symmetry_Int_Tables_number   1
_chemical_formula_structural   TbHo2Lu3FeBi2
_chemical_formula_sum   'Tb1 Ho2 Lu3 Fe1 Bi2'
_cell_volume   243.23924662
_cell_formula_units_Z   1
loop_
 _symmetry_equiv_pos_site_id
 _symmetry_equiv_pos_as_xyz
  1  'x, y, z'
loop_
 _atom_site_type_symbol
 _atom_site_label
 _atom_site_symmetry_multiplicity
 _atom_site_fract_x
 _atom_site_fract_y
 _atom_site_fract_z
 _atom_site_occupancy
  Tb  Tb0  1  0.000000  0.611374  0.500000  1
  Ho  Ho1  1  0.387697  0.387500  0.500000  1
  Ho  Ho2  1  0.612303  0.999803  0.500000  1
  Lu  Lu3  1  0.227975  0.000495  0.000000  1
  Lu  Lu4  1  0.772025  0.772520  0.000000  1
  Lu  Lu5  1  0.000000  0.227781  0.000000  1
  Fe  Fe6  1  0.000000  0.001431  0.500000  1
  Bi  Bi7  1  0.334290  0.666694  0.000000  1
  Bi  Bi8  1  0.665710  0.332403  0.000000  1
