# generated using pymatgen
data_La20Ir11Ru
_symmetry_space_group_name_H-M   'P 1'
_cell_length_a   11.42452500
_cell_length_b   11.42452500
_cell_length_c   6.68563700
_cell_angle_alpha   90.00000000
_cell_angle_beta   90.00000000
_cell_angle_gamma   90.00000000
_symmetry_Int_Tables_number   1
_chemical_formula_structural   La20Ir11Ru
_chemical_formula_sum   'La20 Ir11 Ru1'
_cell_volume   872.60781341
_cell_formula_units_Z   1
loop_
 _symmetry_equiv_pos_site_id
 _symmetry_equiv_pos_as_xyz
  1  'x, y, z'
loop_
 _atom_site_type_symbol
 _atom_site_label
 _atom_site_symmetry_multiplicity
 _atom_site_fract_x
 _atom_site_fract_y
 _atom_site_fract_z
 _atom_site_occupancy
  La  La0  1  0.292266  0.089929  0.383386  1
  La  La1  1  0.292505  0.910130  0.885322  1
  La  La2  1  0.707495  0.089870  0.885322  1
  La  La3  1  0.707734  0.910071  0.383386  1
  La  La4  1  0.589870  0.792505  0.885322  1
  La  La5  1  0.589929  0.207734  0.383386  1
  La  La6  1  0.410071  0.792266  0.383386  1
  La  La7  1  0.410130  0.207495  0.885322  1
  La  La8  1  0.208182  0.409677  0.616084  1
  La  La9  1  0.208126  0.590222  0.115905  1
  La  La10  1  0.791874  0.409778  0.115905  1
  La  La11  1  0.791818  0.590323  0.616084  1
  La  La12  1  0.909778  0.708126  0.115905  1
  La  La13  1  0.909677  0.291818  0.616084  1
  La  La14  1  0.090323  0.708182  0.616084  1
  La  La15  1  0.090222  0.291874  0.115905  1
  La  La16  1  0.000000  0.000000  0.499801  1
  La  La17  1  0.000000  0.000000  0.999506  1
  La  La18  1  0.500000  0.500000  0.999506  1
  La  La19  1  0.500000  0.500000  0.499801  1
  Ir  Ir20  1  0.846483  0.153953  0.250134  1
  Ir  Ir21  1  0.846465  0.846101  0.749890  1
  Ir  Ir22  1  0.153535  0.153899  0.749890  1
  Ir  Ir23  1  0.153517  0.846047  0.250134  1
  Ir  Ir24  1  0.653899  0.346465  0.749890  1
  Ir  Ir25  1  0.653953  0.653517  0.250134  1
  Ir  Ir26  1  0.346047  0.346483  0.250134  1
  Ir  Ir27  1  0.346101  0.653535  0.749890  1
  Ir  Ir28  1  0.500000  0.000000  0.614430  1
  Ir  Ir29  1  0.000000  0.500000  0.885611  1
  Ir  Ir30  1  0.000000  0.500000  0.385671  1
  Ru  Ru31  1  0.500000  0.000000  0.112792  1
