# generated using pymatgen
data_Lu3Sn3Ru2Pt
_symmetry_space_group_name_H-M   'P 1'
_cell_length_a   7.71376600
_cell_length_b   7.71376573
_cell_length_c   3.59908400
_cell_angle_alpha   90.00000000
_cell_angle_beta   90.00000000
_cell_angle_gamma   119.99999374
_symmetry_Int_Tables_number   1
_chemical_formula_structural   Lu3Sn3Ru2Pt
_chemical_formula_sum   'Lu3 Sn3 Ru2 Pt1'
_cell_volume   185.46225975
_cell_formula_units_Z   1
loop_
 _symmetry_equiv_pos_site_id
 _symmetry_equiv_pos_as_xyz
  1  'x, y, z'
loop_
 _atom_site_type_symbol
 _atom_site_label
 _atom_site_symmetry_multiplicity
 _atom_site_fract_x
 _atom_site_fract_y
 _atom_site_fract_z
 _atom_site_occupancy
  Lu  Lu0  1  0.403858  0.394694  0.500000  1
  Lu  Lu1  1  0.605306  0.009164  0.500000  1
  Lu  Lu2  1  0.990836  0.596142  0.500000  1
  Sn  Sn3  1  0.733815  0.728565  0.000000  1
  Sn  Sn4  1  0.271435  0.005251  0.000000  1
  Sn  Sn5  1  0.994749  0.266185  0.000000  1
  Ru  Ru6  1  0.666667  0.333333  0.000000  1
  Ru  Ru7  1  0.000000  0.000000  0.500000  1
  Pt  Pt8  1  0.333333  0.666667  0.000000  1
