# generated using pymatgen
data_Ca5SiOsN7
_symmetry_space_group_name_H-M   'P 1'
_cell_length_a   6.09175235
_cell_length_b   8.49432126
_cell_length_c   8.78908900
_cell_angle_alpha   113.91571720
_cell_angle_beta   98.35940875
_cell_angle_gamma   89.96880660
_symmetry_Int_Tables_number   1
_chemical_formula_structural   Ca5SiOsN7
_chemical_formula_sum   'Ca10 Si2 Os2 N14'
_cell_volume   410.47146580
_cell_formula_units_Z   2
loop_
 _symmetry_equiv_pos_site_id
 _symmetry_equiv_pos_as_xyz
  1  'x, y, z'
loop_
 _atom_site_type_symbol
 _atom_site_label
 _atom_site_symmetry_multiplicity
 _atom_site_fract_x
 _atom_site_fract_y
 _atom_site_fract_z
 _atom_site_occupancy
  Ca  Ca0  1  0.855025  0.585164  0.351421  1
  Ca  Ca1  1  0.276701  0.978955  0.562419  1
  Ca  Ca2  1  0.692305  0.408270  0.839033  1
  Ca  Ca3  1  0.307695  0.591730  0.160967  1
  Ca  Ca4  1  0.400279  0.782299  0.893899  1
  Ca  Ca5  1  0.599721  0.217701  0.106101  1
  Ca  Ca6  1  0.144975  0.414836  0.648579  1
  Ca  Ca7  1  0.881247  0.830320  0.742332  1
  Ca  Ca8  1  0.118753  0.169680  0.257668  1
  Ca  Ca9  1  0.723299  0.021045  0.437581  1
  Si  Si10  1  0.575834  0.359585  0.476750  1
  Si  Si11  1  0.424166  0.640415  0.523250  1
  Os  Os12  1  0.116971  0.220364  0.919765  1
  Os  Os13  1  0.883029  0.779636  0.080235  1
  N  N14  1  0.565919  0.556024  0.664592  1
  N  N15  1  0.434081  0.443976  0.335408  1
  N  N16  1  0.167609  0.701921  0.586156  1
  N  N17  1  0.832391  0.298079  0.413844  1
  N  N18  1  0.415253  0.199588  0.493514  1
  N  N19  1  0.584747  0.800412  0.506486  1
  N  N20  1  0.949367  0.143787  0.710991  1
  N  N21  1  0.050633  0.856213  0.289009  1
  N  N22  1  0.234494  0.049061  0.978502  1
  N  N23  1  0.765506  0.950939  0.021498  1
  N  N24  1  0.369046  0.332698  0.911437  1
  N  N25  1  0.958876  0.358394  0.081660  1
  N  N26  1  0.041124  0.641606  0.918340  1
  N  N27  1  0.630954  0.667302  0.088563  1
