# generated using pymatgen
data_Er8Ta3Ti8Si16Pt
_symmetry_space_group_name_H-M   'P 1'
_cell_length_a   7.01375955
_cell_length_b   7.01375908
_cell_length_c   12.81685109
_cell_angle_alpha   90.25375507
_cell_angle_beta   89.74624525
_cell_angle_gamma   89.58523607
_symmetry_Int_Tables_number   1
_chemical_formula_structural   Er8Ta3Ti8Si16Pt
_chemical_formula_sum   'Er8 Ta3 Ti8 Si16 Pt1'
_cell_volume   630.46806791
_cell_formula_units_Z   1
loop_
 _symmetry_equiv_pos_site_id
 _symmetry_equiv_pos_as_xyz
  1  'x, y, z'
loop_
 _atom_site_type_symbol
 _atom_site_label
 _atom_site_symmetry_multiplicity
 _atom_site_fract_x
 _atom_site_fract_y
 _atom_site_fract_z
 _atom_site_occupancy
  Er  Er0  1  0.340931  0.001636  0.467727  1
  Er  Er1  1  0.497499  0.841980  0.718211  1
  Er  Er2  1  0.501844  0.157237  0.215194  1
  Er  Er3  1  0.841980  0.497499  0.281789  1
  Er  Er4  1  0.157237  0.501844  0.784806  1
  Er  Er5  1  0.657438  0.999768  0.968973  1
  Er  Er6  1  0.001636  0.340931  0.532273  1
  Er  Er7  1  0.999768  0.657438  0.031027  1
  Ta  Ta8  1  0.175349  0.825580  0.248139  1
  Ta  Ta9  1  0.825580  0.175349  0.751861  1
  Ta  Ta10  1  0.673212  0.673212  0.500000  1
  Ti  Ti11  1  0.147040  0.004399  0.875749  1
  Ti  Ti12  1  0.493319  0.655523  0.124200  1
  Ti  Ti13  1  0.507871  0.350221  0.627401  1
  Ti  Ti14  1  0.655523  0.493319  0.875800  1
  Ti  Ti15  1  0.350221  0.507871  0.372599  1
  Ti  Ti16  1  0.849426  0.990762  0.374260  1
  Ti  Ti17  1  0.004399  0.147040  0.124251  1
  Ti  Ti18  1  0.990762  0.849426  0.625740  1
  Si  Si19  1  0.201971  0.133555  0.684250  1
  Si  Si20  1  0.372498  0.709419  0.931195  1
  Si  Si21  1  0.631208  0.295918  0.433385  1
  Si  Si22  1  0.709419  0.372498  0.068805  1
  Si  Si23  1  0.295918  0.631208  0.566615  1
  Si  Si24  1  0.798128  0.866132  0.182795  1
  Si  Si25  1  0.133555  0.201971  0.315750  1
  Si  Si26  1  0.866132  0.798128  0.817205  1
  Si  Si27  1  0.288132  0.946780  0.062357  1
  Si  Si28  1  0.547259  0.793343  0.314447  1
  Si  Si29  1  0.449225  0.209016  0.815782  1
  Si  Si30  1  0.793343  0.547259  0.685553  1
  Si  Si31  1  0.209016  0.449225  0.184218  1
  Si  Si32  1  0.706874  0.047658  0.564456  1
  Si  Si33  1  0.946780  0.288132  0.937643  1
  Si  Si34  1  0.047658  0.706874  0.435544  1
  Pt  Pt35  1  0.331853  0.331853  0.000000  1
