# generated using pymatgen
data_Er3AlGa4Co
_symmetry_space_group_name_H-M   'P 1'
_cell_length_a   6.83846600
_cell_length_b   6.88009990
_cell_length_c   4.20243500
_cell_angle_alpha   90.00000000
_cell_angle_beta   90.00000000
_cell_angle_gamma   119.80003361
_symmetry_Int_Tables_number   1
_chemical_formula_structural   Er3AlGa4Co
_chemical_formula_sum   'Er3 Al1 Ga4 Co1'
_cell_volume   171.57604451
_cell_formula_units_Z   1
loop_
 _symmetry_equiv_pos_site_id
 _symmetry_equiv_pos_as_xyz
  1  'x, y, z'
loop_
 _atom_site_type_symbol
 _atom_site_label
 _atom_site_symmetry_multiplicity
 _atom_site_fract_x
 _atom_site_fract_y
 _atom_site_fract_z
 _atom_site_occupancy
  Er  Er0  1  0.599076  0.000000  0.000000  1
  Er  Er1  1  0.998415  0.596280  0.000000  1
  Er  Er2  1  0.402135  0.403720  0.000000  1
  Al  Al3  1  0.225754  0.000000  0.500000  1
  Ga  Ga4  1  0.003126  0.233440  0.500000  1
  Ga  Ga5  1  0.769685  0.766560  0.500000  1
  Ga  Ga6  1  0.334122  0.670452  0.500000  1
  Ga  Ga7  1  0.663671  0.329548  0.500000  1
  Co  Co8  1  0.004016  0.000000  0.000000  1
