# generated using pymatgen
data_YAg6BrO8
_symmetry_space_group_name_H-M   'P 1'
_cell_length_a   7.12822121
_cell_length_b   7.12822093
_cell_length_c   7.12822000
_cell_angle_alpha   60.00000433
_cell_angle_beta   60.00000561
_cell_angle_gamma   59.99999710
_symmetry_Int_Tables_number   1
_chemical_formula_structural   YAg6BrO8
_chemical_formula_sum   'Y1 Ag6 Br1 O8'
_cell_volume   256.11112313
_cell_formula_units_Z   1
loop_
 _symmetry_equiv_pos_site_id
 _symmetry_equiv_pos_as_xyz
  1  'x, y, z'
loop_
 _atom_site_type_symbol
 _atom_site_label
 _atom_site_symmetry_multiplicity
 _atom_site_fract_x
 _atom_site_fract_y
 _atom_site_fract_z
 _atom_site_occupancy
  Y  Y0  1  0.000000  0.000000  0.000000  1
  Ag  Ag1  1  0.000000  0.000000  0.500000  1
  Ag  Ag2  1  0.500000  0.000000  0.500000  1
  Ag  Ag3  1  0.000000  0.500000  0.500000  1
  Ag  Ag4  1  0.500000  0.500000  0.000000  1
  Ag  Ag5  1  0.000000  0.500000  0.000000  1
  Ag  Ag6  1  0.500000  0.000000  0.000000  1
  Br  Br7  1  0.500000  0.500000  0.500000  1
  O  O8  1  0.862437  0.862437  0.412689  1
  O  O9  1  0.862437  0.412689  0.862437  1
  O  O10  1  0.412689  0.862437  0.862437  1
  O  O11  1  0.862437  0.862437  0.862437  1
  O  O12  1  0.137563  0.137563  0.587311  1
  O  O13  1  0.137563  0.587311  0.137563  1
  O  O14  1  0.587311  0.137563  0.137563  1
  O  O15  1  0.137563  0.137563  0.137563  1
