# generated using pymatgen
data_Ho4Al24ZnPd8
_symmetry_space_group_name_H-M   'P 1'
_cell_length_a   7.56027327
_cell_length_b   7.58090455
_cell_length_c   13.13710161
_cell_angle_alpha   84.47165809
_cell_angle_beta   78.94672749
_cell_angle_gamma   59.92239948
_symmetry_Int_Tables_number   1
_chemical_formula_structural   Ho4Al24ZnPd8
_chemical_formula_sum   'Ho4 Al24 Zn1 Pd8'
_cell_volume   639.46452275
_cell_formula_units_Z   1
loop_
 _symmetry_equiv_pos_site_id
 _symmetry_equiv_pos_as_xyz
  1  'x, y, z'
loop_
 _atom_site_type_symbol
 _atom_site_label
 _atom_site_symmetry_multiplicity
 _atom_site_fract_x
 _atom_site_fract_y
 _atom_site_fract_z
 _atom_site_occupancy
  Ho  Ho0  1  0.389534  0.172171  0.808214  1
  Ho  Ho1  1  0.606106  0.831496  0.191796  1
  Ho  Ho2  1  0.737462  0.498144  0.808076  1
  Ho  Ho3  1  0.267060  0.501379  0.190960  1
  Al  Al4  1  0.681867  0.835022  0.945529  1
  Al  Al5  1  0.315969  0.166267  0.056165  1
  Al  Al6  1  0.145933  0.838623  0.560037  1
  Al  Al7  1  0.856398  0.165814  0.433455  1
  Al  Al8  1  0.488946  0.159583  0.558283  1
  Al  Al9  1  0.520407  0.833188  0.437018  1
  Al  Al10  1  0.219008  0.164090  0.327831  1
  Al  Al11  1  0.779205  0.837263  0.674964  1
  Al  Al12  1  0.437205  0.507686  0.675274  1
  Al  Al13  1  0.563783  0.494012  0.327560  1
  Al  Al14  1  0.108764  0.154219  0.672574  1
  Al  Al15  1  0.889473  0.840248  0.329171  1
  Al  Al16  1  0.354482  0.498899  0.944889  1
  Al  Al17  1  0.647387  0.501007  0.056049  1
  Al  Al18  1  0.014533  0.167441  0.956038  1
  Al  Al19  1  0.984189  0.831982  0.046514  1
  Al  Al20  1  0.188242  0.499837  0.436419  1
  Al  Al21  1  0.805803  0.500133  0.558148  1
  Al  Al22  1  0.732823  0.164219  0.184091  1
  Al  Al23  1  0.268779  0.836065  0.817023  1
  Al  Al24  1  0.060711  0.634132  0.817243  1
  Al  Al25  1  0.938669  0.369513  0.185541  1
  Al  Al26  1  0.852550  0.044086  0.816726  1
  Al  Al27  1  0.144195  0.957678  0.184230  1
  Zn  Zn28  1  0.119877  0.488682  0.640034  1
  Pd  Pd29  1  0.881224  0.507134  0.362418  1
  Pd  Pd30  1  0.656959  0.171701  0.999652  1
  Pd  Pd31  1  0.343070  0.828432  0.000022  1
  Pd  Pd32  1  0.536261  0.168231  0.362430  1
  Pd  Pd33  1  0.462569  0.833281  0.637053  1
  Pd  Pd34  1  0.779339  0.174918  0.636465  1
  Pd  Pd35  1  0.220763  0.823491  0.362528  1
  Pd  Pd36  1  0.000454  0.499931  0.999580  1
