# generated using pymatgen
data_Er8Cd2IrRu
_symmetry_space_group_name_H-M   'P 1'
_cell_length_a   9.55630317
_cell_length_b   9.55630362
_cell_length_c   9.60291800
_cell_angle_alpha   59.83850985
_cell_angle_beta   59.83850829
_cell_angle_gamma   59.69750398
_symmetry_Int_Tables_number   1
_chemical_formula_structural   Er8Cd2IrRu
_chemical_formula_sum   'Er16 Cd4 Ir2 Ru2'
_cell_volume   617.17145484
_cell_formula_units_Z   2
loop_
 _symmetry_equiv_pos_site_id
 _symmetry_equiv_pos_as_xyz
  1  'x, y, z'
loop_
 _atom_site_type_symbol
 _atom_site_label
 _atom_site_symmetry_multiplicity
 _atom_site_fract_x
 _atom_site_fract_y
 _atom_site_fract_z
 _atom_site_occupancy
  Er  Er0  1  0.598110  0.598110  0.597767  1
  Er  Er1  1  0.598110  0.598110  0.206011  1
  Er  Er2  1  0.597261  0.208751  0.596994  1
  Er  Er3  1  0.208751  0.597261  0.596994  1
  Er  Er4  1  0.061743  0.438081  0.440227  1
  Er  Er5  1  0.438081  0.061743  0.059949  1
  Er  Er6  1  0.438081  0.061743  0.440227  1
  Er  Er7  1  0.061743  0.438081  0.059949  1
  Er  Er8  1  0.438208  0.438208  0.061792  1
  Er  Er9  1  0.059166  0.059166  0.440834  1
  Er  Er10  1  0.188545  0.809683  0.813089  1
  Er  Er11  1  0.809683  0.188545  0.188683  1
  Er  Er12  1  0.809683  0.188545  0.813089  1
  Er  Er13  1  0.188545  0.809683  0.188683  1
  Er  Er14  1  0.811322  0.811322  0.188678  1
  Er  Er15  1  0.188843  0.188843  0.811157  1
  Cd  Cd16  1  0.830811  0.830811  0.830921  1
  Cd  Cd17  1  0.830811  0.830811  0.507456  1
  Cd  Cd18  1  0.831079  0.506827  0.831047  1
  Cd  Cd19  1  0.506827  0.831079  0.831047  1
  Ir  Ir20  1  0.393731  0.827365  0.389452  1
  Ir  Ir21  1  0.827365  0.393731  0.389452  1
  Ru  Ru22  1  0.391750  0.391750  0.387706  1
  Ru  Ru23  1  0.391750  0.391750  0.828793  1
