# generated using pymatgen
data_Ho20Tl7GaIr4
_symmetry_space_group_name_H-M   'P 1'
_cell_length_a   7.93057574
_cell_length_b   8.97537361
_cell_length_c   12.38192400
_cell_angle_alpha   90.10511987
_cell_angle_beta   90.11045802
_cell_angle_gamma   90.14419573
_symmetry_Int_Tables_number   1
_chemical_formula_structural   Ho20Tl7GaIr4
_chemical_formula_sum   'Ho20 Tl7 Ga1 Ir4'
_cell_volume   881.33794667
_cell_formula_units_Z   1
loop_
 _symmetry_equiv_pos_site_id
 _symmetry_equiv_pos_as_xyz
  1  'x, y, z'
loop_
 _atom_site_type_symbol
 _atom_site_label
 _atom_site_symmetry_multiplicity
 _atom_site_fract_x
 _atom_site_fract_y
 _atom_site_fract_z
 _atom_site_occupancy
  Ho  Ho0  1  0.835833  0.741110  0.785045  1
  Ho  Ho1  1  0.156696  0.249396  0.213259  1
  Ho  Ho2  1  0.347847  0.257564  0.718994  1
  Ho  Ho3  1  0.657140  0.750559  0.283603  1
  Ho  Ho4  1  0.385651  0.742450  0.697985  1
  Ho  Ho5  1  0.620208  0.250548  0.307086  1
  Ho  Ho6  1  0.869260  0.257774  0.807279  1
  Ho  Ho7  1  0.119823  0.749603  0.193600  1
  Ho  Ho8  1  0.951306  0.750597  0.502383  1
  Ho  Ho9  1  0.048425  0.249013  0.498157  1
  Ho  Ho10  1  0.457212  0.256654  0.992551  1
  Ho  Ho11  1  0.547789  0.743253  0.997402  1
  Ho  Ho12  1  0.674717  0.039015  0.573743  1
  Ho  Ho13  1  0.325405  0.960152  0.428444  1
  Ho  Ho14  1  0.174815  0.961890  0.926876  1
  Ho  Ho15  1  0.326524  0.538046  0.428040  1
  Ho  Ho16  1  0.822552  0.038005  0.070588  1
  Ho  Ho17  1  0.673972  0.462115  0.577566  1
  Ho  Ho18  1  0.824960  0.461513  0.069231  1
  Ho  Ho19  1  0.179996  0.538641  0.926589  1
  Tl  Tl20  1  0.428079  0.507223  0.170240  1
  Tl  Tl21  1  0.073326  0.508420  0.669104  1
  Tl  Tl22  1  0.427205  0.992966  0.166136  1
  Tl  Tl23  1  0.927035  0.492232  0.330570  1
  Tl  Tl24  1  0.573779  0.005931  0.830528  1
  Tl  Tl25  1  0.926353  0.008011  0.330068  1
  Tl  Tl26  1  0.074344  0.993285  0.672526  1
  Ga  Ga27  1  0.568437  0.494857  0.832266  1
  Ir  Ir28  1  0.575757  0.749677  0.506852  1
  Ir  Ir29  1  0.425190  0.249647  0.496427  1
  Ir  Ir30  1  0.073745  0.250743  0.992319  1
  Ir  Ir31  1  0.926621  0.749112  0.004544  1
