# generated using pymatgen
data_Lu3ZrTc7Os
_symmetry_space_group_name_H-M   'P 1'
_cell_length_a   5.26228100
_cell_length_b   5.26228073
_cell_length_c   8.86926200
_cell_angle_alpha   90.00000000
_cell_angle_beta   90.00000000
_cell_angle_gamma   119.99999544
_symmetry_Int_Tables_number   1
_chemical_formula_structural   Lu3ZrTc7Os
_chemical_formula_sum   'Lu3 Zr1 Tc7 Os1'
_cell_volume   212.69936028
_cell_formula_units_Z   1
loop_
 _symmetry_equiv_pos_site_id
 _symmetry_equiv_pos_as_xyz
  1  'x, y, z'
loop_
 _atom_site_type_symbol
 _atom_site_label
 _atom_site_symmetry_multiplicity
 _atom_site_fract_x
 _atom_site_fract_y
 _atom_site_fract_z
 _atom_site_occupancy
  Lu  Lu0  1  0.333333  0.666667  0.439555  1
  Lu  Lu1  1  0.666667  0.333333  0.560831  1
  Lu  Lu2  1  0.666667  0.333333  0.936417  1
  Zr  Zr3  1  0.333333  0.666667  0.065835  1
  Tc  Tc4  1  0.000000  0.000000  0.000269  1
  Tc  Tc5  1  0.828453  0.171547  0.247231  1
  Tc  Tc6  1  0.828453  0.656907  0.247231  1
  Tc  Tc7  1  0.343093  0.171547  0.247231  1
  Tc  Tc8  1  0.171058  0.828942  0.752400  1
  Tc  Tc9  1  0.171058  0.342115  0.752400  1
  Tc  Tc10  1  0.657885  0.828942  0.752400  1
  Os  Os11  1  0.000000  0.000000  0.498201  1
