# generated using pymatgen
data_Rb2NbFeSe4
_symmetry_space_group_name_H-M   'P 1'
_cell_length_a   14.53195515
_cell_length_b   12.98117798
_cell_length_c   7.71765308
_cell_angle_alpha   85.16297031
_cell_angle_beta   62.88627523
_cell_angle_gamma   31.95075446
_symmetry_Int_Tables_number   1
_chemical_formula_structural   Rb2NbFeSe4
_chemical_formula_sum   'Rb4 Nb2 Fe2 Se8'
_cell_volume   525.79618762
_cell_formula_units_Z   2
loop_
 _symmetry_equiv_pos_site_id
 _symmetry_equiv_pos_as_xyz
  1  'x, y, z'
loop_
 _atom_site_type_symbol
 _atom_site_label
 _atom_site_symmetry_multiplicity
 _atom_site_fract_x
 _atom_site_fract_y
 _atom_site_fract_z
 _atom_site_occupancy
  Rb  Rb0  1  0.321347  0.321347  0.678653  1
  Rb  Rb1  1  0.678653  0.678653  0.321347  1
  Rb  Rb2  1  0.928653  0.928653  0.571347  1
  Rb  Rb3  1  0.571347  0.571347  0.928653  1
  Nb  Nb4  1  0.500000  0.500000  0.500000  1
  Nb  Nb5  1  0.750000  0.750000  0.750000  1
  Fe  Fe6  1  0.000000  0.000000  0.000000  1
  Fe  Fe7  1  0.250000  0.250000  0.250000  1
  Se  Se8  1  0.290220  0.600631  0.904865  1
  Se  Se9  1  0.204284  0.904865  0.600631  1
  Se  Se10  1  0.904865  0.204284  0.290220  1
  Se  Se11  1  0.600631  0.290220  0.204284  1
  Se  Se12  1  0.649369  0.959780  0.045716  1
  Se  Se13  1  0.345135  0.045716  0.959780  1
  Se  Se14  1  0.045716  0.345135  0.649369  1
  Se  Se15  1  0.959780  0.649369  0.345135  1
