# generated using pymatgen
data_CaHoGaSe4
_symmetry_space_group_name_H-M   'P 1'
_cell_length_a   6.63803500
_cell_length_b   8.37794700
_cell_length_c   14.58202300
_cell_angle_alpha   90.00000000
_cell_angle_beta   90.00000000
_cell_angle_gamma   90.00000000
_symmetry_Int_Tables_number   1
_chemical_formula_structural   CaHoGaSe4
_chemical_formula_sum   'Ca4 Ho4 Ga4 Se16'
_cell_volume   810.95158225
_cell_formula_units_Z   4
loop_
 _symmetry_equiv_pos_site_id
 _symmetry_equiv_pos_as_xyz
  1  'x, y, z'
loop_
 _atom_site_type_symbol
 _atom_site_label
 _atom_site_symmetry_multiplicity
 _atom_site_fract_x
 _atom_site_fract_y
 _atom_site_fract_z
 _atom_site_occupancy
  Ca  Ca0  1  0.492589  0.500000  0.236197  1
  Ca  Ca1  1  0.992590  0.000000  0.263803  1
  Ca  Ca2  1  0.007412  0.500000  0.736197  1
  Ca  Ca3  1  0.507411  0.000000  0.763803  1
  Ho  Ho4  1  0.000000  0.250000  0.000000  1
  Ho  Ho5  1  0.000000  0.750001  0.000000  1
  Ho  Ho6  1  0.500001  0.250000  0.500000  1
  Ho  Ho7  1  0.500001  0.750001  0.500000  1
  Ga  Ga8  1  0.399694  0.000000  0.083801  1
  Ga  Ga9  1  0.899697  0.500000  0.416199  1
  Ga  Ga10  1  0.100305  0.000000  0.583801  1
  Ga  Ga11  1  0.600305  0.500000  0.916200  1
  Se  Se12  1  0.752458  0.500000  0.070841  1
  Se  Se13  1  0.765383  0.000000  0.086181  1
  Se  Se14  1  0.248099  0.230930  0.159343  1
  Se  Se15  1  0.248099  0.769071  0.159343  1
  Se  Se16  1  0.748100  0.269069  0.340656  1
  Se  Se17  1  0.748100  0.730931  0.340656  1
  Se  Se18  1  0.265384  0.500000  0.413819  1
  Se  Se19  1  0.252457  0.000000  0.429159  1
  Se  Se20  1  0.747543  0.500000  0.570841  1
  Se  Se21  1  0.734618  0.000000  0.586181  1
  Se  Se22  1  0.251902  0.230930  0.659343  1
  Se  Se23  1  0.251902  0.769071  0.659343  1
  Se  Se24  1  0.751901  0.269069  0.840656  1
  Se  Se25  1  0.751901  0.730931  0.840656  1
  Se  Se26  1  0.234617  0.500000  0.913819  1
  Se  Se27  1  0.247544  0.000000  0.929159  1
