# generated using pymatgen
data_Ho5In4RhAu
_symmetry_space_group_name_H-M   'P 1'
_cell_length_a   8.16297800
_cell_length_b   18.36280783
_cell_length_c   3.60600100
_cell_angle_alpha   90.00000000
_cell_angle_beta   90.00000000
_cell_angle_gamma   90.04450612
_symmetry_Int_Tables_number   1
_chemical_formula_structural   Ho5In4RhAu
_chemical_formula_sum   'Ho10 In8 Rh2 Au2'
_cell_volume   540.52206497
_cell_formula_units_Z   2
loop_
 _symmetry_equiv_pos_site_id
 _symmetry_equiv_pos_as_xyz
  1  'x, y, z'
loop_
 _atom_site_type_symbol
 _atom_site_label
 _atom_site_symmetry_multiplicity
 _atom_site_fract_x
 _atom_site_fract_y
 _atom_site_fract_z
 _atom_site_occupancy
  Ho  Ho0  1  0.500000  0.500000  0.000000  1
  Ho  Ho1  1  0.000000  0.000000  0.000000  1
  Ho  Ho2  1  0.770121  0.282637  0.000000  1
  Ho  Ho3  1  0.229879  0.717363  0.000000  1
  Ho  Ho4  1  0.766072  0.776670  0.000000  1
  Ho  Ho5  1  0.233928  0.223330  0.000000  1
  Ho  Ho6  1  0.624263  0.080680  0.000000  1
  Ho  Ho7  1  0.375737  0.919320  0.000000  1
  Ho  Ho8  1  0.878575  0.585499  0.000000  1
  Ho  Ho9  1  0.121425  0.414501  0.000000  1
  In  In10  1  0.706942  0.932303  0.500000  1
  In  In11  1  0.293058  0.067697  0.500000  1
  In  In12  1  0.796830  0.433297  0.500000  1
  In  In13  1  0.203170  0.566703  0.500000  1
  In  In14  1  0.571906  0.647862  0.500000  1
  In  In15  1  0.428094  0.352138  0.500000  1
  In  In16  1  0.932007  0.148958  0.500000  1
  In  In17  1  0.067993  0.851042  0.500000  1
  Rh  Rh18  1  0.966956  0.694332  0.500000  1
  Rh  Rh19  1  0.033044  0.305668  0.500000  1
  Au  Au20  1  0.535599  0.198831  0.500000  1
  Au  Au21  1  0.464401  0.801169  0.500000  1
