# generated using pymatgen
data_TiCo2Si2Rh
_symmetry_space_group_name_H-M   'P 1'
_cell_length_a   3.69278200
_cell_length_b   5.95471100
_cell_length_c   6.84476300
_cell_angle_alpha   90.00000000
_cell_angle_beta   90.00000000
_cell_angle_gamma   90.00000000
_symmetry_Int_Tables_number   1
_chemical_formula_structural   TiCo2Si2Rh
_chemical_formula_sum   'Ti2 Co4 Si4 Rh2'
_cell_volume   150.51257099
_cell_formula_units_Z   2
loop_
 _symmetry_equiv_pos_site_id
 _symmetry_equiv_pos_as_xyz
  1  'x, y, z'
loop_
 _atom_site_type_symbol
 _atom_site_label
 _atom_site_symmetry_multiplicity
 _atom_site_fract_x
 _atom_site_fract_y
 _atom_site_fract_z
 _atom_site_occupancy
  Ti  Ti0  1  0.250000  0.513217  0.689438  1
  Ti  Ti1  1  0.750000  0.986783  0.189438  1
  Co  Co2  1  0.250000  0.653388  0.054974  1
  Co  Co3  1  0.750000  0.363218  0.931629  1
  Co  Co4  1  0.250000  0.136782  0.431629  1
  Co  Co5  1  0.750000  0.846612  0.554974  1
  Si  Si6  1  0.750000  0.746086  0.875549  1
  Si  Si7  1  0.250000  0.753914  0.375549  1
  Si  Si8  1  0.750000  0.213897  0.619949  1
  Si  Si9  1  0.250000  0.286103  0.119949  1
  Rh  Rh10  1  0.250000  0.033595  0.828461  1
  Rh  Rh11  1  0.750000  0.466405  0.328461  1
