# generated using pymatgen
data_PrNd4CoRuO12
_symmetry_space_group_name_H-M   'P 1'
_cell_length_a   7.05509239
_cell_length_b   7.05509253
_cell_length_c   7.58654025
_cell_angle_alpha   74.48199228
_cell_angle_beta   74.48199469
_cell_angle_gamma   50.20805686
_symmetry_Int_Tables_number   1
_chemical_formula_structural   PrNd4CoRuO12
_chemical_formula_sum   'Pr1 Nd4 Co1 Ru1 O12'
_cell_volume   277.19657563
_cell_formula_units_Z   1
loop_
 _symmetry_equiv_pos_site_id
 _symmetry_equiv_pos_as_xyz
  1  'x, y, z'
loop_
 _atom_site_type_symbol
 _atom_site_label
 _atom_site_symmetry_multiplicity
 _atom_site_fract_x
 _atom_site_fract_y
 _atom_site_fract_z
 _atom_site_occupancy
  Pr  Pr0  1  0.999031  0.000969  0.500000  1
  Nd  Nd1  1  0.315758  0.297455  0.356040  1
  Nd  Nd2  1  0.702545  0.684242  0.643960  1
  Nd  Nd3  1  0.696377  0.690772  0.163850  1
  Nd  Nd4  1  0.309228  0.303623  0.836150  1
  Co  Co5  1  0.746625  0.253375  0.000000  1
  Ru  Ru6  1  0.235434  0.764566  0.000000  1
  O  O7  1  0.101223  0.592566  0.577667  1
  O  O8  1  0.986569  0.011419  0.169412  1
  O  O9  1  0.407434  0.898777  0.422333  1
  O  O10  1  0.502116  0.498843  0.169830  1
  O  O11  1  0.099553  0.582169  0.078012  1
  O  O12  1  0.910051  0.402210  0.420710  1
  O  O13  1  0.988581  0.013431  0.830588  1
  O  O14  1  0.597790  0.089948  0.579290  1
  O  O15  1  0.501157  0.497884  0.830170  1
  O  O16  1  0.586493  0.103798  0.075999  1
  O  O17  1  0.417831  0.900447  0.921988  1
  O  O18  1  0.896202  0.413507  0.924001  1
