# generated using pymatgen
data_Tm10Ga3Sn2Ir
_symmetry_space_group_name_H-M   'P 1'
_cell_length_a   8.60909401
_cell_length_b   8.60909429
_cell_length_c   8.64211700
_cell_angle_alpha   125.86207679
_cell_angle_beta   125.86206991
_cell_angle_gamma   79.85345067
_symmetry_Int_Tables_number   1
_chemical_formula_structural   Tm10Ga3Sn2Ir
_chemical_formula_sum   'Tm10 Ga3 Sn2 Ir1'
_cell_volume   406.86085635
_cell_formula_units_Z   1
loop_
 _symmetry_equiv_pos_site_id
 _symmetry_equiv_pos_as_xyz
  1  'x, y, z'
loop_
 _atom_site_type_symbol
 _atom_site_label
 _atom_site_symmetry_multiplicity
 _atom_site_fract_x
 _atom_site_fract_y
 _atom_site_fract_z
 _atom_site_occupancy
  Tm  Tm0  1  0.007441  0.003307  0.010749  1
  Tm  Tm1  1  0.496693  0.492559  0.989251  1
  Tm  Tm2  1  0.790860  0.299796  0.807755  1
  Tm  Tm3  1  0.200204  0.709140  0.192245  1
  Tm  Tm4  1  0.483106  0.992042  0.192245  1
  Tm  Tm5  1  0.307507  0.466160  0.500000  1
  Tm  Tm6  1  0.033840  0.192493  0.500000  1
  Tm  Tm7  1  0.507958  0.016894  0.807755  1
  Tm  Tm8  1  0.695981  0.517586  0.500000  1
  Tm  Tm9  1  0.982414  0.804019  0.500000  1
  Ga  Ga10  1  0.131959  0.638542  0.770502  1
  Ga  Ga11  1  0.861458  0.368041  0.229498  1
  Ga  Ga12  1  0.635026  0.864974  0.500000  1
  Sn  Sn13  1  0.245917  0.254083  0.000000  1
  Sn  Sn14  1  0.745917  0.754083  0.000000  1
  Ir  Ir15  1  0.373715  0.126285  0.500000  1
