# generated using pymatgen
data_BPI6
_symmetry_space_group_name_H-M   'P 1'
_cell_length_a   8.10071200
_cell_length_b   12.38212700
_cell_length_c   14.20438300
_cell_angle_alpha   90.00000000
_cell_angle_beta   90.00000000
_cell_angle_gamma   90.00000000
_symmetry_Int_Tables_number   1
_chemical_formula_structural   BPI6
_chemical_formula_sum   'B4 P4 I24'
_cell_volume   1424.75706843
_cell_formula_units_Z   4
loop_
 _symmetry_equiv_pos_site_id
 _symmetry_equiv_pos_as_xyz
  1  'x, y, z'
loop_
 _atom_site_type_symbol
 _atom_site_label
 _atom_site_symmetry_multiplicity
 _atom_site_fract_x
 _atom_site_fract_y
 _atom_site_fract_z
 _atom_site_occupancy
  B  B0  1  0.255556  0.750000  0.107611  1
  B  B1  1  0.755556  0.250000  0.392389  1
  B  B2  1  0.744444  0.250000  0.892389  1
  B  B3  1  0.244444  0.750000  0.607611  1
  P  P4  1  0.498295  0.750000  0.140935  1
  P  P5  1  0.998295  0.250000  0.359065  1
  P  P6  1  0.501705  0.250000  0.859065  1
  P  P7  1  0.001705  0.750000  0.640935  1
  I  I8  1  0.176061  0.250000  0.498340  1
  I  I9  1  0.323939  0.250000  0.998340  1
  I  I10  1  0.080384  0.407859  0.266726  1
  I  I11  1  0.419616  0.092141  0.766726  1
  I  I12  1  0.580384  0.907859  0.233274  1
  I  I13  1  0.419616  0.407859  0.766726  1
  I  I14  1  0.823939  0.750000  0.501660  1
  I  I15  1  0.919616  0.907859  0.733274  1
  I  I16  1  0.580384  0.592141  0.233274  1
  I  I17  1  0.676061  0.750000  0.001660  1
  I  I18  1  0.080384  0.092141  0.266726  1
  I  I19  1  0.919616  0.592141  0.733274  1
  I  I20  1  0.280397  0.599152  0.526206  1
  I  I21  1  0.719603  0.099152  0.473794  1
  I  I22  1  0.629636  0.250000  0.253799  1
  I  I23  1  0.780397  0.099152  0.973794  1
  I  I24  1  0.370364  0.750000  0.746201  1
  I  I25  1  0.219603  0.900848  0.026206  1
  I  I26  1  0.780397  0.400848  0.973794  1
  I  I27  1  0.280397  0.900848  0.526206  1
  I  I28  1  0.870364  0.250000  0.753799  1
  I  I29  1  0.129636  0.750000  0.246201  1
  I  I30  1  0.719603  0.400848  0.473794  1
  I  I31  1  0.219603  0.599152  0.026206  1
