# generated using pymatgen
data_Tb3TmAl18Ir5Au
_symmetry_space_group_name_H-M   'P 1'
_cell_length_a   7.58421940
_cell_length_b   7.58572435
_cell_length_c   9.47908283
_cell_angle_alpha   89.93158446
_cell_angle_beta   89.97627055
_cell_angle_gamma   119.51784221
_symmetry_Int_Tables_number   1
_chemical_formula_structural   Tb3TmAl18Ir5Au
_chemical_formula_sum   'Tb3 Tm1 Al18 Ir5 Au1'
_cell_volume   474.56302512
_cell_formula_units_Z   1
loop_
 _symmetry_equiv_pos_site_id
 _symmetry_equiv_pos_as_xyz
  1  'x, y, z'
loop_
 _atom_site_type_symbol
 _atom_site_label
 _atom_site_symmetry_multiplicity
 _atom_site_fract_x
 _atom_site_fract_y
 _atom_site_fract_z
 _atom_site_occupancy
  Tb  Tb0  1  0.995982  0.673739  0.251063  1
  Tb  Tb1  1  0.004224  0.326293  0.748964  1
  Tb  Tb2  1  0.673467  0.995875  0.251028  1
  Tm  Tm3  1  0.326337  0.004040  0.748497  1
  Al  Al4  1  0.136086  0.135821  0.256336  1
  Al  Al5  1  0.864858  0.864334  0.743881  1
  Al  Al6  1  0.002063  0.344558  0.078782  1
  Al  Al7  1  0.998781  0.656461  0.920400  1
  Al  Al8  1  0.000570  0.665191  0.574686  1
  Al  Al9  1  0.335695  0.000409  0.427075  1
  Al  Al10  1  0.000303  0.335631  0.426210  1
  Al  Al11  1  0.663574  0.999626  0.574590  1
  Al  Al12  1  0.654621  0.998036  0.920217  1
  Al  Al13  1  0.344327  0.002050  0.077992  1
  Al  Al14  1  0.333561  0.332838  0.553009  1
  Al  Al15  1  0.666527  0.666471  0.448102  1
  Al  Al16  1  0.657501  0.657438  0.058468  1
  Al  Al17  1  0.342356  0.341662  0.940416  1
  Al  Al18  1  0.339256  0.550005  0.251263  1
  Al  Al19  1  0.659960  0.448974  0.748753  1
  Al  Al20  1  0.549975  0.339069  0.251207  1
  Al  Al21  1  0.449811  0.661412  0.748825  1
  Ir  Ir22  1  0.671812  0.327930  0.999767  1
  Ir  Ir23  1  0.328059  0.672066  0.999778  1
  Ir  Ir24  1  0.328037  0.672059  0.500217  1
  Ir  Ir25  1  0.671792  0.327902  0.500252  1
  Ir  Ir26  1  0.000368  0.000086  0.500305  1
  Au  Au27  1  0.000097  0.000025  0.999914  1
