# generated using pymatgen
data_Nd8Y2Ir3Ru
_symmetry_space_group_name_H-M   'P 1'
_cell_length_a   6.64795655
_cell_length_b   7.31767953
_cell_length_c   8.90532129
_cell_angle_alpha   96.31174190
_cell_angle_beta   112.05597848
_cell_angle_gamma   89.95630595
_symmetry_Int_Tables_number   1
_chemical_formula_structural   Nd8Y2Ir3Ru
_chemical_formula_sum   'Nd8 Y2 Ir3 Ru1'
_cell_volume   398.69820382
_cell_formula_units_Z   1
loop_
 _symmetry_equiv_pos_site_id
 _symmetry_equiv_pos_as_xyz
  1  'x, y, z'
loop_
 _atom_site_type_symbol
 _atom_site_label
 _atom_site_symmetry_multiplicity
 _atom_site_fract_x
 _atom_site_fract_y
 _atom_site_fract_z
 _atom_site_occupancy
  Nd  Nd0  1  0.978104  0.918776  0.182591  1
  Nd  Nd1  1  0.794752  0.581748  0.817465  1
  Nd  Nd2  1  0.025540  0.081196  0.819761  1
  Nd  Nd3  1  0.208859  0.415929  0.184041  1
  Nd  Nd4  1  0.644040  0.816306  0.430791  1
  Nd  Nd5  1  0.212190  0.684577  0.565320  1
  Nd  Nd6  1  0.353677  0.185108  0.565712  1
  Nd  Nd7  1  0.785672  0.315591  0.433515  1
  Y  Y8  1  0.433329  0.750048  0.000664  1
  Y  Y9  1  0.567756  0.250150  0.999669  1
  Ir  Ir10  1  0.817624  0.572509  0.217821  1
  Ir  Ir11  1  0.599971  0.927645  0.784415  1
  Ir  Ir12  1  0.183596  0.428539  0.782029  1
  Ru  Ru13  1  0.394888  0.071879  0.216205  1
