# generated using pymatgen
data_TbNd3Ga18PdRh5
_symmetry_space_group_name_H-M   'P 1'
_cell_length_a   7.65472072
_cell_length_b   7.65697853
_cell_length_c   9.59957901
_cell_angle_alpha   90.03614254
_cell_angle_beta   90.03691432
_cell_angle_gamma   119.77861442
_symmetry_Int_Tables_number   1
_chemical_formula_structural   TbNd3Ga18PdRh5
_chemical_formula_sum   'Tb1 Nd3 Ga18 Pd1 Rh5'
_cell_volume   488.35289695
_cell_formula_units_Z   1
loop_
 _symmetry_equiv_pos_site_id
 _symmetry_equiv_pos_as_xyz
  1  'x, y, z'
loop_
 _atom_site_type_symbol
 _atom_site_label
 _atom_site_symmetry_multiplicity
 _atom_site_fract_x
 _atom_site_fract_y
 _atom_site_fract_z
 _atom_site_occupancy
  Tb  Tb0  1  0.331795  0.003296  0.749361  1
  Nd  Nd1  1  0.996561  0.668281  0.250489  1
  Nd  Nd2  1  0.003380  0.331679  0.749483  1
  Nd  Nd3  1  0.668299  0.996573  0.250492  1
  Ga  Ga4  1  0.127980  0.127919  0.252296  1
  Ga  Ga5  1  0.872978  0.872369  0.747713  1
  Ga  Ga6  1  0.001101  0.337008  0.079458  1
  Ga  Ga7  1  0.999909  0.664001  0.920044  1
  Ga  Ga8  1  0.999935  0.666717  0.578451  1
  Ga  Ga9  1  0.334219  0.000999  0.422825  1
  Ga  Ga10  1  0.001089  0.334269  0.422092  1
  Ga  Ga11  1  0.664720  0.998912  0.578450  1
  Ga  Ga12  1  0.661941  0.998912  0.919965  1
  Ga  Ga13  1  0.336957  0.000971  0.078766  1
  Ga  Ga14  1  0.333646  0.332761  0.562599  1
  Ga  Ga15  1  0.666376  0.666410  0.438034  1
  Ga  Ga16  1  0.662406  0.662397  0.063467  1
  Ga  Ga17  1  0.337612  0.336812  0.935931  1
  Ga  Ga18  1  0.337630  0.545795  0.250232  1
  Ga  Ga19  1  0.661642  0.453262  0.749757  1
  Ga  Ga20  1  0.545733  0.337579  0.250231  1
  Ga  Ga21  1  0.454059  0.662986  0.749778  1
  Pd  Pd22  1  0.000268  0.000089  0.999752  1
  Rh  Rh23  1  0.670868  0.328593  0.999713  1
  Rh  Rh24  1  0.328845  0.671298  0.999725  1
  Rh  Rh25  1  0.328838  0.671269  0.500293  1
  Rh  Rh26  1  0.670907  0.328705  0.500292  1
  Rh  Rh27  1  0.000305  0.000136  0.500312  1
