# generated using pymatgen
data_HoTmHf2(Al3Ir)6
_symmetry_space_group_name_H-M   'P 1'
_cell_length_a   7.50817819
_cell_length_b   7.49512083
_cell_length_c   9.31976900
_cell_angle_alpha   90.00000000
_cell_angle_beta   90.00000000
_cell_angle_gamma   119.73347479
_symmetry_Int_Tables_number   1
_chemical_formula_structural   HoTmHf2(Al3Ir)6
_chemical_formula_sum   'Ho1 Tm1 Hf2 Al18 Ir6'
_cell_volume   455.41686953
_cell_formula_units_Z   1
loop_
 _symmetry_equiv_pos_site_id
 _symmetry_equiv_pos_as_xyz
  1  'x, y, z'
loop_
 _atom_site_type_symbol
 _atom_site_label
 _atom_site_symmetry_multiplicity
 _atom_site_fract_x
 _atom_site_fract_y
 _atom_site_fract_z
 _atom_site_occupancy
  Ho  Ho0  1  0.670910  0.994452  0.250000  1
  Tm  Tm1  1  0.328906  0.005521  0.750000  1
  Hf  Hf2  1  0.995562  0.671479  0.250000  1
  Hf  Hf3  1  0.004526  0.328539  0.750000  1
  Al  Al4  1  0.126664  0.124637  0.250000  1
  Al  Al5  1  0.873711  0.875483  0.750000  1
  Al  Al6  1  0.000009  0.337118  0.075781  1
  Al  Al7  1  0.000298  0.663165  0.923880  1
  Al  Al8  1  0.000298  0.663165  0.576120  1
  Al  Al9  1  0.332479  0.998424  0.421861  1
  Al  Al10  1  0.000009  0.337118  0.424219  1
  Al  Al11  1  0.667248  0.001616  0.578721  1
  Al  Al12  1  0.667248  0.001616  0.921279  1
  Al  Al13  1  0.332479  0.998424  0.078139  1
  Al  Al14  1  0.331302  0.333358  0.557515  1
  Al  Al15  1  0.668717  0.666374  0.442835  1
  Al  Al16  1  0.668717  0.666374  0.057165  1
  Al  Al17  1  0.331302  0.333358  0.942485  1
  Al  Al18  1  0.334933  0.548037  0.250000  1
  Al  Al19  1  0.664751  0.451567  0.750000  1
  Al  Al20  1  0.553760  0.343501  0.250000  1
  Al  Al21  1  0.446109  0.656672  0.750000  1
  Ir  Ir22  1  0.672818  0.327712  0.999502  1
  Ir  Ir23  1  0.327071  0.672266  0.000349  1
  Ir  Ir24  1  0.327071  0.672266  0.499651  1
  Ir  Ir25  1  0.672818  0.327712  0.500498  1
  Ir  Ir26  1  0.000143  0.000024  0.999906  1
  Ir  Ir27  1  0.000143  0.000024  0.500094  1
