# generated using pymatgen
data_Nd19TmSi15Br
_symmetry_space_group_name_H-M   'P 1'
_cell_length_a   7.83119153
_cell_length_b   7.92151852
_cell_length_c   15.20668884
_cell_angle_alpha   89.56162074
_cell_angle_beta   85.05707612
_cell_angle_gamma   89.76186260
_symmetry_Int_Tables_number   1
_chemical_formula_structural   Nd19TmSi15Br
_chemical_formula_sum   'Nd19 Tm1 Si15 Br1'
_cell_volume   939.80428023
_cell_formula_units_Z   1
loop_
 _symmetry_equiv_pos_site_id
 _symmetry_equiv_pos_as_xyz
  1  'x, y, z'
loop_
 _atom_site_type_symbol
 _atom_site_label
 _atom_site_symmetry_multiplicity
 _atom_site_fract_x
 _atom_site_fract_y
 _atom_site_fract_z
 _atom_site_occupancy
  Nd  Nd0  1  0.865464  0.331439  0.621282  1
  Nd  Nd1  1  0.464559  0.689796  0.894945  1
  Nd  Nd2  1  0.964344  0.811625  0.896187  1
  Nd  Nd3  1  0.179866  0.676792  0.120495  1
  Nd  Nd4  1  0.680125  0.817755  0.120871  1
  Nd  Nd5  1  0.320464  0.179593  0.879907  1
  Nd  Nd6  1  0.145272  0.666549  0.383962  1
  Nd  Nd7  1  0.035905  0.186669  0.103573  1
  Nd  Nd8  1  0.362658  0.169275  0.616900  1
  Nd  Nd9  1  0.836025  0.491858  0.243986  1
  Nd  Nd10  1  0.333541  0.004059  0.251849  1
  Nd  Nd11  1  0.483867  0.308946  0.394917  1
  Nd  Nd12  1  0.821681  0.322930  0.878674  1
  Nd  Nd13  1  0.014715  0.832147  0.606388  1
  Nd  Nd14  1  0.494070  0.691291  0.607242  1
  Nd  Nd15  1  0.996687  0.169316  0.396014  1
  Nd  Nd16  1  0.634316  0.842364  0.382411  1
  Nd  Nd17  1  0.665620  0.995555  0.746198  1
  Nd  Nd18  1  0.536617  0.308825  0.103693  1
  Tm  Tm19  1  0.169068  0.509418  0.746316  1
  Si  Si20  1  0.454184  0.601188  0.252646  1
  Si  Si21  1  0.223435  0.375265  0.249703  1
  Si  Si22  1  0.543058  0.400436  0.751026  1
  Si  Si23  1  0.636883  0.024821  0.956986  1
  Si  Si24  1  0.046256  0.108107  0.752440  1
  Si  Si25  1  0.778731  0.623112  0.751036  1
  Si  Si26  1  0.723836  0.121146  0.249223  1
  Si  Si27  1  0.290714  0.969664  0.455400  1
  Si  Si28  1  0.953365  0.893792  0.250253  1
  Si  Si29  1  0.366576  0.973039  0.042728  1
  Si  Si30  1  0.715794  0.030660  0.542511  1
  Si  Si31  1  0.136741  0.476982  0.954461  1
  Si  Si32  1  0.207560  0.477612  0.549563  1
  Si  Si33  1  0.866739  0.522982  0.042278  1
  Si  Si34  1  0.272663  0.875396  0.752258  1
  Br  Br35  1  0.778598  0.519597  0.451677  1
