# generated using pymatgen
data_LaYb5PdRu
_symmetry_space_group_name_H-M   'P 1'
_cell_length_a   6.47645200
_cell_length_b   7.53912800
_cell_length_c   9.70589400
_cell_angle_alpha   90.00000000
_cell_angle_beta   90.00000000
_cell_angle_gamma   90.00000000
_symmetry_Int_Tables_number   1
_chemical_formula_structural   LaYb5PdRu
_chemical_formula_sum   'La2 Yb10 Pd2 Ru2'
_cell_volume   473.90775112
_cell_formula_units_Z   2
loop_
 _symmetry_equiv_pos_site_id
 _symmetry_equiv_pos_as_xyz
  1  'x, y, z'
loop_
 _atom_site_type_symbol
 _atom_site_label
 _atom_site_symmetry_multiplicity
 _atom_site_fract_x
 _atom_site_fract_y
 _atom_site_fract_z
 _atom_site_occupancy
  La  La0  1  0.862353  0.554448  0.250000  1
  La  La1  1  0.637647  0.054448  0.250000  1
  Yb  Yb2  1  0.336225  0.672311  0.070890  1
  Yb  Yb3  1  0.163775  0.172311  0.429110  1
  Yb  Yb4  1  0.657721  0.329503  0.564971  1
  Yb  Yb5  1  0.842279  0.829503  0.935029  1
  Yb  Yb6  1  0.657721  0.329503  0.935029  1
  Yb  Yb7  1  0.842279  0.829503  0.564971  1
  Yb  Yb8  1  0.336225  0.672311  0.429110  1
  Yb  Yb9  1  0.163775  0.172311  0.070890  1
  Yb  Yb10  1  0.135016  0.463158  0.750000  1
  Yb  Yb11  1  0.364984  0.963158  0.750000  1
  Pd  Pd12  1  0.946525  0.119487  0.750000  1
  Pd  Pd13  1  0.553475  0.619487  0.750000  1
  Ru  Ru14  1  0.011654  0.859279  0.250000  1
  Ru  Ru15  1  0.488346  0.359279  0.250000  1
