# generated using pymatgen
data_Na2V(PO3)5
_symmetry_space_group_name_H-M   'P 1'
_cell_length_a   13.74256900
_cell_length_b   5.29794826
_cell_length_c   8.91649700
_cell_angle_alpha   76.88463094
_cell_angle_beta   90.00000000
_cell_angle_gamma   90.00000000
_symmetry_Int_Tables_number   1
_chemical_formula_structural   Na2V(PO3)5
_chemical_formula_sum   'Na4 V2 P10 O30'
_cell_volume   632.25317952
_cell_formula_units_Z   2
loop_
 _symmetry_equiv_pos_site_id
 _symmetry_equiv_pos_as_xyz
  1  'x, y, z'
loop_
 _atom_site_type_symbol
 _atom_site_label
 _atom_site_symmetry_multiplicity
 _atom_site_fract_x
 _atom_site_fract_y
 _atom_site_fract_z
 _atom_site_occupancy
  Na  Na0  1  0.110180  0.926204  0.126216  1
  Na  Na1  1  0.389820  0.926204  0.126216  1
  Na  Na2  1  0.889820  0.073796  0.873784  1
  Na  Na3  1  0.610180  0.073796  0.873784  1
  V  V4  1  0.500000  0.500000  0.500000  1
  V  V5  1  0.000000  0.500000  0.500000  1
  P  P6  1  0.750000  0.543590  0.990133  1
  P  P7  1  0.858767  0.000542  0.483844  1
  P  P8  1  0.579287  0.349212  0.186720  1
  P  P9  1  0.141233  0.999458  0.516156  1
  P  P10  1  0.079287  0.650788  0.813280  1
  P  P11  1  0.250000  0.456410  0.009867  1
  P  P12  1  0.920713  0.349212  0.186720  1
  P  P13  1  0.358767  0.999458  0.516156  1
  P  P14  1  0.641233  0.000542  0.483844  1
  P  P15  1  0.420713  0.650788  0.813280  1
  O  O16  1  0.145748  0.858862  0.693499  1
  O  O17  1  0.659185  0.555456  0.108409  1
  O  O18  1  0.984287  0.494783  0.278886  1
  O  O19  1  0.645748  0.141138  0.306501  1
  O  O20  1  0.340815  0.444544  0.891591  1
  O  O21  1  0.030780  0.788849  0.920288  1
  O  O22  1  0.015713  0.505217  0.721114  1
  O  O23  1  0.078002  0.851601  0.426415  1
  O  O24  1  0.578002  0.148399  0.573585  1
  O  O25  1  0.622117  0.715332  0.498336  1
  O  O26  1  0.122117  0.284668  0.501664  1
  O  O27  1  0.250000  0.709810  0.056271  1
  O  O28  1  0.969220  0.211151  0.079712  1
  O  O29  1  0.354252  0.858862  0.693499  1
  O  O30  1  0.377883  0.284668  0.501664  1
  O  O31  1  0.877883  0.715332  0.498336  1
  O  O32  1  0.250000  0.202849  0.123622  1
  O  O33  1  0.159185  0.444544  0.891591  1
  O  O34  1  0.421998  0.851601  0.426415  1
  O  O35  1  0.469220  0.788849  0.920288  1
  O  O36  1  0.530780  0.211151  0.079712  1
  O  O37  1  0.750000  0.797151  0.876378  1
  O  O38  1  0.484287  0.505217  0.721114  1
  O  O39  1  0.250000  0.966330  0.460549  1
  O  O40  1  0.921998  0.148399  0.573585  1
  O  O41  1  0.854252  0.141138  0.306501  1
  O  O42  1  0.515713  0.494783  0.278886  1
  O  O43  1  0.840815  0.555456  0.108409  1
  O  O44  1  0.750000  0.290190  0.943729  1
  O  O45  1  0.750000  0.033670  0.539451  1
