# generated using pymatgen
data_Sr4Zn5CuAu12
_symmetry_space_group_name_H-M   'P 1'
_cell_length_a   8.87337551
_cell_length_b   8.86859875
_cell_length_c   8.87337604
_cell_angle_alpha   57.48827954
_cell_angle_beta   57.49563315
_cell_angle_gamma   57.48827964
_symmetry_Int_Tables_number   1
_chemical_formula_structural   Sr4Zn5CuAu12
_chemical_formula_sum   'Sr4 Zn5 Cu1 Au12'
_cell_volume   465.26480437
_cell_formula_units_Z   1
loop_
 _symmetry_equiv_pos_site_id
 _symmetry_equiv_pos_as_xyz
  1  'x, y, z'
loop_
 _atom_site_type_symbol
 _atom_site_label
 _atom_site_symmetry_multiplicity
 _atom_site_fract_x
 _atom_site_fract_y
 _atom_site_fract_z
 _atom_site_occupancy
  Sr  Sr0  1  0.906650  0.906618  0.906829  1
  Sr  Sr1  1  0.407912  0.408893  0.405648  1
  Sr  Sr2  1  0.094352  0.091107  0.092088  1
  Sr  Sr3  1  0.593171  0.593382  0.593350  1
  Zn  Zn4  1  0.932513  0.565216  0.752974  1
  Zn  Zn5  1  0.747026  0.934784  0.567487  1
  Zn  Zn6  1  0.439374  0.250000  0.060626  1
  Zn  Zn7  1  0.060753  0.439870  0.248721  1
  Zn  Zn8  1  0.251279  0.060130  0.439247  1
  Cu  Cu9  1  0.569398  0.750000  0.930602  1
  Au  Au10  1  0.480150  0.862129  0.203810  1
  Au  Au11  1  0.205196  0.479710  0.862774  1
  Au  Au12  1  0.862520  0.205185  0.478826  1
  Au  Au13  1  0.702237  0.365967  0.981099  1
  Au  Au14  1  0.980147  0.704532  0.364122  1
  Au  Au15  1  0.364062  0.978695  0.706107  1
  Au  Au16  1  0.518901  0.134033  0.797763  1
  Au  Au17  1  0.793893  0.521305  0.135938  1
  Au  Au18  1  0.135878  0.795468  0.519853  1
  Au  Au19  1  0.296190  0.637871  0.019850  1
  Au  Au20  1  0.021174  0.294815  0.637480  1
  Au  Au21  1  0.637226  0.020290  0.294804  1
