# generated using pymatgen
data_PrDy2Mn(Co4P3)2
_symmetry_space_group_name_H-M   'P 1'
_cell_length_a   3.72100300
_cell_length_b   10.59811500
_cell_length_c   12.26759900
_cell_angle_alpha   90.00000000
_cell_angle_beta   90.00000000
_cell_angle_gamma   90.00000000
_symmetry_Int_Tables_number   1
_chemical_formula_structural   PrDy2Mn(Co4P3)2
_chemical_formula_sum   'Pr2 Dy4 Mn2 Co16 P12'
_cell_volume   483.78034438
_cell_formula_units_Z   2
loop_
 _symmetry_equiv_pos_site_id
 _symmetry_equiv_pos_as_xyz
  1  'x, y, z'
loop_
 _atom_site_type_symbol
 _atom_site_label
 _atom_site_symmetry_multiplicity
 _atom_site_fract_x
 _atom_site_fract_y
 _atom_site_fract_z
 _atom_site_occupancy
  Pr  Pr0  1  0.000000  0.500000  0.523128  1
  Pr  Pr1  1  0.500000  0.000000  0.476872  1
  Dy  Dy2  1  0.500000  0.818004  0.204024  1
  Dy  Dy3  1  0.500000  0.181996  0.204024  1
  Dy  Dy4  1  0.000000  0.681996  0.795976  1
  Dy  Dy5  1  0.000000  0.318004  0.795976  1
  Mn  Mn6  1  0.500000  0.500000  0.155750  1
  Mn  Mn7  1  0.000000  0.000000  0.844250  1
  Co  Co8  1  0.500000  0.500000  0.706567  1
  Co  Co9  1  0.000000  0.000000  0.293433  1
  Co  Co10  1  0.000000  0.500000  0.986563  1
  Co  Co11  1  0.500000  0.000000  0.013437  1
  Co  Co12  1  0.500000  0.333049  0.994506  1
  Co  Co13  1  0.500000  0.666951  0.994506  1
  Co  Co14  1  0.000000  0.166951  0.005494  1
  Co  Co15  1  0.000000  0.833049  0.005494  1
  Co  Co16  1  0.500000  0.295956  0.428688  1
  Co  Co17  1  0.500000  0.704044  0.428688  1
  Co  Co18  1  0.000000  0.204044  0.571312  1
  Co  Co19  1  0.000000  0.795956  0.571312  1
  Co  Co20  1  0.500000  0.879986  0.712746  1
  Co  Co21  1  0.500000  0.120014  0.712746  1
  Co  Co22  1  0.000000  0.620014  0.287254  1
  Co  Co23  1  0.000000  0.379986  0.287254  1
  P  P24  1  0.500000  0.500000  0.884235  1
  P  P25  1  0.000000  0.000000  0.115765  1
  P  P26  1  0.500000  0.500000  0.339665  1
  P  P27  1  0.000000  0.000000  0.660335  1
  P  P28  1  0.500000  0.307075  0.618011  1
  P  P29  1  0.500000  0.692925  0.618011  1
  P  P30  1  0.000000  0.192925  0.381989  1
  P  P31  1  0.000000  0.807075  0.381989  1
  P  P32  1  0.500000  0.846687  0.894393  1
  P  P33  1  0.500000  0.153313  0.894393  1
  P  P34  1  0.000000  0.653313  0.105607  1
  P  P35  1  0.000000  0.346687  0.105607  1
