# generated using pymatgen
data_Zr4Re18Tc6Sn
_symmetry_space_group_name_H-M   'P 1'
_cell_length_a   8.48404632
_cell_length_b   8.48404522
_cell_length_c   8.46866127
_cell_angle_alpha   109.48732232
_cell_angle_beta   109.48733141
_cell_angle_gamma   109.51253900
_symmetry_Int_Tables_number   1
_chemical_formula_structural   Zr4Re18Tc6Sn
_chemical_formula_sum   'Zr4 Re18 Tc6 Sn1'
_cell_volume   468.81783008
_cell_formula_units_Z   1
loop_
 _symmetry_equiv_pos_site_id
 _symmetry_equiv_pos_as_xyz
  1  'x, y, z'
loop_
 _atom_site_type_symbol
 _atom_site_label
 _atom_site_symmetry_multiplicity
 _atom_site_fract_x
 _atom_site_fract_y
 _atom_site_fract_z
 _atom_site_occupancy
  Zr  Zr0  1  0.628739  0.999872  0.000000  1
  Zr  Zr1  1  0.999872  0.628739  0.000000  1
  Zr  Zr2  1  0.999793  0.999793  0.630502  1
  Zr  Zr3  1  0.369291  0.369291  0.369498  1
  Re  Re4  1  0.325002  0.325002  0.719454  1
  Re  Re5  1  0.000761  0.675371  0.393963  1
  Re  Re6  1  0.675371  0.000761  0.393963  1
  Re  Re7  1  0.605548  0.605548  0.280546  1
  Re  Re8  1  0.281408  0.606798  0.606037  1
  Re  Re9  1  0.606798  0.281408  0.606037  1
  Re  Re10  1  0.377406  0.195902  0.000000  1
  Re  Re11  1  0.181144  0.805206  0.804495  1
  Re  Re12  1  0.376649  0.000712  0.195505  1
  Re  Re13  1  0.195902  0.377406  0.000000  1
  Re  Re14  1  0.000712  0.376649  0.195505  1
  Re  Re15  1  0.805206  0.181144  0.804495  1
  Re  Re16  1  0.805711  0.805711  0.182903  1
  Re  Re17  1  0.000587  0.195126  0.378555  1
  Re  Re18  1  0.195126  0.000587  0.378555  1
  Re  Re19  1  0.622808  0.622808  0.817097  1
  Re  Re20  1  0.816570  0.622032  0.621445  1
  Re  Re21  1  0.622032  0.816570  0.621445  1
  Tc  Tc22  1  0.393733  0.676206  0.000000  1
  Tc  Tc23  1  0.718639  0.324211  0.323468  1
  Tc  Tc24  1  0.395171  0.000742  0.676532  1
  Tc  Tc25  1  0.676206  0.393733  0.000000  1
  Tc  Tc26  1  0.000742  0.395171  0.676532  1
  Tc  Tc27  1  0.324211  0.718639  0.323468  1
  Sn  Sn28  1  0.998863  0.998863  0.000000  1
