# generated using pymatgen
data_GaIrS3
_symmetry_space_group_name_H-M   'P 1'
_cell_length_a   3.67560800
_cell_length_b   9.79340600
_cell_length_c   12.09164900
_cell_angle_alpha   90.00000000
_cell_angle_beta   90.00000000
_cell_angle_gamma   90.00000000
_symmetry_Int_Tables_number   1
_chemical_formula_structural   GaIrS3
_chemical_formula_sum   'Ga4 Ir4 S12'
_cell_volume   435.25972081
_cell_formula_units_Z   4
loop_
 _symmetry_equiv_pos_site_id
 _symmetry_equiv_pos_as_xyz
  1  'x, y, z'
loop_
 _atom_site_type_symbol
 _atom_site_label
 _atom_site_symmetry_multiplicity
 _atom_site_fract_x
 _atom_site_fract_y
 _atom_site_fract_z
 _atom_site_occupancy
  Ga  Ga0  1  0.750000  0.259957  0.801154  1
  Ga  Ga1  1  0.250000  0.740043  0.198846  1
  Ga  Ga2  1  0.750000  0.759957  0.698846  1
  Ga  Ga3  1  0.250000  0.240043  0.301154  1
  Ir  Ir4  1  0.250000  0.408825  0.608809  1
  Ir  Ir5  1  0.750000  0.591175  0.391191  1
  Ir  Ir6  1  0.250000  0.908825  0.891191  1
  Ir  Ir7  1  0.750000  0.091175  0.108809  1
  S  S8  1  0.250000  0.936818  0.087709  1
  S  S9  1  0.750000  0.063182  0.912291  1
  S  S10  1  0.250000  0.436818  0.412291  1
  S  S11  1  0.750000  0.563182  0.587709  1
  S  S12  1  0.750000  0.095817  0.308351  1
  S  S13  1  0.250000  0.904183  0.691649  1
  S  S14  1  0.750000  0.595817  0.191649  1
  S  S15  1  0.250000  0.404183  0.808351  1
  S  S16  1  0.250000  0.251576  0.110483  1
  S  S17  1  0.750000  0.748424  0.889517  1
  S  S18  1  0.250000  0.751576  0.389517  1
  S  S19  1  0.750000  0.248424  0.610483  1
