# generated using pymatgen
data_SrY3(Ga8Pt3)3
_symmetry_space_group_name_H-M   'P 1'
_cell_length_a   7.54829297
_cell_length_b   7.60914911
_cell_length_c   13.47911848
_cell_angle_alpha   84.66592854
_cell_angle_beta   79.38975524
_cell_angle_gamma   60.36503059
_symmetry_Int_Tables_number   1
_chemical_formula_structural   SrY3(Ga8Pt3)3
_chemical_formula_sum   'Sr1 Y3 Ga24 Pt9'
_cell_volume   661.41193020
_cell_formula_units_Z   1
loop_
 _symmetry_equiv_pos_site_id
 _symmetry_equiv_pos_as_xyz
  1  'x, y, z'
loop_
 _atom_site_type_symbol
 _atom_site_label
 _atom_site_symmetry_multiplicity
 _atom_site_fract_x
 _atom_site_fract_y
 _atom_site_fract_z
 _atom_site_occupancy
  Sr  Sr0  1  0.394188  0.168026  0.810700  1
  Y  Y1  1  0.603483  0.832679  0.190864  1
  Y  Y2  1  0.731885  0.497504  0.811803  1
  Y  Y3  1  0.266474  0.502217  0.190056  1
  Ga  Ga4  1  0.689110  0.831873  0.943757  1
  Ga  Ga5  1  0.312639  0.166693  0.064392  1
  Ga  Ga6  1  0.146247  0.832346  0.557751  1
  Ga  Ga7  1  0.855126  0.167704  0.438929  1
  Ga  Ga8  1  0.479572  0.166855  0.553805  1
  Ga  Ga9  1  0.522198  0.832827  0.442143  1
  Ga  Ga10  1  0.222148  0.165125  0.322696  1
  Ga  Ga11  1  0.782835  0.833201  0.670446  1
  Ga  Ga12  1  0.439007  0.505578  0.669139  1
  Ga  Ga13  1  0.562496  0.496480  0.324630  1
  Ga  Ga14  1  0.107283  0.162622  0.667349  1
  Ga  Ga15  1  0.892957  0.836892  0.325490  1
  Ga  Ga16  1  0.354663  0.501545  0.944452  1
  Ga  Ga17  1  0.640791  0.503343  0.062562  1
  Ga  Ga18  1  0.015445  0.167275  0.951546  1
  Ga  Ga19  1  0.979085  0.830003  0.058254  1
  Ga  Ga20  1  0.187815  0.498830  0.441309  1
  Ga  Ga21  1  0.813106  0.501582  0.556072  1
  Ga  Ga22  1  0.734226  0.164247  0.182731  1
  Ga  Ga23  1  0.271487  0.821350  0.817913  1
  Ga  Ga24  1  0.048906  0.638560  0.817094  1
  Ga  Ga25  1  0.936253  0.370330  0.184058  1
  Ga  Ga26  1  0.865860  0.045209  0.816500  1
  Ga  Ga27  1  0.142226  0.958799  0.184453  1
  Pt  Pt28  1  0.118430  0.495857  0.636656  1
  Pt  Pt29  1  0.883503  0.504022  0.360568  1
  Pt  Pt30  1  0.659324  0.169462  0.001769  1
  Pt  Pt31  1  0.338932  0.831863  0.003460  1
  Pt  Pt32  1  0.541566  0.166840  0.359685  1
  Pt  Pt33  1  0.458802  0.833927  0.637331  1
  Pt  Pt34  1  0.780027  0.171844  0.634456  1
  Pt  Pt35  1  0.221383  0.827296  0.362333  1
  Pt  Pt36  1  0.000523  0.499193  0.002848  1
