# generated using pymatgen
data_Yb12Er8Si15Ge
_symmetry_space_group_name_H-M   'P 1'
_cell_length_a   7.38135103
_cell_length_b   7.77718665
_cell_length_c   15.04061792
_cell_angle_alpha   89.93376203
_cell_angle_beta   90.04967923
_cell_angle_gamma   90.03444885
_symmetry_Int_Tables_number   1
_chemical_formula_structural   Yb12Er8Si15Ge
_chemical_formula_sum   'Yb12 Er8 Si15 Ge1'
_cell_volume   863.42283136
_cell_formula_units_Z   1
loop_
 _symmetry_equiv_pos_site_id
 _symmetry_equiv_pos_as_xyz
  1  'x, y, z'
loop_
 _atom_site_type_symbol
 _atom_site_label
 _atom_site_symmetry_multiplicity
 _atom_site_fract_x
 _atom_site_fract_y
 _atom_site_fract_z
 _atom_site_occupancy
  Yb  Yb0  1  0.972187  0.816123  0.403525  1
  Yb  Yb1  1  0.472061  0.683790  0.096453  1
  Yb  Yb2  1  0.527771  0.316082  0.596413  1
  Yb  Yb3  1  0.027935  0.183786  0.903559  1
  Yb  Yb4  1  0.028073  0.183771  0.596383  1
  Yb  Yb5  1  0.527945  0.316206  0.903554  1
  Yb  Yb6  1  0.471891  0.683965  0.403458  1
  Yb  Yb7  1  0.972061  0.816212  0.096444  1
  Yb  Yb8  1  0.353543  0.019299  0.750027  1
  Yb  Yb9  1  0.853599  0.480706  0.750145  1
  Yb  Yb10  1  0.146470  0.519272  0.250006  1
  Yb  Yb11  1  0.646407  0.980704  0.249995  1
  Er  Er12  1  0.314240  0.176710  0.121054  1
  Er  Er13  1  0.814506  0.322847  0.378615  1
  Er  Er14  1  0.185812  0.676710  0.878914  1
  Er  Er15  1  0.685260  0.824330  0.621380  1
  Er  Er16  1  0.314316  0.176570  0.378892  1
  Er  Er17  1  0.814210  0.323306  0.121064  1
  Er  Er18  1  0.186647  0.676933  0.621164  1
  Er  Er19  1  0.685746  0.823321  0.878963  1
  Si  Si20  1  0.357637  0.966466  0.961521  1
  Si  Si21  1  0.642408  0.033473  0.461549  1
  Si  Si22  1  0.142350  0.466460  0.038469  1
  Si  Si23  1  0.145758  0.465793  0.460734  1
  Si  Si24  1  0.642359  0.033531  0.038470  1
  Si  Si25  1  0.357645  0.966456  0.538465  1
  Si  Si26  1  0.857646  0.533537  0.961502  1
  Si  Si27  1  0.977824  0.882016  0.749984  1
  Si  Si28  1  0.477951  0.617976  0.750029  1
  Si  Si29  1  0.522152  0.382042  0.249966  1
  Si  Si30  1  0.022159  0.117867  0.249959  1
  Si  Si31  1  0.248885  0.395344  0.749996  1
  Si  Si32  1  0.748990  0.104758  0.749987  1
  Si  Si33  1  0.250986  0.895368  0.250000  1
  Si  Si34  1  0.751042  0.604649  0.249997  1
  Ge  Ge35  1  0.853527  0.533620  0.539367  1
