# generated using pymatgen
data_K10NbInP6
_symmetry_space_group_name_H-M   'P 1'
_cell_length_a   8.18557100
_cell_length_b   9.00630463
_cell_length_c   17.32225651
_cell_angle_alpha   59.87563261
_cell_angle_beta   90.00000000
_cell_angle_gamma   90.00000000
_symmetry_Int_Tables_number   1
_chemical_formula_structural   K10NbInP6
_chemical_formula_sum   'K20 Nb2 In2 P12'
_cell_volume   1104.54924377
_cell_formula_units_Z   2
loop_
 _symmetry_equiv_pos_site_id
 _symmetry_equiv_pos_as_xyz
  1  'x, y, z'
loop_
 _atom_site_type_symbol
 _atom_site_label
 _atom_site_symmetry_multiplicity
 _atom_site_fract_x
 _atom_site_fract_y
 _atom_site_fract_z
 _atom_site_occupancy
  K  K0  1  0.747878  0.907121  0.410189  1
  K  K1  1  0.252122  0.907121  0.910189  1
  K  K2  1  0.763494  0.092725  0.591668  1
  K  K3  1  0.236506  0.092725  0.091668  1
  K  K4  1  0.578978  0.161340  0.757214  1
  K  K5  1  0.421022  0.161340  0.257214  1
  K  K6  1  0.920028  0.841021  0.240012  1
  K  K7  1  0.079972  0.841021  0.740012  1
  K  K8  1  0.738815  0.543795  0.756834  1
  K  K9  1  0.261185  0.543795  0.256834  1
  K  K10  1  0.772290  0.457932  0.239383  1
  K  K11  1  0.227710  0.457932  0.739383  1
  K  K12  1  0.077631  0.160436  0.418324  1
  K  K13  1  0.922369  0.160436  0.918324  1
  K  K14  1  0.423499  0.841152  0.581036  1
  K  K15  1  0.576501  0.841152  0.081036  1
  K  K16  1  0.253142  0.266877  0.574029  1
  K  K17  1  0.746858  0.266877  0.074029  1
  K  K18  1  0.225868  0.734343  0.424971  1
  K  K19  1  0.774132  0.734343  0.924971  1
  Nb  Nb20  1  0.623112  0.504868  0.423214  1
  Nb  Nb21  1  0.376888  0.504868  0.923214  1
  In  In22  1  0.884583  0.492846  0.582780  1
  In  In23  1  0.115417  0.492846  0.082780  1
  P  P24  1  0.922989  0.486480  0.427978  1
  P  P25  1  0.077011  0.486480  0.927978  1
  P  P26  1  0.552345  0.513973  0.558748  1
  P  P27  1  0.447655  0.513973  0.058748  1
  P  P28  1  0.968006  0.200055  0.723723  1
  P  P29  1  0.031994  0.200055  0.223723  1
  P  P30  1  0.536773  0.765887  0.290788  1
  P  P31  1  0.463227  0.765887  0.790788  1
  P  P32  1  0.999319  0.771650  0.577204  1
  P  P33  1  0.000681  0.771650  0.077204  1
  P  P34  1  0.505083  0.257500  0.421905  1
  P  P35  1  0.494917  0.257500  0.921905  1
