# generated using pymatgen
data_Nd5Ho12Th3Sn16
_symmetry_space_group_name_H-M   'P 1'
_cell_length_a   8.12479681
_cell_length_b   8.25728992
_cell_length_c   15.56319000
_cell_angle_alpha   90.05209539
_cell_angle_beta   89.95145369
_cell_angle_gamma   89.98483699
_symmetry_Int_Tables_number   1
_chemical_formula_structural   Nd5Ho12Th3Sn16
_chemical_formula_sum   'Nd5 Ho12 Th3 Sn16'
_cell_volume   1044.11494158
_cell_formula_units_Z   1
loop_
 _symmetry_equiv_pos_site_id
 _symmetry_equiv_pos_as_xyz
  1  'x, y, z'
loop_
 _atom_site_type_symbol
 _atom_site_label
 _atom_site_symmetry_multiplicity
 _atom_site_fract_x
 _atom_site_fract_y
 _atom_site_fract_z
 _atom_site_occupancy
  Nd  Nd0  1  0.519100  0.320679  0.902446  1
  Nd  Nd1  1  0.019492  0.178739  0.597668  1
  Nd  Nd2  1  0.480849  0.679208  0.402725  1
  Nd  Nd3  1  0.982045  0.821212  0.097921  1
  Nd  Nd4  1  0.483225  0.678335  0.096988  1
  Ho  Ho5  1  0.362009  0.835463  0.876811  1
  Ho  Ho6  1  0.862689  0.664568  0.623346  1
  Ho  Ho7  1  0.637417  0.164169  0.376988  1
  Ho  Ho8  1  0.137574  0.335976  0.123611  1
  Ho  Ho9  1  0.638659  0.162688  0.123457  1
  Ho  Ho10  1  0.138367  0.337124  0.376875  1
  Ho  Ho11  1  0.361619  0.837106  0.623257  1
  Ho  Ho12  1  0.861307  0.662984  0.876448  1
  Ho  Ho13  1  0.193010  0.501490  0.750339  1
  Ho  Ho14  1  0.692741  0.998682  0.749372  1
  Ho  Ho15  1  0.806459  0.499141  0.250477  1
  Ho  Ho16  1  0.306250  0.002387  0.249358  1
  Th  Th17  1  0.982874  0.820085  0.402683  1
  Th  Th18  1  0.517107  0.320824  0.596979  1
  Th  Th19  1  0.016903  0.179385  0.903270  1
  Sn  Sn20  1  0.297937  0.039576  0.041424  1
  Sn  Sn21  1  0.798132  0.462101  0.458088  1
  Sn  Sn22  1  0.702348  0.962135  0.542075  1
  Sn  Sn23  1  0.199988  0.537017  0.956943  1
  Sn  Sn24  1  0.701616  0.961191  0.957307  1
  Sn  Sn25  1  0.201288  0.539973  0.542111  1
  Sn  Sn26  1  0.298338  0.039590  0.458094  1
  Sn  Sn27  1  0.801010  0.458465  0.041703  1
  Sn  Sn28  1  0.558887  0.623415  0.748704  1
  Sn  Sn29  1  0.059472  0.877648  0.750944  1
  Sn  Sn30  1  0.440563  0.376790  0.249897  1
  Sn  Sn31  1  0.939997  0.122852  0.251348  1
  Sn  Sn32  1  0.325262  0.143703  0.750555  1
  Sn  Sn33  1  0.825457  0.356146  0.749491  1
  Sn  Sn34  1  0.674952  0.856222  0.250295  1
  Sn  Sn35  1  0.175059  0.642929  0.250003  1
