# generated using pymatgen
data_Tb3Sn3HgIr2
_symmetry_space_group_name_H-M   'P 1'
_cell_length_a   7.62254100
_cell_length_b   7.62254149
_cell_length_c   4.06280400
_cell_angle_alpha   90.00000000
_cell_angle_beta   90.00000000
_cell_angle_gamma   119.99999354
_symmetry_Int_Tables_number   1
_chemical_formula_structural   Tb3Sn3HgIr2
_chemical_formula_sum   'Tb3 Sn3 Hg1 Ir2'
_cell_volume   204.43539852
_cell_formula_units_Z   1
loop_
 _symmetry_equiv_pos_site_id
 _symmetry_equiv_pos_as_xyz
  1  'x, y, z'
loop_
 _atom_site_type_symbol
 _atom_site_label
 _atom_site_symmetry_multiplicity
 _atom_site_fract_x
 _atom_site_fract_y
 _atom_site_fract_z
 _atom_site_occupancy
  Tb  Tb0  1  0.608377  0.020637  0.000000  1
  Tb  Tb1  1  0.979363  0.587740  0.000000  1
  Tb  Tb2  1  0.412260  0.391623  0.000000  1
  Sn  Sn3  1  0.254269  0.009411  0.500000  1
  Sn  Sn4  1  0.990589  0.244858  0.500000  1
  Sn  Sn5  1  0.755142  0.745731  0.500000  1
  Hg  Hg6  1  0.333333  0.666667  0.500000  1
  Ir  Ir7  1  0.666667  0.333333  0.500000  1
  Ir  Ir8  1  0.000000  0.000000  0.000000  1
