# generated using pymatgen
data_CaCd4Fe(SiO3)6
_symmetry_space_group_name_H-M   'P 1'
_cell_length_a   7.29323885
_cell_length_b   7.93983136
_cell_length_c   7.85538243
_cell_angle_alpha   91.19069245
_cell_angle_beta   103.52321849
_cell_angle_gamma   62.73301416
_symmetry_Int_Tables_number   1
_chemical_formula_structural   CaCd4Fe(SiO3)6
_chemical_formula_sum   'Ca1 Cd4 Fe1 Si6 O18'
_cell_volume   391.15905023
_cell_formula_units_Z   1
loop_
 _symmetry_equiv_pos_site_id
 _symmetry_equiv_pos_as_xyz
  1  'x, y, z'
loop_
 _atom_site_type_symbol
 _atom_site_label
 _atom_site_symmetry_multiplicity
 _atom_site_fract_x
 _atom_site_fract_y
 _atom_site_fract_z
 _atom_site_occupancy
  Ca  Ca0  1  0.000006  0.499998  0.500001  1
  Cd  Cd1  1  0.307429  0.251107  0.202128  1
  Cd  Cd2  1  0.792432  0.250084  0.199299  1
  Cd  Cd3  1  0.207566  0.749907  0.800702  1
  Cd  Cd4  1  0.692570  0.748894  0.797878  1
  Fe  Fe5  1  0.500019  0.500031  0.499980  1
  Si  Si6  1  0.031189  0.726209  0.184709  1
  Si  Si7  1  0.586981  0.736833  0.188069  1
  Si  Si8  1  0.247002  0.953750  0.395068  1
  Si  Si9  1  0.752991  0.046250  0.604932  1
  Si  Si10  1  0.413014  0.263174  0.811927  1
  Si  Si11  1  0.968811  0.273783  0.815293  1
  O  O12  1  0.506391  0.250125  0.022105  1
  O  O13  1  0.983991  0.286701  0.022706  1
  O  O14  1  0.806716  0.756847  0.224407  1
  O  O15  1  0.059748  0.912340  0.259331  1
  O  O16  1  0.422975  0.919873  0.275642  1
  O  O17  1  0.651848  0.542227  0.307184  1
  O  O18  1  0.214448  0.536304  0.315694  1
  O  O19  1  0.129901  0.183323  0.403302  1
  O  O20  1  0.637871  0.197236  0.429692  1
  O  O21  1  0.362126  0.802767  0.570309  1
  O  O22  1  0.870093  0.816674  0.596698  1
  O  O23  1  0.785558  0.463694  0.684312  1
  O  O24  1  0.348156  0.457774  0.692812  1
  O  O25  1  0.577023  0.080120  0.724361  1
  O  O26  1  0.940249  0.087655  0.740668  1
  O  O27  1  0.193280  0.243151  0.775594  1
  O  O28  1  0.016003  0.713295  0.977294  1
  O  O29  1  0.493606  0.749870  0.977897  1
