# generated using pymatgen
data_KRb3Si4(SbS4)4
_symmetry_space_group_name_H-M   'P 1'
_cell_length_a   7.28664954
_cell_length_b   8.90302596
_cell_length_c   12.99656008
_cell_angle_alpha   73.58937613
_cell_angle_beta   90.21894857
_cell_angle_gamma   89.92652915
_symmetry_Int_Tables_number   1
_chemical_formula_structural   KRb3Si4(SbS4)4
_chemical_formula_sum   'K1 Rb3 Si4 Sb4 S16'
_cell_volume   808.77275936
_cell_formula_units_Z   1
loop_
 _symmetry_equiv_pos_site_id
 _symmetry_equiv_pos_as_xyz
  1  'x, y, z'
loop_
 _atom_site_type_symbol
 _atom_site_label
 _atom_site_symmetry_multiplicity
 _atom_site_fract_x
 _atom_site_fract_y
 _atom_site_fract_z
 _atom_site_occupancy
  K  K0  1  0.254603  0.424046  0.883302  1
  Rb  Rb1  1  0.260878  0.425137  0.389789  1
  Rb  Rb2  1  0.760496  0.574522  0.109315  1
  Rb  Rb3  1  0.738998  0.574488  0.611336  1
  Si  Si4  1  0.781035  0.181910  0.348106  1
  Si  Si5  1  0.280243  0.819140  0.150594  1
  Si  Si6  1  0.218574  0.813911  0.653726  1
  Si  Si7  1  0.716266  0.185240  0.848123  1
  Sb  Sb8  1  0.137961  0.938926  0.370061  1
  Sb  Sb9  1  0.636668  0.062768  0.128522  1
  Sb  Sb10  1  0.865996  0.060638  0.631280  1
  Sb  Sb11  1  0.361703  0.938182  0.870711  1
  S  S12  1  0.968529  0.222661  0.760428  1
  S  S13  1  0.810312  0.934184  0.436809  1
  S  S14  1  0.491185  0.223650  0.741787  1
  S  S15  1  0.691667  0.936321  0.935155  1
  S  S16  1  0.782557  0.317151  0.458369  1
  S  S17  1  0.030380  0.781361  0.240660  1
  S  S18  1  0.281294  0.682584  0.040736  1
  S  S19  1  0.193846  0.063218  0.566940  1
  S  S20  1  0.711962  0.321051  0.958221  1
  S  S21  1  0.503825  0.781943  0.258120  1
  S  S22  1  0.994727  0.777235  0.760168  1
  S  S23  1  0.217363  0.680778  0.542144  1
  S  S24  1  0.529877  0.219893  0.258190  1
  S  S25  1  0.003749  0.219527  0.240706  1
  S  S26  1  0.467641  0.772277  0.745373  1
  S  S27  1  0.307662  0.067261  0.061329  1
