# generated using pymatgen
data_La4DyPb4
_symmetry_space_group_name_H-M   'P 1'
_cell_length_a   8.53239800
_cell_length_b   8.63620000
_cell_length_c   16.45709400
_cell_angle_alpha   90.00000000
_cell_angle_beta   90.00000000
_cell_angle_gamma   90.00000000
_symmetry_Int_Tables_number   1
_chemical_formula_structural   La4DyPb4
_chemical_formula_sum   'La16 Dy4 Pb16'
_cell_volume   1212.68204184
_cell_formula_units_Z   4
loop_
 _symmetry_equiv_pos_site_id
 _symmetry_equiv_pos_as_xyz
  1  'x, y, z'
loop_
 _atom_site_type_symbol
 _atom_site_label
 _atom_site_symmetry_multiplicity
 _atom_site_fract_x
 _atom_site_fract_y
 _atom_site_fract_z
 _atom_site_occupancy
  La  La0  1  0.879528  0.659036  0.117714  1
  La  La1  1  0.379528  0.840964  0.382286  1
  La  La2  1  0.620472  0.159036  0.882286  1
  La  La3  1  0.120472  0.340964  0.617714  1
  La  La4  1  0.120472  0.340964  0.882286  1
  La  La5  1  0.620472  0.159036  0.617714  1
  La  La6  1  0.379528  0.840964  0.117714  1
  La  La7  1  0.879528  0.659036  0.382286  1
  La  La8  1  0.028913  0.179504  0.100768  1
  La  La9  1  0.528913  0.320496  0.399232  1
  La  La10  1  0.471087  0.679504  0.899232  1
  La  La11  1  0.971087  0.820496  0.600768  1
  La  La12  1  0.971087  0.820496  0.899232  1
  La  La13  1  0.471087  0.679504  0.600768  1
  La  La14  1  0.528913  0.320496  0.100768  1
  La  La15  1  0.028913  0.179504  0.399232  1
  Dy  Dy16  1  0.711463  0.997043  0.250000  1
  Dy  Dy17  1  0.211463  0.502957  0.250000  1
  Dy  Dy18  1  0.788537  0.497043  0.750000  1
  Dy  Dy19  1  0.288537  0.002957  0.750000  1
  Pb  Pb20  1  0.074092  0.877760  0.250000  1
  Pb  Pb21  1  0.574092  0.622240  0.250000  1
  Pb  Pb22  1  0.425908  0.377760  0.750000  1
  Pb  Pb23  1  0.925908  0.122240  0.750000  1
  Pb  Pb24  1  0.837239  0.351424  0.250000  1
  Pb  Pb25  1  0.337239  0.148576  0.250000  1
  Pb  Pb26  1  0.662761  0.851424  0.750000  1
  Pb  Pb27  1  0.162761  0.648576  0.750000  1
  Pb  Pb28  1  0.779702  0.468832  0.954647  1
  Pb  Pb29  1  0.279702  0.031168  0.545353  1
  Pb  Pb30  1  0.720298  0.968832  0.045353  1
  Pb  Pb31  1  0.220298  0.531168  0.454647  1
  Pb  Pb32  1  0.220298  0.531168  0.045353  1
  Pb  Pb33  1  0.720298  0.968832  0.454647  1
  Pb  Pb34  1  0.279702  0.031168  0.954647  1
  Pb  Pb35  1  0.779702  0.468832  0.545353  1
