# generated using pymatgen
data_Dy2Mn2Fe10P7
_symmetry_space_group_name_H-M   'P 1'
_cell_length_a   9.00813245
_cell_length_b   8.99670394
_cell_length_c   3.62927600
_cell_angle_alpha   90.00000000
_cell_angle_beta   90.00000000
_cell_angle_gamma   119.96913167
_symmetry_Int_Tables_number   1
_chemical_formula_structural   Dy2Mn2Fe10P7
_chemical_formula_sum   'Dy2 Mn2 Fe10 P7'
_cell_volume   254.80258186
_cell_formula_units_Z   1
loop_
 _symmetry_equiv_pos_site_id
 _symmetry_equiv_pos_as_xyz
  1  'x, y, z'
loop_
 _atom_site_type_symbol
 _atom_site_label
 _atom_site_symmetry_multiplicity
 _atom_site_fract_x
 _atom_site_fract_y
 _atom_site_fract_z
 _atom_site_occupancy
  Dy  Dy0  1  0.331691  0.664002  0.000000  1
  Dy  Dy1  1  0.000054  0.001922  0.500000  1
  Mn  Mn2  1  0.770978  0.551312  0.500000  1
  Mn  Mn3  1  0.449515  0.215390  0.500000  1
  Fe  Fe4  1  0.033717  0.276722  0.000000  1
  Fe  Fe5  1  0.722588  0.759291  0.000000  1
  Fe  Fe6  1  0.241833  0.964234  0.000000  1
  Fe  Fe7  1  0.547091  0.059062  0.000000  1
  Fe  Fe8  1  0.941315  0.489180  0.000000  1
  Fe  Fe9  1  0.514035  0.452428  0.000000  1
  Fe  Fe10  1  0.617775  0.900118  0.500000  1
  Fe  Fe11  1  0.100453  0.717397  0.500000  1
  Fe  Fe12  1  0.281469  0.382594  0.500000  1
  Fe  Fe13  1  0.783640  0.237424  0.500000  1
  P  P14  1  0.777999  0.034639  0.000000  1
  P  P15  1  0.968547  0.747929  0.000000  1
  P  P16  1  0.253415  0.223361  0.000000  1
  P  P17  1  0.377274  0.924848  0.500000  1
  P  P18  1  0.065923  0.442685  0.500000  1
  P  P19  1  0.550837  0.623242  0.500000  1
  P  P20  1  0.669851  0.332221  0.000000  1
