# generated using pymatgen
data_Ho4FeTcRu6
_symmetry_space_group_name_H-M   'P 1'
_cell_length_a   5.43015857
_cell_length_b   5.15683693
_cell_length_c   8.90216700
_cell_angle_alpha   90.00000000
_cell_angle_beta   90.00000000
_cell_angle_gamma   121.73660569
_symmetry_Int_Tables_number   1
_chemical_formula_structural   Ho4FeTcRu6
_chemical_formula_sum   'Ho4 Fe1 Tc1 Ru6'
_cell_volume   212.00851823
_cell_formula_units_Z   1
loop_
 _symmetry_equiv_pos_site_id
 _symmetry_equiv_pos_as_xyz
  1  'x, y, z'
loop_
 _atom_site_type_symbol
 _atom_site_label
 _atom_site_symmetry_multiplicity
 _atom_site_fract_x
 _atom_site_fract_y
 _atom_site_fract_z
 _atom_site_occupancy
  Ho  Ho0  1  0.668068  0.336134  0.567392  1
  Ho  Ho1  1  0.329216  0.658355  0.435462  1
  Ho  Ho2  1  0.329216  0.658355  0.064538  1
  Ho  Ho3  1  0.668068  0.336134  0.932608  1
  Fe  Fe4  1  0.166976  0.333707  0.750000  1
  Tc  Tc5  1  0.838884  0.677826  0.250000  1
  Ru  Ru6  1  0.996704  0.994449  0.503594  1
  Ru  Ru7  1  0.996704  0.994449  0.996406  1
  Ru  Ru8  1  0.173751  0.826001  0.750000  1
  Ru  Ru9  1  0.652738  0.825933  0.750000  1
  Ru  Ru10  1  0.829350  0.179460  0.250000  1
  Ru  Ru11  1  0.350323  0.179197  0.250000  1
