# generated using pymatgen
data_Ho2FeSi4Ru
_symmetry_space_group_name_H-M   'P 1'
_cell_length_a   4.35136798
_cell_length_b   3.97260600
_cell_length_c   8.06267742
_cell_angle_alpha   90.00000000
_cell_angle_beta   102.45050561
_cell_angle_gamma   90.00000000
_symmetry_Int_Tables_number   1
_chemical_formula_structural   Ho2FeSi4Ru
_chemical_formula_sum   'Ho2 Fe1 Si4 Ru1'
_cell_volume   136.09591975
_cell_formula_units_Z   1
loop_
 _symmetry_equiv_pos_site_id
 _symmetry_equiv_pos_as_xyz
  1  'x, y, z'
loop_
 _atom_site_type_symbol
 _atom_site_label
 _atom_site_symmetry_multiplicity
 _atom_site_fract_x
 _atom_site_fract_y
 _atom_site_fract_z
 _atom_site_occupancy
  Ho  Ho0  1  0.905678  0.250000  0.297307  1
  Ho  Ho1  1  0.082552  0.750001  0.702516  1
  Fe  Fe2  1  0.386149  0.750001  0.111533  1
  Si  Si3  1  0.843115  0.750001  0.017776  1
  Si  Si4  1  0.458510  0.750001  0.399307  1
  Si  Si5  1  0.530315  0.250000  0.585903  1
  Si  Si6  1  0.176384  0.250000  0.000470  1
  Ru  Ru7  1  0.617298  0.250000  0.885189  1
