# generated using pymatgen
data_NdSm7(Pt2Pb)4
_symmetry_space_group_name_H-M   'P 1'
_cell_length_a   8.03852306
_cell_length_b   8.03852448
_cell_length_c   7.41727200
_cell_angle_alpha   90.00000000
_cell_angle_beta   90.00000000
_cell_angle_gamma   90.10406372
_symmetry_Int_Tables_number   1
_chemical_formula_structural   NdSm7(Pt2Pb)4
_chemical_formula_sum   'Nd1 Sm7 Pt8 Pb4'
_cell_volume   479.28748589
_cell_formula_units_Z   1
loop_
 _symmetry_equiv_pos_site_id
 _symmetry_equiv_pos_as_xyz
  1  'x, y, z'
loop_
 _atom_site_type_symbol
 _atom_site_label
 _atom_site_symmetry_multiplicity
 _atom_site_fract_x
 _atom_site_fract_y
 _atom_site_fract_z
 _atom_site_occupancy
  Nd  Nd0  1  0.164558  0.835442  0.000000  1
  Sm  Sm1  1  0.673992  0.673143  0.000000  1
  Sm  Sm2  1  0.335497  0.335741  0.500000  1
  Sm  Sm3  1  0.826215  0.173785  0.500000  1
  Sm  Sm4  1  0.664259  0.664503  0.500000  1
  Sm  Sm5  1  0.326857  0.326008  0.000000  1
  Sm  Sm6  1  0.173396  0.826604  0.500000  1
  Sm  Sm7  1  0.835523  0.164477  0.000000  1
  Pt  Pt8  1  0.871225  0.872991  0.737946  1
  Pt  Pt9  1  0.127009  0.128775  0.737946  1
  Pt  Pt10  1  0.627755  0.372245  0.759994  1
  Pt  Pt11  1  0.627755  0.372245  0.240006  1
  Pt  Pt12  1  0.373794  0.626206  0.240953  1
  Pt  Pt13  1  0.127009  0.128775  0.262054  1
  Pt  Pt14  1  0.871225  0.872991  0.262054  1
  Pt  Pt15  1  0.373794  0.626206  0.759047  1
  Pb  Pb16  1  0.500113  0.000045  0.750265  1
  Pb  Pb17  1  0.500113  0.000045  0.249735  1
  Pb  Pb18  1  0.999955  0.499887  0.750265  1
  Pb  Pb19  1  0.999955  0.499887  0.249735  1
