# generated using pymatgen
data_Nd4MnNi13
_symmetry_space_group_name_H-M   'P 1'
_cell_length_a   5.01469148
_cell_length_b   5.01469136
_cell_length_c   12.61045378
_cell_angle_alpha   78.57370641
_cell_angle_beta   78.57370928
_cell_angle_gamma   60.76278556
_symmetry_Int_Tables_number   1
_chemical_formula_structural   Nd4MnNi13
_chemical_formula_sum   'Nd4 Mn1 Ni13'
_cell_volume   269.32240576
_cell_formula_units_Z   1
loop_
 _symmetry_equiv_pos_site_id
 _symmetry_equiv_pos_as_xyz
  1  'x, y, z'
loop_
 _atom_site_type_symbol
 _atom_site_label
 _atom_site_symmetry_multiplicity
 _atom_site_fract_x
 _atom_site_fract_y
 _atom_site_fract_z
 _atom_site_occupancy
  Nd  Nd0  1  0.947515  0.947515  0.156739  1
  Nd  Nd1  1  0.052485  0.052485  0.843261  1
  Nd  Nd2  1  0.852680  0.852680  0.441376  1
  Nd  Nd3  1  0.147320  0.147320  0.558624  1
  Mn  Mn4  1  0.500000  0.500000  0.000000  1
  Ni  Ni5  1  0.500000  0.500000  0.500000  1
  Ni  Ni6  1  0.721217  0.721217  0.835143  1
  Ni  Ni7  1  0.278783  0.278783  0.164857  1
  Ni  Ni8  1  0.610819  0.610819  0.163586  1
  Ni  Ni9  1  0.389181  0.389181  0.836414  1
  Ni  Ni10  1  0.000000  0.500000  0.000000  1
  Ni  Ni11  1  0.500000  0.000000  0.000000  1
  Ni  Ni12  1  0.391103  0.391103  0.326978  1
  Ni  Ni13  1  0.889841  0.391863  0.326463  1
  Ni  Ni14  1  0.391863  0.889841  0.326463  1
  Ni  Ni15  1  0.608897  0.608897  0.673022  1
  Ni  Ni16  1  0.110159  0.608137  0.673537  1
  Ni  Ni17  1  0.608137  0.110159  0.673537  1
