# generated using pymatgen
data_TbTa8CdSe16
_symmetry_space_group_name_H-M   'P 1'
_cell_length_a   7.03940400
_cell_length_b   7.03940254
_cell_length_c   14.44345500
_cell_angle_alpha   90.00000000
_cell_angle_beta   90.00000000
_cell_angle_gamma   120.00000688
_symmetry_Int_Tables_number   1
_chemical_formula_structural   TbTa8CdSe16
_chemical_formula_sum   'Tb1 Ta8 Cd1 Se16'
_cell_volume   619.83113130
_cell_formula_units_Z   1
loop_
 _symmetry_equiv_pos_site_id
 _symmetry_equiv_pos_as_xyz
  1  'x, y, z'
loop_
 _atom_site_type_symbol
 _atom_site_label
 _atom_site_symmetry_multiplicity
 _atom_site_fract_x
 _atom_site_fract_y
 _atom_site_fract_z
 _atom_site_occupancy
  Tb  Tb0  1  0.000000  0.000000  0.500000  1
  Ta  Ta1  1  0.507992  0.492008  0.752174  1
  Ta  Ta2  1  0.015982  0.507992  0.247826  1
  Ta  Ta3  1  0.492008  0.984018  0.247826  1
  Ta  Ta4  1  0.507992  0.015982  0.752174  1
  Ta  Ta5  1  0.984018  0.492008  0.752174  1
  Ta  Ta6  1  0.492008  0.507992  0.247826  1
  Ta  Ta7  1  0.000000  0.000000  0.748928  1
  Ta  Ta8  1  0.000000  0.000000  0.251072  1
  Cd  Cd9  1  0.000000  0.000000  0.000000  1
  Se  Se10  1  0.829608  0.170392  0.362758  1
  Se  Se11  1  0.829608  0.659215  0.362758  1
  Se  Se12  1  0.340785  0.170392  0.362758  1
  Se  Se13  1  0.663941  0.831970  0.864214  1
  Se  Se14  1  0.170392  0.340785  0.637242  1
  Se  Se15  1  0.168030  0.831970  0.864214  1
  Se  Se16  1  0.168030  0.336059  0.864214  1
  Se  Se17  1  0.831970  0.168030  0.135786  1
  Se  Se18  1  0.336059  0.168030  0.135786  1
  Se  Se19  1  0.659215  0.829608  0.637242  1
  Se  Se20  1  0.333333  0.666667  0.128748  1
  Se  Se21  1  0.666667  0.333333  0.632265  1
  Se  Se22  1  0.666667  0.333333  0.871252  1
  Se  Se23  1  0.333333  0.666667  0.367735  1
  Se  Se24  1  0.831970  0.663941  0.135786  1
  Se  Se25  1  0.170392  0.829608  0.637242  1
