# generated using pymatgen
data_Yb(GaBr4)2
_symmetry_space_group_name_H-M   'P 1'
_cell_length_a   7.58619300
_cell_length_b   7.80042510
_cell_length_c   14.31202071
_cell_angle_alpha   87.50644218
_cell_angle_beta   90.00000000
_cell_angle_gamma   90.00000000
_symmetry_Int_Tables_number   1
_chemical_formula_structural   Yb(GaBr4)2
_chemical_formula_sum   'Yb2 Ga4 Br16'
_cell_volume   846.11948255
_cell_formula_units_Z   2
loop_
 _symmetry_equiv_pos_site_id
 _symmetry_equiv_pos_as_xyz
  1  'x, y, z'
loop_
 _atom_site_type_symbol
 _atom_site_label
 _atom_site_symmetry_multiplicity
 _atom_site_fract_x
 _atom_site_fract_y
 _atom_site_fract_z
 _atom_site_occupancy
  Yb  Yb0  1  0.754019  0.075995  0.813954  1
  Yb  Yb1  1  0.245981  0.075995  0.313954  1
  Ga  Ga2  1  0.933240  0.222584  0.578826  1
  Ga  Ga3  1  0.066760  0.222584  0.078826  1
  Ga  Ga4  1  0.570761  0.640338  0.776673  1
  Ga  Ga5  1  0.429239  0.640338  0.276673  1
  Br  Br6  1  0.420460  0.615045  0.639040  1
  Br  Br7  1  0.579540  0.615045  0.139040  1
  Br  Br8  1  0.870799  0.733246  0.760849  1
  Br  Br9  1  0.129201  0.733246  0.260849  1
  Br  Br10  1  0.939080  0.479849  0.495130  1
  Br  Br11  1  0.060920  0.479849  0.995130  1
  Br  Br12  1  0.918320  0.998994  0.998700  1
  Br  Br13  1  0.081680  0.998994  0.498700  1
  Br  Br14  1  0.640669  0.126708  0.617845  1
  Br  Br15  1  0.359331  0.126708  0.117845  1
  Br  Br16  1  0.562798  0.380188  0.873851  1
  Br  Br17  1  0.437202  0.380188  0.373851  1
  Br  Br18  1  0.446379  0.864791  0.866619  1
  Br  Br19  1  0.553621  0.864791  0.366619  1
  Br  Br20  1  0.931383  0.229663  0.230717  1
  Br  Br21  1  0.068617  0.229663  0.730717  1
