# generated using pymatgen
data_Ta8MnAlTe8
_symmetry_space_group_name_H-M   'P 1'
_cell_length_a   4.91307800
_cell_length_b   11.00081800
_cell_length_c   19.13019900
_cell_angle_alpha   90.00000000
_cell_angle_beta   90.00000000
_cell_angle_gamma   90.00000000
_symmetry_Int_Tables_number   1
_chemical_formula_structural   Ta8MnAlTe8
_chemical_formula_sum   'Ta16 Mn2 Al2 Te16'
_cell_volume   1033.94664058
_cell_formula_units_Z   2
loop_
 _symmetry_equiv_pos_site_id
 _symmetry_equiv_pos_as_xyz
  1  'x, y, z'
loop_
 _atom_site_type_symbol
 _atom_site_label
 _atom_site_symmetry_multiplicity
 _atom_site_fract_x
 _atom_site_fract_y
 _atom_site_fract_z
 _atom_site_occupancy
  Ta  Ta0  1  0.499572  0.563527  0.384209  1
  Ta  Ta1  1  0.499572  0.436473  0.615791  1
  Ta  Ta2  1  0.500428  0.063527  0.115791  1
  Ta  Ta3  1  0.500428  0.936473  0.884209  1
  Ta  Ta4  1  0.497927  0.702224  0.536213  1
  Ta  Ta5  1  0.497927  0.297776  0.463787  1
  Ta  Ta6  1  0.502073  0.202224  0.963787  1
  Ta  Ta7  1  0.502073  0.797776  0.036213  1
  Ta  Ta8  1  0.002019  0.687843  0.443524  1
  Ta  Ta9  1  0.002019  0.312157  0.556476  1
  Ta  Ta10  1  0.997981  0.187843  0.056476  1
  Ta  Ta11  1  0.997981  0.812157  0.943524  1
  Ta  Ta12  1  0.000371  0.402050  0.392461  1
  Ta  Ta13  1  0.000371  0.597950  0.607539  1
  Ta  Ta14  1  0.999629  0.902050  0.107539  1
  Ta  Ta15  1  0.999629  0.097950  0.892461  1
  Mn  Mn16  1  0.749847  0.500000  0.500000  1
  Mn  Mn17  1  0.250153  0.000000  0.000000  1
  Al  Al18  1  0.249856  0.500000  0.500000  1
  Al  Al19  1  0.750144  0.000000  0.000000  1
  Te  Te20  1  0.993552  0.845488  0.562490  1
  Te  Te21  1  0.993552  0.154512  0.437510  1
  Te  Te22  1  0.006448  0.345488  0.937510  1
  Te  Te23  1  0.006448  0.654512  0.062490  1
  Te  Te24  1  0.504229  0.333071  0.315959  1
  Te  Te25  1  0.504229  0.666929  0.684041  1
  Te  Te26  1  0.495771  0.833071  0.184041  1
  Te  Te27  1  0.495771  0.166929  0.815959  1
  Te  Te28  1  0.506570  0.821282  0.403306  1
  Te  Te29  1  0.506570  0.178718  0.596694  1
  Te  Te30  1  0.493430  0.321282  0.096694  1
  Te  Te31  1  0.493430  0.678718  0.903306  1
  Te  Te32  1  0.995821  0.607723  0.301523  1
  Te  Te33  1  0.995821  0.392277  0.698477  1
  Te  Te34  1  0.004179  0.107723  0.198477  1
  Te  Te35  1  0.004179  0.892277  0.801523  1
