# generated using pymatgen
data_Tm10Tl6P
_symmetry_space_group_name_H-M   'P 1'
_cell_length_a   8.97211200
_cell_length_b   8.97211380
_cell_length_c   6.60011100
_cell_angle_alpha   90.00000000
_cell_angle_beta   90.00000000
_cell_angle_gamma   119.99999335
_symmetry_Int_Tables_number   1
_chemical_formula_structural   Tm10Tl6P
_chemical_formula_sum   'Tm10 Tl6 P1'
_cell_volume   460.12026390
_cell_formula_units_Z   1
loop_
 _symmetry_equiv_pos_site_id
 _symmetry_equiv_pos_as_xyz
  1  'x, y, z'
loop_
 _atom_site_type_symbol
 _atom_site_label
 _atom_site_symmetry_multiplicity
 _atom_site_fract_x
 _atom_site_fract_y
 _atom_site_fract_z
 _atom_site_occupancy
  Tm  Tm0  1  0.666667  0.333333  0.500000  1
  Tm  Tm1  1  0.333333  0.666667  0.500000  1
  Tm  Tm2  1  0.333333  0.666667  0.000000  1
  Tm  Tm3  1  0.666667  0.333333  0.000000  1
  Tm  Tm4  1  0.757036  0.757036  0.251140  1
  Tm  Tm5  1  0.242964  0.000000  0.251140  1
  Tm  Tm6  1  0.000000  0.242964  0.251140  1
  Tm  Tm7  1  0.242964  0.242964  0.748860  1
  Tm  Tm8  1  0.757036  0.000000  0.748860  1
  Tm  Tm9  1  0.000000  0.757036  0.748860  1
  Tl  Tl10  1  0.398524  0.398524  0.247657  1
  Tl  Tl11  1  0.601476  0.000000  0.247657  1
  Tl  Tl12  1  0.000000  0.601476  0.247657  1
  Tl  Tl13  1  0.601476  0.601476  0.752343  1
  Tl  Tl14  1  0.398524  0.000000  0.752343  1
  Tl  Tl15  1  0.000000  0.398524  0.752343  1
  P  P16  1  0.000000  0.000000  0.500000  1
