# generated using pymatgen
data_YbPrSmGa9Pd2
_symmetry_space_group_name_H-M   'P 1'
_cell_length_a   8.25565180
_cell_length_b   8.25565160
_cell_length_c   8.25565121
_cell_angle_alpha   149.34525622
_cell_angle_beta   109.87577761
_cell_angle_gamma   78.44916382
_symmetry_Int_Tables_number   1
_chemical_formula_structural   YbPrSmGa9Pd2
_chemical_formula_sum   'Yb1 Pr1 Sm1 Ga9 Pd2'
_cell_volume   264.75747649
_cell_formula_units_Z   1
loop_
 _symmetry_equiv_pos_site_id
 _symmetry_equiv_pos_as_xyz
  1  'x, y, z'
loop_
 _atom_site_type_symbol
 _atom_site_label
 _atom_site_symmetry_multiplicity
 _atom_site_fract_x
 _atom_site_fract_y
 _atom_site_fract_z
 _atom_site_occupancy
  Yb  Yb0  1  0.801520  0.801520  0.000000  1
  Pr  Pr1  1  0.501037  0.501037  0.000000  1
  Sm  Sm2  1  0.200021  0.200021  0.000000  1
  Ga  Ga3  1  0.075275  0.359360  0.715914  1
  Ga  Ga4  1  0.920610  0.638140  0.282471  1
  Ga  Ga5  1  0.643446  0.359360  0.284086  1
  Ga  Ga6  1  0.355668  0.638140  0.717529  1
  Ga  Ga7  1  0.796628  0.159941  0.636688  1
  Ga  Ga8  1  0.208849  0.843783  0.365066  1
  Ga  Ga9  1  0.523252  0.159941  0.363312  1
  Ga  Ga10  1  0.478719  0.843783  0.634934  1
  Ga  Ga11  1  0.999347  0.499347  0.500000  1
  Pd  Pd12  1  0.813993  0.997815  0.816179  1
  Pd  Pd13  1  0.181635  0.997815  0.183821  1
