# generated using pymatgen
data_Ho2AlZnIr2
_symmetry_space_group_name_H-M   'P 1'
_cell_length_a   4.12459000
_cell_length_b   6.92232820
_cell_length_c   8.06088335
_cell_angle_alpha   90.25466116
_cell_angle_beta   90.00000000
_cell_angle_gamma   90.00000000
_symmetry_Int_Tables_number   1
_chemical_formula_structural   Ho2AlZnIr2
_chemical_formula_sum   'Ho4 Al2 Zn2 Ir4'
_cell_volume   230.15017932
_cell_formula_units_Z   2
loop_
 _symmetry_equiv_pos_site_id
 _symmetry_equiv_pos_as_xyz
  1  'x, y, z'
loop_
 _atom_site_type_symbol
 _atom_site_label
 _atom_site_symmetry_multiplicity
 _atom_site_fract_x
 _atom_site_fract_y
 _atom_site_fract_z
 _atom_site_occupancy
  Ho  Ho0  1  0.250000  0.535215  0.183951  1
  Ho  Ho1  1  0.750000  0.464785  0.816049  1
  Ho  Ho2  1  0.250000  0.034936  0.322550  1
  Ho  Ho3  1  0.750000  0.965064  0.677450  1
  Al  Al4  1  0.250000  0.139553  0.938387  1
  Al  Al5  1  0.750000  0.860447  0.061613  1
  Zn  Zn6  1  0.250000  0.639836  0.563825  1
  Zn  Zn7  1  0.750000  0.360164  0.436175  1
  Ir  Ir8  1  0.750000  0.742893  0.369439  1
  Ir  Ir9  1  0.250000  0.257107  0.630561  1
  Ir  Ir10  1  0.750000  0.232176  0.111684  1
  Ir  Ir11  1  0.250000  0.767824  0.888316  1
