# generated using pymatgen
data_CsCo(SeO4)2
_symmetry_space_group_name_H-M   'P 1'
_cell_length_a   5.15524083
_cell_length_b   5.15546619
_cell_length_c   8.52596566
_cell_angle_alpha   93.85856306
_cell_angle_beta   86.14442373
_cell_angle_gamma   115.29677518
_symmetry_Int_Tables_number   1
_chemical_formula_structural   CsCo(SeO4)2
_chemical_formula_sum   'Cs1 Co1 Se2 O8'
_cell_volume   204.22029805
_cell_formula_units_Z   1
loop_
 _symmetry_equiv_pos_site_id
 _symmetry_equiv_pos_as_xyz
  1  'x, y, z'
loop_
 _atom_site_type_symbol
 _atom_site_label
 _atom_site_symmetry_multiplicity
 _atom_site_fract_x
 _atom_site_fract_y
 _atom_site_fract_z
 _atom_site_occupancy
  Cs  Cs0  1  0.000000  0.000000  0.500000  1
  Co  Co1  1  0.000000  0.000000  0.000000  1
  Se  Se2  1  0.631560  0.368394  0.182280  1
  Se  Se3  1  0.368440  0.631605  0.817720  1
  O  O4  1  0.688104  0.312062  0.361702  1
  O  O5  1  0.311895  0.687938  0.638298  1
  O  O6  1  0.770001  0.230044  0.033735  1
  O  O7  1  0.229998  0.769956  0.966265  1
  O  O8  1  0.238217  0.270627  0.834300  1
  O  O9  1  0.761784  0.729372  0.165700  1
  O  O10  1  0.729505  0.762180  0.834199  1
  O  O11  1  0.270496  0.237820  0.165801  1
