# generated using pymatgen
data_NdY3(ZnPb)4
_symmetry_space_group_name_H-M   'P 1'
_cell_length_a   4.63389700
_cell_length_b   4.63389717
_cell_length_c   16.12139000
_cell_angle_alpha   90.00000000
_cell_angle_beta   90.00000000
_cell_angle_gamma   119.99999168
_symmetry_Int_Tables_number   1
_chemical_formula_structural   NdY3(ZnPb)4
_chemical_formula_sum   'Nd1 Y3 Zn4 Pb4'
_cell_volume   299.79605967
_cell_formula_units_Z   1
loop_
 _symmetry_equiv_pos_site_id
 _symmetry_equiv_pos_as_xyz
  1  'x, y, z'
loop_
 _atom_site_type_symbol
 _atom_site_label
 _atom_site_symmetry_multiplicity
 _atom_site_fract_x
 _atom_site_fract_y
 _atom_site_fract_z
 _atom_site_occupancy
  Nd  Nd0  1  0.000000  0.000000  0.000000  1
  Y  Y1  1  0.000000  0.000000  0.252069  1
  Y  Y2  1  0.000000  0.000000  0.500000  1
  Y  Y3  1  0.000000  0.000000  0.747931  1
  Zn  Zn4  1  0.666668  0.333335  0.165682  1
  Zn  Zn5  1  0.666668  0.333335  0.334811  1
  Zn  Zn6  1  0.333333  0.666667  0.665189  1
  Zn  Zn7  1  0.333333  0.666667  0.834318  1
  Pb  Pb8  1  0.333333  0.666667  0.114880  1
  Pb  Pb9  1  0.333333  0.666667  0.390061  1
  Pb  Pb10  1  0.666668  0.333335  0.609939  1
  Pb  Pb11  1  0.666668  0.333335  0.885120  1
