# generated using pymatgen
data_Er6ReB14Os
_symmetry_space_group_name_H-M   'P 1'
_cell_length_a   8.00914854
_cell_length_b   8.00914907
_cell_length_c   9.28269000
_cell_angle_alpha   90.00000000
_cell_angle_beta   90.00000000
_cell_angle_gamma   154.66803440
_symmetry_Int_Tables_number   1
_chemical_formula_structural   Er6ReB14Os
_chemical_formula_sum   'Er6 Re1 B14 Os1'
_cell_volume   254.77128714
_cell_formula_units_Z   1
loop_
 _symmetry_equiv_pos_site_id
 _symmetry_equiv_pos_as_xyz
  1  'x, y, z'
loop_
 _atom_site_type_symbol
 _atom_site_label
 _atom_site_symmetry_multiplicity
 _atom_site_fract_x
 _atom_site_fract_y
 _atom_site_fract_z
 _atom_site_occupancy
  Er  Er0  1  0.894271  0.105729  0.440244  1
  Er  Er1  1  0.105788  0.894212  0.560991  1
  Er  Er2  1  0.894271  0.105729  0.059756  1
  Er  Er3  1  0.105788  0.894212  0.939009  1
  Er  Er4  1  0.243496  0.756504  0.250000  1
  Er  Er5  1  0.756907  0.243093  0.750000  1
  Re  Re6  1  0.947542  0.052458  0.750000  1
  B  B7  1  0.727103  0.272897  0.465365  1
  B  B8  1  0.272293  0.727707  0.533518  1
  B  B9  1  0.727103  0.272897  0.034635  1
  B  B10  1  0.272293  0.727707  0.966482  1
  B  B11  1  0.631907  0.368093  0.150739  1
  B  B12  1  0.367576  0.632424  0.849470  1
  B  B13  1  0.631907  0.368093  0.349261  1
  B  B14  1  0.367576  0.632424  0.650530  1
  B  B15  1  0.520239  0.479761  0.095594  1
  B  B16  1  0.479808  0.520192  0.905266  1
  B  B17  1  0.520239  0.479761  0.404406  1
  B  B18  1  0.479808  0.520192  0.594734  1
  B  B19  1  0.455529  0.544471  0.250000  1
  B  B20  1  0.544978  0.455022  0.750000  1
  Os  Os21  1  0.053575  0.946425  0.250000  1
