# generated using pymatgen
data_Y3Er17Zn3Cd3Ru2
_symmetry_space_group_name_H-M   'P 1'
_cell_length_a   9.47550500
_cell_length_b   9.47525862
_cell_length_c   9.63503800
_cell_angle_alpha   90.00000000
_cell_angle_beta   90.00000000
_cell_angle_gamma   120.00045558
_symmetry_Int_Tables_number   1
_chemical_formula_structural   Y3Er17Zn3Cd3Ru2
_chemical_formula_sum   'Y3 Er17 Zn3 Cd3 Ru2'
_cell_volume   749.16159800
_cell_formula_units_Z   1
loop_
 _symmetry_equiv_pos_site_id
 _symmetry_equiv_pos_as_xyz
  1  'x, y, z'
loop_
 _atom_site_type_symbol
 _atom_site_label
 _atom_site_symmetry_multiplicity
 _atom_site_fract_x
 _atom_site_fract_y
 _atom_site_fract_z
 _atom_site_occupancy
  Y  Y0  1  0.459146  0.540855  0.750000  1
  Y  Y1  1  0.459136  0.918280  0.750000  1
  Y  Y2  1  0.081719  0.540859  0.750000  1
  Er  Er3  1  0.999991  0.999993  0.474722  1
  Er  Er4  1  0.999991  0.999993  0.025278  1
  Er  Er5  1  0.208128  0.791864  0.438450  1
  Er  Er6  1  0.208136  0.416268  0.438447  1
  Er  Er7  1  0.583741  0.791877  0.438437  1
  Er  Er8  1  0.790861  0.209147  0.556742  1
  Er  Er9  1  0.790858  0.581704  0.556752  1
  Er  Er10  1  0.418293  0.209146  0.556737  1
  Er  Er11  1  0.790861  0.209147  0.943258  1
  Er  Er12  1  0.790858  0.581704  0.943248  1
  Er  Er13  1  0.418293  0.209146  0.943263  1
  Er  Er14  1  0.208128  0.791864  0.061550  1
  Er  Er15  1  0.208136  0.416268  0.061553  1
  Er  Er16  1  0.583741  0.791877  0.061563  1
  Er  Er17  1  0.541471  0.458536  0.250000  1
  Er  Er18  1  0.541486  0.082961  0.250000  1
  Er  Er19  1  0.917027  0.458521  0.250000  1
  Zn  Zn20  1  0.878325  0.121679  0.250000  1
  Zn  Zn21  1  0.878321  0.756640  0.250000  1
  Zn  Zn22  1  0.243349  0.121677  0.250000  1
  Cd  Cd23  1  0.110300  0.889691  0.750000  1
  Cd  Cd24  1  0.110300  0.220604  0.750000  1
  Cd  Cd25  1  0.779396  0.889701  0.750000  1
  Ru  Ru26  1  0.333338  0.666664  0.250000  1
  Ru  Ru27  1  0.666670  0.333335  0.750000  1
