# generated using pymatgen
data_Y3Fe5(Ni2P3)2
_symmetry_space_group_name_H-M   'P 1'
_cell_length_a   3.75552800
_cell_length_b   10.63662300
_cell_length_c   12.14911900
_cell_angle_alpha   90.00000000
_cell_angle_beta   90.00000000
_cell_angle_gamma   90.00000000
_symmetry_Int_Tables_number   1
_chemical_formula_structural   Y3Fe5(Ni2P3)2
_chemical_formula_sum   'Y6 Fe10 Ni8 P12'
_cell_volume   485.31035380
_cell_formula_units_Z   2
loop_
 _symmetry_equiv_pos_site_id
 _symmetry_equiv_pos_as_xyz
  1  'x, y, z'
loop_
 _atom_site_type_symbol
 _atom_site_label
 _atom_site_symmetry_multiplicity
 _atom_site_fract_x
 _atom_site_fract_y
 _atom_site_fract_z
 _atom_site_occupancy
  Y  Y0  1  0.000000  0.500000  0.520707  1
  Y  Y1  1  0.500000  0.000000  0.478995  1
  Y  Y2  1  0.500000  0.819201  0.203350  1
  Y  Y3  1  0.500000  0.180799  0.203350  1
  Y  Y4  1  0.000000  0.680815  0.796158  1
  Y  Y5  1  0.000000  0.319185  0.796158  1
  Fe  Fe6  1  0.500000  0.500000  0.154405  1
  Fe  Fe7  1  0.000000  0.000000  0.847617  1
  Fe  Fe8  1  0.000000  0.500000  0.989450  1
  Fe  Fe9  1  0.500000  0.000000  0.010990  1
  Fe  Fe10  1  0.500000  0.333229  0.997380  1
  Fe  Fe11  1  0.500000  0.666771  0.997380  1
  Fe  Fe12  1  0.000000  0.167161  0.002663  1
  Fe  Fe13  1  0.000000  0.832839  0.002663  1
  Fe  Fe14  1  0.500000  0.298262  0.428354  1
  Fe  Fe15  1  0.500000  0.701738  0.428354  1
  Ni  Ni16  1  0.500000  0.500000  0.705152  1
  Ni  Ni17  1  0.000000  0.000000  0.296778  1
  Ni  Ni18  1  0.000000  0.201142  0.570811  1
  Ni  Ni19  1  0.000000  0.798858  0.570811  1
  Ni  Ni20  1  0.500000  0.879305  0.712123  1
  Ni  Ni21  1  0.500000  0.120695  0.712123  1
  Ni  Ni22  1  0.000000  0.620481  0.287120  1
  Ni  Ni23  1  0.000000  0.379519  0.287120  1
  P  P24  1  0.500000  0.500000  0.888776  1
  P  P25  1  0.000000  0.000000  0.111554  1
  P  P26  1  0.500000  0.500000  0.344837  1
  P  P27  1  0.000000  0.000000  0.657899  1
  P  P28  1  0.500000  0.314426  0.614006  1
  P  P29  1  0.500000  0.685574  0.614006  1
  P  P30  1  0.000000  0.191282  0.383773  1
  P  P31  1  0.000000  0.808718  0.383773  1
  P  P32  1  0.500000  0.842434  0.898854  1
  P  P33  1  0.500000  0.157566  0.898854  1
  P  P34  1  0.000000  0.656288  0.101828  1
  P  P35  1  0.000000  0.343712  0.101828  1
