# generated using pymatgen
data_Zr6Zn21Pd2N
_symmetry_space_group_name_H-M   'P 1'
_cell_length_a   8.72808646
_cell_length_b   8.72808689
_cell_length_c   8.67015100
_cell_angle_alpha   60.21933328
_cell_angle_beta   60.21933168
_cell_angle_gamma   60.01618327
_symmetry_Int_Tables_number   1
_chemical_formula_structural   Zr6Zn21Pd2N
_chemical_formula_sum   'Zr6 Zn21 Pd2 N1'
_cell_volume   468.63535722
_cell_formula_units_Z   1
loop_
 _symmetry_equiv_pos_site_id
 _symmetry_equiv_pos_as_xyz
  1  'x, y, z'
loop_
 _atom_site_type_symbol
 _atom_site_label
 _atom_site_symmetry_multiplicity
 _atom_site_fract_x
 _atom_site_fract_y
 _atom_site_fract_z
 _atom_site_occupancy
  Zr  Zr0  1  0.687835  0.312165  0.312954  1
  Zr  Zr1  1  0.312165  0.687835  0.687046  1
  Zr  Zr2  1  0.312165  0.687835  0.312954  1
  Zr  Zr3  1  0.687835  0.312165  0.687046  1
  Zr  Zr4  1  0.312531  0.312531  0.687469  1
  Zr  Zr5  1  0.687469  0.687469  0.312531  1
  Zn  Zn6  1  0.119198  0.119198  0.123172  1
  Zn  Zn7  1  0.880802  0.880802  0.876828  1
  Zn  Zn8  1  0.119198  0.119198  0.638435  1
  Zn  Zn9  1  0.118785  0.640007  0.120604  1
  Zn  Zn10  1  0.880802  0.880802  0.361565  1
  Zn  Zn11  1  0.881215  0.359993  0.879396  1
  Zn  Zn12  1  0.640007  0.118785  0.120604  1
  Zn  Zn13  1  0.359993  0.881215  0.879396  1
  Zn  Zn14  1  0.500000  0.000000  0.000000  1
  Zn  Zn15  1  0.000000  0.500000  0.500000  1
  Zn  Zn16  1  0.000000  0.500000  0.000000  1
  Zn  Zn17  1  0.500000  0.000000  0.500000  1
  Zn  Zn18  1  0.500000  0.500000  0.000000  1
  Zn  Zn19  1  0.331580  0.331580  0.331149  1
  Zn  Zn20  1  0.668420  0.668420  0.668851  1
  Zn  Zn21  1  0.331580  0.331580  0.005693  1
  Zn  Zn22  1  0.332862  0.006315  0.330411  1
  Zn  Zn23  1  0.668420  0.668420  0.994307  1
  Zn  Zn24  1  0.667138  0.993685  0.669589  1
  Zn  Zn25  1  0.006315  0.332862  0.330411  1
  Zn  Zn26  1  0.993685  0.667138  0.669589  1
  Pd  Pd27  1  0.000000  0.000000  0.500000  1
  Pd  Pd28  1  0.000000  0.000000  0.000000  1
  N  N29  1  0.500000  0.500000  0.500000  1
