# generated using pymatgen
data_Er3BSbRh6
_symmetry_space_group_name_H-M   'P 1'
_cell_length_a   5.82199000
_cell_length_b   5.82198979
_cell_length_c   13.63138500
_cell_angle_alpha   90.00000000
_cell_angle_beta   90.00000000
_cell_angle_gamma   120.00000118
_symmetry_Int_Tables_number   1
_chemical_formula_structural   Er3BSbRh6
_chemical_formula_sum   'Er6 B2 Sb2 Rh12'
_cell_volume   400.14141659
_cell_formula_units_Z   2
loop_
 _symmetry_equiv_pos_site_id
 _symmetry_equiv_pos_as_xyz
  1  'x, y, z'
loop_
 _atom_site_type_symbol
 _atom_site_label
 _atom_site_symmetry_multiplicity
 _atom_site_fract_x
 _atom_site_fract_y
 _atom_site_fract_z
 _atom_site_occupancy
  Er  Er0  1  0.000000  0.000000  0.750000  1
  Er  Er1  1  0.000000  0.000000  0.250000  1
  Er  Er2  1  0.333333  0.666667  0.413247  1
  Er  Er3  1  0.666667  0.333333  0.913247  1
  Er  Er4  1  0.666667  0.333333  0.586753  1
  Er  Er5  1  0.333333  0.666667  0.086753  1
  B  B6  1  0.000000  0.000000  0.500000  1
  B  B7  1  0.000000  0.000000  0.000000  1
  Sb  Sb8  1  0.333333  0.666667  0.750000  1
  Sb  Sb9  1  0.666667  0.333333  0.250000  1
  Rh  Rh10  1  0.343999  0.172000  0.412072  1
  Rh  Rh11  1  0.828000  0.172000  0.412072  1
  Rh  Rh12  1  0.828000  0.656001  0.412072  1
  Rh  Rh13  1  0.172000  0.343999  0.912072  1
  Rh  Rh14  1  0.656001  0.828000  0.587928  1
  Rh  Rh15  1  0.656001  0.828000  0.912072  1
  Rh  Rh16  1  0.343999  0.172000  0.087928  1
  Rh  Rh17  1  0.172000  0.343999  0.587928  1
  Rh  Rh18  1  0.172000  0.828000  0.587928  1
  Rh  Rh19  1  0.828000  0.172000  0.087928  1
  Rh  Rh20  1  0.828000  0.656001  0.087928  1
  Rh  Rh21  1  0.172000  0.828000  0.912072  1
