# generated using pymatgen
data_LaNd3(InRh)4
_symmetry_space_group_name_H-M   'P 1'
_cell_length_a   4.47111000
_cell_length_b   7.25399767
_cell_length_c   8.53523174
_cell_angle_alpha   90.00156995
_cell_angle_beta   90.00000000
_cell_angle_gamma   90.00000000
_symmetry_Int_Tables_number   1
_chemical_formula_structural   LaNd3(InRh)4
_chemical_formula_sum   'La1 Nd3 In4 Rh4'
_cell_volume   276.82676888
_cell_formula_units_Z   1
loop_
 _symmetry_equiv_pos_site_id
 _symmetry_equiv_pos_as_xyz
  1  'x, y, z'
loop_
 _atom_site_type_symbol
 _atom_site_label
 _atom_site_symmetry_multiplicity
 _atom_site_fract_x
 _atom_site_fract_y
 _atom_site_fract_z
 _atom_site_occupancy
  La  La0  1  0.750000  0.036741  0.324195  1
  Nd  Nd1  1  0.250000  0.962136  0.680366  1
  Nd  Nd2  1  0.250000  0.462088  0.821458  1
  Nd  Nd3  1  0.750000  0.537314  0.177845  1
  In  In4  1  0.750000  0.640356  0.562663  1
  In  In5  1  0.250000  0.362358  0.438758  1
  In  In6  1  0.250000  0.856232  0.060292  1
  In  In7  1  0.750000  0.141400  0.936832  1
  Rh  Rh8  1  0.750000  0.752685  0.879686  1
  Rh  Rh9  1  0.250000  0.248105  0.119387  1
  Rh  Rh10  1  0.250000  0.748831  0.379612  1
  Rh  Rh11  1  0.750000  0.251754  0.618904  1
