# generated using pymatgen
data_Sc4MnFe4Os3
_symmetry_space_group_name_H-M   'P 1'
_cell_length_a   5.01520491
_cell_length_b   5.00179818
_cell_length_c   8.39397900
_cell_angle_alpha   90.00000000
_cell_angle_beta   90.00000000
_cell_angle_gamma   120.56137597
_symmetry_Int_Tables_number   1
_chemical_formula_structural   Sc4MnFe4Os3
_chemical_formula_sum   'Sc4 Mn1 Fe4 Os3'
_cell_volume   181.31291533
_cell_formula_units_Z   1
loop_
 _symmetry_equiv_pos_site_id
 _symmetry_equiv_pos_as_xyz
  1  'x, y, z'
loop_
 _atom_site_type_symbol
 _atom_site_label
 _atom_site_symmetry_multiplicity
 _atom_site_fract_x
 _atom_site_fract_y
 _atom_site_fract_z
 _atom_site_occupancy
  Sc  Sc0  1  0.332997  0.666811  0.437251  1
  Sc  Sc1  1  0.665410  0.335058  0.564076  1
  Sc  Sc2  1  0.665410  0.335058  0.935924  1
  Sc  Sc3  1  0.332997  0.666811  0.062749  1
  Mn  Mn4  1  0.833337  0.659270  0.250000  1
  Fe  Fe5  1  0.339916  0.167160  0.250000  1
  Fe  Fe6  1  0.173695  0.826890  0.750000  1
  Fe  Fe7  1  0.171493  0.342694  0.750000  1
  Fe  Fe8  1  0.656956  0.828595  0.750000  1
  Os  Os9  1  0.999815  0.999244  0.504414  1
  Os  Os10  1  0.999815  0.999244  0.995586  1
  Os  Os11  1  0.828157  0.173167  0.250000  1
