# generated using pymatgen
data_Pr14Y2Cd4PdRu3
_symmetry_space_group_name_H-M   'P 1'
_cell_length_a   10.02715797
_cell_length_b   9.97364773
_cell_length_c   10.02715668
_cell_angle_alpha   59.69365211
_cell_angle_beta   59.98220035
_cell_angle_gamma   59.69364929
_symmetry_Int_Tables_number   1
_chemical_formula_structural   Pr14Y2Cd4PdRu3
_chemical_formula_sum   'Pr14 Y2 Cd4 Pd1 Ru3'
_cell_volume   705.68387403
_cell_formula_units_Z   1
loop_
 _symmetry_equiv_pos_site_id
 _symmetry_equiv_pos_as_xyz
  1  'x, y, z'
loop_
 _atom_site_type_symbol
 _atom_site_label
 _atom_site_symmetry_multiplicity
 _atom_site_fract_x
 _atom_site_fract_y
 _atom_site_fract_z
 _atom_site_occupancy
  Pr  Pr0  1  0.439886  0.436889  0.060442  1
  Pr  Pr1  1  0.065698  0.057036  0.438728  1
  Pr  Pr2  1  0.438728  0.057036  0.065698  1
  Pr  Pr3  1  0.852074  0.844443  0.852074  1
  Pr  Pr4  1  0.688725  0.318652  0.303737  1
  Pr  Pr5  1  0.060442  0.436889  0.439886  1
  Pr  Pr6  1  0.312329  0.687453  0.688346  1
  Pr  Pr7  1  0.303737  0.318652  0.688725  1
  Pr  Pr8  1  0.854758  0.842906  0.452319  1
  Pr  Pr9  1  0.688346  0.687453  0.312329  1
  Pr  Pr10  1  0.452319  0.842906  0.854758  1
  Pr  Pr11  1  0.061374  0.436515  0.061374  1
  Pr  Pr12  1  0.843116  0.461881  0.843116  1
  Pr  Pr13  1  0.441344  0.055007  0.441344  1
  Y  Y14  1  0.309321  0.689381  0.309321  1
  Y  Y15  1  0.691546  0.314129  0.691546  1
  Cd  Cd16  1  0.081178  0.758759  0.081178  1
  Cd  Cd17  1  0.077063  0.081480  0.760863  1
  Cd  Cd18  1  0.760863  0.081480  0.077063  1
  Cd  Cd19  1  0.079938  0.078268  0.079938  1
  Pd  Pd20  1  0.643200  0.076699  0.643200  1
  Ru  Ru21  1  0.636757  0.643564  0.636757  1
  Ru  Ru22  1  0.637121  0.646260  0.080134  1
  Ru  Ru23  1  0.080134  0.646260  0.637121  1
