# generated using pymatgen
data_Hf7Co8Si14W
_symmetry_space_group_name_H-M   'P 1'
_cell_length_a   9.39359145
_cell_length_b   9.39359226
_cell_length_c   9.39073165
_cell_angle_alpha   94.14658678
_cell_angle_beta   94.14658993
_cell_angle_gamma   148.80695387
_symmetry_Int_Tables_number   1
_chemical_formula_structural   Hf7Co8Si14W
_chemical_formula_sum   'Hf7 Co8 Si14 W1'
_cell_volume   413.35653025
_cell_formula_units_Z   1
loop_
 _symmetry_equiv_pos_site_id
 _symmetry_equiv_pos_as_xyz
  1  'x, y, z'
loop_
 _atom_site_type_symbol
 _atom_site_label
 _atom_site_symmetry_multiplicity
 _atom_site_fract_x
 _atom_site_fract_y
 _atom_site_fract_z
 _atom_site_occupancy
  Hf  Hf0  1  0.864444  0.864444  0.728887  1
  Hf  Hf1  1  0.137052  0.862744  0.999796  1
  Hf  Hf2  1  0.862744  0.137052  0.999796  1
  Hf  Hf3  1  0.305150  0.499741  0.804891  1
  Hf  Hf4  1  0.695315  0.502745  0.198060  1
  Hf  Hf5  1  0.502745  0.695315  0.198060  1
  Hf  Hf6  1  0.499741  0.305150  0.804891  1
  Co  Co7  1  0.102076  0.602076  0.204151  1
  Co  Co8  1  0.398146  0.898146  0.796293  1
  Co  Co9  1  0.897884  0.101790  0.498635  1
  Co  Co10  1  0.600751  0.396844  0.498635  1
  Co  Co11  1  0.602076  0.102076  0.204151  1
  Co  Co12  1  0.898146  0.398146  0.796293  1
  Co  Co13  1  0.101790  0.897884  0.498635  1
  Co  Co14  1  0.396844  0.600751  0.498635  1
  Si  Si15  1  0.286348  0.286348  0.572697  1
  Si  Si16  1  0.710832  0.710832  0.421665  1
  Si  Si17  1  0.291223  0.709214  0.000437  1
  Si  Si18  1  0.709214  0.291223  0.000437  1
  Si  Si19  1  0.091649  0.500059  0.591708  1
  Si  Si20  1  0.908273  0.500331  0.408604  1
  Si  Si21  1  0.500331  0.908273  0.408604  1
  Si  Si22  1  0.500059  0.091649  0.591708  1
  Si  Si23  1  0.249771  0.249771  0.004661  1
  Si  Si24  1  0.754890  0.754890  0.004661  1
  Si  Si25  1  0.298280  0.002663  0.300944  1
  Si  Si26  1  0.698775  0.999287  0.698062  1
  Si  Si27  1  0.999287  0.698775  0.698062  1
  Si  Si28  1  0.002663  0.298280  0.300944  1
  W  W29  1  0.133499  0.133499  0.267000  1
