# generated using pymatgen
data_Hf18Re3Mo3(AsW)2
_symmetry_space_group_name_H-M   'P 1'
_cell_length_a   8.69692939
_cell_length_b   8.69693578
_cell_length_c   8.63935400
_cell_angle_alpha   90.00000000
_cell_angle_beta   90.00000000
_cell_angle_gamma   119.99138368
_symmetry_Int_Tables_number   1
_chemical_formula_structural   Hf18Re3Mo3(AsW)2
_chemical_formula_sum   'Hf18 Re3 Mo3 As2 W2'
_cell_volume   565.95488025
_cell_formula_units_Z   1
loop_
 _symmetry_equiv_pos_site_id
 _symmetry_equiv_pos_as_xyz
  1  'x, y, z'
loop_
 _atom_site_type_symbol
 _atom_site_label
 _atom_site_symmetry_multiplicity
 _atom_site_fract_x
 _atom_site_fract_y
 _atom_site_fract_z
 _atom_site_occupancy
  Hf  Hf0  1  0.805179  0.610297  0.543852  1
  Hf  Hf1  1  0.804951  0.195049  0.543677  1
  Hf  Hf2  1  0.389704  0.194822  0.543852  1
  Hf  Hf3  1  0.193961  0.387973  0.451087  1
  Hf  Hf4  1  0.194191  0.805809  0.451276  1
  Hf  Hf5  1  0.612027  0.806039  0.451087  1
  Hf  Hf6  1  0.193961  0.387973  0.048913  1
  Hf  Hf7  1  0.194191  0.805809  0.048724  1
  Hf  Hf8  1  0.612027  0.806039  0.048913  1
  Hf  Hf9  1  0.805179  0.610297  0.956148  1
  Hf  Hf10  1  0.804951  0.195049  0.956323  1
  Hf  Hf11  1  0.389704  0.194822  0.956148  1
  Hf  Hf12  1  0.460332  0.920519  0.750000  1
  Hf  Hf13  1  0.460129  0.539871  0.750000  1
  Hf  Hf14  1  0.079481  0.539668  0.750000  1
  Hf  Hf15  1  0.540924  0.082025  0.250000  1
  Hf  Hf16  1  0.541149  0.458851  0.250000  1
  Hf  Hf17  1  0.917975  0.459076  0.250000  1
  Re  Re18  1  0.889770  0.779337  0.250000  1
  Re  Re19  1  0.889621  0.110379  0.250000  1
  Re  Re20  1  0.220663  0.110230  0.250000  1
  Mo  Mo21  1  0.110298  0.220781  0.750000  1
  Mo  Mo22  1  0.110414  0.889585  0.750000  1
  Mo  Mo23  1  0.779219  0.889702  0.750000  1
  As  As24  1  0.666532  0.333468  0.750000  1
  As  As25  1  0.333466  0.666534  0.250000  1
  W  W26  1  0.000000  0.999999  0.499257  1
  W  W27  1  0.000000  0.999999  0.000743  1
