# generated using pymatgen
data_Ca3Yb(Si3Pd5)4
_symmetry_space_group_name_H-M   'P 1'
_cell_length_a   4.02583800
_cell_length_b   19.75949462
_cell_length_c   7.32920523
_cell_angle_alpha   90.02870679
_cell_angle_beta   90.00000000
_cell_angle_gamma   90.00000000
_symmetry_Int_Tables_number   1
_chemical_formula_structural   Ca3Yb(Si3Pd5)4
_chemical_formula_sum   'Ca3 Yb1 Si12 Pd20'
_cell_volume   583.02738717
_cell_formula_units_Z   1
loop_
 _symmetry_equiv_pos_site_id
 _symmetry_equiv_pos_as_xyz
  1  'x, y, z'
loop_
 _atom_site_type_symbol
 _atom_site_label
 _atom_site_symmetry_multiplicity
 _atom_site_fract_x
 _atom_site_fract_y
 _atom_site_fract_z
 _atom_site_occupancy
  Ca  Ca0  1  0.750000  0.643017  0.121667  1
  Ca  Ca1  1  0.250000  0.356834  0.878384  1
  Ca  Ca2  1  0.250000  0.857124  0.621598  1
  Yb  Yb3  1  0.750000  0.143103  0.379098  1
  Si  Si4  1  0.750000  0.739486  0.627597  1
  Si  Si5  1  0.250000  0.260196  0.372097  1
  Si  Si6  1  0.250000  0.760647  0.127585  1
  Si  Si7  1  0.750000  0.239198  0.872345  1
  Si  Si8  1  0.750000  0.923821  0.348133  1
  Si  Si9  1  0.250000  0.076310  0.650884  1
  Si  Si10  1  0.250000  0.576312  0.848351  1
  Si  Si11  1  0.750000  0.423618  0.151584  1
  Si  Si12  1  0.750000  0.916186  0.908553  1
  Si  Si13  1  0.250000  0.084146  0.093295  1
  Si  Si14  1  0.250000  0.583993  0.408228  1
  Si  Si15  1  0.750000  0.415808  0.591596  1
  Pd  Pd16  1  0.750000  0.799844  0.326238  1
  Pd  Pd17  1  0.250000  0.199666  0.671839  1
  Pd  Pd18  1  0.250000  0.700131  0.826389  1
  Pd  Pd19  1  0.750000  0.299611  0.173880  1
  Pd  Pd20  1  0.750000  0.993181  0.625592  1
  Pd  Pd21  1  0.250000  0.007655  0.374060  1
  Pd  Pd22  1  0.250000  0.507029  0.125837  1
  Pd  Pd23  1  0.750000  0.493053  0.874098  1
  Pd  Pd24  1  0.750000  0.512704  0.377463  1
  Pd  Pd25  1  0.250000  0.487166  0.622554  1
  Pd  Pd26  1  0.250000  0.987540  0.877724  1
  Pd  Pd27  1  0.750000  0.013183  0.123263  1
  Pd  Pd28  1  0.750000  0.796298  0.931581  1
  Pd  Pd29  1  0.250000  0.203517  0.069204  1
  Pd  Pd30  1  0.250000  0.703782  0.431593  1
  Pd  Pd31  1  0.750000  0.295890  0.568131  1
  Pd  Pd32  1  0.750000  0.616581  0.643306  1
  Pd  Pd33  1  0.250000  0.383271  0.356504  1
  Pd  Pd34  1  0.250000  0.883535  0.143655  1
  Pd  Pd35  1  0.750000  0.116562  0.856095  1
