# generated using pymatgen
data_NaPr2Si3As3Pd20
_symmetry_space_group_name_H-M   'P 1'
_cell_length_a   8.79949705
_cell_length_b   8.83234330
_cell_length_c   8.86421908
_cell_angle_alpha   59.63523412
_cell_angle_beta   60.00230434
_cell_angle_gamma   60.36246174
_symmetry_Int_Tables_number   1
_chemical_formula_structural   NaPr2Si3As3Pd20
_chemical_formula_sum   'Na1 Pr2 Si3 As3 Pd20'
_cell_volume   487.10691152
_cell_formula_units_Z   1
loop_
 _symmetry_equiv_pos_site_id
 _symmetry_equiv_pos_as_xyz
  1  'x, y, z'
loop_
 _atom_site_type_symbol
 _atom_site_label
 _atom_site_symmetry_multiplicity
 _atom_site_fract_x
 _atom_site_fract_y
 _atom_site_fract_z
 _atom_site_occupancy
  Na  Na0  1  0.999871  0.000129  0.999871  1
  Pr  Pr1  1  0.249839  0.250161  0.249839  1
  Pr  Pr2  1  0.749839  0.750161  0.749839  1
  Si  Si3  1  0.735617  0.264383  0.735617  1
  Si  Si4  1  0.263876  0.263604  0.736396  1
  Si  Si5  1  0.736396  0.736124  0.263876  1
  As  As6  1  0.738155  0.261845  0.261445  1
  As  As7  1  0.261445  0.738555  0.738155  1
  As  As8  1  0.262092  0.737908  0.262092  1
  Pd  Pd9  1  0.383225  0.381929  0.390822  1
  Pd  Pd10  1  0.619188  0.611376  0.613058  1
  Pd  Pd11  1  0.388624  0.380812  0.843620  1
  Pd  Pd12  1  0.390822  0.844021  0.383225  1
  Pd  Pd13  1  0.618071  0.616775  0.155979  1
  Pd  Pd14  1  0.613058  0.156380  0.619188  1
  Pd  Pd15  1  0.843620  0.386942  0.388624  1
  Pd  Pd16  1  0.155979  0.609178  0.618071  1
  Pd  Pd17  1  0.349557  0.006377  0.993623  1
  Pd  Pd18  1  0.654317  0.999503  0.000497  1
  Pd  Pd19  1  0.000497  0.345683  0.654317  1
  Pd  Pd20  1  0.993623  0.650443  0.349557  1
  Pd  Pd21  1  0.005937  0.349345  0.991223  1
  Pd  Pd22  1  0.650655  0.994063  0.346506  1
  Pd  Pd23  1  0.991223  0.653494  0.005937  1
  Pd  Pd24  1  0.346506  0.008777  0.650655  1
  Pd  Pd25  1  0.000787  0.999213  0.350538  1
  Pd  Pd26  1  0.992669  0.007331  0.653976  1
  Pd  Pd27  1  0.653976  0.346024  0.992669  1
  Pd  Pd28  1  0.350538  0.649462  0.000787  1
