# generated using pymatgen
data_La3Nd17(CoSb2)4
_symmetry_space_group_name_H-M   'P 1'
_cell_length_a   8.29474829
_cell_length_b   9.02059573
_cell_length_c   12.68665474
_cell_angle_alpha   90.06686179
_cell_angle_beta   90.03518699
_cell_angle_gamma   90.09601955
_symmetry_Int_Tables_number   1
_chemical_formula_structural   La3Nd17(CoSb2)4
_chemical_formula_sum   'La3 Nd17 Co4 Sb8'
_cell_volume   949.25865261
_cell_formula_units_Z   1
loop_
 _symmetry_equiv_pos_site_id
 _symmetry_equiv_pos_as_xyz
  1  'x, y, z'
loop_
 _atom_site_type_symbol
 _atom_site_label
 _atom_site_symmetry_multiplicity
 _atom_site_fract_x
 _atom_site_fract_y
 _atom_site_fract_z
 _atom_site_occupancy
  La  La0  1  0.379186  0.248812  0.692776  1
  La  La1  1  0.878004  0.749937  0.807389  1
  La  La2  1  0.318945  0.472582  0.437010  1
  Nd  Nd3  1  0.150666  0.750079  0.201445  1
  Nd  Nd4  1  0.650474  0.249151  0.298341  1
  Nd  Nd5  1  0.848951  0.249990  0.797255  1
  Nd  Nd6  1  0.347877  0.749955  0.703937  1
  Nd  Nd7  1  0.454339  0.750121  0.997605  1
  Nd  Nd8  1  0.952220  0.249994  0.502323  1
  Nd  Nd9  1  0.545704  0.250008  0.003095  1
  Nd  Nd10  1  0.044872  0.750848  0.496524  1
  Nd  Nd11  1  0.624624  0.750846  0.303031  1
  Nd  Nd12  1  0.123365  0.250790  0.195578  1
  Nd  Nd13  1  0.818779  0.967934  0.065301  1
  Nd  Nd14  1  0.318404  0.032233  0.435188  1
  Nd  Nd15  1  0.182127  0.463942  0.936719  1
  Nd  Nd16  1  0.683657  0.536078  0.564425  1
  Nd  Nd17  1  0.182064  0.036203  0.936384  1
  Nd  Nd18  1  0.681013  0.962763  0.563476  1
  Nd  Nd19  1  0.818647  0.532044  0.064959  1
  Co  Co20  1  0.427239  0.745964  0.487848  1
  Co  Co21  1  0.930821  0.249894  0.010119  1
  Co  Co22  1  0.571810  0.248323  0.511309  1
  Co  Co23  1  0.069400  0.750226  0.989445  1
  Sb  Sb24  1  0.926219  0.993560  0.325682  1
  Sb  Sb25  1  0.425227  0.007104  0.173783  1
  Sb  Sb26  1  0.073606  0.493586  0.672966  1
  Sb  Sb27  1  0.573933  0.506686  0.827490  1
  Sb  Sb28  1  0.073203  0.006678  0.672285  1
  Sb  Sb29  1  0.574145  0.993112  0.827645  1
  Sb  Sb30  1  0.923839  0.507305  0.325662  1
  Sb  Sb31  1  0.426636  0.493252  0.173006  1
