# generated using pymatgen
data_Dy2Ho14MgCo4Ag3
_symmetry_space_group_name_H-M   'P 1'
_cell_length_a   9.38380793
_cell_length_b   9.40382649
_cell_length_c   9.40337000
_cell_angle_alpha   60.00160576
_cell_angle_beta   59.93101592
_cell_angle_gamma   59.93158830
_symmetry_Int_Tables_number   1
_chemical_formula_structural   Dy2Ho14MgCo4Ag3
_chemical_formula_sum   'Dy2 Ho14 Mg1 Co4 Ag3'
_cell_volume   586.14594414
_cell_formula_units_Z   1
loop_
 _symmetry_equiv_pos_site_id
 _symmetry_equiv_pos_as_xyz
  1  'x, y, z'
loop_
 _atom_site_type_symbol
 _atom_site_label
 _atom_site_symmetry_multiplicity
 _atom_site_fract_x
 _atom_site_fract_y
 _atom_site_fract_z
 _atom_site_occupancy
  Dy  Dy0  1  0.346551  0.345715  0.345806  1
  Dy  Dy1  1  0.346551  0.345715  0.961929  1
  Ho  Ho2  1  0.346461  0.962285  0.345627  1
  Ho  Ho3  1  0.951973  0.349471  0.349278  1
  Ho  Ho4  1  0.809575  0.189617  0.189579  1
  Ho  Ho5  1  0.186096  0.813478  0.813538  1
  Ho  Ho6  1  0.186096  0.813478  0.186888  1
  Ho  Ho7  1  0.809575  0.189617  0.811229  1
  Ho  Ho8  1  0.185914  0.186801  0.813643  1
  Ho  Ho9  1  0.809483  0.811044  0.189737  1
  Ho  Ho10  1  0.935159  0.562749  0.562499  1
  Ho  Ho11  1  0.563010  0.937034  0.937164  1
  Ho  Ho12  1  0.563010  0.937034  0.562793  1
  Ho  Ho13  1  0.935159  0.562749  0.939593  1
  Ho  Ho14  1  0.563015  0.563036  0.936975  1
  Ho  Ho15  1  0.935337  0.939738  0.562463  1
  Mg  Mg16  1  0.288395  0.570796  0.570404  1
  Co  Co17  1  0.137791  0.142315  0.143182  1
  Co  Co18  1  0.137791  0.142315  0.576712  1
  Co  Co19  1  0.137438  0.576991  0.142785  1
  Co  Co20  1  0.575869  0.140930  0.141601  1
  Ag  Ag21  1  0.583211  0.582769  0.582389  1
  Ag  Ag22  1  0.583211  0.582769  0.251631  1
  Ag  Ag23  1  0.583329  0.251555  0.582558  1
