# generated using pymatgen
data_YTm(PaAl5)3
_symmetry_space_group_name_H-M   'P 1'
_cell_length_a   12.61230901
_cell_length_b   12.61230908
_cell_length_c   12.61230922
_cell_angle_alpha   28.07910558
_cell_angle_beta   28.07910520
_cell_angle_gamma   28.07911036
_symmetry_Int_Tables_number   1
_chemical_formula_structural   YTm(PaAl5)3
_chemical_formula_sum   'Y1 Tm1 Pa3 Al15'
_cell_volume   392.62822020
_cell_formula_units_Z   1
loop_
 _symmetry_equiv_pos_site_id
 _symmetry_equiv_pos_as_xyz
  1  'x, y, z'
loop_
 _atom_site_type_symbol
 _atom_site_label
 _atom_site_symmetry_multiplicity
 _atom_site_fract_x
 _atom_site_fract_y
 _atom_site_fract_z
 _atom_site_occupancy
  Y  Y0  1  0.999689  0.999689  0.999689  1
  Tm  Tm1  1  0.599535  0.599535  0.599535  1
  Pa  Pa2  1  0.130835  0.130835  0.130835  1
  Pa  Pa3  1  0.869172  0.869172  0.869172  1
  Pa  Pa4  1  0.400857  0.400857  0.400857  1
  Al  Al5  1  0.132422  0.635352  0.635352  1
  Al  Al6  1  0.635352  0.635352  0.132422  1
  Al  Al7  1  0.635352  0.132422  0.635352  1
  Al  Al8  1  0.364672  0.871885  0.364672  1
  Al  Al9  1  0.364672  0.364672  0.871885  1
  Al  Al10  1  0.871885  0.364672  0.364672  1
  Al  Al11  1  0.429775  0.883222  0.883222  1
  Al  Al12  1  0.883222  0.883222  0.429775  1
  Al  Al13  1  0.883222  0.429775  0.883222  1
  Al  Al14  1  0.116561  0.568008  0.116561  1
  Al  Al15  1  0.116561  0.116561  0.568008  1
  Al  Al16  1  0.568008  0.116561  0.116561  1
  Al  Al17  1  0.497942  0.497942  0.002323  1
  Al  Al18  1  0.497942  0.002323  0.497942  1
  Al  Al19  1  0.002323  0.497942  0.497942  1
