# generated using pymatgen
data_Be2GaRu2
_symmetry_space_group_name_H-M   'P 1'
_cell_length_a   6.09077300
_cell_length_b   6.09077300
_cell_length_c   3.03366000
_cell_angle_alpha   90.00000000
_cell_angle_beta   90.00000000
_cell_angle_gamma   90.00000000
_symmetry_Int_Tables_number   1
_chemical_formula_structural   Be2GaRu2
_chemical_formula_sum   'Be4 Ga2 Ru4'
_cell_volume   112.54124959
_cell_formula_units_Z   2
loop_
 _symmetry_equiv_pos_site_id
 _symmetry_equiv_pos_as_xyz
  1  'x, y, z'
loop_
 _atom_site_type_symbol
 _atom_site_label
 _atom_site_symmetry_multiplicity
 _atom_site_fract_x
 _atom_site_fract_y
 _atom_site_fract_z
 _atom_site_occupancy
  Be  Be0  1  0.120537  0.620537  0.000000  1
  Be  Be1  1  0.879463  0.379463  0.000000  1
  Be  Be2  1  0.620537  0.879463  0.000000  1
  Be  Be3  1  0.379463  0.120537  0.000000  1
  Ga  Ga4  1  0.500000  0.500000  0.000000  1
  Ga  Ga5  1  0.000000  0.000000  0.000000  1
  Ru  Ru6  1  0.674058  0.174058  0.500000  1
  Ru  Ru7  1  0.325942  0.825942  0.500000  1
  Ru  Ru8  1  0.174058  0.325942  0.500000  1
  Ru  Ru9  1  0.825942  0.674058  0.500000  1
