# generated using pymatgen
data_Er8B24MoIr3
_symmetry_space_group_name_H-M   'P 1'
_cell_length_a   3.63591900
_cell_length_b   9.15335182
_cell_length_c   11.50142370
_cell_angle_alpha   89.80195293
_cell_angle_beta   90.00000000
_cell_angle_gamma   90.00000000
_symmetry_Int_Tables_number   1
_chemical_formula_structural   Er8B24MoIr3
_chemical_formula_sum   'Er8 B24 Mo1 Ir3'
_cell_volume   382.77482197
_cell_formula_units_Z   1
loop_
 _symmetry_equiv_pos_site_id
 _symmetry_equiv_pos_as_xyz
  1  'x, y, z'
loop_
 _atom_site_type_symbol
 _atom_site_label
 _atom_site_symmetry_multiplicity
 _atom_site_fract_x
 _atom_site_fract_y
 _atom_site_fract_z
 _atom_site_occupancy
  Er  Er0  1  0.000000  0.323414  0.412361  1
  Er  Er1  1  0.000000  0.679208  0.582646  1
  Er  Er2  1  0.000000  0.816940  0.090595  1
  Er  Er3  1  0.000000  0.178892  0.914787  1
  Er  Er4  1  0.000000  0.943762  0.375141  1
  Er  Er5  1  0.000000  0.056759  0.626475  1
  Er  Er6  1  0.000000  0.445913  0.125499  1
  Er  Er7  1  0.000000  0.556247  0.872600  1
  B  B8  1  0.500000  0.551373  0.435532  1
  B  B9  1  0.500000  0.446565  0.566952  1
  B  B10  1  0.500000  0.052213  0.066355  1
  B  B11  1  0.500000  0.946366  0.934348  1
  B  B12  1  0.500000  0.749876  0.422122  1
  B  B13  1  0.500000  0.251366  0.579171  1
  B  B14  1  0.500000  0.249078  0.078673  1
  B  B15  1  0.500000  0.750032  0.920725  1
  B  B16  1  0.500000  0.794529  0.264602  1
  B  B17  1  0.500000  0.207063  0.735334  1
  B  B18  1  0.500000  0.291813  0.233303  1
  B  B19  1  0.500000  0.708507  0.764503  1
  B  B20  1  0.500000  0.631635  0.183410  1
  B  B21  1  0.500000  0.367624  0.816088  1
  B  B22  1  0.500000  0.132324  0.315567  1
  B  B23  1  0.500000  0.868875  0.684104  1
  B  B24  1  0.500000  0.981710  0.213105  1
  B  B25  1  0.500000  0.018658  0.787886  1
  B  B26  1  0.500000  0.479408  0.286084  1
  B  B27  1  0.500000  0.518069  0.712906  1
  B  B28  1  0.500000  0.609034  0.027866  1
  B  B29  1  0.500000  0.389898  0.968916  1
  B  B30  1  0.500000  0.110722  0.470469  1
  B  B31  1  0.500000  0.892920  0.531522  1
  Mo  Mo32  1  0.000000  0.637359  0.321066  1
  Ir  Ir33  1  0.000000  0.361315  0.679568  1
  Ir  Ir34  1  0.000000  0.137445  0.177681  1
  Ir  Ir35  1  0.000000  0.863088  0.822039  1
