# generated using pymatgen
data_Eu4CrTc3B16
_symmetry_space_group_name_H-M   'P 1'
_cell_length_a   3.60657300
_cell_length_b   6.05738814
_cell_length_c   11.72855962
_cell_angle_alpha   89.83007124
_cell_angle_beta   90.00000000
_cell_angle_gamma   90.00000000
_symmetry_Int_Tables_number   1
_chemical_formula_structural   Eu4CrTc3B16
_chemical_formula_sum   'Eu4 Cr1 Tc3 B16'
_cell_volume   256.22582455
_cell_formula_units_Z   1
loop_
 _symmetry_equiv_pos_site_id
 _symmetry_equiv_pos_as_xyz
  1  'x, y, z'
loop_
 _atom_site_type_symbol
 _atom_site_label
 _atom_site_symmetry_multiplicity
 _atom_site_fract_x
 _atom_site_fract_y
 _atom_site_fract_z
 _atom_site_occupancy
  Eu  Eu0  1  0.000000  0.624978  0.350840  1
  Eu  Eu1  1  0.000000  0.376109  0.649643  1
  Eu  Eu2  1  0.000000  0.126002  0.151829  1
  Eu  Eu3  1  0.000000  0.873872  0.846957  1
  Cr  Cr4  1  0.000000  0.875773  0.580840  1
  Tc  Tc5  1  0.000000  0.628542  0.083873  1
  Tc  Tc6  1  0.000000  0.371469  0.915970  1
  Tc  Tc7  1  0.000000  0.124060  0.418846  1
  B  B8  1  0.500000  0.781568  0.184499  1
  B  B9  1  0.500000  0.218196  0.815182  1
  B  B10  1  0.500000  0.280766  0.317137  1
  B  B11  1  0.500000  0.720820  0.682180  1
  B  B12  1  0.500000  0.862664  0.032167  1
  B  B13  1  0.500000  0.137416  0.967204  1
  B  B14  1  0.500000  0.361631  0.468009  1
  B  B15  1  0.500000  0.639488  0.533347  1
  B  B16  1  0.500000  0.885852  0.454900  1
  B  B17  1  0.500000  0.111478  0.547552  1
  B  B18  1  0.500000  0.387342  0.046419  1
  B  B19  1  0.500000  0.613088  0.953045  1
  B  B20  1  0.500000  0.975965  0.310140  1
  B  B21  1  0.500000  0.022622  0.689857  1
  B  B22  1  0.500000  0.475430  0.191224  1
  B  B23  1  0.500000  0.524871  0.808337  1
