# generated using pymatgen
data_Ho6Er10Cd4Ir3Pt
_symmetry_space_group_name_H-M   'P 1'
_cell_length_a   9.57500287
_cell_length_b   9.57500275
_cell_length_c   9.57500206
_cell_angle_alpha   60.01056083
_cell_angle_beta   60.01055937
_cell_angle_gamma   60.01056151
_symmetry_Int_Tables_number   1
_chemical_formula_structural   Ho6Er10Cd4Ir3Pt
_chemical_formula_sum   'Ho6 Er10 Cd4 Ir3 Pt1'
_cell_volume   620.87713133
_cell_formula_units_Z   1
loop_
 _symmetry_equiv_pos_site_id
 _symmetry_equiv_pos_as_xyz
  1  'x, y, z'
loop_
 _atom_site_type_symbol
 _atom_site_label
 _atom_site_symmetry_multiplicity
 _atom_site_fract_x
 _atom_site_fract_y
 _atom_site_fract_z
 _atom_site_occupancy
  Ho  Ho0  1  0.188574  0.812281  0.812281  1
  Ho  Ho1  1  0.813531  0.187404  0.187404  1
  Ho  Ho2  1  0.812281  0.188574  0.812281  1
  Ho  Ho3  1  0.187404  0.813531  0.187404  1
  Ho  Ho4  1  0.812281  0.812281  0.188574  1
  Ho  Ho5  1  0.187404  0.187404  0.813531  1
  Er  Er6  1  0.598513  0.598513  0.598513  1
  Er  Er7  1  0.601810  0.601810  0.199913  1
  Er  Er8  1  0.601810  0.199913  0.601810  1
  Er  Er9  1  0.199913  0.601810  0.601810  1
  Er  Er10  1  0.056147  0.440184  0.440184  1
  Er  Er11  1  0.437877  0.060632  0.060632  1
  Er  Er12  1  0.440184  0.056147  0.440184  1
  Er  Er13  1  0.060632  0.437877  0.060632  1
  Er  Er14  1  0.440184  0.440184  0.056147  1
  Er  Er15  1  0.060632  0.060632  0.437877  1
  Cd  Cd16  1  0.830723  0.830723  0.830723  1
  Cd  Cd17  1  0.831206  0.831206  0.506322  1
  Cd  Cd18  1  0.831206  0.506322  0.831206  1
  Cd  Cd19  1  0.506322  0.831206  0.831206  1
  Ir  Ir20  1  0.392418  0.392418  0.824043  1
  Ir  Ir21  1  0.392418  0.824043  0.392418  1
  Ir  Ir22  1  0.824043  0.392418  0.392418  1
  Pt  Pt23  1  0.392487  0.392487  0.392487  1
