# generated using pymatgen
data_Y5Ta3(Ni4As3)4
_symmetry_space_group_name_H-M   'P 1'
_cell_length_a   12.70530800
_cell_length_b   12.70530807
_cell_length_c   3.90430600
_cell_angle_alpha   90.00000000
_cell_angle_beta   90.00000000
_cell_angle_gamma   120.00000501
_symmetry_Int_Tables_number   1
_chemical_formula_structural   Y5Ta3(Ni4As3)4
_chemical_formula_sum   'Y5 Ta3 Ni16 As12'
_cell_volume   545.81423209
_cell_formula_units_Z   1
loop_
 _symmetry_equiv_pos_site_id
 _symmetry_equiv_pos_as_xyz
  1  'x, y, z'
loop_
 _atom_site_type_symbol
 _atom_site_label
 _atom_site_symmetry_multiplicity
 _atom_site_fract_x
 _atom_site_fract_y
 _atom_site_fract_z
 _atom_site_occupancy
  Y  Y0  1  0.185801  0.185801  0.500000  1
  Y  Y1  1  0.814199  0.000000  0.500000  1
  Y  Y2  1  0.000000  0.814199  0.500000  1
  Y  Y3  1  0.333333  0.666667  0.000000  1
  Y  Y4  1  0.666667  0.333333  0.000000  1
  Ta  Ta5  1  0.563138  0.563138  0.000000  1
  Ta  Ta6  1  0.436862  0.000000  0.000000  1
  Ta  Ta7  1  0.000000  0.436862  0.000000  1
  Ni  Ni8  1  0.719981  0.719981  0.500000  1
  Ni  Ni9  1  0.280019  0.000000  0.500000  1
  Ni  Ni10  1  0.000000  0.280019  0.500000  1
  Ni  Ni11  1  0.181231  0.375788  0.000000  1
  Ni  Ni12  1  0.624212  0.805443  0.000000  1
  Ni  Ni13  1  0.194557  0.818769  0.000000  1
  Ni  Ni14  1  0.805443  0.624212  0.000000  1
  Ni  Ni15  1  0.818769  0.194557  0.000000  1
  Ni  Ni16  1  0.375788  0.181231  0.000000  1
  Ni  Ni17  1  0.362684  0.483627  0.500000  1
  Ni  Ni18  1  0.516373  0.879059  0.500000  1
  Ni  Ni19  1  0.120941  0.637316  0.500000  1
  Ni  Ni20  1  0.879059  0.516373  0.500000  1
  Ni  Ni21  1  0.637316  0.120941  0.500000  1
  Ni  Ni22  1  0.483627  0.362684  0.500000  1
  Ni  Ni23  1  0.000000  0.000000  0.000000  1
  As  As24  1  0.821743  0.821743  0.000000  1
  As  As25  1  0.178257  0.000000  0.000000  1
  As  As26  1  0.000000  0.178257  0.000000  1
  As  As27  1  0.169654  0.480379  0.500000  1
  As  As28  1  0.519621  0.689275  0.500000  1
  As  As29  1  0.310725  0.830346  0.500000  1
  As  As30  1  0.689275  0.519621  0.500000  1
  As  As31  1  0.830346  0.310725  0.500000  1
  As  As32  1  0.480379  0.169654  0.500000  1
  As  As33  1  0.361063  0.361063  0.000000  1
  As  As34  1  0.638937  0.000000  0.000000  1
  As  As35  1  0.000000  0.638937  0.000000  1
