# generated using pymatgen
data_Ca9Mg(Cu2Hg)2
_symmetry_space_group_name_H-M   'P 1'
_cell_length_a   9.17309325
_cell_length_b   9.17309295
_cell_length_c   9.17309264
_cell_angle_alpha   129.77089155
_cell_angle_beta   129.77088046
_cell_angle_gamma   73.77330428
_symmetry_Int_Tables_number   1
_chemical_formula_structural   Ca9Mg(Cu2Hg)2
_chemical_formula_sum   'Ca9 Mg1 Cu4 Hg2'
_cell_volume   444.84957146
_cell_formula_units_Z   1
loop_
 _symmetry_equiv_pos_site_id
 _symmetry_equiv_pos_as_xyz
  1  'x, y, z'
loop_
 _atom_site_type_symbol
 _atom_site_label
 _atom_site_symmetry_multiplicity
 _atom_site_fract_x
 _atom_site_fract_y
 _atom_site_fract_z
 _atom_site_occupancy
  Ca  Ca0  1  0.545437  0.025195  0.846166  1
  Ca  Ca1  1  0.179030  0.699272  0.153834  1
  Ca  Ca2  1  0.025195  0.179030  0.479758  1
  Ca  Ca3  1  0.699272  0.545437  0.520242  1
  Ca  Ca4  1  0.454563  0.974805  0.153834  1
  Ca  Ca5  1  0.820970  0.300728  0.846166  1
  Ca  Ca6  1  0.974805  0.820970  0.520242  1
  Ca  Ca7  1  0.300728  0.454563  0.479758  1
  Ca  Ca8  1  0.500000  0.500000  0.000000  1
  Mg  Mg9  1  0.000000  0.000000  0.000000  1
  Cu  Cu10  1  0.618695  0.888265  0.506960  1
  Cu  Cu11  1  0.381305  0.111735  0.493040  1
  Cu  Cu12  1  0.111735  0.618695  0.730430  1
  Cu  Cu13  1  0.888265  0.381305  0.269570  1
  Hg  Hg14  1  0.262181  0.262181  0.000000  1
  Hg  Hg15  1  0.737819  0.737819  0.000000  1
