# generated using pymatgen
data_Er3Pa(Rh2Pb)2
_symmetry_space_group_name_H-M   'P 1'
_cell_length_a   7.77560553
_cell_length_b   7.77560504
_cell_length_c   3.57463600
_cell_angle_alpha   90.00000000
_cell_angle_beta   90.00000000
_cell_angle_gamma   92.79402843
_symmetry_Int_Tables_number   1
_chemical_formula_structural   Er3Pa(Rh2Pb)2
_chemical_formula_sum   'Er3 Pa1 Rh4 Pb2'
_cell_volume   215.86570521
_cell_formula_units_Z   1
loop_
 _symmetry_equiv_pos_site_id
 _symmetry_equiv_pos_as_xyz
  1  'x, y, z'
loop_
 _atom_site_type_symbol
 _atom_site_label
 _atom_site_symmetry_multiplicity
 _atom_site_fract_x
 _atom_site_fract_y
 _atom_site_fract_z
 _atom_site_occupancy
  Er  Er0  1  0.170260  0.335666  0.500000  1
  Er  Er1  1  0.835666  0.670260  0.500000  1
  Er  Er2  1  0.326230  0.826230  0.500000  1
  Pa  Pa3  1  0.665150  0.165150  0.500000  1
  Rh  Rh4  1  0.390001  0.139052  0.000000  1
  Rh  Rh5  1  0.115099  0.615099  0.000000  1
  Rh  Rh6  1  0.639052  0.890001  0.000000  1
  Rh  Rh7  1  0.848811  0.348811  0.000000  1
  Pb  Pb8  1  0.012206  0.997525  0.000000  1
  Pb  Pb9  1  0.497525  0.512206  0.000000  1
