# generated using pymatgen
data_Ho4MgZn2Bi
_symmetry_space_group_name_H-M   'P 1'
_cell_length_a   8.59308896
_cell_length_b   8.59309358
_cell_length_c   8.59303406
_cell_angle_alpha   125.91809222
_cell_angle_beta   125.91795604
_cell_angle_gamma   80.02333301
_symmetry_Int_Tables_number   1
_chemical_formula_structural   Ho4MgZn2Bi
_chemical_formula_sum   'Ho8 Mg2 Zn4 Bi2'
_cell_volume   401.78810495
_cell_formula_units_Z   2
loop_
 _symmetry_equiv_pos_site_id
 _symmetry_equiv_pos_as_xyz
  1  'x, y, z'
loop_
 _atom_site_type_symbol
 _atom_site_label
 _atom_site_symmetry_multiplicity
 _atom_site_fract_x
 _atom_site_fract_y
 _atom_site_fract_z
 _atom_site_occupancy
  Ho  Ho0  1  0.016675  0.516674  0.817770  1
  Ho  Ho1  1  0.698904  0.198902  0.182229  1
  Ho  Ho2  1  0.516675  0.698901  0.500000  1
  Ho  Ho3  1  0.198901  0.016675  0.500000  1
  Ho  Ho4  1  0.983325  0.483326  0.182230  1
  Ho  Ho5  1  0.301096  0.801098  0.817771  1
  Ho  Ho6  1  0.483325  0.301099  0.500000  1
  Ho  Ho7  1  0.801099  0.983325  0.500000  1
  Mg  Mg8  1  0.000000  0.000000  0.000000  1
  Mg  Mg9  1  0.500000  0.500000  0.000000  1
  Zn  Zn10  1  0.365834  0.865834  0.231670  1
  Zn  Zn11  1  0.634166  0.134166  0.768330  1
  Zn  Zn12  1  0.865834  0.634167  0.500001  1
  Zn  Zn13  1  0.134166  0.365833  0.499999  1
  Bi  Bi14  1  0.750000  0.750000  0.000000  1
  Bi  Bi15  1  0.250000  0.250000  0.000000  1
