# generated using pymatgen
data_Ba6SmEr(BO3)6
_symmetry_space_group_name_H-M   'P 1'
_cell_length_a   8.26230489
_cell_length_b   8.26230542
_cell_length_c   8.26230358
_cell_angle_alpha   105.65329228
_cell_angle_beta   105.65330468
_cell_angle_gamma   105.65330251
_symmetry_Int_Tables_number   1
_chemical_formula_structural   Ba6SmEr(BO3)6
_chemical_formula_sum   'Ba6 Sm1 Er1 B6 O18'
_cell_volume   485.95622936
_cell_formula_units_Z   1
loop_
 _symmetry_equiv_pos_site_id
 _symmetry_equiv_pos_as_xyz
  1  'x, y, z'
loop_
 _atom_site_type_symbol
 _atom_site_label
 _atom_site_symmetry_multiplicity
 _atom_site_fract_x
 _atom_site_fract_y
 _atom_site_fract_z
 _atom_site_occupancy
  Ba  Ba0  1  0.352259  0.732628  0.843833  1
  Ba  Ba1  1  0.843833  0.352259  0.732628  1
  Ba  Ba2  1  0.732628  0.843833  0.352259  1
  Ba  Ba3  1  0.647741  0.267372  0.156167  1
  Ba  Ba4  1  0.156167  0.647741  0.267372  1
  Ba  Ba5  1  0.267372  0.156167  0.647741  1
  Sm  Sm6  1  0.000000  0.000000  0.000000  1
  Er  Er7  1  0.500000  0.500000  0.500000  1
  B  B8  1  0.708756  0.618840  0.954003  1
  B  B9  1  0.954003  0.708756  0.618840  1
  B  B10  1  0.618840  0.954003  0.708756  1
  B  B11  1  0.045997  0.291244  0.381160  1
  B  B12  1  0.381160  0.045997  0.291244  1
  B  B13  1  0.291244  0.381160  0.045997  1
  O  O14  1  0.055618  0.804476  0.543730  1
  O  O15  1  0.543730  0.055618  0.804476  1
  O  O16  1  0.427479  0.491759  0.215928  1
  O  O17  1  0.491759  0.215928  0.427479  1
  O  O18  1  0.215928  0.427479  0.491759  1
  O  O19  1  0.784072  0.572521  0.508241  1
  O  O20  1  0.572521  0.508241  0.784072  1
  O  O21  1  0.508241  0.784072  0.572521  1
  O  O22  1  0.258828  0.196067  0.982129  1
  O  O23  1  0.196067  0.982129  0.258828  1
  O  O24  1  0.982129  0.258828  0.196067  1
  O  O25  1  0.741172  0.803933  0.017871  1
  O  O26  1  0.803933  0.017871  0.741172  1
  O  O27  1  0.017871  0.741172  0.803933  1
  O  O28  1  0.195524  0.456270  0.944382  1
  O  O29  1  0.456270  0.944382  0.195524  1
  O  O30  1  0.944382  0.195524  0.456270  1
  O  O31  1  0.804476  0.543730  0.055618  1
