# generated using pymatgen
data_Zr4TiAl3Mo3Pd
_symmetry_space_group_name_H-M   'P 1'
_cell_length_a   5.29488558
_cell_length_b   5.29488607
_cell_length_c   8.84816892
_cell_angle_alpha   89.93510117
_cell_angle_beta   90.06489640
_cell_angle_gamma   118.72360003
_symmetry_Int_Tables_number   1
_chemical_formula_structural   Zr4TiAl3Mo3Pd
_chemical_formula_sum   'Zr4 Ti1 Al3 Mo3 Pd1'
_cell_volume   217.54054482
_cell_formula_units_Z   1
loop_
 _symmetry_equiv_pos_site_id
 _symmetry_equiv_pos_as_xyz
  1  'x, y, z'
loop_
 _atom_site_type_symbol
 _atom_site_label
 _atom_site_symmetry_multiplicity
 _atom_site_fract_x
 _atom_site_fract_y
 _atom_site_fract_z
 _atom_site_occupancy
  Zr  Zr0  1  0.330547  0.669453  0.188986  1
  Zr  Zr1  1  0.663975  0.336025  0.317349  1
  Zr  Zr2  1  0.663926  0.336074  0.684948  1
  Zr  Zr3  1  0.335122  0.664878  0.808341  1
  Ti  Ti4  1  0.996964  0.003036  0.246764  1
  Al  Al5  1  0.996974  0.003026  0.753735  1
  Al  Al6  1  0.834588  0.649160  0.999791  1
  Al  Al7  1  0.350840  0.165412  0.999791  1
  Mo  Mo8  1  0.166414  0.341562  0.501488  1
  Mo  Mo9  1  0.658438  0.833586  0.501488  1
  Mo  Mo10  1  0.165738  0.834262  0.499959  1
  Pd  Pd11  1  0.836625  0.163375  0.997361  1
