# generated using pymatgen
data_ZrSc7Ni4
_symmetry_space_group_name_H-M   'P 1'
_cell_length_a   6.39046867
_cell_length_b   4.50425800
_cell_length_c   7.91900036
_cell_angle_alpha   90.00000000
_cell_angle_beta   89.39295200
_cell_angle_gamma   90.00000000
_symmetry_Int_Tables_number   1
_chemical_formula_structural   ZrSc7Ni4
_chemical_formula_sum   'Zr1 Sc7 Ni4'
_cell_volume   227.93024396
_cell_formula_units_Z   1
loop_
 _symmetry_equiv_pos_site_id
 _symmetry_equiv_pos_as_xyz
  1  'x, y, z'
loop_
 _atom_site_type_symbol
 _atom_site_label
 _atom_site_symmetry_multiplicity
 _atom_site_fract_x
 _atom_site_fract_y
 _atom_site_fract_z
 _atom_site_occupancy
  Zr  Zr0  1  0.145997  0.750000  0.082168  1
  Sc  Sc1  1  0.484128  0.249999  0.175996  1
  Sc  Sc2  1  0.983629  0.249999  0.324126  1
  Sc  Sc3  1  0.646942  0.750000  0.419378  1
  Sc  Sc4  1  0.351787  0.249999  0.582166  1
  Sc  Sc5  1  0.016389  0.750000  0.673751  1
  Sc  Sc6  1  0.517771  0.750000  0.824426  1
  Sc  Sc7  1  0.853227  0.249999  0.916130  1
  Ni  Ni8  1  0.744854  0.750000  0.091281  1
  Ni  Ni9  1  0.241584  0.750000  0.404889  1
  Ni  Ni10  1  0.757723  0.249999  0.593165  1
  Ni  Ni11  1  0.255967  0.249999  0.912522  1
