# generated using pymatgen
data_NdSmY2(WN3)4
_symmetry_space_group_name_H-M   'P 1'
_cell_length_a   7.36107557
_cell_length_b   7.36107585
_cell_length_c   6.29499258
_cell_angle_alpha   74.85774129
_cell_angle_beta   74.85774856
_cell_angle_gamma   83.11394845
_symmetry_Int_Tables_number   1
_chemical_formula_structural   NdSmY2(WN3)4
_chemical_formula_sum   'Nd1 Sm1 Y2 W4 N12'
_cell_volume   317.33361372
_cell_formula_units_Z   1
loop_
 _symmetry_equiv_pos_site_id
 _symmetry_equiv_pos_as_xyz
  1  'x, y, z'
loop_
 _atom_site_type_symbol
 _atom_site_label
 _atom_site_symmetry_multiplicity
 _atom_site_fract_x
 _atom_site_fract_y
 _atom_site_fract_z
 _atom_site_occupancy
  Nd  Nd0  1  0.701798  0.298202  0.750000  1
  Sm  Sm1  1  0.296166  0.703834  0.250000  1
  Y  Y2  1  0.089786  0.910214  0.750000  1
  Y  Y3  1  0.911690  0.088310  0.250000  1
  W  W4  1  0.379077  0.200240  0.242534  1
  W  W5  1  0.620260  0.799797  0.758531  1
  W  W6  1  0.799760  0.620923  0.257466  1
  W  W7  1  0.200203  0.379740  0.741469  1
  N  N8  1  0.620015  0.111463  0.165580  1
  N  N9  1  0.356622  0.354898  0.456718  1
  N  N10  1  0.004819  0.214413  0.851634  1
  N  N11  1  0.379656  0.889804  0.836938  1
  N  N12  1  0.785587  0.995181  0.648366  1
  N  N13  1  0.110196  0.620344  0.663062  1
  N  N14  1  0.888537  0.379985  0.334420  1
  N  N15  1  0.643363  0.647421  0.541690  1
  N  N16  1  0.645102  0.643378  0.043282  1
  N  N17  1  0.352579  0.356637  0.958310  1
  N  N18  1  0.998104  0.783321  0.149310  1
  N  N19  1  0.216679  0.001896  0.350690  1
