# generated using pymatgen
data_Np3PbF13
_symmetry_space_group_name_H-M   'P 1'
_cell_length_a   7.40825100
_cell_length_b   8.02974200
_cell_length_c   8.45618700
_cell_angle_alpha   90.00000000
_cell_angle_beta   90.00000000
_cell_angle_gamma   90.00000000
_symmetry_Int_Tables_number   1
_chemical_formula_structural   Np3PbF13
_chemical_formula_sum   'Np6 Pb2 F26'
_cell_volume   503.02765051
_cell_formula_units_Z   2
loop_
 _symmetry_equiv_pos_site_id
 _symmetry_equiv_pos_as_xyz
  1  'x, y, z'
loop_
 _atom_site_type_symbol
 _atom_site_label
 _atom_site_symmetry_multiplicity
 _atom_site_fract_x
 _atom_site_fract_y
 _atom_site_fract_z
 _atom_site_occupancy
  Np  Np0  1  0.896691  0.251759  0.129956  1
  Np  Np1  1  0.896691  0.748241  0.129956  1
  Np  Np2  1  0.103309  0.748241  0.629956  1
  Np  Np3  1  0.103309  0.251759  0.629956  1
  Np  Np4  1  0.604489  0.000000  0.487851  1
  Np  Np5  1  0.395511  0.000000  0.987851  1
  Pb  Pb6  1  0.415677  0.500000  0.279131  1
  Pb  Pb7  1  0.584323  0.500000  0.779131  1
  F  F8  1  0.793329  0.189042  0.595024  1
  F  F9  1  0.793329  0.810958  0.595024  1
  F  F10  1  0.206671  0.810958  0.095024  1
  F  F11  1  0.206671  0.189042  0.095024  1
  F  F12  1  0.616070  0.192981  0.003487  1
  F  F13  1  0.616070  0.807019  0.003487  1
  F  F14  1  0.383930  0.807019  0.503487  1
  F  F15  1  0.383930  0.192981  0.503487  1
  F  F16  1  0.656036  0.308905  0.309189  1
  F  F17  1  0.656036  0.691095  0.309189  1
  F  F18  1  0.343964  0.691095  0.809189  1
  F  F19  1  0.343964  0.308905  0.809189  1
  F  F20  1  0.042225  0.296285  0.365667  1
  F  F21  1  0.042225  0.703715  0.365667  1
  F  F22  1  0.957775  0.703715  0.865667  1
  F  F23  1  0.957775  0.296285  0.865667  1
  F  F24  1  0.052442  0.500000  0.119057  1
  F  F25  1  0.947558  0.500000  0.619057  1
  F  F26  1  0.711308  0.500000  0.045080  1
  F  F27  1  0.288692  0.500000  0.545080  1
  F  F28  1  0.923934  0.000000  0.006758  1
  F  F29  1  0.076066  0.000000  0.506758  1
  F  F30  1  0.820467  0.000000  0.282189  1
  F  F31  1  0.179533  0.000000  0.782189  1
  F  F32  1  0.463785  0.000000  0.243767  1
  F  F33  1  0.536215  0.000000  0.743767  1
