# generated using pymatgen
data_NdEr5(BiO7)2
_symmetry_space_group_name_H-M   'P 1'
_cell_length_a   6.55490565
_cell_length_b   6.54281406
_cell_length_c   7.69182573
_cell_angle_alpha   106.99256444
_cell_angle_beta   89.81720813
_cell_angle_gamma   98.97791856
_symmetry_Int_Tables_number   1
_chemical_formula_structural   NdEr5(BiO7)2
_chemical_formula_sum   'Nd1 Er5 Bi2 O14'
_cell_volume   311.30216732
_cell_formula_units_Z   1
loop_
 _symmetry_equiv_pos_site_id
 _symmetry_equiv_pos_as_xyz
  1  'x, y, z'
loop_
 _atom_site_type_symbol
 _atom_site_label
 _atom_site_symmetry_multiplicity
 _atom_site_fract_x
 _atom_site_fract_y
 _atom_site_fract_z
 _atom_site_occupancy
  Nd  Nd0  1  0.258592  0.519055  0.383068  1
  Er  Er1  1  0.465383  0.006243  0.251033  1
  Er  Er2  1  0.537757  0.993621  0.748893  1
  Er  Er3  1  0.275213  0.539032  0.883373  1
  Er  Er4  1  0.727056  0.462545  0.114675  1
  Er  Er5  1  0.728692  0.472285  0.615478  1
  Bi  Bi6  1  0.997864  0.001241  0.501366  1
  Bi  Bi7  1  0.999659  0.998374  0.999061  1
  O  O8  1  0.454755  0.652861  0.159544  1
  O  O9  1  0.553083  0.348164  0.832490  1
  O  O10  1  0.302590  0.921597  0.950518  1
  O  O11  1  0.697799  0.079355  0.047918  1
  O  O12  1  0.299823  0.930203  0.515589  1
  O  O13  1  0.698317  0.076325  0.489145  1
  O  O14  1  0.553885  0.360199  0.343775  1
  O  O15  1  0.460374  0.638338  0.662853  1
  O  O16  1  0.926974  0.663870  0.960472  1
  O  O17  1  0.076010  0.334822  0.039782  1
  O  O18  1  0.065436  0.352281  0.625322  1
  O  O19  1  0.920148  0.655180  0.376226  1
  O  O20  1  0.871431  0.898743  0.724381  1
  O  O21  1  0.129162  0.095667  0.275038  1
