# generated using pymatgen
data_Lu2Tl5InCl12
_symmetry_space_group_name_H-M   'P 1'
_cell_length_a   7.91694868
_cell_length_b   7.43558869
_cell_length_c   12.96844100
_cell_angle_alpha   55.58624519
_cell_angle_beta   89.92559531
_cell_angle_gamma   90.17710456
_symmetry_Int_Tables_number   1
_chemical_formula_structural   Lu2Tl5InCl12
_chemical_formula_sum   'Lu2 Tl5 In1 Cl12'
_cell_volume   629.79355148
_cell_formula_units_Z   1
loop_
 _symmetry_equiv_pos_site_id
 _symmetry_equiv_pos_as_xyz
  1  'x, y, z'
loop_
 _atom_site_type_symbol
 _atom_site_label
 _atom_site_symmetry_multiplicity
 _atom_site_fract_x
 _atom_site_fract_y
 _atom_site_fract_z
 _atom_site_occupancy
  Lu  Lu0  1  0.500000  0.000000  0.500000  1
  Lu  Lu1  1  0.000000  0.000000  0.000000  1
  Tl  Tl2  1  0.500000  0.500000  0.000000  1
  Tl  Tl3  1  0.069152  0.723265  0.753617  1
  Tl  Tl4  1  0.930848  0.276735  0.246383  1
  Tl  Tl5  1  0.570137  0.278380  0.744464  1
  Tl  Tl6  1  0.429863  0.721620  0.255536  1
  In  In7  1  0.000000  0.500000  0.500000  1
  Cl  Cl8  1  0.772991  0.769672  0.568253  1
  Cl  Cl9  1  0.227009  0.230328  0.431747  1
  Cl  Cl10  1  0.274373  0.229279  0.930478  1
  Cl  Cl11  1  0.725627  0.770721  0.069522  1
  Cl  Cl12  1  0.449383  0.894283  0.724043  1
  Cl  Cl13  1  0.550617  0.105717  0.275957  1
  Cl  Cl14  1  0.950583  0.108666  0.774638  1
  Cl  Cl15  1  0.049417  0.891334  0.225362  1
  Cl  Cl16  1  0.326702  0.665135  0.549925  1
  Cl  Cl17  1  0.673298  0.334865  0.450075  1
  Cl  Cl18  1  0.830039  0.335192  0.949742  1
  Cl  Cl19  1  0.169961  0.664808  0.050258  1
