# generated using pymatgen
data_Tb5V3(Co4As3)4
_symmetry_space_group_name_H-M   'P 1'
_cell_length_a   12.52524900
_cell_length_b   12.52524890
_cell_length_c   3.80952500
_cell_angle_alpha   90.00000000
_cell_angle_beta   90.00000000
_cell_angle_gamma   119.99999761
_symmetry_Int_Tables_number   1
_chemical_formula_structural   Tb5V3(Co4As3)4
_chemical_formula_sum   'Tb5 V3 Co16 As12'
_cell_volume   517.57608764
_cell_formula_units_Z   1
loop_
 _symmetry_equiv_pos_site_id
 _symmetry_equiv_pos_as_xyz
  1  'x, y, z'
loop_
 _atom_site_type_symbol
 _atom_site_label
 _atom_site_symmetry_multiplicity
 _atom_site_fract_x
 _atom_site_fract_y
 _atom_site_fract_z
 _atom_site_occupancy
  Tb  Tb0  1  0.813379  0.000000  0.500000  1
  Tb  Tb1  1  0.000000  0.813379  0.500000  1
  Tb  Tb2  1  0.186621  0.186621  0.500000  1
  Tb  Tb3  1  0.333333  0.666667  0.000000  1
  Tb  Tb4  1  0.666667  0.333333  0.000000  1
  V  V5  1  0.440092  0.000000  0.000000  1
  V  V6  1  0.000000  0.440092  0.000000  1
  V  V7  1  0.559908  0.559908  0.000000  1
  Co  Co8  1  0.283833  0.000000  0.500000  1
  Co  Co9  1  0.000000  0.283833  0.500000  1
  Co  Co10  1  0.716167  0.716167  0.500000  1
  Co  Co11  1  0.622753  0.799435  0.000000  1
  Co  Co12  1  0.200565  0.823318  0.000000  1
  Co  Co13  1  0.176682  0.377247  0.000000  1
  Co  Co14  1  0.377247  0.176682  0.000000  1
  Co  Co15  1  0.799435  0.622753  0.000000  1
  Co  Co16  1  0.823318  0.200565  0.000000  1
  Co  Co17  1  0.520654  0.875384  0.500000  1
  Co  Co18  1  0.124616  0.645269  0.500000  1
  Co  Co19  1  0.354731  0.479346  0.500000  1
  Co  Co20  1  0.479346  0.354731  0.500000  1
  Co  Co21  1  0.875384  0.520654  0.500000  1
  Co  Co22  1  0.645269  0.124616  0.500000  1
  Co  Co23  1  0.000000  0.000000  0.000000  1
  As  As24  1  0.178782  0.000000  0.000000  1
  As  As25  1  0.000000  0.178782  0.000000  1
  As  As26  1  0.821218  0.821218  0.000000  1
  As  As27  1  0.517450  0.682986  0.500000  1
  As  As28  1  0.317014  0.834464  0.500000  1
  As  As29  1  0.165536  0.482550  0.500000  1
  As  As30  1  0.482550  0.165536  0.500000  1
  As  As31  1  0.682986  0.517450  0.500000  1
  As  As32  1  0.834464  0.317014  0.500000  1
  As  As33  1  0.637284  0.000000  0.000000  1
  As  As34  1  0.000000  0.637284  0.000000  1
  As  As35  1  0.362716  0.362716  0.000000  1
