# generated using pymatgen
data_Ba8Ti3Mn3O20
_symmetry_space_group_name_H-M   'P 1'
_cell_length_a   7.32192726
_cell_length_b   7.32192867
_cell_length_c   13.11491066
_cell_angle_alpha   90.10532706
_cell_angle_beta   89.89467451
_cell_angle_gamma   133.13174085
_symmetry_Int_Tables_number   1
_chemical_formula_structural   Ba8Ti3Mn3O20
_chemical_formula_sum   'Ba8 Ti3 Mn3 O20'
_cell_volume   513.10883601
_cell_formula_units_Z   1
loop_
 _symmetry_equiv_pos_site_id
 _symmetry_equiv_pos_as_xyz
  1  'x, y, z'
loop_
 _atom_site_type_symbol
 _atom_site_label
 _atom_site_symmetry_multiplicity
 _atom_site_fract_x
 _atom_site_fract_y
 _atom_site_fract_z
 _atom_site_occupancy
  Ba  Ba0  1  0.240616  0.759384  0.892853  1
  Ba  Ba1  1  0.760328  0.239672  0.095438  1
  Ba  Ba2  1  0.262605  0.737395  0.405391  1
  Ba  Ba3  1  0.738542  0.261458  0.612269  1
  Ba  Ba4  1  0.032280  0.967720  0.639298  1
  Ba  Ba5  1  0.966086  0.033914  0.360165  1
  Ba  Ba6  1  0.466270  0.533730  0.143601  1
  Ba  Ba7  1  0.537793  0.462207  0.859865  1
  Ti  Ti8  1  0.368946  0.631054  0.657563  1
  Ti  Ti9  1  0.633585  0.366415  0.347184  1
  Ti  Ti10  1  0.133111  0.866889  0.154595  1
  Mn  Mn11  1  0.875989  0.124011  0.848489  1
  Mn  Mn12  1  0.499844  0.500156  0.500283  1
  Mn  Mn13  1  0.999166  0.000834  0.001456  1
  O  O14  1  0.126952  0.368581  0.750507  1
  O  O15  1  0.369773  0.130040  0.248763  1
  O  O16  1  0.869960  0.630227  0.248763  1
  O  O17  1  0.631419  0.873048  0.750507  1
  O  O18  1  0.381189  0.176261  0.463010  1
  O  O19  1  0.176939  0.380663  0.537218  1
  O  O20  1  0.115145  0.323373  0.960334  1
  O  O21  1  0.321223  0.121842  0.035152  1
  O  O22  1  0.619337  0.823061  0.537218  1
  O  O23  1  0.823739  0.618811  0.463010  1
  O  O24  1  0.878158  0.678777  0.035152  1
  O  O25  1  0.676627  0.884855  0.960334  1
  O  O26  1  0.233836  0.766164  0.643244  1
  O  O27  1  0.766921  0.233079  0.356073  1
  O  O28  1  0.960422  0.039578  0.142412  1
  O  O29  1  0.030338  0.969662  0.854572  1
  O  O30  1  0.536866  0.463134  0.644650  1
  O  O31  1  0.462335  0.537665  0.356668  1
  O  O32  1  0.737475  0.262525  0.856425  1
  O  O33  1  0.266188  0.733812  0.137535  1
