# generated using pymatgen
data_Pb(S8I)3
_symmetry_space_group_name_H-M   'P 1'
_cell_length_a   15.39850758
_cell_length_b   15.39850761
_cell_length_c   15.39850769
_cell_angle_alpha   118.85042017
_cell_angle_beta   118.85041743
_cell_angle_gamma   118.85041508
_symmetry_Int_Tables_number   1
_chemical_formula_structural   Pb(S8I)3
_chemical_formula_sum   'Pb1 S24 I3'
_cell_volume   1011.96715879
_cell_formula_units_Z   1
loop_
 _symmetry_equiv_pos_site_id
 _symmetry_equiv_pos_as_xyz
  1  'x, y, z'
loop_
 _atom_site_type_symbol
 _atom_site_label
 _atom_site_symmetry_multiplicity
 _atom_site_fract_x
 _atom_site_fract_y
 _atom_site_fract_z
 _atom_site_occupancy
  Pb  Pb0  1  0.276281  0.276281  0.276281  1
  S  S1  1  0.011960  0.604368  0.604368  1
  S  S2  1  0.604368  0.604368  0.011960  1
  S  S3  1  0.604368  0.011960  0.604368  1
  S  S4  1  0.234635  0.843137  0.716283  1
  S  S5  1  0.843137  0.716283  0.234635  1
  S  S6  1  0.716283  0.234635  0.843137  1
  S  S7  1  0.843137  0.234635  0.716283  1
  S  S8  1  0.234635  0.716283  0.843137  1
  S  S9  1  0.716283  0.843137  0.234635  1
  S  S10  1  0.100847  0.627937  0.448480  1
  S  S11  1  0.627937  0.448480  0.100847  1
  S  S12  1  0.448480  0.100847  0.627937  1
  S  S13  1  0.627937  0.100847  0.448480  1
  S  S14  1  0.100847  0.448480  0.627937  1
  S  S15  1  0.448480  0.627937  0.100847  1
  S  S16  1  0.357519  0.746242  0.619272  1
  S  S17  1  0.746242  0.619272  0.357519  1
  S  S18  1  0.619272  0.357519  0.746242  1
  S  S19  1  0.746242  0.357519  0.619272  1
  S  S20  1  0.357519  0.619272  0.746242  1
  S  S21  1  0.619272  0.746242  0.357519  1
  S  S22  1  0.186056  0.468189  0.468189  1
  S  S23  1  0.468189  0.468189  0.186056  1
  S  S24  1  0.468189  0.186056  0.468189  1
  I  I25  1  0.126843  0.956073  0.956073  1
  I  I26  1  0.956073  0.956073  0.126843  1
  I  I27  1  0.956073  0.126843  0.956073  1
