# generated using pymatgen
data_Ta4Mn3Cr3Ga2
_symmetry_space_group_name_H-M   'P 1'
_cell_length_a   4.85946902
_cell_length_b   4.90327860
_cell_length_c   8.15906500
_cell_angle_alpha   90.00000000
_cell_angle_beta   90.00000000
_cell_angle_gamma   120.29866357
_symmetry_Int_Tables_number   1
_chemical_formula_structural   Ta4Mn3Cr3Ga2
_chemical_formula_sum   'Ta4 Mn3 Cr3 Ga2'
_cell_volume   167.85392712
_cell_formula_units_Z   1
loop_
 _symmetry_equiv_pos_site_id
 _symmetry_equiv_pos_as_xyz
  1  'x, y, z'
loop_
 _atom_site_type_symbol
 _atom_site_label
 _atom_site_symmetry_multiplicity
 _atom_site_fract_x
 _atom_site_fract_y
 _atom_site_fract_z
 _atom_site_occupancy
  Ta  Ta0  1  0.332633  0.666317  0.434568  1
  Ta  Ta1  1  0.668606  0.334303  0.932681  1
  Ta  Ta2  1  0.668606  0.334303  0.567319  1
  Ta  Ta3  1  0.332633  0.666317  0.065432  1
  Mn  Mn4  1  0.175275  0.346524  0.750000  1
  Mn  Mn5  1  0.175275  0.828750  0.750000  1
  Mn  Mn6  1  0.347705  0.173853  0.250000  1
  Cr  Cr7  1  0.824314  0.649593  0.250000  1
  Cr  Cr8  1  0.642308  0.821154  0.750000  1
  Cr  Cr9  1  0.824314  0.174722  0.250000  1
  Ga  Ga10  1  0.004165  0.002083  0.998439  1
  Ga  Ga11  1  0.004165  0.002083  0.501561  1
