# generated using pymatgen
data_Nb12Ga9Fe2RuN4
_symmetry_space_group_name_H-M   'P 1'
_cell_length_a   8.24678749
_cell_length_b   8.26767325
_cell_length_c   8.26767276
_cell_angle_alpha   60.03413101
_cell_angle_beta   59.95365992
_cell_angle_gamma   59.95366109
_symmetry_Int_Tables_number   1
_chemical_formula_structural   Nb12Ga9Fe2RuN4
_chemical_formula_sum   'Nb12 Ga9 Fe2 Ru1 N4'
_cell_volume   398.42225203
_cell_formula_units_Z   1
loop_
 _symmetry_equiv_pos_site_id
 _symmetry_equiv_pos_as_xyz
  1  'x, y, z'
loop_
 _atom_site_type_symbol
 _atom_site_label
 _atom_site_symmetry_multiplicity
 _atom_site_fract_x
 _atom_site_fract_y
 _atom_site_fract_z
 _atom_site_occupancy
  Nb  Nb0  1  0.813052  0.810266  0.186665  1
  Nb  Nb1  1  0.193334  0.196589  0.805110  1
  Nb  Nb2  1  0.813052  0.186665  0.810266  1
  Nb  Nb3  1  0.193334  0.805110  0.196589  1
  Nb  Nb4  1  0.188714  0.807761  0.807761  1
  Nb  Nb5  1  0.811562  0.190292  0.190292  1
  Nb  Nb6  1  0.436948  0.439734  0.063335  1
  Nb  Nb7  1  0.056666  0.053411  0.444890  1
  Nb  Nb8  1  0.436948  0.063335  0.439734  1
  Nb  Nb9  1  0.056666  0.444890  0.053411  1
  Nb  Nb10  1  0.061286  0.442239  0.442239  1
  Nb  Nb11  1  0.438438  0.059708  0.059708  1
  Ga  Ga12  1  0.125000  0.625000  0.625000  1
  Ga  Ga13  1  0.759345  0.411468  0.411468  1
  Ga  Ga14  1  0.426473  0.757794  0.403575  1
  Ga  Ga15  1  0.426473  0.403575  0.757794  1
  Ga  Ga16  1  0.430093  0.408029  0.408029  1
  Ga  Ga17  1  0.490655  0.838532  0.838532  1
  Ga  Ga18  1  0.823527  0.492206  0.846425  1
  Ga  Ga19  1  0.823527  0.846425  0.492206  1
  Ga  Ga20  1  0.819907  0.841971  0.841971  1
  Fe  Fe21  1  0.625000  0.125000  0.625000  1
  Fe  Fe22  1  0.625000  0.625000  0.125000  1
  Ru  Ru23  1  0.625000  0.625000  0.625000  1
  N  N24  1  0.625000  0.125000  0.125000  1
  N  N25  1  0.125000  0.625000  0.125000  1
  N  N26  1  0.125000  0.125000  0.625000  1
  N  N27  1  0.125000  0.125000  0.125000  1
