# generated using pymatgen
data_Dy2ErMg3Ga2Hg
_symmetry_space_group_name_H-M   'P 1'
_cell_length_a   4.36229300
_cell_length_b   7.43309430
_cell_length_c   7.40753372
_cell_angle_alpha   120.11421968
_cell_angle_beta   90.00000000
_cell_angle_gamma   90.00000000
_symmetry_Int_Tables_number   1
_chemical_formula_structural   Dy2ErMg3Ga2Hg
_chemical_formula_sum   'Dy2 Er1 Mg3 Ga2 Hg1'
_cell_volume   207.77234393
_cell_formula_units_Z   1
loop_
 _symmetry_equiv_pos_site_id
 _symmetry_equiv_pos_as_xyz
  1  'x, y, z'
loop_
 _atom_site_type_symbol
 _atom_site_label
 _atom_site_symmetry_multiplicity
 _atom_site_fract_x
 _atom_site_fract_y
 _atom_site_fract_z
 _atom_site_occupancy
  Dy  Dy0  1  0.000000  0.427129  0.426994  1
  Dy  Dy1  1  0.000000  0.000135  0.573006  1
  Er  Er2  1  0.000000  0.573422  0.000000  1
  Mg  Mg3  1  0.500000  0.749381  0.749739  1
  Mg  Mg4  1  0.500000  0.999642  0.250261  1
  Mg  Mg5  1  0.500000  0.251093  0.000000  1
  Ga  Ga6  1  0.500000  0.666265  0.332101  1
  Ga  Ga7  1  0.500000  0.334163  0.667899  1
  Hg  Hg8  1  0.000000  0.998770  0.000000  1
