# generated using pymatgen
data_Y7Tm3(Bi3C)2
_symmetry_space_group_name_H-M   'P 1'
_cell_length_a   9.13638400
_cell_length_b   9.13638545
_cell_length_c   6.49405600
_cell_angle_alpha   89.99983446
_cell_angle_beta   89.99983258
_cell_angle_gamma   119.99349516
_symmetry_Int_Tables_number   1
_chemical_formula_structural   Y7Tm3(Bi3C)2
_chemical_formula_sum   'Y7 Tm3 Bi6 C2'
_cell_volume   469.48733632
_cell_formula_units_Z   1
loop_
 _symmetry_equiv_pos_site_id
 _symmetry_equiv_pos_as_xyz
  1  'x, y, z'
loop_
 _atom_site_type_symbol
 _atom_site_label
 _atom_site_symmetry_multiplicity
 _atom_site_fract_x
 _atom_site_fract_y
 _atom_site_fract_z
 _atom_site_occupancy
  Y  Y0  1  0.666627  0.333374  0.500390  1
  Y  Y1  1  0.333374  0.666627  0.500390  1
  Y  Y2  1  0.333375  0.666628  0.999610  1
  Y  Y3  1  0.666628  0.333375  0.999610  1
  Y  Y4  1  0.209722  0.209722  0.749998  1
  Y  Y5  1  0.790404  0.000096  0.749997  1
  Y  Y6  1  0.000096  0.790404  0.749997  1
  Tm  Tm7  1  0.796554  0.796554  0.249995  1
  Tm  Tm8  1  0.203317  0.999905  0.250001  1
  Tm  Tm9  1  0.999905  0.203317  0.250001  1
  Bi  Bi10  1  0.400890  0.400890  0.250000  1
  Bi  Bi11  1  0.598922  0.000011  0.250004  1
  Bi  Bi12  1  0.000011  0.598922  0.250004  1
  Bi  Bi13  1  0.598616  0.598616  0.750002  1
  Bi  Bi14  1  0.401572  0.999991  0.750005  1
  Bi  Bi15  1  0.999991  0.401572  0.750005  1
  C  C16  1  0.999998  0.999998  0.494778  1
  C  C17  1  0.999999  0.999999  0.005214  1
