# generated using pymatgen
data_Ta8TcOs4W3
_symmetry_space_group_name_H-M   'P 1'
_cell_length_a   6.42416300
_cell_length_b   4.52417700
_cell_length_c   9.09097000
_cell_angle_alpha   90.00000000
_cell_angle_beta   90.00019264
_cell_angle_gamma   90.00000000
_symmetry_Int_Tables_number   1
_chemical_formula_structural   Ta8TcOs4W3
_chemical_formula_sum   'Ta8 Tc1 Os4 W3'
_cell_volume   264.22041107
_cell_formula_units_Z   1
loop_
 _symmetry_equiv_pos_site_id
 _symmetry_equiv_pos_as_xyz
  1  'x, y, z'
loop_
 _atom_site_type_symbol
 _atom_site_label
 _atom_site_symmetry_multiplicity
 _atom_site_fract_x
 _atom_site_fract_y
 _atom_site_fract_z
 _atom_site_occupancy
  Ta  Ta0  1  0.500285  0.749999  0.125338  1
  Ta  Ta1  1  0.999707  0.749999  0.125340  1
  Ta  Ta2  1  0.499798  0.250000  0.374995  1
  Ta  Ta3  1  0.000214  0.250000  0.374997  1
  Ta  Ta4  1  0.999703  0.749999  0.624674  1
  Ta  Ta5  1  0.500283  0.749999  0.624674  1
  Ta  Ta6  1  0.000547  0.250000  0.874996  1
  Ta  Ta7  1  0.499464  0.250000  0.874996  1
  Tc  Tc8  1  0.249997  0.749999  0.875002  1
  Os  Os9  1  0.250002  0.250000  0.122677  1
  Os  Os10  1  0.750001  0.749999  0.374996  1
  Os  Os11  1  0.250000  0.250000  0.627320  1
  Os  Os12  1  0.749998  0.749999  0.874996  1
  W  W13  1  0.750001  0.250000  0.123693  1
  W  W14  1  0.250001  0.749999  0.375008  1
  W  W15  1  0.749999  0.250000  0.626299  1
