# generated using pymatgen
data_Tb13Tm3In4(PtRh)2
_symmetry_space_group_name_H-M   'P 1'
_cell_length_a   9.71898642
_cell_length_b   9.70389672
_cell_length_c   9.70822345
_cell_angle_alpha   60.08813254
_cell_angle_beta   60.07381137
_cell_angle_gamma   59.97802471
_symmetry_Int_Tables_number   1
_chemical_formula_structural   Tb13Tm3In4(PtRh)2
_chemical_formula_sum   'Tb13 Tm3 In4 Pt2 Rh2'
_cell_volume   648.11188376
_cell_formula_units_Z   1
loop_
 _symmetry_equiv_pos_site_id
 _symmetry_equiv_pos_as_xyz
  1  'x, y, z'
loop_
 _atom_site_type_symbol
 _atom_site_label
 _atom_site_symmetry_multiplicity
 _atom_site_fract_x
 _atom_site_fract_y
 _atom_site_fract_z
 _atom_site_occupancy
  Tb  Tb0  1  0.648420  0.048881  0.649939  1
  Tb  Tb1  1  0.060960  0.062790  0.437999  1
  Tb  Tb2  1  0.437999  0.438251  0.060960  1
  Tb  Tb3  1  0.649939  0.652760  0.648420  1
  Tb  Tb4  1  0.810474  0.186131  0.191851  1
  Tb  Tb5  1  0.191851  0.811543  0.810474  1
  Tb  Tb6  1  0.053490  0.649719  0.646401  1
  Tb  Tb7  1  0.437873  0.062497  0.061005  1
  Tb  Tb8  1  0.437150  0.062850  0.437150  1
  Tb  Tb9  1  0.060828  0.439172  0.060828  1
  Tb  Tb10  1  0.646401  0.650389  0.053490  1
  Tb  Tb11  1  0.188455  0.811545  0.188455  1
  Tb  Tb12  1  0.061005  0.438625  0.437873  1
  Tm  Tm13  1  0.809963  0.810868  0.192031  1
  Tm  Tm14  1  0.810308  0.189692  0.810308  1
  Tm  Tm15  1  0.192031  0.187138  0.809963  1
  In  In16  1  0.417344  0.416711  0.417539  1
  In  In17  1  0.417986  0.416942  0.747998  1
  In  In18  1  0.417539  0.748405  0.417344  1
  In  In19  1  0.747998  0.417072  0.417986  1
  Pt  Pt20  1  0.859861  0.425648  0.857029  1
  Pt  Pt21  1  0.857029  0.857463  0.859861  1
  Rh  Rh22  1  0.858856  0.856141  0.426237  1
  Rh  Rh23  1  0.426237  0.858767  0.858856  1
