# generated using pymatgen
data_Li2HoErSi3
_symmetry_space_group_name_H-M   'P 1'
_cell_length_a   9.22560381
_cell_length_b   9.22560443
_cell_length_c   6.67533000
_cell_angle_alpha   90.00000000
_cell_angle_beta   90.00000000
_cell_angle_gamma   153.51328822
_symmetry_Int_Tables_number   1
_chemical_formula_structural   Li2HoErSi3
_chemical_formula_sum   'Li4 Ho2 Er2 Si6'
_cell_volume   253.38898338
_cell_formula_units_Z   2
loop_
 _symmetry_equiv_pos_site_id
 _symmetry_equiv_pos_as_xyz
  1  'x, y, z'
loop_
 _atom_site_type_symbol
 _atom_site_label
 _atom_site_symmetry_multiplicity
 _atom_site_fract_x
 _atom_site_fract_y
 _atom_site_fract_z
 _atom_site_occupancy
  Li  Li0  1  0.190421  0.809579  0.059767  1
  Li  Li1  1  0.190421  0.809579  0.440233  1
  Li  Li2  1  0.809579  0.190421  0.940233  1
  Li  Li3  1  0.809579  0.190421  0.559767  1
  Ho  Ho4  1  0.552952  0.447048  0.250000  1
  Ho  Ho5  1  0.447048  0.552952  0.750000  1
  Er  Er6  1  0.345145  0.654855  0.250000  1
  Er  Er7  1  0.654855  0.345145  0.750000  1
  Si  Si8  1  0.721205  0.278795  0.250000  1
  Si  Si9  1  0.278795  0.721205  0.750000  1
  Si  Si10  1  0.059658  0.940342  0.927842  1
  Si  Si11  1  0.940342  0.059658  0.072158  1
  Si  Si12  1  0.940342  0.059658  0.427842  1
  Si  Si13  1  0.059658  0.940342  0.572158  1
