# generated using pymatgen
data_Lu2AlOs2Ru
_symmetry_space_group_name_H-M   'P 1'
_cell_length_a   5.28567911
_cell_length_b   5.22906454
_cell_length_c   8.79021600
_cell_angle_alpha   90.00000000
_cell_angle_beta   90.00000000
_cell_angle_gamma   119.64634037
_symmetry_Int_Tables_number   1
_chemical_formula_structural   Lu2AlOs2Ru
_chemical_formula_sum   'Lu4 Al2 Os4 Ru2'
_cell_volume   211.15028338
_cell_formula_units_Z   2
loop_
 _symmetry_equiv_pos_site_id
 _symmetry_equiv_pos_as_xyz
  1  'x, y, z'
loop_
 _atom_site_type_symbol
 _atom_site_label
 _atom_site_symmetry_multiplicity
 _atom_site_fract_x
 _atom_site_fract_y
 _atom_site_fract_z
 _atom_site_occupancy
  Lu  Lu0  1  0.331756  0.667658  0.062567  1
  Lu  Lu1  1  0.668244  0.335901  0.562567  1
  Lu  Lu2  1  0.331756  0.667658  0.437433  1
  Lu  Lu3  1  0.668244  0.335901  0.937433  1
  Al  Al4  1  0.836211  0.168789  0.250000  1
  Al  Al5  1  0.163789  0.332579  0.750000  1
  Os  Os6  1  0.828010  0.659940  0.250000  1
  Os  Os7  1  0.171990  0.831932  0.750000  1
  Os  Os8  1  0.646321  0.828728  0.750000  1
  Os  Os9  1  0.353679  0.182406  0.250000  1
  Ru  Ru10  1  0.000000  0.994254  0.500000  1
  Ru  Ru11  1  0.000000  0.994254  0.000000  1
