# generated using pymatgen
data_Na2NpI6
_symmetry_space_group_name_H-M   'P 1'
_cell_length_a   8.62005551
_cell_length_b   8.62005555
_cell_length_c   8.62005634
_cell_angle_alpha   54.41970841
_cell_angle_beta   54.41971383
_cell_angle_gamma   54.41970655
_symmetry_Int_Tables_number   1
_chemical_formula_structural   Na2NpI6
_chemical_formula_sum   'Na2 Np1 I6'
_cell_volume   393.97306072
_cell_formula_units_Z   1
loop_
 _symmetry_equiv_pos_site_id
 _symmetry_equiv_pos_as_xyz
  1  'x, y, z'
loop_
 _atom_site_type_symbol
 _atom_site_label
 _atom_site_symmetry_multiplicity
 _atom_site_fract_x
 _atom_site_fract_y
 _atom_site_fract_z
 _atom_site_occupancy
  Na  Na0  1  0.329306  0.329306  0.329306  1
  Na  Na1  1  0.670694  0.670694  0.670694  1
  Np  Np2  1  0.000000  0.000000  0.000000  1
  I  I3  1  0.234355  0.613240  0.911191  1
  I  I4  1  0.613240  0.911191  0.234355  1
  I  I5  1  0.911191  0.234355  0.613240  1
  I  I6  1  0.765645  0.386760  0.088809  1
  I  I7  1  0.386760  0.088809  0.765645  1
  I  I8  1  0.088809  0.765645  0.386760  1
