# generated using pymatgen
data_Tm3ZnCo2Sn3
_symmetry_space_group_name_H-M   'P 1'
_cell_length_a   7.42906500
_cell_length_b   7.42906474
_cell_length_c   3.76741400
_cell_angle_alpha   90.00000000
_cell_angle_beta   90.00000000
_cell_angle_gamma   119.99999672
_symmetry_Int_Tables_number   1
_chemical_formula_structural   Tm3ZnCo2Sn3
_chemical_formula_sum   'Tm3 Zn1 Co2 Sn3'
_cell_volume   180.07038549
_cell_formula_units_Z   1
loop_
 _symmetry_equiv_pos_site_id
 _symmetry_equiv_pos_as_xyz
  1  'x, y, z'
loop_
 _atom_site_type_symbol
 _atom_site_label
 _atom_site_symmetry_multiplicity
 _atom_site_fract_x
 _atom_site_fract_y
 _atom_site_fract_z
 _atom_site_occupancy
  Tm  Tm0  1  0.978670  0.387860  0.500000  1
  Tm  Tm1  1  0.612140  0.590810  0.500000  1
  Tm  Tm2  1  0.409190  0.021330  0.500000  1
  Zn  Zn3  1  0.333333  0.666667  0.000000  1
  Co  Co4  1  0.666667  0.333333  0.000000  1
  Co  Co5  1  0.000000  0.000000  0.500000  1
  Sn  Sn6  1  0.999175  0.742183  0.000000  1
  Sn  Sn7  1  0.257817  0.256992  0.000000  1
  Sn  Sn8  1  0.743008  0.000825  0.000000  1
