# generated using pymatgen
data_Na10TaInAs6
_symmetry_space_group_name_H-M   'P 1'
_cell_length_a   7.58388000
_cell_length_b   8.51567313
_cell_length_c   16.09914655
_cell_angle_alpha   58.71672458
_cell_angle_beta   90.00000000
_cell_angle_gamma   90.00000000
_symmetry_Int_Tables_number   1
_chemical_formula_structural   Na10TaInAs6
_chemical_formula_sum   'Na20 Ta2 In2 As12'
_cell_volume   888.54920712
_cell_formula_units_Z   2
loop_
 _symmetry_equiv_pos_site_id
 _symmetry_equiv_pos_as_xyz
  1  'x, y, z'
loop_
 _atom_site_type_symbol
 _atom_site_label
 _atom_site_symmetry_multiplicity
 _atom_site_fract_x
 _atom_site_fract_y
 _atom_site_fract_z
 _atom_site_occupancy
  Na  Na0  1  0.738256  0.935985  0.244392  1
  Na  Na1  1  0.261744  0.935985  0.744392  1
  Na  Na2  1  0.772178  0.057290  0.759003  1
  Na  Na3  1  0.227822  0.057290  0.259003  1
  Na  Na4  1  0.262294  0.250172  0.419140  1
  Na  Na5  1  0.737706  0.250172  0.919140  1
  Na  Na6  1  0.214009  0.750352  0.580854  1
  Na  Na7  1  0.785991  0.750352  0.080854  1
  Na  Na8  1  0.092222  0.342856  0.584641  1
  Na  Na9  1  0.907778  0.342856  0.084641  1
  Na  Na10  1  0.405862  0.653933  0.418874  1
  Na  Na11  1  0.594138  0.653933  0.918874  1
  Na  Na12  1  0.596840  0.335200  0.243475  1
  Na  Na13  1  0.403160  0.335200  0.743475  1
  Na  Na14  1  0.901727  0.667431  0.758792  1
  Na  Na15  1  0.098273  0.667431  0.258792  1
  Na  Na16  1  0.773461  0.420536  0.409033  1
  Na  Na17  1  0.226539  0.420536  0.909033  1
  Na  Na18  1  0.740995  0.580142  0.588446  1
  Na  Na19  1  0.259005  0.580142  0.088446  1
  Ta  Ta20  1  0.610327  0.988745  0.579504  1
  Ta  Ta21  1  0.389673  0.988745  0.079504  1
  In  In22  1  0.892179  0.014339  0.413489  1
  In  In23  1  0.107821  0.014339  0.913489  1
  As  As24  1  0.989349  0.337640  0.262742  1
  As  As25  1  0.010651  0.337640  0.762742  1
  As  As26  1  0.515496  0.692337  0.725090  1
  As  As27  1  0.484504  0.692337  0.225090  1
  As  As28  1  0.942639  0.022014  0.580490  1
  As  As29  1  0.057361  0.022014  0.080490  1
  As  As30  1  0.525710  0.978974  0.430462  1
  As  As31  1  0.474290  0.978974  0.930462  1
  As  As32  1  0.007188  0.709635  0.421754  1
  As  As33  1  0.992812  0.709635  0.921754  1
  As  As34  1  0.487464  0.262418  0.579818  1
  As  As35  1  0.512536  0.262418  0.079818  1
