# generated using pymatgen
data_SmScTcB6
_symmetry_space_group_name_H-M   'P 1'
_cell_length_a   3.62367800
_cell_length_b   9.06062600
_cell_length_c   11.48711300
_cell_angle_alpha   90.00000000
_cell_angle_beta   90.00000000
_cell_angle_gamma   90.00000000
_symmetry_Int_Tables_number   1
_chemical_formula_structural   SmScTcB6
_chemical_formula_sum   'Sm4 Sc4 Tc4 B24'
_cell_volume   377.15398150
_cell_formula_units_Z   4
loop_
 _symmetry_equiv_pos_site_id
 _symmetry_equiv_pos_as_xyz
  1  'x, y, z'
loop_
 _atom_site_type_symbol
 _atom_site_label
 _atom_site_symmetry_multiplicity
 _atom_site_fract_x
 _atom_site_fract_y
 _atom_site_fract_z
 _atom_site_occupancy
  Sm  Sm0  1  0.000000  0.321952  0.414721  1
  Sm  Sm1  1  0.000000  0.678048  0.585279  1
  Sm  Sm2  1  0.000000  0.821952  0.085279  1
  Sm  Sm3  1  0.000000  0.178048  0.914721  1
  Sc  Sc4  1  0.000000  0.944125  0.370193  1
  Sc  Sc5  1  0.000000  0.055875  0.629807  1
  Sc  Sc6  1  0.000000  0.444125  0.129807  1
  Sc  Sc7  1  0.000000  0.555875  0.870193  1
  Tc  Tc8  1  0.000000  0.641541  0.317336  1
  Tc  Tc9  1  0.000000  0.358459  0.682664  1
  Tc  Tc10  1  0.000000  0.141541  0.182664  1
  Tc  Tc11  1  0.000000  0.858459  0.817336  1
  B  B12  1  0.500000  0.555431  0.430925  1
  B  B13  1  0.500000  0.444569  0.569075  1
  B  B14  1  0.500000  0.055431  0.069075  1
  B  B15  1  0.500000  0.944569  0.930925  1
  B  B16  1  0.500000  0.754358  0.416641  1
  B  B17  1  0.500000  0.245642  0.583359  1
  B  B18  1  0.500000  0.254358  0.083359  1
  B  B19  1  0.500000  0.745642  0.916641  1
  B  B20  1  0.500000  0.794961  0.265522  1
  B  B21  1  0.500000  0.205039  0.734478  1
  B  B22  1  0.500000  0.294961  0.234478  1
  B  B23  1  0.500000  0.705039  0.765522  1
  B  B24  1  0.500000  0.628457  0.183448  1
  B  B25  1  0.500000  0.371543  0.816552  1
  B  B26  1  0.500000  0.128457  0.316552  1
  B  B27  1  0.500000  0.871543  0.683448  1
  B  B28  1  0.500000  0.982062  0.214459  1
  B  B29  1  0.500000  0.017938  0.785541  1
  B  B30  1  0.500000  0.482062  0.285541  1
  B  B31  1  0.500000  0.517938  0.714459  1
  B  B32  1  0.500000  0.594680  0.025655  1
  B  B33  1  0.500000  0.405320  0.974345  1
  B  B34  1  0.500000  0.094680  0.474345  1
  B  B35  1  0.500000  0.905320  0.525655  1
