# generated using pymatgen
data_LiY8InRh2
_symmetry_space_group_name_H-M   'P 1'
_cell_length_a   9.70898046
_cell_length_b   9.69348922
_cell_length_c   9.69349000
_cell_angle_alpha   59.85221146
_cell_angle_beta   59.94712249
_cell_angle_gamma   59.94711945
_symmetry_Int_Tables_number   1
_chemical_formula_structural   LiY8InRh2
_chemical_formula_sum   'Li2 Y16 In2 Rh4'
_cell_volume   643.85000753
_cell_formula_units_Z   2
loop_
 _symmetry_equiv_pos_site_id
 _symmetry_equiv_pos_as_xyz
  1  'x, y, z'
loop_
 _atom_site_type_symbol
 _atom_site_label
 _atom_site_symmetry_multiplicity
 _atom_site_fract_x
 _atom_site_fract_y
 _atom_site_fract_z
 _atom_site_occupancy
  Li  Li0  1  0.325230  0.322020  0.322020  1
  Li  Li1  1  0.030729  0.322020  0.322020  1
  Y  Y2  1  0.098578  0.707441  0.095406  1
  Y  Y3  1  0.937809  0.938261  0.563324  1
  Y  Y4  1  0.937809  0.563324  0.938261  1
  Y  Y5  1  0.314817  0.685004  0.313913  1
  Y  Y6  1  0.932490  0.567510  0.567510  1
  Y  Y7  1  0.314817  0.313913  0.685004  1
  Y  Y8  1  0.102294  0.098960  0.098960  1
  Y  Y9  1  0.560606  0.563324  0.938261  1
  Y  Y10  1  0.098578  0.095406  0.707441  1
  Y  Y11  1  0.686267  0.313913  0.685004  1
  Y  Y12  1  0.686267  0.685004  0.313913  1
  Y  Y13  1  0.686507  0.313493  0.313493  1
  Y  Y14  1  0.314821  0.685179  0.685179  1
  Y  Y15  1  0.560606  0.938261  0.563324  1
  Y  Y16  1  0.699785  0.098960  0.098960  1
  Y  Y17  1  0.558364  0.941636  0.941636  1
  In  In18  1  0.329268  0.006956  0.334507  1
  In  In19  1  0.329268  0.334507  0.006956  1
  Rh  Rh20  1  0.890183  0.893544  0.893544  1
  Rh  Rh21  1  0.891088  0.894136  0.323686  1
  Rh  Rh22  1  0.322728  0.893544  0.893544  1
  Rh  Rh23  1  0.891088  0.323686  0.894136  1
