# generated using pymatgen
data_Ho5GaSiSb
_symmetry_space_group_name_H-M   'P 1'
_cell_length_a   6.45289800
_cell_length_b   8.67890407
_cell_length_c   8.64095200
_cell_angle_alpha   119.85558741
_cell_angle_beta   89.99994673
_cell_angle_gamma   90.00000011
_symmetry_Int_Tables_number   1
_chemical_formula_structural   Ho5GaSiSb
_chemical_formula_sum   'Ho10 Ga2 Si2 Sb2'
_cell_volume   419.70298635
_cell_formula_units_Z   2
loop_
 _symmetry_equiv_pos_site_id
 _symmetry_equiv_pos_as_xyz
  1  'x, y, z'
loop_
 _atom_site_type_symbol
 _atom_site_label
 _atom_site_symmetry_multiplicity
 _atom_site_fract_x
 _atom_site_fract_y
 _atom_site_fract_z
 _atom_site_occupancy
  Ho  Ho0  1  0.498241  0.351981  0.676482  1
  Ho  Ho1  1  0.498235  0.648013  0.324496  1
  Ho  Ho2  1  0.001763  0.648015  0.324495  1
  Ho  Ho3  1  0.001761  0.351984  0.676483  1
  Ho  Ho4  1  0.749999  0.249202  0.011775  1
  Ho  Ho5  1  0.750002  0.750801  0.762576  1
  Ho  Ho6  1  0.750002  0.000004  0.234573  1
  Ho  Ho7  1  0.250003  0.748880  0.986428  1
  Ho  Ho8  1  0.250000  0.251116  0.237544  1
  Ho  Ho9  1  0.249998  0.999997  0.764937  1
  Ga  Ga10  1  0.749999  0.605926  0.004060  1
  Ga  Ga11  1  0.750001  0.394083  0.398153  1
  Si  Si12  1  0.250000  0.391717  0.995788  1
  Si  Si13  1  0.250001  0.608284  0.604081  1
  Sb  Sb14  1  0.750001  0.999995  0.606601  1
  Sb  Sb15  1  0.250001  0.000006  0.391527  1
