# generated using pymatgen
data_NdScReB6
_symmetry_space_group_name_H-M   'P 1'
_cell_length_a   3.64930700
_cell_length_b   9.10559500
_cell_length_c   11.57180600
_cell_angle_alpha   90.00000000
_cell_angle_beta   90.00000000
_cell_angle_gamma   90.00000000
_symmetry_Int_Tables_number   1
_chemical_formula_structural   NdScReB6
_chemical_formula_sum   'Nd4 Sc4 Re4 B24'
_cell_volume   384.52083267
_cell_formula_units_Z   4
loop_
 _symmetry_equiv_pos_site_id
 _symmetry_equiv_pos_as_xyz
  1  'x, y, z'
loop_
 _atom_site_type_symbol
 _atom_site_label
 _atom_site_symmetry_multiplicity
 _atom_site_fract_x
 _atom_site_fract_y
 _atom_site_fract_z
 _atom_site_occupancy
  Nd  Nd0  1  0.000000  0.321748  0.414968  1
  Nd  Nd1  1  0.000000  0.678252  0.585032  1
  Nd  Nd2  1  0.000000  0.821748  0.085032  1
  Nd  Nd3  1  0.000000  0.178252  0.914968  1
  Sc  Sc4  1  0.000000  0.944211  0.369965  1
  Sc  Sc5  1  0.000000  0.055789  0.630035  1
  Sc  Sc6  1  0.000000  0.444211  0.130035  1
  Sc  Sc7  1  0.000000  0.555789  0.869965  1
  Re  Re8  1  0.000000  0.641694  0.317038  1
  Re  Re9  1  0.000000  0.358306  0.682962  1
  Re  Re10  1  0.000000  0.141694  0.182962  1
  Re  Re11  1  0.000000  0.858306  0.817038  1
  B  B12  1  0.500000  0.556137  0.429666  1
  B  B13  1  0.500000  0.443863  0.570334  1
  B  B14  1  0.500000  0.056137  0.070334  1
  B  B15  1  0.500000  0.943863  0.929666  1
  B  B16  1  0.500000  0.754961  0.415493  1
  B  B17  1  0.500000  0.245039  0.584507  1
  B  B18  1  0.500000  0.254961  0.084507  1
  B  B19  1  0.500000  0.745039  0.915493  1
  B  B20  1  0.500000  0.795026  0.265395  1
  B  B21  1  0.500000  0.204974  0.734605  1
  B  B22  1  0.500000  0.295026  0.234605  1
  B  B23  1  0.500000  0.704974  0.765395  1
  B  B24  1  0.500000  0.628182  0.183428  1
  B  B25  1  0.500000  0.371818  0.816572  1
  B  B26  1  0.500000  0.128182  0.316572  1
  B  B27  1  0.500000  0.871818  0.683428  1
  B  B28  1  0.500000  0.982840  0.215185  1
  B  B29  1  0.500000  0.017160  0.784815  1
  B  B30  1  0.500000  0.482840  0.284815  1
  B  B31  1  0.500000  0.517160  0.715185  1
  B  B32  1  0.500000  0.593688  0.025121  1
  B  B33  1  0.500000  0.406312  0.974879  1
  B  B34  1  0.500000  0.093688  0.474879  1
  B  B35  1  0.500000  0.906312  0.525121  1
