# generated using pymatgen
data_Tb6Th2MgCdIr2
_symmetry_space_group_name_H-M   'P 1'
_cell_length_a   9.81724013
_cell_length_b   9.81724094
_cell_length_c   9.82016600
_cell_angle_alpha   59.99014334
_cell_angle_beta   59.99014063
_cell_angle_gamma   59.92088963
_symmetry_Int_Tables_number   1
_chemical_formula_structural   Tb6Th2MgCdIr2
_chemical_formula_sum   'Tb12 Th4 Mg2 Cd2 Ir4'
_cell_volume   668.74064135
_cell_formula_units_Z   2
loop_
 _symmetry_equiv_pos_site_id
 _symmetry_equiv_pos_as_xyz
  1  'x, y, z'
loop_
 _atom_site_type_symbol
 _atom_site_label
 _atom_site_symmetry_multiplicity
 _atom_site_fract_x
 _atom_site_fract_y
 _atom_site_fract_z
 _atom_site_occupancy
  Tb  Tb0  1  0.062383  0.437809  0.437471  1
  Tb  Tb1  1  0.437809  0.062383  0.062338  1
  Tb  Tb2  1  0.437809  0.062383  0.437471  1
  Tb  Tb3  1  0.062383  0.437809  0.062338  1
  Tb  Tb4  1  0.439236  0.439236  0.060764  1
  Tb  Tb5  1  0.063255  0.063255  0.436745  1
  Tb  Tb6  1  0.188181  0.814352  0.814562  1
  Tb  Tb7  1  0.814352  0.188181  0.182905  1
  Tb  Tb8  1  0.814352  0.188181  0.814562  1
  Tb  Tb9  1  0.188181  0.814352  0.182905  1
  Tb  Tb10  1  0.815985  0.815985  0.184015  1
  Tb  Tb11  1  0.186562  0.186562  0.813438  1
  Th  Th12  1  0.598556  0.598556  0.598068  1
  Th  Th13  1  0.598556  0.598556  0.204819  1
  Th  Th14  1  0.598726  0.203774  0.598750  1
  Th  Th15  1  0.203774  0.598726  0.598750  1
  Mg  Mg16  1  0.827765  0.827765  0.831598  1
  Mg  Mg17  1  0.827765  0.827765  0.512873  1
  Cd  Cd18  1  0.832067  0.503233  0.832350  1
  Cd  Cd19  1  0.503233  0.832067  0.832350  1
  Ir  Ir20  1  0.393480  0.393480  0.394096  1
  Ir  Ir21  1  0.393480  0.393480  0.818945  1
  Ir  Ir22  1  0.393049  0.819064  0.393944  1
  Ir  Ir23  1  0.819064  0.393049  0.393944  1
