# generated using pymatgen
data_Hf6Nb4(GaSi)3
_symmetry_space_group_name_H-M   'P 1'
_cell_length_a   7.87859200
_cell_length_b   7.87895243
_cell_length_c   5.39726400
_cell_angle_alpha   90.00000000
_cell_angle_beta   90.00000000
_cell_angle_gamma   119.99848676
_symmetry_Int_Tables_number   1
_chemical_formula_structural   Hf6Nb4(GaSi)3
_chemical_formula_sum   'Hf6 Nb4 Ga3 Si3'
_cell_volume   290.15362735
_cell_formula_units_Z   1
loop_
 _symmetry_equiv_pos_site_id
 _symmetry_equiv_pos_as_xyz
  1  'x, y, z'
loop_
 _atom_site_type_symbol
 _atom_site_label
 _atom_site_symmetry_multiplicity
 _atom_site_fract_x
 _atom_site_fract_y
 _atom_site_fract_z
 _atom_site_occupancy
  Hf  Hf0  1  0.747234  0.750480  0.250000  1
  Hf  Hf1  1  0.748816  0.000000  0.750000  1
  Hf  Hf2  1  0.996754  0.249520  0.250000  1
  Hf  Hf3  1  0.249344  0.252734  0.750000  1
  Hf  Hf4  1  0.251291  0.000000  0.250000  1
  Hf  Hf5  1  0.996610  0.747266  0.750000  1
  Nb  Nb6  1  0.668885  0.333380  0.998713  1
  Nb  Nb7  1  0.668885  0.333380  0.501287  1
  Nb  Nb8  1  0.335504  0.666620  0.501287  1
  Nb  Nb9  1  0.335504  0.666620  0.998713  1
  Ga  Ga10  1  0.001490  0.605366  0.250000  1
  Ga  Ga11  1  0.396124  0.394634  0.250000  1
  Ga  Ga12  1  0.394066  0.000000  0.750000  1
  Si  Si13  1  0.603009  0.000000  0.250000  1
  Si  Si14  1  0.605128  0.603774  0.750000  1
  Si  Si15  1  0.001354  0.396226  0.750000  1
