# generated using pymatgen
data_Nd6MgCd22Bi
_symmetry_space_group_name_H-M   'P 1'
_cell_length_a   10.14410867
_cell_length_b   10.14410930
_cell_length_c   10.14410900
_cell_angle_alpha   60.00000424
_cell_angle_beta   60.00000218
_cell_angle_gamma   60.00000351
_symmetry_Int_Tables_number   1
_chemical_formula_structural   Nd6MgCd22Bi
_chemical_formula_sum   'Nd6 Mg1 Cd22 Bi1'
_cell_volume   738.11962914
_cell_formula_units_Z   1
loop_
 _symmetry_equiv_pos_site_id
 _symmetry_equiv_pos_as_xyz
  1  'x, y, z'
loop_
 _atom_site_type_symbol
 _atom_site_label
 _atom_site_symmetry_multiplicity
 _atom_site_fract_x
 _atom_site_fract_y
 _atom_site_fract_z
 _atom_site_occupancy
  Nd  Nd0  1  0.778974  0.778974  0.221026  1
  Nd  Nd1  1  0.221026  0.778974  0.221026  1
  Nd  Nd2  1  0.778974  0.221026  0.221026  1
  Nd  Nd3  1  0.221026  0.221026  0.778974  1
  Nd  Nd4  1  0.778974  0.221026  0.778974  1
  Nd  Nd5  1  0.221026  0.778974  0.778974  1
  Mg  Mg6  1  0.500000  0.500000  0.500000  1
  Cd  Cd7  1  0.835254  0.835254  0.494238  1
  Cd  Cd8  1  0.835254  0.494238  0.835254  1
  Cd  Cd9  1  0.494238  0.835254  0.835254  1
  Cd  Cd10  1  0.835254  0.835254  0.835254  1
  Cd  Cd11  1  0.164746  0.164746  0.505762  1
  Cd  Cd12  1  0.164746  0.505762  0.164746  1
  Cd  Cd13  1  0.505762  0.164746  0.164746  1
  Cd  Cd14  1  0.164746  0.164746  0.164746  1
  Cd  Cd15  1  0.622479  0.622479  0.132565  1
  Cd  Cd16  1  0.622479  0.132565  0.622479  1
  Cd  Cd17  1  0.132565  0.622479  0.622479  1
  Cd  Cd18  1  0.622479  0.622479  0.622479  1
  Cd  Cd19  1  0.377521  0.377521  0.867435  1
  Cd  Cd20  1  0.377521  0.867435  0.377521  1
  Cd  Cd21  1  0.867435  0.377521  0.377521  1
  Cd  Cd22  1  0.377521  0.377521  0.377521  1
  Cd  Cd23  1  0.000000  0.000000  0.500000  1
  Cd  Cd24  1  0.500000  0.000000  0.500000  1
  Cd  Cd25  1  0.000000  0.500000  0.500000  1
  Cd  Cd26  1  0.500000  0.500000  0.000000  1
  Cd  Cd27  1  0.000000  0.500000  0.000000  1
  Cd  Cd28  1  0.500000  0.000000  0.000000  1
  Bi  Bi29  1  0.000000  0.000000  0.000000  1
