# generated using pymatgen
data_Dy4Ga20Pd11
_symmetry_space_group_name_H-M   'P 1'
_cell_length_a   4.18761088
_cell_length_b   11.01492768
_cell_length_c   13.67386928
_cell_angle_alpha   81.84905174
_cell_angle_beta   81.19195146
_cell_angle_gamma   79.04208092
_symmetry_Int_Tables_number   1
_chemical_formula_structural   Dy4Ga20Pd11
_chemical_formula_sum   'Dy4 Ga20 Pd11'
_cell_volume   607.78080197
_cell_formula_units_Z   1
loop_
 _symmetry_equiv_pos_site_id
 _symmetry_equiv_pos_as_xyz
  1  'x, y, z'
loop_
 _atom_site_type_symbol
 _atom_site_label
 _atom_site_symmetry_multiplicity
 _atom_site_fract_x
 _atom_site_fract_y
 _atom_site_fract_z
 _atom_site_occupancy
  Dy  Dy0  1  0.877645  0.909273  0.335436  1
  Dy  Dy1  1  0.122355  0.090727  0.664564  1
  Dy  Dy2  1  0.227020  0.365682  0.180276  1
  Dy  Dy3  1  0.772980  0.634318  0.819724  1
  Ga  Ga4  1  0.995057  0.923284  0.086600  1
  Ga  Ga5  1  0.004943  0.076716  0.913400  1
  Ga  Ga6  1  0.932367  0.329915  0.805351  1
  Ga  Ga7  1  0.067633  0.670085  0.194649  1
  Ga  Ga8  1  0.896901  0.661347  0.544850  1
  Ga  Ga9  1  0.103099  0.338653  0.455150  1
  Ga  Ga10  1  0.797333  0.397235  0.008100  1
  Ga  Ga11  1  0.202667  0.602765  0.991900  1
  Ga  Ga12  1  0.744395  0.213392  0.297819  1
  Ga  Ga13  1  0.255605  0.786608  0.702181  1
  Ga  Ga14  1  0.698016  0.100952  0.503015  1
  Ga  Ga15  1  0.301984  0.899048  0.496985  1
  Ga  Ga16  1  0.613407  0.471739  0.301449  1
  Ga  Ga17  1  0.386593  0.528261  0.698551  1
  Ga  Ga18  1  0.603872  0.793649  0.998608  1
  Ga  Ga19  1  0.396128  0.206351  0.001392  1
  Ga  Ga20  1  0.457233  0.712663  0.372870  1
  Ga  Ga21  1  0.542767  0.287337  0.627130  1
  Ga  Ga22  1  0.366030  0.062345  0.205595  1
  Ga  Ga23  1  0.633970  0.937655  0.794405  1
  Pd  Pd24  1  0.500000  0.500000  0.500000  1
  Pd  Pd25  1  0.971323  0.429475  0.627879  1
  Pd  Pd26  1  0.028677  0.570525  0.372121  1
  Pd  Pd27  1  0.864948  0.160835  0.109270  1
  Pd  Pd28  1  0.135052  0.839165  0.890730  1
  Pd  Pd29  1  0.758880  0.873843  0.608397  1
  Pd  Pd30  1  0.241120  0.126157  0.391603  1
  Pd  Pd31  1  0.654240  0.582027  0.109494  1
  Pd  Pd32  1  0.345760  0.417973  0.890506  1
  Pd  Pd33  1  0.495831  0.825740  0.182598  1
  Pd  Pd34  1  0.504169  0.174260  0.817402  1
