# generated using pymatgen
data_Nd4Cu2RhAu
_symmetry_space_group_name_H-M   'P 1'
_cell_length_a   4.59964900
_cell_length_b   5.72107356
_cell_length_c   7.43614319
_cell_angle_alpha   89.25299351
_cell_angle_beta   90.00000000
_cell_angle_gamma   90.00000000
_symmetry_Int_Tables_number   1
_chemical_formula_structural   Nd4Cu2RhAu
_chemical_formula_sum   'Nd4 Cu2 Rh1 Au1'
_cell_volume   195.66495855
_cell_formula_units_Z   1
loop_
 _symmetry_equiv_pos_site_id
 _symmetry_equiv_pos_as_xyz
  1  'x, y, z'
loop_
 _atom_site_type_symbol
 _atom_site_label
 _atom_site_symmetry_multiplicity
 _atom_site_fract_x
 _atom_site_fract_y
 _atom_site_fract_z
 _atom_site_occupancy
  Nd  Nd0  1  0.250000  0.362466  0.675460  1
  Nd  Nd1  1  0.250000  0.134024  0.192264  1
  Nd  Nd2  1  0.750000  0.646455  0.325359  1
  Nd  Nd3  1  0.750000  0.862313  0.805167  1
  Cu  Cu4  1  0.250000  0.636280  0.036795  1
  Cu  Cu5  1  0.750000  0.135237  0.462041  1
  Rh  Rh6  1  0.250000  0.856118  0.537399  1
  Au  Au7  1  0.750000  0.367108  0.965513  1
