# generated using pymatgen
data_Tb8Ta11Si16Au
_symmetry_space_group_name_H-M   'P 1'
_cell_length_a   7.06631853
_cell_length_b   7.06631761
_cell_length_c   13.01828672
_cell_angle_alpha   90.26667912
_cell_angle_beta   89.73332225
_cell_angle_gamma   89.66987639
_symmetry_Int_Tables_number   1
_chemical_formula_structural   Tb8Ta11Si16Au
_chemical_formula_sum   'Tb8 Ta11 Si16 Au1'
_cell_volume   650.01521845
_cell_formula_units_Z   1
loop_
 _symmetry_equiv_pos_site_id
 _symmetry_equiv_pos_as_xyz
  1  'x, y, z'
loop_
 _atom_site_type_symbol
 _atom_site_label
 _atom_site_symmetry_multiplicity
 _atom_site_fract_x
 _atom_site_fract_y
 _atom_site_fract_z
 _atom_site_occupancy
  Tb  Tb0  1  0.341307  0.002494  0.467375  1
  Tb  Tb1  1  0.496212  0.840245  0.717686  1
  Tb  Tb2  1  0.502912  0.158594  0.215812  1
  Tb  Tb3  1  0.840245  0.496212  0.282314  1
  Tb  Tb4  1  0.158594  0.502912  0.784188  1
  Tb  Tb5  1  0.655505  0.000981  0.968159  1
  Tb  Tb6  1  0.002494  0.341307  0.532625  1
  Tb  Tb7  1  0.000981  0.655505  0.031841  1
  Ta  Ta8  1  0.171023  0.826924  0.249808  1
  Ta  Ta9  1  0.826924  0.171023  0.750192  1
  Ta  Ta10  1  0.671022  0.671022  0.500000  1
  Ta  Ta11  1  0.150680  0.008624  0.876437  1
  Ta  Ta12  1  0.497294  0.653059  0.122867  1
  Ta  Ta13  1  0.505343  0.349120  0.624038  1
  Ta  Ta14  1  0.653059  0.497294  0.877133  1
  Ta  Ta15  1  0.349120  0.505343  0.375962  1
  Ta  Ta16  1  0.847309  0.991628  0.373240  1
  Ta  Ta17  1  0.008624  0.150680  0.123563  1
  Ta  Ta18  1  0.991628  0.847309  0.626760  1
  Si  Si19  1  0.201385  0.135551  0.683563  1
  Si  Si20  1  0.371340  0.718649  0.929076  1
  Si  Si21  1  0.634708  0.295053  0.432235  1
  Si  Si22  1  0.718649  0.371340  0.070924  1
  Si  Si23  1  0.295053  0.634708  0.567765  1
  Si  Si24  1  0.797390  0.865655  0.181512  1
  Si  Si25  1  0.135551  0.201385  0.316437  1
  Si  Si26  1  0.865655  0.797390  0.818488  1
  Si  Si27  1  0.288627  0.940241  0.064983  1
  Si  Si28  1  0.544092  0.793580  0.312677  1
  Si  Si29  1  0.455814  0.206110  0.810406  1
  Si  Si30  1  0.793580  0.544092  0.687323  1
  Si  Si31  1  0.206110  0.455814  0.189594  1
  Si  Si32  1  0.705678  0.045160  0.563630  1
  Si  Si33  1  0.940241  0.288627  0.935017  1
  Si  Si34  1  0.045160  0.705678  0.436370  1
  Au  Au35  1  0.330691  0.330691  0.000000  1
