# generated using pymatgen
data_YTm9Cd3Ru
_symmetry_space_group_name_H-M   'P 1'
_cell_length_a   9.45680104
_cell_length_b   9.45680053
_cell_length_c   9.75380900
_cell_angle_alpha   90.00000000
_cell_angle_beta   90.00000000
_cell_angle_gamma   119.96651950
_symmetry_Int_Tables_number   1
_chemical_formula_structural   YTm9Cd3Ru
_chemical_formula_sum   'Y2 Tm18 Cd6 Ru2'
_cell_volume   755.68322036
_cell_formula_units_Z   2
loop_
 _symmetry_equiv_pos_site_id
 _symmetry_equiv_pos_as_xyz
  1  'x, y, z'
loop_
 _atom_site_type_symbol
 _atom_site_label
 _atom_site_symmetry_multiplicity
 _atom_site_fract_x
 _atom_site_fract_y
 _atom_site_fract_z
 _atom_site_occupancy
  Y  Y0  1  0.460058  0.918924  0.750000  1
  Y  Y1  1  0.081076  0.539942  0.750000  1
  Tm  Tm2  1  0.999787  0.000213  0.499700  1
  Tm  Tm3  1  0.999787  0.000213  0.000300  1
  Tm  Tm4  1  0.209604  0.790396  0.440488  1
  Tm  Tm5  1  0.210964  0.419874  0.440933  1
  Tm  Tm6  1  0.580126  0.789036  0.440933  1
  Tm  Tm7  1  0.789365  0.210635  0.557214  1
  Tm  Tm8  1  0.788809  0.579725  0.557288  1
  Tm  Tm9  1  0.420275  0.211191  0.557288  1
  Tm  Tm10  1  0.789365  0.210635  0.942786  1
  Tm  Tm11  1  0.788809  0.579725  0.942712  1
  Tm  Tm12  1  0.420275  0.211191  0.942712  1
  Tm  Tm13  1  0.209604  0.790396  0.059512  1
  Tm  Tm14  1  0.210964  0.419874  0.059067  1
  Tm  Tm15  1  0.580126  0.789036  0.059067  1
  Tm  Tm16  1  0.541275  0.458725  0.250000  1
  Tm  Tm17  1  0.540846  0.080914  0.250000  1
  Tm  Tm18  1  0.919086  0.459154  0.250000  1
  Tm  Tm19  1  0.461095  0.538905  0.750000  1
  Cd  Cd20  1  0.886028  0.113972  0.250000  1
  Cd  Cd21  1  0.885268  0.772012  0.250000  1
  Cd  Cd22  1  0.227988  0.114732  0.250000  1
  Cd  Cd23  1  0.112808  0.887192  0.750000  1
  Cd  Cd24  1  0.115210  0.226810  0.750000  1
  Cd  Cd25  1  0.773190  0.884790  0.750000  1
  Ru  Ru26  1  0.332348  0.667652  0.250000  1
  Ru  Ru27  1  0.665864  0.334136  0.750000  1
