# generated using pymatgen
data_Rb2La10Fe2Br17
_symmetry_space_group_name_H-M   'P 1'
_cell_length_a   9.37892670
_cell_length_b   11.37526583
_cell_length_c   11.37391650
_cell_angle_alpha   106.89430695
_cell_angle_beta   92.92117029
_cell_angle_gamma   92.92503649
_symmetry_Int_Tables_number   1
_chemical_formula_structural   Rb2La10Fe2Br17
_chemical_formula_sum   'Rb2 La10 Fe2 Br17'
_cell_volume   1156.82384316
_cell_formula_units_Z   1
loop_
 _symmetry_equiv_pos_site_id
 _symmetry_equiv_pos_as_xyz
  1  'x, y, z'
loop_
 _atom_site_type_symbol
 _atom_site_label
 _atom_site_symmetry_multiplicity
 _atom_site_fract_x
 _atom_site_fract_y
 _atom_site_fract_z
 _atom_site_occupancy
  Rb  Rb0  1  0.000012  0.821064  0.178962  1
  Rb  Rb1  1  0.999988  0.178935  0.821037  1
  La  La2  1  0.436639  0.160159  0.160164  1
  La  La3  1  0.574363  0.510766  0.200677  1
  La  La4  1  0.813468  0.295666  0.295759  1
  La  La5  1  0.317388  0.427536  0.427548  1
  La  La6  1  0.425632  0.799342  0.489228  1
  La  La7  1  0.574368  0.200659  0.510773  1
  La  La8  1  0.682612  0.572464  0.572452  1
  La  La9  1  0.186533  0.704334  0.704241  1
  La  La10  1  0.425637  0.489235  0.799324  1
  La  La11  1  0.563360  0.839841  0.839836  1
  Fe  Fe12  1  0.578395  0.352348  0.352575  1
  Fe  Fe13  1  0.421605  0.647652  0.647425  1
  Br  Br14  1  0.580654  0.686428  0.020683  1
  Br  Br15  1  0.719761  0.066605  0.066597  1
  Br  Br16  1  0.861381  0.449536  0.117231  1
  Br  Br17  1  0.129170  0.208291  0.208293  1
  Br  Br18  1  0.278661  0.605322  0.257955  1
  Br  Br19  1  0.419343  0.979320  0.313574  1
  Br  Br20  1  0.721345  0.742044  0.394670  1
  Br  Br21  1  0.861388  0.117249  0.449547  1
  Br  Br22  1  0.000000  0.499999  0.499999  1
  Br  Br23  1  0.138612  0.882751  0.550453  1
  Br  Br24  1  0.278656  0.257956  0.605330  1
  Br  Br25  1  0.580657  0.020680  0.686427  1
  Br  Br26  1  0.721340  0.394678  0.742045  1
  Br  Br27  1  0.870830  0.791709  0.791707  1
  Br  Br28  1  0.138619  0.550464  0.882769  1
  Br  Br29  1  0.280239  0.933394  0.933402  1
  Br  Br30  1  0.419346  0.313573  0.979317  1
