# generated using pymatgen
data_Sr2ScUSe6
_symmetry_space_group_name_H-M   'P 1'
_cell_length_a   7.27675100
_cell_length_b   7.56241600
_cell_length_c   12.77171700
_cell_angle_alpha   89.99948481
_cell_angle_beta   124.86719172
_cell_angle_gamma   90.00178643
_symmetry_Int_Tables_number   1
_chemical_formula_structural   Sr2ScUSe6
_chemical_formula_sum   'Sr4 Sc2 U2 Se12'
_cell_volume   576.65362288
_cell_formula_units_Z   2
loop_
 _symmetry_equiv_pos_site_id
 _symmetry_equiv_pos_as_xyz
  1  'x, y, z'
loop_
 _atom_site_type_symbol
 _atom_site_label
 _atom_site_symmetry_multiplicity
 _atom_site_fract_x
 _atom_site_fract_y
 _atom_site_fract_z
 _atom_site_occupancy
  Sr  Sr0  1  0.771171  0.919774  0.248075  1
  Sr  Sr1  1  0.228878  0.419823  0.252022  1
  Sr  Sr2  1  0.771122  0.580178  0.747978  1
  Sr  Sr3  1  0.228829  0.080226  0.751925  1
  Sc  Sc4  1  0.500000  0.500001  0.000000  1
  Sc  Sc5  1  0.500000  0.000000  0.500000  1
  U  U6  1  0.000000  0.000000  0.000000  1
  U  U7  1  0.000000  0.500001  0.500000  1
  Se  Se8  1  0.860269  0.693183  0.053158  1
  Se  Se9  1  0.744618  0.196632  0.053306  1
  Se  Se10  1  0.355114  0.024020  0.252318  1
  Se  Se11  1  0.644647  0.524064  0.247484  1
  Se  Se12  1  0.255561  0.696942  0.446664  1
  Se  Se13  1  0.139891  0.192942  0.446809  1
  Se  Se14  1  0.860110  0.807057  0.553191  1
  Se  Se15  1  0.744439  0.303058  0.553337  1
  Se  Se16  1  0.355353  0.475936  0.752516  1
  Se  Se17  1  0.644886  0.975980  0.747681  1
  Se  Se18  1  0.255381  0.803368  0.946694  1
  Se  Se19  1  0.139730  0.306818  0.946842  1
