# generated using pymatgen
data_TiNb2(FeB)3
_symmetry_space_group_name_H-M   'P 1'
_cell_length_a   6.02125552
_cell_length_b   6.02125503
_cell_length_c   3.13052400
_cell_angle_alpha   90.00000000
_cell_angle_beta   90.00000000
_cell_angle_gamma   120.50520579
_symmetry_Int_Tables_number   1
_chemical_formula_structural   TiNb2(FeB)3
_chemical_formula_sum   'Ti1 Nb2 Fe3 B3'
_cell_volume   97.78860698
_cell_formula_units_Z   1
loop_
 _symmetry_equiv_pos_site_id
 _symmetry_equiv_pos_as_xyz
  1  'x, y, z'
loop_
 _atom_site_type_symbol
 _atom_site_label
 _atom_site_symmetry_multiplicity
 _atom_site_fract_x
 _atom_site_fract_y
 _atom_site_fract_z
 _atom_site_occupancy
  Ti  Ti0  1  0.411216  0.411216  0.500000  1
  Nb  Nb1  1  0.589060  0.001271  0.500000  1
  Nb  Nb2  1  0.001271  0.589060  0.500000  1
  Fe  Fe3  1  0.756763  0.756763  0.000000  1
  Fe  Fe4  1  0.242117  0.004119  0.000000  1
  Fe  Fe5  1  0.004119  0.242117  0.000000  1
  B  B6  1  0.661875  0.334961  0.000000  1
  B  B7  1  0.334961  0.661875  0.000000  1
  B  B8  1  0.998619  0.998619  0.500000  1
