# generated using pymatgen
data_LiPaN2
_symmetry_space_group_name_H-M   'P 1'
_cell_length_a   22.91328300
_cell_length_b   4.42661000
_cell_length_c   4.43073001
_cell_angle_alpha   90.00217055
_cell_angle_beta   89.99999500
_cell_angle_gamma   90.00000500
_symmetry_Int_Tables_number   1
_chemical_formula_structural   LiPaN2
_chemical_formula_sum   'Li8 Pa8 N16'
_cell_volume   449.40082651
_cell_formula_units_Z   8
loop_
 _symmetry_equiv_pos_site_id
 _symmetry_equiv_pos_as_xyz
  1  'x, y, z'
loop_
 _atom_site_type_symbol
 _atom_site_label
 _atom_site_symmetry_multiplicity
 _atom_site_fract_x
 _atom_site_fract_y
 _atom_site_fract_z
 _atom_site_occupancy
  Li  Li0  1  0.187078  0.996951  0.743220  1
  Li  Li1  1  0.812922  0.003049  0.256780  1
  Li  Li2  1  0.312922  0.996951  0.243220  1
  Li  Li3  1  0.687078  0.003049  0.756780  1
  Li  Li4  1  0.062733  0.497959  0.748939  1
  Li  Li5  1  0.937267  0.502041  0.251061  1
  Li  Li6  1  0.437267  0.497959  0.248939  1
  Li  Li7  1  0.562733  0.502041  0.751061  1
  Pa  Pa8  1  0.437529  0.998722  0.748358  1
  Pa  Pa9  1  0.562471  0.001278  0.251642  1
  Pa  Pa10  1  0.062473  0.998722  0.248358  1
  Pa  Pa11  1  0.937527  0.001278  0.751642  1
  Pa  Pa12  1  0.312479  0.497681  0.745369  1
  Pa  Pa13  1  0.687521  0.502319  0.254631  1
  Pa  Pa14  1  0.187521  0.497681  0.245368  1
  Pa  Pa15  1  0.812479  0.502319  0.754632  1
  N  N16  1  0.334345  0.997221  0.744936  1
  N  N17  1  0.665655  0.002779  0.255064  1
  N  N18  1  0.165652  0.997222  0.244936  1
  N  N19  1  0.834348  0.002778  0.755064  1
  N  N20  1  0.415694  0.498005  0.747211  1
  N  N21  1  0.584306  0.501995  0.252789  1
  N  N22  1  0.084303  0.498005  0.247211  1
  N  N23  1  0.915697  0.501995  0.752789  1
  N  N24  1  0.040864  0.998858  0.748516  1
  N  N25  1  0.959136  0.001142  0.251484  1
  N  N26  1  0.459135  0.998857  0.248516  1
  N  N27  1  0.540865  0.001143  0.751484  1
  N  N28  1  0.209139  0.497270  0.744101  1
  N  N29  1  0.790861  0.502730  0.255899  1
  N  N30  1  0.290864  0.497270  0.244099  1
  N  N31  1  0.709136  0.502730  0.755901  1
