# generated using pymatgen
data_Lu8GaCuPd23
_symmetry_space_group_name_H-M   'P 1'
_cell_length_a   8.35681700
_cell_length_b   8.31702500
_cell_length_c   8.26843500
_cell_angle_alpha   90.00000000
_cell_angle_beta   90.00000000
_cell_angle_gamma   90.00000000
_symmetry_Int_Tables_number   1
_chemical_formula_structural   Lu8GaCuPd23
_chemical_formula_sum   'Lu8 Ga1 Cu1 Pd23'
_cell_volume   574.68811484
_cell_formula_units_Z   1
loop_
 _symmetry_equiv_pos_site_id
 _symmetry_equiv_pos_as_xyz
  1  'x, y, z'
loop_
 _atom_site_type_symbol
 _atom_site_label
 _atom_site_symmetry_multiplicity
 _atom_site_fract_x
 _atom_site_fract_y
 _atom_site_fract_z
 _atom_site_occupancy
  Lu  Lu0  1  0.255805  0.249473  0.748158  1
  Lu  Lu1  1  0.251427  0.747522  0.252299  1
  Lu  Lu2  1  0.748573  0.252478  0.252299  1
  Lu  Lu3  1  0.744195  0.750527  0.748158  1
  Lu  Lu4  1  0.748573  0.747522  0.252299  1
  Lu  Lu5  1  0.744195  0.249473  0.748158  1
  Lu  Lu6  1  0.255805  0.750527  0.748158  1
  Lu  Lu7  1  0.251427  0.252478  0.252299  1
  Ga  Ga8  1  0.000000  0.000000  0.001507  1
  Cu  Cu9  1  0.000000  0.500000  0.734330  1
  Pd  Pd10  1  0.500000  0.500000  0.746654  1
  Pd  Pd11  1  0.500000  0.253814  0.499360  1
  Pd  Pd12  1  0.251016  0.500000  0.504435  1
  Pd  Pd13  1  0.500000  0.500000  0.253819  1
  Pd  Pd14  1  0.500000  0.746186  0.499360  1
  Pd  Pd15  1  0.748984  0.500000  0.504435  1
  Pd  Pd16  1  0.000000  0.000000  0.708585  1
  Pd  Pd17  1  0.000000  0.295332  0.989539  1
  Pd  Pd18  1  0.290298  0.000000  0.001122  1
  Pd  Pd19  1  0.000000  0.000000  0.294823  1
  Pd  Pd20  1  0.000000  0.704668  0.989539  1
  Pd  Pd21  1  0.709702  0.000000  0.001122  1
  Pd  Pd22  1  0.500000  0.260039  0.001076  1
  Pd  Pd23  1  0.260652  0.000000  0.499800  1
  Pd  Pd24  1  0.000000  0.264695  0.506455  1
  Pd  Pd25  1  0.500000  0.000000  0.740075  1
  Pd  Pd26  1  0.260828  0.500000  0.997617  1
  Pd  Pd27  1  0.000000  0.500000  0.258847  1
  Pd  Pd28  1  0.500000  0.739961  0.001076  1
  Pd  Pd29  1  0.000000  0.735305  0.506455  1
  Pd  Pd30  1  0.500000  0.000000  0.260721  1
  Pd  Pd31  1  0.739348  0.000000  0.499800  1
  Pd  Pd32  1  0.739172  0.500000  0.997617  1
