# generated using pymatgen
data_Hf11ScMn3Si12Ru
_symmetry_space_group_name_H-M   'P 1'
_cell_length_a   3.81785600
_cell_length_b   10.37229100
_cell_length_c   11.68087757
_cell_angle_alpha   89.93612910
_cell_angle_beta   90.00000000
_cell_angle_gamma   90.00000000
_symmetry_Int_Tables_number   1
_chemical_formula_structural   Hf11ScMn3Si12Ru
_chemical_formula_sum   'Hf11 Sc1 Mn3 Si12 Ru1'
_cell_volume   462.56145310
_cell_formula_units_Z   1
loop_
 _symmetry_equiv_pos_site_id
 _symmetry_equiv_pos_as_xyz
  1  'x, y, z'
loop_
 _atom_site_type_symbol
 _atom_site_label
 _atom_site_symmetry_multiplicity
 _atom_site_fract_x
 _atom_site_fract_y
 _atom_site_fract_z
 _atom_site_occupancy
  Hf  Hf0  1  0.250000  0.877404  0.021199  1
  Hf  Hf1  1  0.250000  0.623801  0.519790  1
  Hf  Hf2  1  0.750000  0.124304  0.981252  1
  Hf  Hf3  1  0.750000  0.376965  0.479163  1
  Hf  Hf4  1  0.250000  0.927169  0.597639  1
  Hf  Hf5  1  0.250000  0.571148  0.100389  1
  Hf  Hf6  1  0.750000  0.071087  0.399199  1
  Hf  Hf7  1  0.750000  0.429165  0.900374  1
  Hf  Hf8  1  0.250000  0.656615  0.801424  1
  Hf  Hf9  1  0.250000  0.840251  0.301403  1
  Hf  Hf10  1  0.750000  0.338907  0.199246  1
  Sc  Sc11  1  0.750000  0.158931  0.698865  1
  Mn  Mn12  1  0.250000  0.384393  0.676578  1
  Mn  Mn13  1  0.250000  0.118496  0.177342  1
  Mn  Mn14  1  0.750000  0.616958  0.322614  1
  Si  Si15  1  0.250000  0.018906  0.825735  1
  Si  Si16  1  0.250000  0.482662  0.325363  1
  Si  Si17  1  0.750000  0.982843  0.174443  1
  Si  Si18  1  0.750000  0.516616  0.674206  1
  Si  Si19  1  0.250000  0.253058  0.840397  1
  Si  Si20  1  0.250000  0.247187  0.341904  1
  Si  Si21  1  0.750000  0.747252  0.159473  1
  Si  Si22  1  0.750000  0.751281  0.657614  1
  Si  Si23  1  0.250000  0.193181  0.542625  1
  Si  Si24  1  0.250000  0.307515  0.041393  1
  Si  Si25  1  0.750000  0.807412  0.457746  1
  Si  Si26  1  0.750000  0.692403  0.959346  1
  Ru  Ru27  1  0.750000  0.884090  0.823278  1
