# generated using pymatgen
data_Y2Tm2ScBi3
_symmetry_space_group_name_H-M   'P 1'
_cell_length_a   8.09991900
_cell_length_b   9.38110900
_cell_length_c   11.94605700
_cell_angle_alpha   90.00000000
_cell_angle_beta   90.00000000
_cell_angle_gamma   90.00000000
_symmetry_Int_Tables_number   1
_chemical_formula_structural   Y2Tm2ScBi3
_chemical_formula_sum   'Y8 Tm8 Sc4 Bi12'
_cell_volume   907.73575153
_cell_formula_units_Z   4
loop_
 _symmetry_equiv_pos_site_id
 _symmetry_equiv_pos_as_xyz
  1  'x, y, z'
loop_
 _atom_site_type_symbol
 _atom_site_label
 _atom_site_symmetry_multiplicity
 _atom_site_fract_x
 _atom_site_fract_y
 _atom_site_fract_z
 _atom_site_occupancy
  Y  Y0  1  0.184447  0.750000  0.720369  1
  Y  Y1  1  0.684447  0.750000  0.779631  1
  Y  Y2  1  0.815553  0.250000  0.279631  1
  Y  Y3  1  0.315553  0.250000  0.220369  1
  Y  Y4  1  0.352404  0.750000  0.216187  1
  Y  Y5  1  0.852404  0.750000  0.283813  1
  Y  Y6  1  0.647596  0.250000  0.783813  1
  Y  Y7  1  0.147596  0.250000  0.716187  1
  Tm  Tm8  1  0.305589  0.434355  0.941613  1
  Tm  Tm9  1  0.805589  0.065645  0.558387  1
  Tm  Tm10  1  0.694411  0.934355  0.058387  1
  Tm  Tm11  1  0.194411  0.565645  0.441613  1
  Tm  Tm12  1  0.694411  0.565645  0.058387  1
  Tm  Tm13  1  0.194411  0.934355  0.441613  1
  Tm  Tm14  1  0.305589  0.065645  0.941613  1
  Tm  Tm15  1  0.805589  0.434355  0.558387  1
  Sc  Sc16  1  0.023357  0.750000  0.988857  1
  Sc  Sc17  1  0.523357  0.750000  0.511143  1
  Sc  Sc18  1  0.976643  0.250000  0.011143  1
  Sc  Sc19  1  0.476643  0.250000  0.488857  1
  Bi  Bi20  1  0.434789  0.003551  0.667688  1
  Bi  Bi21  1  0.934789  0.496449  0.832312  1
  Bi  Bi22  1  0.565211  0.503551  0.332312  1
  Bi  Bi23  1  0.065211  0.996449  0.167688  1
  Bi  Bi24  1  0.565211  0.996449  0.332312  1
  Bi  Bi25  1  0.065211  0.503551  0.167688  1
  Bi  Bi26  1  0.434789  0.496449  0.667688  1
  Bi  Bi27  1  0.934789  0.003551  0.832312  1
  Bi  Bi28  1  0.401278  0.750000  0.957415  1
  Bi  Bi29  1  0.901278  0.750000  0.542585  1
  Bi  Bi30  1  0.598722  0.250000  0.042585  1
  Bi  Bi31  1  0.098722  0.250000  0.457415  1
