# generated using pymatgen
data_LiAlCdF6
_symmetry_space_group_name_H-M   'P 1'
_cell_length_a   5.10213500
_cell_length_b   5.10213566
_cell_length_c   9.49140000
_cell_angle_alpha   90.00000000
_cell_angle_beta   90.00000000
_cell_angle_gamma   120.00000219
_symmetry_Int_Tables_number   1
_chemical_formula_structural   LiAlCdF6
_chemical_formula_sum   'Li2 Al2 Cd2 F12'
_cell_volume   213.97589237
_cell_formula_units_Z   2
loop_
 _symmetry_equiv_pos_site_id
 _symmetry_equiv_pos_as_xyz
  1  'x, y, z'
loop_
 _atom_site_type_symbol
 _atom_site_label
 _atom_site_symmetry_multiplicity
 _atom_site_fract_x
 _atom_site_fract_y
 _atom_site_fract_z
 _atom_site_occupancy
  Li  Li0  1  0.333333  0.666667  0.250000  1
  Li  Li1  1  0.666667  0.333333  0.750000  1
  Al  Al2  1  0.666667  0.333333  0.250000  1
  Al  Al3  1  0.333333  0.666667  0.750000  1
  Cd  Cd4  1  0.000000  0.000000  0.000000  1
  Cd  Cd5  1  0.000000  0.000000  0.500000  1
  F  F6  1  0.376483  0.346816  0.141223  1
  F  F7  1  0.623517  0.970333  0.641223  1
  F  F8  1  0.029667  0.653184  0.641223  1
  F  F9  1  0.346816  0.376483  0.641223  1
  F  F10  1  0.653184  0.623517  0.358777  1
  F  F11  1  0.653184  0.029667  0.141223  1
  F  F12  1  0.970333  0.623517  0.141223  1
  F  F13  1  0.970333  0.346816  0.358777  1
  F  F14  1  0.346816  0.970333  0.858777  1
  F  F15  1  0.376483  0.029667  0.358777  1
  F  F16  1  0.623517  0.653184  0.858777  1
  F  F17  1  0.029667  0.376483  0.858777  1
