# generated using pymatgen
data_Ho3TmCo18(P6Os)2
_symmetry_space_group_name_H-M   'P 1'
_cell_length_a   3.67506700
_cell_length_b   10.32341713
_cell_length_c   11.72526915
_cell_angle_alpha   89.98179320
_cell_angle_beta   90.00000000
_cell_angle_gamma   90.00000000
_symmetry_Int_Tables_number   1
_chemical_formula_structural   Ho3TmCo18(P6Os)2
_chemical_formula_sum   'Ho3 Tm1 Co18 P12 Os2'
_cell_volume   444.84789064
_cell_formula_units_Z   1
loop_
 _symmetry_equiv_pos_site_id
 _symmetry_equiv_pos_as_xyz
  1  'x, y, z'
loop_
 _atom_site_type_symbol
 _atom_site_label
 _atom_site_symmetry_multiplicity
 _atom_site_fract_x
 _atom_site_fract_y
 _atom_site_fract_z
 _atom_site_occupancy
  Ho  Ho0  1  0.250000  0.582275  0.701905  1
  Ho  Ho1  1  0.250000  0.917603  0.201810  1
  Ho  Ho2  1  0.750000  0.087242  0.795149  1
  Tm  Tm3  1  0.750000  0.412930  0.295449  1
  Co  Co4  1  0.750000  0.283465  0.008476  1
  Co  Co5  1  0.750000  0.216673  0.508335  1
  Co  Co6  1  0.250000  0.405667  0.487015  1
  Co  Co7  1  0.250000  0.094139  0.987893  1
  Co  Co8  1  0.750000  0.590726  0.509729  1
  Co  Co9  1  0.750000  0.908921  0.009935  1
  Co  Co10  1  0.250000  0.220725  0.177281  1
  Co  Co11  1  0.250000  0.279971  0.677002  1
  Co  Co12  1  0.750000  0.777533  0.822704  1
  Co  Co13  1  0.750000  0.722220  0.322638  1
  Co  Co14  1  0.250000  0.887680  0.701869  1
  Co  Co15  1  0.250000  0.611618  0.202549  1
  Co  Co16  1  0.750000  0.115837  0.300779  1
  Co  Co17  1  0.750000  0.384777  0.801132  1
  Co  Co18  1  0.250000  0.465716  0.933221  1
  Co  Co19  1  0.250000  0.034549  0.432392  1
  Co  Co20  1  0.750000  0.533091  0.069735  1
  Co  Co21  1  0.750000  0.966572  0.568798  1
  P  P22  1  0.250000  0.416231  0.113362  1
  P  P23  1  0.250000  0.083941  0.612214  1
  P  P24  1  0.750000  0.578870  0.886929  1
  P  P25  1  0.750000  0.921207  0.386370  1
  P  P26  1  0.250000  0.271004  0.869698  1
  P  P27  1  0.250000  0.229962  0.369170  1
  P  P28  1  0.750000  0.729517  0.132457  1
  P  P29  1  0.750000  0.770427  0.632290  1
  P  P30  1  0.250000  0.592401  0.389831  1
  P  P31  1  0.250000  0.906834  0.889956  1
  P  P32  1  0.750000  0.397230  0.608765  1
  P  P33  1  0.750000  0.102783  0.108680  1
  Os  Os34  1  0.250000  0.715915  0.992486  1
  Os  Os35  1  0.250000  0.783747  0.491994  1
