# generated using pymatgen
data_Zr12P4C3O
_symmetry_space_group_name_H-M   'P 1'
_cell_length_a   5.83634504
_cell_length_b   5.83634600
_cell_length_c   17.21153233
_cell_angle_alpha   89.49113674
_cell_angle_beta   89.49113663
_cell_angle_gamma   34.66390600
_symmetry_Int_Tables_number   1
_chemical_formula_structural   Zr12P4C3O
_chemical_formula_sum   'Zr12 P4 C3 O1'
_cell_volume   333.43632884
_cell_formula_units_Z   1
loop_
 _symmetry_equiv_pos_site_id
 _symmetry_equiv_pos_as_xyz
  1  'x, y, z'
loop_
 _atom_site_type_symbol
 _atom_site_label
 _atom_site_symmetry_multiplicity
 _atom_site_fract_x
 _atom_site_fract_y
 _atom_site_fract_z
 _atom_site_occupancy
  Zr  Zr0  1  0.865892  0.865892  0.222278  1
  Zr  Zr1  1  0.868822  0.868822  0.718236  1
  Zr  Zr2  1  0.131178  0.131178  0.281764  1
  Zr  Zr3  1  0.134108  0.134108  0.777722  1
  Zr  Zr4  1  0.867089  0.867089  0.029441  1
  Zr  Zr5  1  0.860322  0.860322  0.528518  1
  Zr  Zr6  1  0.139678  0.139678  0.471482  1
  Zr  Zr7  1  0.132911  0.132911  0.970559  1
  Zr  Zr8  1  0.564760  0.564760  0.125642  1
  Zr  Zr9  1  0.566758  0.566758  0.623105  1
  Zr  Zr10  1  0.433242  0.433242  0.376895  1
  Zr  Zr11  1  0.435240  0.435240  0.874358  1
  P  P12  1  0.244386  0.244386  0.125670  1
  P  P13  1  0.245987  0.245987  0.624630  1
  P  P14  1  0.754013  0.754013  0.375370  1
  P  P15  1  0.755614  0.755614  0.874330  1
  C  C16  1  0.497958  0.497958  0.252167  1
  C  C17  1  0.502042  0.502042  0.747833  1
  C  C18  1  0.500000  0.500000  0.000000  1
  O  O19  1  0.500000  0.500000  0.500000  1
