# generated using pymatgen
data_CeDy(ReN3)2
_symmetry_space_group_name_H-M   'P 1'
_cell_length_a   5.44810000
_cell_length_b   5.63966500
_cell_length_c   7.75244600
_cell_angle_alpha   90.00000000
_cell_angle_beta   90.00000000
_cell_angle_gamma   90.00000000
_symmetry_Int_Tables_number   1
_chemical_formula_structural   CeDy(ReN3)2
_chemical_formula_sum   'Ce2 Dy2 Re4 N12'
_cell_volume   238.19746084
_cell_formula_units_Z   2
loop_
 _symmetry_equiv_pos_site_id
 _symmetry_equiv_pos_as_xyz
  1  'x, y, z'
loop_
 _atom_site_type_symbol
 _atom_site_label
 _atom_site_symmetry_multiplicity
 _atom_site_fract_x
 _atom_site_fract_y
 _atom_site_fract_z
 _atom_site_occupancy
  Ce  Ce0  1  0.478293  0.451384  0.250000  1
  Ce  Ce1  1  0.021707  0.951384  0.250000  1
  Dy  Dy2  1  0.500833  0.562263  0.750000  1
  Dy  Dy3  1  0.999167  0.062263  0.750000  1
  Re  Re4  1  0.509268  0.004178  0.503001  1
  Re  Re5  1  0.990732  0.504178  0.996999  1
  Re  Re6  1  0.990732  0.504178  0.503001  1
  Re  Re7  1  0.509268  0.004178  0.996999  1
  N  N8  1  0.701356  0.293381  0.542367  1
  N  N9  1  0.300820  0.699328  0.043490  1
  N  N10  1  0.199180  0.199328  0.043490  1
  N  N11  1  0.417079  0.979326  0.750000  1
  N  N12  1  0.927395  0.513255  0.250000  1
  N  N13  1  0.300820  0.699328  0.456510  1
  N  N14  1  0.798644  0.793381  0.957633  1
  N  N15  1  0.701356  0.293381  0.957633  1
  N  N16  1  0.798644  0.793381  0.542367  1
  N  N17  1  0.082921  0.479326  0.750000  1
  N  N18  1  0.199180  0.199328  0.456510  1
  N  N19  1  0.572605  0.013255  0.250000  1
