# generated using pymatgen
data_Ce2Tm3(Co2Sn5)2
_symmetry_space_group_name_H-M   'P 1'
_cell_length_a   13.84641000
_cell_length_b   13.84641000
_cell_length_c   4.47031300
_cell_angle_alpha   90.00000000
_cell_angle_beta   90.00000000
_cell_angle_gamma   90.00000000
_symmetry_Int_Tables_number   1
_chemical_formula_structural   Ce2Tm3(Co2Sn5)2
_chemical_formula_sum   'Ce4 Tm6 Co8 Sn20'
_cell_volume   857.06213172
_cell_formula_units_Z   2
loop_
 _symmetry_equiv_pos_site_id
 _symmetry_equiv_pos_as_xyz
  1  'x, y, z'
loop_
 _atom_site_type_symbol
 _atom_site_label
 _atom_site_symmetry_multiplicity
 _atom_site_fract_x
 _atom_site_fract_y
 _atom_site_fract_z
 _atom_site_occupancy
  Ce  Ce0  1  0.891080  0.608920  0.500000  1
  Ce  Ce1  1  0.108920  0.391080  0.500000  1
  Ce  Ce2  1  0.391080  0.891080  0.500000  1
  Ce  Ce3  1  0.608920  0.108920  0.500000  1
  Tm  Tm4  1  0.000000  0.000000  0.000000  1
  Tm  Tm5  1  0.500000  0.500000  0.000000  1
  Tm  Tm6  1  0.178919  0.678919  0.500000  1
  Tm  Tm7  1  0.821081  0.321081  0.500000  1
  Tm  Tm8  1  0.678919  0.821081  0.500000  1
  Tm  Tm9  1  0.321081  0.178919  0.500000  1
  Co  Co10  1  0.255963  0.534790  0.000000  1
  Co  Co11  1  0.744037  0.465210  0.000000  1
  Co  Co12  1  0.755963  0.965210  0.000000  1
  Co  Co13  1  0.244037  0.034790  0.000000  1
  Co  Co14  1  0.465210  0.255963  0.000000  1
  Co  Co15  1  0.534790  0.744037  0.000000  1
  Co  Co16  1  0.034790  0.755963  0.000000  1
  Co  Co17  1  0.965210  0.244037  0.000000  1
  Sn  Sn18  1  0.351430  0.700013  0.000000  1
  Sn  Sn19  1  0.648570  0.299987  0.000000  1
  Sn  Sn20  1  0.851430  0.799987  0.000000  1
  Sn  Sn21  1  0.148570  0.200013  0.000000  1
  Sn  Sn22  1  0.299987  0.351430  0.000000  1
  Sn  Sn23  1  0.700013  0.648570  0.000000  1
  Sn  Sn24  1  0.200013  0.851430  0.000000  1
  Sn  Sn25  1  0.799987  0.148570  0.000000  1
  Sn  Sn26  1  0.334502  0.512016  0.500000  1
  Sn  Sn27  1  0.665498  0.487984  0.500000  1
  Sn  Sn28  1  0.834502  0.987984  0.500000  1
  Sn  Sn29  1  0.165498  0.012016  0.500000  1
  Sn  Sn30  1  0.487984  0.334502  0.500000  1
  Sn  Sn31  1  0.512016  0.665498  0.500000  1
  Sn  Sn32  1  0.012016  0.834502  0.500000  1
  Sn  Sn33  1  0.987984  0.165498  0.500000  1
  Sn  Sn34  1  0.073015  0.573015  0.000000  1
  Sn  Sn35  1  0.926985  0.426985  0.000000  1
  Sn  Sn36  1  0.573015  0.926985  0.000000  1
  Sn  Sn37  1  0.426985  0.073015  0.000000  1
