# generated using pymatgen
data_Ta2Nb4N3
_symmetry_space_group_name_H-M   'P 1'
_cell_length_a   5.32498682
_cell_length_b   5.32498715
_cell_length_c   5.01306577
_cell_angle_alpha   89.89227430
_cell_angle_beta   89.89226848
_cell_angle_gamma   120.08412444
_symmetry_Int_Tables_number   1
_chemical_formula_structural   Ta2Nb4N3
_chemical_formula_sum   'Ta2 Nb4 N3'
_cell_volume   122.99834948
_cell_formula_units_Z   1
loop_
 _symmetry_equiv_pos_site_id
 _symmetry_equiv_pos_as_xyz
  1  'x, y, z'
loop_
 _atom_site_type_symbol
 _atom_site_label
 _atom_site_symmetry_multiplicity
 _atom_site_fract_x
 _atom_site_fract_y
 _atom_site_fract_z
 _atom_site_occupancy
  Ta  Ta0  1  0.000067  0.666216  0.248036  1
  Ta  Ta1  1  0.666216  0.000067  0.248036  1
  Nb  Nb2  1  0.665648  0.665648  0.750219  1
  Nb  Nb3  1  0.001050  0.334735  0.754481  1
  Nb  Nb4  1  0.334735  0.001050  0.754481  1
  Nb  Nb5  1  0.333894  0.333894  0.248042  1
  N  N6  1  0.669511  0.332287  0.496993  1
  N  N7  1  0.332287  0.669511  0.496993  1
  N  N8  1  0.996592  0.996592  0.002717  1
