# generated using pymatgen
data_MnTcMoCl10
_symmetry_space_group_name_H-M   'P 1'
_cell_length_a   9.12325416
_cell_length_b   9.12325419
_cell_length_c   13.03263643
_cell_angle_alpha   86.99526914
_cell_angle_beta   86.99526675
_cell_angle_gamma   139.03309267
_symmetry_Int_Tables_number   1
_chemical_formula_structural   MnTcMoCl10
_chemical_formula_sum   'Mn2 Tc2 Mo2 Cl20'
_cell_volume   703.16642383
_cell_formula_units_Z   2
loop_
 _symmetry_equiv_pos_site_id
 _symmetry_equiv_pos_as_xyz
  1  'x, y, z'
loop_
 _atom_site_type_symbol
 _atom_site_label
 _atom_site_symmetry_multiplicity
 _atom_site_fract_x
 _atom_site_fract_y
 _atom_site_fract_z
 _atom_site_occupancy
  Mn  Mn0  1  0.050980  0.949020  0.750000  1
  Mn  Mn1  1  0.949020  0.050980  0.250000  1
  Tc  Tc2  1  0.431771  0.568229  0.750000  1
  Tc  Tc3  1  0.568229  0.431771  0.250000  1
  Mo  Mo4  1  0.270441  0.729559  0.750000  1
  Mo  Mo5  1  0.729559  0.270441  0.250000  1
  Cl  Cl6  1  0.776812  0.478979  0.374650  1
  Cl  Cl7  1  0.521021  0.223188  0.125350  1
  Cl  Cl8  1  0.223188  0.521021  0.625350  1
  Cl  Cl9  1  0.478979  0.776812  0.874650  1
  Cl  Cl10  1  0.889344  0.777990  0.143112  1
  Cl  Cl11  1  0.222010  0.110656  0.356888  1
  Cl  Cl12  1  0.110656  0.222010  0.856888  1
  Cl  Cl13  1  0.777990  0.889344  0.643112  1
  Cl  Cl14  1  0.068804  0.588104  0.152481  1
  Cl  Cl15  1  0.411896  0.931196  0.347519  1
  Cl  Cl16  1  0.931196  0.411896  0.847519  1
  Cl  Cl17  1  0.588104  0.068804  0.652481  1
  Cl  Cl18  1  0.596578  0.667829  0.350466  1
  Cl  Cl19  1  0.332171  0.403422  0.149534  1
  Cl  Cl20  1  0.403422  0.332171  0.649534  1
  Cl  Cl21  1  0.667829  0.596578  0.850467  1
  Cl  Cl22  1  0.941416  0.266284  0.358169  1
  Cl  Cl23  1  0.733716  0.058584  0.141831  1
  Cl  Cl24  1  0.058584  0.733716  0.641831  1
  Cl  Cl25  1  0.266284  0.941416  0.858169  1
