# generated using pymatgen
data_Tb3ErAl4OsPt3
_symmetry_space_group_name_H-M   'P 1'
_cell_length_a   4.36337000
_cell_length_b   6.85949991
_cell_length_c   7.89679168
_cell_angle_alpha   89.93672332
_cell_angle_beta   90.00000000
_cell_angle_gamma   90.00000000
_symmetry_Int_Tables_number   1
_chemical_formula_structural   Tb3ErAl4OsPt3
_chemical_formula_sum   'Tb3 Er1 Al4 Os1 Pt3'
_cell_volume   236.35506434
_cell_formula_units_Z   1
loop_
 _symmetry_equiv_pos_site_id
 _symmetry_equiv_pos_as_xyz
  1  'x, y, z'
loop_
 _atom_site_type_symbol
 _atom_site_label
 _atom_site_symmetry_multiplicity
 _atom_site_fract_x
 _atom_site_fract_y
 _atom_site_fract_z
 _atom_site_occupancy
  Tb  Tb0  1  0.250000  0.470634  0.181484  1
  Tb  Tb1  1  0.750000  0.533178  0.813886  1
  Tb  Tb2  1  0.250000  0.967392  0.322517  1
  Er  Er3  1  0.750000  0.022217  0.678955  1
  Al  Al4  1  0.250000  0.856970  0.935303  1
  Al  Al5  1  0.750000  0.141788  0.061029  1
  Al  Al6  1  0.750000  0.645764  0.440855  1
  Al  Al7  1  0.250000  0.359923  0.563091  1
  Os  Os8  1  0.250000  0.734307  0.620733  1
  Pt  Pt9  1  0.750000  0.269417  0.380755  1
  Pt  Pt10  1  0.750000  0.770255  0.119478  1
  Pt  Pt11  1  0.250000  0.228155  0.881914  1
