# generated using pymatgen
data_Ho4Hf3NbF28
_symmetry_space_group_name_H-M   'P 1'
_cell_length_a   5.67944837
_cell_length_b   9.02133909
_cell_length_c   12.11807701
_cell_angle_alpha   62.59898295
_cell_angle_beta   90.06764799
_cell_angle_gamma   89.98084760
_symmetry_Int_Tables_number   1
_chemical_formula_structural   Ho4Hf3NbF28
_chemical_formula_sum   'Ho4 Hf3 Nb1 F28'
_cell_volume   551.22515246
_cell_formula_units_Z   1
loop_
 _symmetry_equiv_pos_site_id
 _symmetry_equiv_pos_as_xyz
  1  'x, y, z'
loop_
 _atom_site_type_symbol
 _atom_site_label
 _atom_site_symmetry_multiplicity
 _atom_site_fract_x
 _atom_site_fract_y
 _atom_site_fract_z
 _atom_site_occupancy
  Ho  Ho0  1  0.757289  0.812516  0.768063  1
  Ho  Ho1  1  0.254714  0.185494  0.731437  1
  Ho  Ho2  1  0.242820  0.186744  0.235351  1
  Ho  Ho3  1  0.743756  0.818811  0.265725  1
  Hf  Hf4  1  0.755148  0.273625  0.955365  1
  Hf  Hf5  1  0.256330  0.725850  0.544318  1
  Hf  Hf6  1  0.245112  0.726680  0.045506  1
  Nb  Nb7  1  0.743695  0.273944  0.454796  1
  F  F8  1  0.464684  0.709299  0.922513  1
  F  F9  1  0.949983  0.290159  0.586056  1
  F  F10  1  0.531657  0.289592  0.076854  1
  F  F11  1  0.036487  0.710671  0.420636  1
  F  F12  1  0.443139  0.276301  0.548009  1
  F  F13  1  0.953842  0.721813  0.951016  1
  F  F14  1  0.547045  0.718290  0.450375  1
  F  F15  1  0.042955  0.278542  0.051523  1
  F  F16  1  0.771180  0.523447  0.859707  1
  F  F17  1  0.269403  0.476732  0.640540  1
  F  F18  1  0.228745  0.477565  0.140511  1
  F  F19  1  0.733741  0.518644  0.359428  1
  F  F20  1  0.758574  0.024574  0.058364  1
  F  F21  1  0.261647  0.974382  0.443674  1
  F  F22  1  0.243107  0.974530  0.941577  1
  F  F23  1  0.739669  0.030300  0.551214  1
  F  F24  1  0.984200  0.734679  0.647102  1
  F  F25  1  0.488523  0.265902  0.849586  1
  F  F26  1  0.029903  0.269485  0.355610  1
  F  F27  1  0.515675  0.732528  0.150110  1
  F  F28  1  0.034417  0.747624  0.172331  1
  F  F29  1  0.543306  0.253584  0.321893  1
  F  F30  1  0.970244  0.252692  0.830710  1
  F  F31  1  0.467590  0.746655  0.671262  1
  F  F32  1  0.426133  0.973319  0.235290  1
  F  F33  1  0.925420  0.027678  0.268282  1
  F  F34  1  0.570157  0.024607  0.763059  1
  F  F35  1  0.069711  0.972741  0.732207  1
