# generated using pymatgen
data_TbDyAs4O9
_symmetry_space_group_name_H-M   'P 1'
_cell_length_a   6.76130844
_cell_length_b   7.56515011
_cell_length_c   9.83075371
_cell_angle_alpha   94.95983450
_cell_angle_beta   104.17356007
_cell_angle_gamma   104.71953456
_symmetry_Int_Tables_number   1
_chemical_formula_structural   TbDyAs4O9
_chemical_formula_sum   'Tb2 Dy2 As8 O18'
_cell_volume   465.57417670
_cell_formula_units_Z   2
loop_
 _symmetry_equiv_pos_site_id
 _symmetry_equiv_pos_as_xyz
  1  'x, y, z'
loop_
 _atom_site_type_symbol
 _atom_site_label
 _atom_site_symmetry_multiplicity
 _atom_site_fract_x
 _atom_site_fract_y
 _atom_site_fract_z
 _atom_site_occupancy
  Tb  Tb0  1  0.244337  0.939558  0.615537  1
  Tb  Tb1  1  0.755663  0.060442  0.384463  1
  Dy  Dy2  1  0.721096  0.530275  0.409491  1
  Dy  Dy3  1  0.278904  0.469725  0.590509  1
  As  As4  1  0.681558  0.774776  0.077793  1
  As  As5  1  0.318442  0.225224  0.922207  1
  As  As6  1  0.171857  0.752831  0.912605  1
  As  As7  1  0.828143  0.247169  0.087395  1
  As  As8  1  0.744025  0.915504  0.709333  1
  As  As9  1  0.255975  0.084496  0.290667  1
  As  As10  1  0.809345  0.350809  0.701318  1
  As  As11  1  0.190655  0.649191  0.298682  1
  O  O12  1  0.722611  0.749287  0.258107  1
  O  O13  1  0.277389  0.250713  0.741893  1
  O  O14  1  0.316020  0.978681  0.870450  1
  O  O15  1  0.683980  0.021319  0.129550  1
  O  O16  1  0.607800  0.324036  0.985490  1
  O  O17  1  0.392200  0.675964  0.014510  1
  O  O18  1  0.128448  0.646605  0.737901  1
  O  O19  1  0.871552  0.353395  0.262099  1
  O  O20  1  0.846384  0.874278  0.559319  1
  O  O21  1  0.153616  0.125722  0.440681  1
  O  O22  1  0.484290  0.768447  0.666527  1
  O  O23  1  0.515710  0.231553  0.333473  1
  O  O24  1  0.372556  0.534147  0.379357  1
  O  O25  1  0.627444  0.465853  0.620643  1
  O  O26  1  0.089516  0.669301  0.453408  1
  O  O27  1  0.910484  0.330699  0.546592  1
  O  O28  1  0.375992  0.899123  0.359073  1
  O  O29  1  0.624008  0.100877  0.640927  1
