# generated using pymatgen
data_Ta5Nb7Al4(IrN)4
_symmetry_space_group_name_H-M   'P 1'
_cell_length_a   7.02871914
_cell_length_b   7.03896725
_cell_length_c   7.02716239
_cell_angle_alpha   90.06824431
_cell_angle_beta   90.02300641
_cell_angle_gamma   90.00046560
_symmetry_Int_Tables_number   1
_chemical_formula_structural   Ta5Nb7Al4(IrN)4
_chemical_formula_sum   'Ta5 Nb7 Al4 Ir4 N4'
_cell_volume   347.66804926
_cell_formula_units_Z   1
loop_
 _symmetry_equiv_pos_site_id
 _symmetry_equiv_pos_as_xyz
  1  'x, y, z'
loop_
 _atom_site_type_symbol
 _atom_site_label
 _atom_site_symmetry_multiplicity
 _atom_site_fract_x
 _atom_site_fract_y
 _atom_site_fract_z
 _atom_site_occupancy
  Ta  Ta0  1  0.795306  0.956026  0.377780  1
  Ta  Ta1  1  0.703111  0.043998  0.875715  1
  Ta  Ta2  1  0.205226  0.455147  0.124844  1
  Ta  Ta3  1  0.295966  0.544991  0.623139  1
  Ta  Ta4  1  0.955278  0.375285  0.793253  1
  Nb  Nb5  1  0.045352  0.876049  0.708543  1
  Nb  Nb6  1  0.454974  0.124067  0.207595  1
  Nb  Nb7  1  0.545770  0.625075  0.291681  1
  Nb  Nb8  1  0.375728  0.793998  0.956462  1
  Nb  Nb9  1  0.877403  0.705851  0.044147  1
  Nb  Nb10  1  0.123351  0.205317  0.455994  1
  Nb  Nb11  1  0.621559  0.294690  0.543414  1
  Al  Al12  1  0.571212  0.430317  0.929206  1
  Al  Al13  1  0.428438  0.930208  0.570847  1
  Al  Al14  1  0.928262  0.569213  0.429377  1
  Al  Al15  1  0.071822  0.068742  0.070716  1
  Ir  Ir16  1  0.176097  0.819899  0.323653  1
  Ir  Ir17  1  0.322063  0.180719  0.823304  1
  Ir  Ir18  1  0.824883  0.320405  0.173941  1
  Ir  Ir19  1  0.677423  0.679064  0.677109  1
  N  N20  1  0.872901  0.125447  0.627097  1
  N  N21  1  0.628680  0.877938  0.125389  1
  N  N22  1  0.127220  0.619685  0.872873  1
  N  N23  1  0.371977  0.377869  0.373920  1
