# generated using pymatgen
data_Ac2Si7Ir12
_symmetry_space_group_name_H-M   'P 1'
_cell_length_a   9.91118100
_cell_length_b   9.91118166
_cell_length_c   3.95131700
_cell_angle_alpha   90.00000000
_cell_angle_beta   90.00000000
_cell_angle_gamma   120.00000114
_symmetry_Int_Tables_number   1
_chemical_formula_structural   Ac2Si7Ir12
_chemical_formula_sum   'Ac2 Si7 Ir12'
_cell_volume   336.14243623
_cell_formula_units_Z   1
loop_
 _symmetry_equiv_pos_site_id
 _symmetry_equiv_pos_as_xyz
  1  'x, y, z'
loop_
 _atom_site_type_symbol
 _atom_site_label
 _atom_site_symmetry_multiplicity
 _atom_site_fract_x
 _atom_site_fract_y
 _atom_site_fract_z
 _atom_site_occupancy
  Ac  Ac0  1  0.333333  0.666667  0.749866  1
  Ac  Ac1  1  0.666667  0.333333  0.250134  1
  Si  Si2  1  0.000000  0.000000  0.500000  1
  Si  Si3  1  0.289290  0.892644  0.247971  1
  Si  Si4  1  0.603354  0.710710  0.247971  1
  Si  Si5  1  0.107356  0.396646  0.247971  1
  Si  Si6  1  0.710710  0.107356  0.752029  1
  Si  Si7  1  0.396646  0.289290  0.752029  1
  Si  Si8  1  0.892644  0.603354  0.752029  1
  Ir  Ir9  1  0.259103  0.116730  0.254894  1
  Ir  Ir10  1  0.857627  0.740897  0.254894  1
  Ir  Ir11  1  0.883270  0.142373  0.254894  1
  Ir  Ir12  1  0.740897  0.883270  0.745106  1
  Ir  Ir13  1  0.142373  0.259103  0.745106  1
  Ir  Ir14  1  0.116730  0.857627  0.745106  1
  Ir  Ir15  1  0.059010  0.618636  0.248492  1
  Ir  Ir16  1  0.559626  0.940990  0.248492  1
  Ir  Ir17  1  0.381364  0.440374  0.248492  1
  Ir  Ir18  1  0.940990  0.381364  0.751508  1
  Ir  Ir19  1  0.440374  0.059010  0.751508  1
  Ir  Ir20  1  0.618636  0.559626  0.751508  1
