# generated using pymatgen
data_Tb3Dy2(Tl2Pd)2
_symmetry_space_group_name_H-M   'P 1'
_cell_length_a   8.13017600
_cell_length_b   18.36132000
_cell_length_c   3.65801200
_cell_angle_alpha   90.00000000
_cell_angle_beta   90.00000000
_cell_angle_gamma   90.00000000
_symmetry_Int_Tables_number   1
_chemical_formula_structural   Tb3Dy2(Tl2Pd)2
_chemical_formula_sum   'Tb6 Dy4 Tl8 Pd4'
_cell_volume   546.07082313
_cell_formula_units_Z   2
loop_
 _symmetry_equiv_pos_site_id
 _symmetry_equiv_pos_as_xyz
  1  'x, y, z'
loop_
 _atom_site_type_symbol
 _atom_site_label
 _atom_site_symmetry_multiplicity
 _atom_site_fract_x
 _atom_site_fract_y
 _atom_site_fract_z
 _atom_site_occupancy
  Tb  Tb0  1  0.500000  0.500000  0.000000  1
  Tb  Tb1  1  0.000000  0.000000  0.000000  1
  Tb  Tb2  1  0.618200  0.084037  0.000000  1
  Tb  Tb3  1  0.381800  0.915963  0.000000  1
  Tb  Tb4  1  0.881800  0.584037  0.000000  1
  Tb  Tb5  1  0.118200  0.415963  0.000000  1
  Dy  Dy6  1  0.743674  0.280249  0.000000  1
  Dy  Dy7  1  0.256326  0.719751  0.000000  1
  Dy  Dy8  1  0.756326  0.780249  0.000000  1
  Dy  Dy9  1  0.243674  0.219751  0.000000  1
  Tl  Tl10  1  0.707482  0.932605  0.500000  1
  Tl  Tl11  1  0.292518  0.067395  0.500000  1
  Tl  Tl12  1  0.792518  0.432605  0.500000  1
  Tl  Tl13  1  0.207482  0.567395  0.500000  1
  Tl  Tl14  1  0.579927  0.649180  0.500000  1
  Tl  Tl15  1  0.420073  0.350820  0.500000  1
  Tl  Tl16  1  0.920073  0.149180  0.500000  1
  Tl  Tl17  1  0.079927  0.850820  0.500000  1
  Pd  Pd18  1  0.527544  0.196301  0.500000  1
  Pd  Pd19  1  0.472456  0.803699  0.500000  1
  Pd  Pd20  1  0.972456  0.696301  0.500000  1
  Pd  Pd21  1  0.027544  0.303699  0.500000  1
