# generated using pymatgen
data_Sr8Tb5Yb7Pt16
_symmetry_space_group_name_H-M   'P 1'
_cell_length_a   7.70253080
_cell_length_b   7.82805705
_cell_length_c   14.91739744
_cell_angle_alpha   90.04053870
_cell_angle_beta   90.02970250
_cell_angle_gamma   90.04329839
_symmetry_Int_Tables_number   1
_chemical_formula_structural   Sr8Tb5Yb7Pt16
_chemical_formula_sum   'Sr8 Tb5 Yb7 Pt16'
_cell_volume   899.45656390
_cell_formula_units_Z   1
loop_
 _symmetry_equiv_pos_site_id
 _symmetry_equiv_pos_as_xyz
  1  'x, y, z'
loop_
 _atom_site_type_symbol
 _atom_site_label
 _atom_site_symmetry_multiplicity
 _atom_site_fract_x
 _atom_site_fract_y
 _atom_site_fract_z
 _atom_site_occupancy
  Sr  Sr0  1  0.500026  0.326377  0.902575  1
  Sr  Sr1  1  0.000782  0.174741  0.595615  1
  Sr  Sr2  1  0.498488  0.675414  0.405116  1
  Sr  Sr3  1  0.001268  0.823099  0.095696  1
  Sr  Sr4  1  0.500783  0.676082  0.097072  1
  Sr  Sr5  1  0.001595  0.822454  0.403736  1
  Sr  Sr6  1  0.498793  0.323056  0.597185  1
  Sr  Sr7  1  0.998935  0.176997  0.902091  1
  Tb  Tb8  1  0.339444  0.834207  0.875787  1
  Tb  Tb9  1  0.839187  0.666357  0.624139  1
  Tb  Tb10  1  0.660163  0.166682  0.376019  1
  Tb  Tb11  1  0.160397  0.333313  0.124090  1
  Tb  Tb12  1  0.661498  0.167589  0.123864  1
  Yb  Yb13  1  0.161441  0.333181  0.377185  1
  Yb  Yb14  1  0.338926  0.832418  0.623104  1
  Yb  Yb15  1  0.839661  0.667549  0.876718  1
  Yb  Yb16  1  0.177536  0.495097  0.749277  1
  Yb  Yb17  1  0.678176  0.005101  0.749583  1
  Yb  Yb18  1  0.823591  0.507587  0.251260  1
  Yb  Yb19  1  0.319912  0.993291  0.251221  1
  Pt  Pt20  1  0.332784  0.045722  0.043558  1
  Pt  Pt21  1  0.829774  0.456055  0.457683  1
  Pt  Pt22  1  0.669785  0.955773  0.542437  1
  Pt  Pt23  1  0.167971  0.544677  0.958002  1
  Pt  Pt24  1  0.660687  0.961789  0.957491  1
  Pt  Pt25  1  0.157234  0.540465  0.544387  1
  Pt  Pt26  1  0.342356  0.040632  0.455096  1
  Pt  Pt27  1  0.839244  0.453009  0.044668  1
  Pt  Pt28  1  0.545451  0.635492  0.752486  1
  Pt  Pt29  1  0.045658  0.865452  0.748312  1
  Pt  Pt30  1  0.457370  0.363854  0.248443  1
  Pt  Pt31  1  0.953143  0.135783  0.247355  1
  Pt  Pt32  1  0.302352  0.120977  0.752396  1
  Pt  Pt33  1  0.802478  0.379456  0.747253  1
  Pt  Pt34  1  0.694477  0.880743  0.250807  1
  Pt  Pt35  1  0.198633  0.619531  0.248294  1
