# generated using pymatgen
data_YZr(Ga3Ni)6
_symmetry_space_group_name_H-M   'P 1'
_cell_length_a   10.09647899
_cell_length_b   10.09647966
_cell_length_c   10.09647707
_cell_angle_alpha   42.26456663
_cell_angle_beta   42.26455914
_cell_angle_gamma   42.26456896
_symmetry_Int_Tables_number   1
_chemical_formula_structural   YZr(Ga3Ni)6
_chemical_formula_sum   'Y1 Zr1 Ga18 Ni6'
_cell_volume   421.34555182
_cell_formula_units_Z   1
loop_
 _symmetry_equiv_pos_site_id
 _symmetry_equiv_pos_as_xyz
  1  'x, y, z'
loop_
 _atom_site_type_symbol
 _atom_site_label
 _atom_site_symmetry_multiplicity
 _atom_site_fract_x
 _atom_site_fract_y
 _atom_site_fract_z
 _atom_site_occupancy
  Y  Y0  1  0.832857  0.832857  0.832857  1
  Zr  Zr1  1  0.167526  0.167526  0.167526  1
  Ga  Ga2  1  0.051635  0.051635  0.051635  1
  Ga  Ga3  1  0.715326  0.493274  0.291399  1
  Ga  Ga4  1  0.666053  0.333412  0.000572  1
  Ga  Ga5  1  0.104878  0.432578  0.767634  1
  Ga  Ga6  1  0.432578  0.767634  0.104878  1
  Ga  Ga7  1  0.386283  0.386283  0.386283  1
  Ga  Ga8  1  0.333412  0.000572  0.666053  1
  Ga  Ga9  1  0.613979  0.613979  0.613979  1
  Ga  Ga10  1  0.234628  0.563212  0.896867  1
  Ga  Ga11  1  0.563212  0.896867  0.234628  1
  Ga  Ga12  1  0.493274  0.291399  0.715326  1
  Ga  Ga13  1  0.767634  0.104878  0.432578  1
  Ga  Ga14  1  0.948633  0.948633  0.948633  1
  Ga  Ga15  1  0.291399  0.715326  0.493274  1
  Ga  Ga16  1  0.000572  0.666053  0.333412  1
  Ga  Ga17  1  0.716991  0.716991  0.716991  1
  Ga  Ga18  1  0.282258  0.282258  0.282258  1
  Ga  Ga19  1  0.896867  0.234628  0.563212  1
  Ni  Ni20  1  0.241436  0.921479  0.581766  1
  Ni  Ni21  1  0.921479  0.581766  0.241436  1
  Ni  Ni22  1  0.758189  0.418507  0.078627  1
  Ni  Ni23  1  0.078627  0.758189  0.418507  1
  Ni  Ni24  1  0.418507  0.078627  0.758189  1
  Ni  Ni25  1  0.581766  0.241436  0.921479  1
