# generated using pymatgen
data_Ta2Br8O
_symmetry_space_group_name_H-M   'P 1'
_cell_length_a   7.41738087
_cell_length_b   7.47481202
_cell_length_c   7.27092156
_cell_angle_alpha   91.32780287
_cell_angle_beta   96.26007201
_cell_angle_gamma   96.30707616
_symmetry_Int_Tables_number   1
_chemical_formula_structural   Ta2Br8O
_chemical_formula_sum   'Ta2 Br8 O1'
_cell_volume   398.04421208
_cell_formula_units_Z   1
loop_
 _symmetry_equiv_pos_site_id
 _symmetry_equiv_pos_as_xyz
  1  'x, y, z'
loop_
 _atom_site_type_symbol
 _atom_site_label
 _atom_site_symmetry_multiplicity
 _atom_site_fract_x
 _atom_site_fract_y
 _atom_site_fract_z
 _atom_site_occupancy
  Ta  Ta0  1  0.053201  0.408396  0.768362  1
  Ta  Ta1  1  0.946799  0.591604  0.231638  1
  Br  Br2  1  0.658601  0.384461  0.212925  1
  Br  Br3  1  0.895886  0.677582  0.589905  1
  Br  Br4  1  0.255562  0.764448  0.288540  1
  Br  Br5  1  0.794871  0.852427  0.134284  1
  Br  Br6  1  0.205129  0.147573  0.865716  1
  Br  Br7  1  0.341399  0.615539  0.787075  1
  Br  Br8  1  0.104114  0.322418  0.410095  1
  Br  Br9  1  0.744438  0.235552  0.711460  1
  O  O10  1  0.000000  0.500000  0.000000  1
