# generated using pymatgen
data_La16Cd4Ir2RuAu
_symmetry_space_group_name_H-M   'P 1'
_cell_length_a   10.21511618
_cell_length_b   10.19538641
_cell_length_c   10.16440115
_cell_angle_alpha   59.89783197
_cell_angle_beta   59.91547175
_cell_angle_gamma   60.06217400
_symmetry_Int_Tables_number   1
_chemical_formula_structural   La16Cd4Ir2RuAu
_chemical_formula_sum   'La16 Cd4 Ir2 Ru1 Au1'
_cell_volume   747.82957607
_cell_formula_units_Z   1
loop_
 _symmetry_equiv_pos_site_id
 _symmetry_equiv_pos_as_xyz
  1  'x, y, z'
loop_
 _atom_site_type_symbol
 _atom_site_label
 _atom_site_symmetry_multiplicity
 _atom_site_fract_x
 _atom_site_fract_y
 _atom_site_fract_z
 _atom_site_occupancy
  La  La0  1  0.895072  0.897217  0.910897  1
  La  La1  1  0.441067  0.437037  0.060610  1
  La  La2  1  0.057560  0.056729  0.431634  1
  La  La3  1  0.441009  0.061351  0.060616  1
  La  La4  1  0.309917  0.687787  0.314462  1
  La  La5  1  0.687413  0.687652  0.314091  1
  La  La6  1  0.687331  0.310924  0.313996  1
  La  La7  1  0.298850  0.895674  0.909759  1
  La  La8  1  0.895076  0.296827  0.910884  1
  La  La9  1  0.310178  0.686232  0.692280  1
  La  La10  1  0.903882  0.905182  0.285779  1
  La  La11  1  0.061400  0.439454  0.059677  1
  La  La12  1  0.310159  0.311215  0.692315  1
  La  La13  1  0.057598  0.454025  0.431624  1
  La  La14  1  0.456112  0.058239  0.427409  1
  La  La15  1  0.685807  0.310998  0.692322  1
  Cd  Cd16  1  0.670132  0.670213  0.989448  1
  Cd  Cd17  1  0.988347  0.671022  0.669617  1
  Cd  Cd18  1  0.671079  0.988050  0.669781  1
  Cd  Cd19  1  0.671082  0.671106  0.669778  1
  Ir  Ir20  1  0.110911  0.110072  0.104707  1
  Ir  Ir21  1  0.110916  0.674320  0.104719  1
  Ru  Ru22  1  0.670244  0.110618  0.108567  1
  Au  Au23  1  0.108856  0.108053  0.675026  1
