# generated using pymatgen
data_Ho2AlNiRu
_symmetry_space_group_name_H-M   'P 1'
_cell_length_a   5.44616420
_cell_length_b   5.44616366
_cell_length_c   5.44616331
_cell_angle_alpha   135.68970147
_cell_angle_beta   117.79879242
_cell_angle_gamma   79.51750490
_symmetry_Int_Tables_number   1
_chemical_formula_structural   Ho2AlNiRu
_chemical_formula_sum   'Ho2 Al1 Ni1 Ru1'
_cell_volume   96.75973647
_cell_formula_units_Z   1
loop_
 _symmetry_equiv_pos_site_id
 _symmetry_equiv_pos_as_xyz
  1  'x, y, z'
loop_
 _atom_site_type_symbol
 _atom_site_label
 _atom_site_symmetry_multiplicity
 _atom_site_fract_x
 _atom_site_fract_y
 _atom_site_fract_z
 _atom_site_occupancy
  Ho  Ho0  1  0.697846  0.202922  0.494923  1
  Ho  Ho1  1  0.292001  0.797078  0.494923  1
  Al  Al2  1  0.998929  0.000000  0.998929  1
  Ni  Ni3  1  0.737929  0.500000  0.237929  1
  Ru  Ru4  1  0.273295  0.500000  0.773295  1
