# generated using pymatgen
data_Ga4Hg11(SbI4)4
_symmetry_space_group_name_H-M   'P 1'
_cell_length_a   8.51982012
_cell_length_b   8.51982116
_cell_length_c   24.43273997
_cell_angle_alpha   82.34610963
_cell_angle_beta   82.34610932
_cell_angle_gamma   59.58901728
_symmetry_Int_Tables_number   1
_chemical_formula_structural   Ga4Hg11(SbI4)4
_chemical_formula_sum   'Ga4 Hg11 Sb4 I16'
_cell_volume   1511.38155804
_cell_formula_units_Z   1
loop_
 _symmetry_equiv_pos_site_id
 _symmetry_equiv_pos_as_xyz
  1  'x, y, z'
loop_
 _atom_site_type_symbol
 _atom_site_label
 _atom_site_symmetry_multiplicity
 _atom_site_fract_x
 _atom_site_fract_y
 _atom_site_fract_z
 _atom_site_occupancy
  Ga  Ga0  1  0.638457  0.638457  0.110098  1
  Ga  Ga1  1  0.361543  0.361543  0.889902  1
  Ga  Ga2  1  0.758078  0.758078  0.614510  1
  Ga  Ga3  1  0.241922  0.241922  0.385490  1
  Hg  Hg4  1  0.030357  0.030357  0.887349  1
  Hg  Hg5  1  0.766447  0.766447  0.282873  1
  Hg  Hg6  1  0.475153  0.475153  0.555574  1
  Hg  Hg7  1  0.732580  0.235142  0.721896  1
  Hg  Hg8  1  0.267420  0.764858  0.278104  1
  Hg  Hg9  1  0.764858  0.267420  0.278104  1
  Hg  Hg10  1  0.235142  0.732580  0.721896  1
  Hg  Hg11  1  0.524847  0.524847  0.444426  1
  Hg  Hg12  1  0.969643  0.969643  0.112651  1
  Hg  Hg13  1  0.000000  0.000000  0.000000  1
  Hg  Hg14  1  0.233553  0.233553  0.717127  1
  Sb  Sb15  1  0.943327  0.943327  0.230096  1
  Sb  Sb16  1  0.056673  0.056673  0.769904  1
  Sb  Sb17  1  0.585389  0.585389  0.329874  1
  Sb  Sb18  1  0.414611  0.414611  0.670126  1
  I  I19  1  0.536706  0.045497  0.848458  1
  I  I20  1  0.069105  0.069105  0.421845  1
  I  I21  1  0.534394  0.534394  0.848286  1
  I  I22  1  0.427276  0.928790  0.584712  1
  I  I23  1  0.737260  0.737260  0.721463  1
  I  I24  1  0.335641  0.335641  0.995215  1
  I  I25  1  0.463294  0.954503  0.151542  1
  I  I26  1  0.954503  0.463294  0.151542  1
  I  I27  1  0.465606  0.465606  0.151714  1
  I  I28  1  0.572724  0.071210  0.415288  1
  I  I29  1  0.664359  0.664359  0.004785  1
  I  I30  1  0.928790  0.427276  0.584712  1
  I  I31  1  0.262740  0.262740  0.278537  1
  I  I32  1  0.071210  0.572724  0.415288  1
  I  I33  1  0.930895  0.930895  0.578155  1
  I  I34  1  0.045497  0.536706  0.848458  1
