# generated using pymatgen
data_Ba6LaHo(BO3)6
_symmetry_space_group_name_H-M   'P 1'
_cell_length_a   8.30879795
_cell_length_b   8.30879780
_cell_length_c   8.30879855
_cell_angle_alpha   105.60257185
_cell_angle_beta   105.60258226
_cell_angle_gamma   105.60258906
_symmetry_Int_Tables_number   1
_chemical_formula_structural   Ba6LaHo(BO3)6
_chemical_formula_sum   'Ba6 La1 Ho1 B6 O18'
_cell_volume   494.78806884
_cell_formula_units_Z   1
loop_
 _symmetry_equiv_pos_site_id
 _symmetry_equiv_pos_as_xyz
  1  'x, y, z'
loop_
 _atom_site_type_symbol
 _atom_site_label
 _atom_site_symmetry_multiplicity
 _atom_site_fract_x
 _atom_site_fract_y
 _atom_site_fract_z
 _atom_site_occupancy
  Ba  Ba0  1  0.355337  0.730993  0.846918  1
  Ba  Ba1  1  0.846918  0.355337  0.730993  1
  Ba  Ba2  1  0.730993  0.846918  0.355337  1
  Ba  Ba3  1  0.644663  0.269007  0.153082  1
  Ba  Ba4  1  0.153082  0.644663  0.269007  1
  Ba  Ba5  1  0.269007  0.153082  0.644663  1
  La  La6  1  0.000000  0.000000  0.000000  1
  Ho  Ho7  1  0.500000  0.500000  0.500000  1
  B  B8  1  0.707378  0.614666  0.953461  1
  B  B9  1  0.953461  0.707378  0.614666  1
  B  B10  1  0.614666  0.953461  0.707378  1
  B  B11  1  0.046539  0.292622  0.385334  1
  B  B12  1  0.385334  0.046539  0.292622  1
  B  B13  1  0.292622  0.385334  0.046539  1
  O  O14  1  0.051159  0.805547  0.539701  1
  O  O15  1  0.539701  0.051159  0.805547  1
  O  O16  1  0.426409  0.493246  0.216413  1
  O  O17  1  0.493246  0.216413  0.426409  1
  O  O18  1  0.216413  0.426409  0.493246  1
  O  O19  1  0.783587  0.573591  0.506754  1
  O  O20  1  0.573591  0.506754  0.783587  1
  O  O21  1  0.506754  0.783587  0.573591  1
  O  O22  1  0.264152  0.202313  0.979807  1
  O  O23  1  0.202313  0.979807  0.264152  1
  O  O24  1  0.979807  0.264152  0.202313  1
  O  O25  1  0.735848  0.797687  0.020193  1
  O  O26  1  0.797687  0.020193  0.735848  1
  O  O27  1  0.020193  0.735848  0.797687  1
  O  O28  1  0.194453  0.460299  0.948841  1
  O  O29  1  0.460299  0.948841  0.194453  1
  O  O30  1  0.948841  0.194453  0.460299  1
  O  O31  1  0.805547  0.539701  0.051159  1
