# generated using pymatgen
data_Tb6Ho3Er7(CdPt)4
_symmetry_space_group_name_H-M   'P 1'
_cell_length_a   9.65287820
_cell_length_b   9.65078752
_cell_length_c   9.65079000
_cell_angle_alpha   59.99999835
_cell_angle_beta   60.00716271
_cell_angle_gamma   60.00716264
_symmetry_Int_Tables_number   1
_chemical_formula_structural   Tb6Ho3Er7(CdPt)4
_chemical_formula_sum   'Tb6 Ho3 Er7 Cd4 Pt4'
_cell_volume   635.79111183
_cell_formula_units_Z   1
loop_
 _symmetry_equiv_pos_site_id
 _symmetry_equiv_pos_as_xyz
  1  'x, y, z'
loop_
 _atom_site_type_symbol
 _atom_site_label
 _atom_site_symmetry_multiplicity
 _atom_site_fract_x
 _atom_site_fract_y
 _atom_site_fract_z
 _atom_site_occupancy
  Tb  Tb0  1  0.935658  0.564310  0.564310  1
  Tb  Tb1  1  0.564350  0.935643  0.935643  1
  Tb  Tb2  1  0.564350  0.935643  0.564365  1
  Tb  Tb3  1  0.935658  0.564310  0.935722  1
  Tb  Tb4  1  0.564350  0.564365  0.935643  1
  Tb  Tb5  1  0.935658  0.935722  0.564310  1
  Ho  Ho6  1  0.351885  0.351902  0.351902  1
  Ho  Ho7  1  0.351885  0.351902  0.944310  1
  Ho  Ho8  1  0.351885  0.944310  0.351902  1
  Er  Er9  1  0.944758  0.351747  0.351747  1
  Er  Er10  1  0.811407  0.188613  0.188613  1
  Er  Er11  1  0.188575  0.811447  0.811447  1
  Er  Er12  1  0.188575  0.811447  0.188532  1
  Er  Er13  1  0.811407  0.188613  0.811367  1
  Er  Er14  1  0.188575  0.188532  0.811447  1
  Er  Er15  1  0.811407  0.811367  0.188613  1
  Cd  Cd16  1  0.581718  0.581399  0.581399  1
  Cd  Cd17  1  0.581718  0.581399  0.255484  1
  Cd  Cd18  1  0.581718  0.255484  0.581399  1
  Cd  Cd19  1  0.255471  0.581509  0.581509  1
  Pt  Pt20  1  0.142401  0.143132  0.143132  1
  Pt  Pt21  1  0.142401  0.143132  0.571334  1
  Pt  Pt22  1  0.142401  0.571334  0.143132  1
  Pt  Pt23  1  0.571789  0.142737  0.142737  1
