# generated using pymatgen
data_ErBiCl8
_symmetry_space_group_name_H-M   'P 1'
_cell_length_a   7.02211312
_cell_length_b   7.02211385
_cell_length_c   9.31598906
_cell_angle_alpha   92.33366118
_cell_angle_beta   92.33366540
_cell_angle_gamma   120.03738897
_symmetry_Int_Tables_number   1
_chemical_formula_structural   ErBiCl8
_chemical_formula_sum   'Er1 Bi1 Cl8'
_cell_volume   396.35556849
_cell_formula_units_Z   1
loop_
 _symmetry_equiv_pos_site_id
 _symmetry_equiv_pos_as_xyz
  1  'x, y, z'
loop_
 _atom_site_type_symbol
 _atom_site_label
 _atom_site_symmetry_multiplicity
 _atom_site_fract_x
 _atom_site_fract_y
 _atom_site_fract_z
 _atom_site_occupancy
  Er  Er0  1  0.167260  0.832740  0.000000  1
  Bi  Bi1  1  0.832238  0.167762  0.000000  1
  Cl  Cl2  1  0.901101  0.888917  0.166098  1
  Cl  Cl3  1  0.507091  0.139953  0.163692  1
  Cl  Cl4  1  0.150646  0.529370  0.163891  1
  Cl  Cl5  1  0.615010  0.615105  0.443560  1
  Cl  Cl6  1  0.384895  0.384990  0.556439  1
  Cl  Cl7  1  0.860047  0.492908  0.836308  1
  Cl  Cl8  1  0.470629  0.849354  0.836109  1
  Cl  Cl9  1  0.111083  0.098899  0.833903  1
