# generated using pymatgen
data_Ba4Gd5Y3O16
_symmetry_space_group_name_H-M   'P 1'
_cell_length_a   3.52009100
_cell_length_b   10.59157979
_cell_length_c   12.33918409
_cell_angle_alpha   90.06661765
_cell_angle_beta   90.00000000
_cell_angle_gamma   90.00000000
_symmetry_Int_Tables_number   1
_chemical_formula_structural   Ba4Gd5Y3O16
_chemical_formula_sum   'Ba4 Gd5 Y3 O16'
_cell_volume   460.04549574
_cell_formula_units_Z   1
loop_
 _symmetry_equiv_pos_site_id
 _symmetry_equiv_pos_as_xyz
  1  'x, y, z'
loop_
 _atom_site_type_symbol
 _atom_site_label
 _atom_site_symmetry_multiplicity
 _atom_site_fract_x
 _atom_site_fract_y
 _atom_site_fract_z
 _atom_site_occupancy
  Ba  Ba0  1  0.250000  0.753060  0.351146  1
  Ba  Ba1  1  0.750000  0.246923  0.649447  1
  Ba  Ba2  1  0.250000  0.253706  0.147948  1
  Ba  Ba3  1  0.750000  0.746512  0.851309  1
  Gd  Gd4  1  0.250000  0.426055  0.388106  1
  Gd  Gd5  1  0.750000  0.575037  0.611722  1
  Gd  Gd6  1  0.250000  0.924420  0.111017  1
  Gd  Gd7  1  0.750000  0.074924  0.888291  1
  Gd  Gd8  1  0.750000  0.077290  0.391138  1
  Y  Y9  1  0.250000  0.922444  0.609458  1
  Y  Y10  1  0.750000  0.577070  0.108541  1
  Y  Y11  1  0.250000  0.423197  0.891309  1
  O  O12  1  0.750000  0.290574  0.337938  1
  O  O13  1  0.250000  0.711406  0.661647  1
  O  O14  1  0.750000  0.788067  0.160728  1
  O  O15  1  0.250000  0.211811  0.839102  1
  O  O16  1  0.750000  0.384536  0.018337  1
  O  O17  1  0.250000  0.615507  0.981522  1
  O  O18  1  0.750000  0.882952  0.482611  1
  O  O19  1  0.250000  0.115310  0.520397  1
  O  O20  1  0.750000  0.980415  0.715791  1
  O  O21  1  0.250000  0.017666  0.283181  1
  O  O22  1  0.750000  0.480649  0.784695  1
  O  O23  1  0.250000  0.519819  0.215200  1
  O  O24  1  0.750000  0.071174  0.074224  1
  O  O25  1  0.250000  0.928773  0.925164  1
  O  O26  1  0.750000  0.571747  0.425678  1
  O  O27  1  0.250000  0.428957  0.574353  1
