# generated using pymatgen
data_Hf18Re8RhAu
_symmetry_space_group_name_H-M   'P 1'
_cell_length_a   8.54816100
_cell_length_b   8.66521897
_cell_length_c   8.66500700
_cell_angle_alpha   120.00151758
_cell_angle_beta   90.00000000
_cell_angle_gamma   90.00000000
_symmetry_Int_Tables_number   1
_chemical_formula_structural   Hf18Re8RhAu
_chemical_formula_sum   'Hf18 Re8 Rh1 Au1'
_cell_volume   555.83404413
_cell_formula_units_Z   1
loop_
 _symmetry_equiv_pos_site_id
 _symmetry_equiv_pos_as_xyz
  1  'x, y, z'
loop_
 _atom_site_type_symbol
 _atom_site_label
 _atom_site_symmetry_multiplicity
 _atom_site_fract_x
 _atom_site_fract_y
 _atom_site_fract_z
 _atom_site_occupancy
  Hf  Hf0  1  0.549915  0.808873  0.617763  1
  Hf  Hf1  1  0.549909  0.808881  0.191126  1
  Hf  Hf2  1  0.549927  0.382232  0.191128  1
  Hf  Hf3  1  0.445620  0.196453  0.392879  1
  Hf  Hf4  1  0.445610  0.196433  0.803547  1
  Hf  Hf5  1  0.445610  0.607114  0.803548  1
  Hf  Hf6  1  0.054380  0.196453  0.392879  1
  Hf  Hf7  1  0.054390  0.196433  0.803547  1
  Hf  Hf8  1  0.054390  0.607114  0.803548  1
  Hf  Hf9  1  0.950085  0.808873  0.617763  1
  Hf  Hf10  1  0.950091  0.808881  0.191126  1
  Hf  Hf11  1  0.950073  0.382232  0.191128  1
  Hf  Hf12  1  0.750000  0.457409  0.914819  1
  Hf  Hf13  1  0.750000  0.457423  0.542595  1
  Hf  Hf14  1  0.750000  0.085200  0.542585  1
  Hf  Hf15  1  0.250000  0.542391  0.084776  1
  Hf  Hf16  1  0.250000  0.542397  0.457620  1
  Hf  Hf17  1  0.250000  0.915228  0.457620  1
  Re  Re18  1  0.750000  0.110738  0.221460  1
  Re  Re19  1  0.750000  0.110726  0.889280  1
  Re  Re20  1  0.750000  0.778556  0.889274  1
  Re  Re21  1  0.250000  0.890189  0.780396  1
  Re  Re22  1  0.250000  0.890192  0.109802  1
  Re  Re23  1  0.250000  0.219568  0.109780  1
  Re  Re24  1  0.499980  0.000002  0.000005  1
  Re  Re25  1  0.000020  0.000002  0.000005  1
  Rh  Rh26  1  0.250000  0.333333  0.666673  1
  Au  Au27  1  0.750000  0.666675  0.333328  1
