# generated using pymatgen
data_Y9Tm3Al12Cr8O48
_symmetry_space_group_name_H-M   'P 1'
_cell_length_a   10.61223300
_cell_length_b   10.60853844
_cell_length_c   10.61222008
_cell_angle_alpha   109.46409174
_cell_angle_beta   109.47831649
_cell_angle_gamma   109.46410185
_symmetry_Int_Tables_number   1
_chemical_formula_structural   Y9Tm3Al12Cr8O48
_chemical_formula_sum   'Y9 Tm3 Al12 Cr8 O48'
_cell_volume   919.78221577
_cell_formula_units_Z   1
loop_
 _symmetry_equiv_pos_site_id
 _symmetry_equiv_pos_as_xyz
  1  'x, y, z'
loop_
 _atom_site_type_symbol
 _atom_site_label
 _atom_site_symmetry_multiplicity
 _atom_site_fract_x
 _atom_site_fract_y
 _atom_site_fract_z
 _atom_site_occupancy
  Y  Y0  1  0.874931  0.624929  0.249855  1
  Y  Y1  1  0.125552  0.250004  0.374454  1
  Y  Y2  1  0.748903  0.124453  0.374452  1
  Y  Y3  1  0.874933  0.750004  0.625077  1
  Y  Y4  1  0.250144  0.875073  0.625075  1
  Y  Y5  1  0.624889  0.874887  0.749777  1
  Y  Y6  1  0.125551  0.375551  0.751098  1
  Y  Y7  1  0.624886  0.250000  0.875111  1
  Y  Y8  1  0.750222  0.625110  0.875111  1
  Tm  Tm9  1  0.250180  0.375089  0.125088  1
  Tm  Tm10  1  0.374912  0.750000  0.125088  1
  Tm  Tm11  1  0.374914  0.124914  0.249824  1
  Al  Al12  1  0.875577  0.250212  0.124785  1
  Al  Al13  1  0.749206  0.874570  0.124780  1
  Al  Al14  1  0.623484  0.374211  0.249701  1
  Al  Al15  1  0.126219  0.875490  0.249702  1
  Al  Al16  1  0.250298  0.624509  0.373781  1
  Al  Al17  1  0.623485  0.749275  0.373786  1
  Al  Al18  1  0.375219  0.249789  0.624421  1
  Al  Al19  1  0.749202  0.374631  0.624424  1
  Al  Al20  1  0.875575  0.125366  0.750791  1
  Al  Al21  1  0.375218  0.625427  0.750797  1
  Al  Al22  1  0.250297  0.125789  0.876519  1
  Al  Al23  1  0.126219  0.750728  0.876516  1
  Cr  Cr24  1  0.001480  0.001047  0.000755  1
  Cr  Cr25  1  0.499260  0.999716  0.000756  1
  Cr  Cr26  1  0.001483  0.500441  0.000728  1
  Cr  Cr27  1  0.499234  0.500276  0.000746  1
  Cr  Cr28  1  0.000010  0.000398  0.499982  1
  Cr  Cr29  1  0.499235  0.498958  0.498496  1
  Cr  Cr30  1  0.499269  0.999531  0.498499  1
  Cr  Cr31  1  0.999961  0.499575  0.499984  1
  O  O32  1  0.316782  0.901577  0.026563  1
  O  O33  1  0.209789  0.124990  0.026569  1
  O  O34  1  0.707160  0.683749  0.084979  1
  O  O35  1  0.877820  0.401231  0.084981  1
  O  O36  1  0.621756  0.414811  0.099345  1
  O  O37  1  0.977591  0.684533  0.099348  1
  O  O38  1  0.597049  0.912762  0.122318  1
  O  O39  1  0.025270  0.209558  0.122318  1
  O  O40  1  0.473445  0.598424  0.183229  1
  O  O41  1  0.209788  0.584802  0.183222  1
  O  O42  1  0.582104  0.182977  0.207913  1
  O  O43  1  0.125806  0.024935  0.207912  1
  O  O44  1  0.473444  0.375021  0.290216  1
  O  O45  1  0.316776  0.915200  0.290215  1
  O  O46  1  0.914528  0.291986  0.315356  1
  O  O47  1  0.900824  0.023363  0.315349  1
  O  O48  1  0.582101  0.899124  0.374188  1
  O  O49  1  0.292091  0.475064  0.374187  1
  O  O50  1  0.085694  0.878152  0.400661  1
  O  O51  1  0.814965  0.522504  0.400656  1
  O  O52  1  0.099343  0.621842  0.414303  1
  O  O53  1  0.814965  0.792461  0.414308  1
  O  O54  1  0.597047  0.184284  0.474728  1
  O  O55  1  0.377684  0.290443  0.474722  1
  O  O56  1  0.400655  0.815465  0.522407  1
  O  O57  1  0.621758  0.706948  0.522413  1
  O  O58  1  0.900824  0.377462  0.585473  1
  O  O59  1  0.184648  0.208013  0.585467  1
  O  O60  1  0.914528  0.122545  0.599175  1
  O  O61  1  0.184647  0.476635  0.599179  1
  O  O62  1  0.415022  0.098768  0.622180  1
  O  O63  1  0.707160  0.523412  0.622181  1
  O  O64  1  0.085695  0.707544  0.685036  1
  O  O65  1  0.099345  0.977502  0.685039  1
  O  O66  1  0.684230  0.084948  0.706825  1
  O  O67  1  0.522591  0.621871  0.706823  1
  O  O68  1  0.415027  0.816256  0.792843  1
  O  O69  1  0.877824  0.976593  0.792844  1
  O  O70  1  0.522591  0.400721  0.815769  1
  O  O71  1  0.793171  0.415048  0.815769  1
  O  O72  1  0.400657  0.085189  0.878248  1
  O  O73  1  0.977591  0.793060  0.878247  1
  O  O74  1  0.377685  0.587244  0.902963  1
  O  O75  1  0.025272  0.315716  0.902957  1
  O  O76  1  0.292091  0.317028  0.917903  1
  O  O77  1  0.125806  0.600872  0.917896  1
  O  O78  1  0.684233  0.099283  0.977410  1
  O  O79  1  0.793171  0.878125  0.977402  1
