# generated using pymatgen
data_Pr4ErTm3(B6Os)4
_symmetry_space_group_name_H-M   'P 1'
_cell_length_a   3.69435900
_cell_length_b   9.21836701
_cell_length_c   11.66293002
_cell_angle_alpha   90.00635454
_cell_angle_beta   90.00000000
_cell_angle_gamma   90.00000000
_symmetry_Int_Tables_number   1
_chemical_formula_structural   Pr4ErTm3(B6Os)4
_chemical_formula_sum   'Pr4 Er1 Tm3 B24 Os4'
_cell_volume   397.19224242
_cell_formula_units_Z   1
loop_
 _symmetry_equiv_pos_site_id
 _symmetry_equiv_pos_as_xyz
  1  'x, y, z'
loop_
 _atom_site_type_symbol
 _atom_site_label
 _atom_site_symmetry_multiplicity
 _atom_site_fract_x
 _atom_site_fract_y
 _atom_site_fract_z
 _atom_site_occupancy
  Pr  Pr0  1  0.000000  0.322388  0.414543  1
  Pr  Pr1  1  0.000000  0.677610  0.585558  1
  Pr  Pr2  1  0.000000  0.822293  0.085418  1
  Pr  Pr3  1  0.000000  0.177694  0.914494  1
  Er  Er4  1  0.000000  0.944641  0.372517  1
  Tm  Tm5  1  0.000000  0.055466  0.627680  1
  Tm  Tm6  1  0.000000  0.444599  0.127453  1
  Tm  Tm7  1  0.000000  0.555393  0.872494  1
  B  B8  1  0.500000  0.556943  0.429431  1
  B  B9  1  0.500000  0.442953  0.570603  1
  B  B10  1  0.500000  0.057042  0.070518  1
  B  B11  1  0.500000  0.942974  0.929403  1
  B  B12  1  0.500000  0.750240  0.416598  1
  B  B13  1  0.500000  0.249454  0.583402  1
  B  B14  1  0.500000  0.250616  0.083367  1
  B  B15  1  0.500000  0.749431  0.916603  1
  B  B16  1  0.500000  0.790827  0.266785  1
  B  B17  1  0.500000  0.208899  0.733160  1
  B  B18  1  0.500000  0.291245  0.233115  1
  B  B19  1  0.500000  0.708871  0.766855  1
  B  B20  1  0.500000  0.630196  0.184993  1
  B  B21  1  0.500000  0.369748  0.814956  1
  B  B22  1  0.500000  0.130506  0.314817  1
  B  B23  1  0.500000  0.869728  0.685060  1
  B  B24  1  0.500000  0.985899  0.214560  1
  B  B25  1  0.500000  0.014273  0.785237  1
  B  B26  1  0.500000  0.485650  0.285198  1
  B  B27  1  0.500000  0.514286  0.714783  1
  B  B28  1  0.500000  0.601049  0.027439  1
  B  B29  1  0.500000  0.398934  0.972540  1
  B  B30  1  0.500000  0.101424  0.472776  1
  B  B31  1  0.500000  0.898837  0.527800  1
  Os  Os32  1  0.000000  0.639537  0.318645  1
  Os  Os33  1  0.000000  0.360152  0.681356  1
  Os  Os34  1  0.000000  0.140090  0.181138  1
  Os  Os35  1  0.000000  0.860112  0.818706  1
