# generated using pymatgen
data_TbCe4(Tl2Rh)2
_symmetry_space_group_name_H-M   'P 1'
_cell_length_a   3.73414500
_cell_length_b   8.13565800
_cell_length_c   18.29822000
_cell_angle_alpha   90.00000000
_cell_angle_beta   90.00000000
_cell_angle_gamma   90.00000000
_symmetry_Int_Tables_number   1
_chemical_formula_structural   TbCe4(Tl2Rh)2
_chemical_formula_sum   'Tb2 Ce8 Tl8 Rh4'
_cell_volume   555.89492164
_cell_formula_units_Z   2
loop_
 _symmetry_equiv_pos_site_id
 _symmetry_equiv_pos_as_xyz
  1  'x, y, z'
loop_
 _atom_site_type_symbol
 _atom_site_label
 _atom_site_symmetry_multiplicity
 _atom_site_fract_x
 _atom_site_fract_y
 _atom_site_fract_z
 _atom_site_occupancy
  Tb  Tb0  1  0.000000  0.500000  0.500000  1
  Tb  Tb1  1  0.000000  0.000000  0.000000  1
  Ce  Ce2  1  0.000000  0.748097  0.277855  1
  Ce  Ce3  1  0.000000  0.251903  0.722145  1
  Ce  Ce4  1  0.000000  0.751903  0.777855  1
  Ce  Ce5  1  0.000000  0.248097  0.222145  1
  Ce  Ce6  1  0.000000  0.617689  0.084530  1
  Ce  Ce7  1  0.000000  0.382311  0.915470  1
  Ce  Ce8  1  0.000000  0.882311  0.584530  1
  Ce  Ce9  1  0.000000  0.117689  0.415470  1
  Tl  Tl10  1  0.500000  0.711145  0.933364  1
  Tl  Tl11  1  0.500000  0.288855  0.066636  1
  Tl  Tl12  1  0.500000  0.788855  0.433364  1
  Tl  Tl13  1  0.500000  0.211145  0.566636  1
  Tl  Tl14  1  0.500000  0.568841  0.647939  1
  Tl  Tl15  1  0.500000  0.431159  0.352061  1
  Tl  Tl16  1  0.500000  0.931159  0.147939  1
  Tl  Tl17  1  0.500000  0.068841  0.852061  1
  Rh  Rh18  1  0.500000  0.521324  0.193155  1
  Rh  Rh19  1  0.500000  0.478676  0.806845  1
  Rh  Rh20  1  0.500000  0.978676  0.693155  1
  Rh  Rh21  1  0.500000  0.021324  0.306845  1
