# generated using pymatgen
data_Tb20(Ir3Os)3
_symmetry_space_group_name_H-M   'P 1'
_cell_length_a   10.92882700
_cell_length_b   10.92882700
_cell_length_c   6.43736600
_cell_angle_alpha   90.00000000
_cell_angle_beta   90.00000000
_cell_angle_gamma   90.00000000
_symmetry_Int_Tables_number   1
_chemical_formula_structural   Tb20(Ir3Os)3
_chemical_formula_sum   'Tb20 Ir9 Os3'
_cell_volume   768.87422879
_cell_formula_units_Z   1
loop_
 _symmetry_equiv_pos_site_id
 _symmetry_equiv_pos_as_xyz
  1  'x, y, z'
loop_
 _atom_site_type_symbol
 _atom_site_label
 _atom_site_symmetry_multiplicity
 _atom_site_fract_x
 _atom_site_fract_y
 _atom_site_fract_z
 _atom_site_occupancy
  Tb  Tb0  1  0.294029  0.086531  0.378341  1
  Tb  Tb1  1  0.294043  0.913747  0.878516  1
  Tb  Tb2  1  0.705957  0.086253  0.878516  1
  Tb  Tb3  1  0.705971  0.913469  0.378341  1
  Tb  Tb4  1  0.586253  0.794043  0.878516  1
  Tb  Tb5  1  0.586531  0.205971  0.378341  1
  Tb  Tb6  1  0.413469  0.794029  0.378341  1
  Tb  Tb7  1  0.413747  0.205957  0.878516  1
  Tb  Tb8  1  0.207822  0.412845  0.623304  1
  Tb  Tb9  1  0.207492  0.587272  0.119329  1
  Tb  Tb10  1  0.792508  0.412728  0.119329  1
  Tb  Tb11  1  0.792178  0.587155  0.623304  1
  Tb  Tb12  1  0.912728  0.707492  0.119329  1
  Tb  Tb13  1  0.912845  0.292178  0.623304  1
  Tb  Tb14  1  0.087155  0.707822  0.623304  1
  Tb  Tb15  1  0.087272  0.292508  0.119329  1
  Tb  Tb16  1  0.000000  0.000000  0.499450  1
  Tb  Tb17  1  0.000000  0.000000  0.999742  1
  Tb  Tb18  1  0.500000  0.500000  0.999742  1
  Tb  Tb19  1  0.500000  0.500000  0.499450  1
  Ir  Ir20  1  0.848299  0.153106  0.250325  1
  Ir  Ir21  1  0.848095  0.847049  0.749756  1
  Ir  Ir22  1  0.151905  0.152951  0.749756  1
  Ir  Ir23  1  0.151701  0.846894  0.250325  1
  Ir  Ir24  1  0.652951  0.348095  0.749756  1
  Ir  Ir25  1  0.653106  0.651701  0.250325  1
  Ir  Ir26  1  0.346894  0.348299  0.250325  1
  Ir  Ir27  1  0.347049  0.651905  0.749756  1
  Ir  Ir28  1  0.000000  0.500000  0.379058  1
  Os  Os29  1  0.500000  0.000000  0.123364  1
  Os  Os30  1  0.500000  0.000000  0.623210  1
  Os  Os31  1  0.000000  0.500000  0.877699  1
