# generated using pymatgen
data_Tb3Yb2Pa3(Pt2Pb)4
_symmetry_space_group_name_H-M   'P 1'
_cell_length_a   7.96045820
_cell_length_b   7.96938017
_cell_length_c   7.22165900
_cell_angle_alpha   90.00000000
_cell_angle_beta   90.00000000
_cell_angle_gamma   90.87259454
_symmetry_Int_Tables_number   1
_chemical_formula_structural   Tb3Yb2Pa3(Pt2Pb)4
_chemical_formula_sum   'Tb3 Yb2 Pa3 Pt8 Pb4'
_cell_volume   458.08832300
_cell_formula_units_Z   1
loop_
 _symmetry_equiv_pos_site_id
 _symmetry_equiv_pos_as_xyz
  1  'x, y, z'
loop_
 _atom_site_type_symbol
 _atom_site_label
 _atom_site_symmetry_multiplicity
 _atom_site_fract_x
 _atom_site_fract_y
 _atom_site_fract_z
 _atom_site_occupancy
  Tb  Tb0  1  0.340923  0.344520  0.500000  1
  Tb  Tb1  1  0.839837  0.159264  0.000000  1
  Tb  Tb2  1  0.158167  0.840545  0.000000  1
  Yb  Yb3  1  0.657126  0.660533  0.500000  1
  Yb  Yb4  1  0.176323  0.823803  0.500000  1
  Pa  Pa5  1  0.678455  0.676197  0.000000  1
  Pa  Pa6  1  0.826554  0.173200  0.500000  1
  Pa  Pa7  1  0.325180  0.322658  0.000000  1
  Pt  Pt8  1  0.864776  0.874724  0.737821  1
  Pt  Pt9  1  0.127337  0.135508  0.737565  1
  Pt  Pt10  1  0.633133  0.366424  0.767543  1
  Pt  Pt11  1  0.633133  0.366424  0.232457  1
  Pt  Pt12  1  0.379023  0.619836  0.216611  1
  Pt  Pt13  1  0.127337  0.135508  0.262435  1
  Pt  Pt14  1  0.864776  0.874724  0.262179  1
  Pt  Pt15  1  0.379023  0.619836  0.783389  1
  Pb  Pb16  1  0.494280  0.995478  0.744526  1
  Pb  Pb17  1  0.494280  0.995478  0.255474  1
  Pb  Pb18  1  0.000170  0.507668  0.744124  1
  Pb  Pb19  1  0.000170  0.507668  0.255876  1
