# generated using pymatgen
data_DyMgCo4Sn5
_symmetry_space_group_name_H-M   'P 1'
_cell_length_a   6.65577162
_cell_length_b   6.80469424
_cell_length_c   6.67667610
_cell_angle_alpha   121.15067112
_cell_angle_beta   120.41837167
_cell_angle_gamma   89.11444089
_symmetry_Int_Tables_number   1
_chemical_formula_structural   DyMgCo4Sn5
_chemical_formula_sum   'Dy1 Mg1 Co4 Sn5'
_cell_volume   210.35506617
_cell_formula_units_Z   1
loop_
 _symmetry_equiv_pos_site_id
 _symmetry_equiv_pos_as_xyz
  1  'x, y, z'
loop_
 _atom_site_type_symbol
 _atom_site_label
 _atom_site_symmetry_multiplicity
 _atom_site_fract_x
 _atom_site_fract_y
 _atom_site_fract_z
 _atom_site_occupancy
  Dy  Dy0  1  0.002002  0.997241  0.000000  1
  Mg  Mg1  1  0.474057  0.108767  0.000000  1
  Co  Co2  1  0.742677  0.411906  0.000000  1
  Co  Co3  1  0.397379  0.730263  0.000000  1
  Co  Co4  1  0.602187  0.607623  0.350715  1
  Co  Co5  1  0.251472  0.256908  0.649284  1
  Sn  Sn6  1  0.119971  0.455936  0.000000  1
  Sn  Sn7  1  0.882705  0.887733  0.350642  1
  Sn  Sn8  1  0.499767  0.005290  0.504049  1
  Sn  Sn9  1  0.995718  0.501239  0.495949  1
  Sn  Sn10  1  0.532062  0.537090  0.649357  1
