# generated using pymatgen
data_CsRbHg6Se7
_symmetry_space_group_name_H-M   'P 1'
_cell_length_a   14.93256079
_cell_length_b   14.93256079
_cell_length_c   4.39842500
_cell_angle_alpha   90.00000000
_cell_angle_beta   90.00000000
_cell_angle_gamma   89.49711750
_symmetry_Int_Tables_number   1
_chemical_formula_structural   CsRbHg6Se7
_chemical_formula_sum   'Cs2 Rb2 Hg12 Se14'
_cell_volume   980.72906373
_cell_formula_units_Z   2
loop_
 _symmetry_equiv_pos_site_id
 _symmetry_equiv_pos_as_xyz
  1  'x, y, z'
loop_
 _atom_site_type_symbol
 _atom_site_label
 _atom_site_symmetry_multiplicity
 _atom_site_fract_x
 _atom_site_fract_y
 _atom_site_fract_z
 _atom_site_occupancy
  Cs  Cs0  1  0.829901  0.170098  0.998695  1
  Cs  Cs1  1  0.170098  0.829901  0.998695  1
  Rb  Rb2  1  0.332491  0.332491  0.481816  1
  Rb  Rb3  1  0.667509  0.667509  0.481816  1
  Hg  Hg4  1  0.348633  0.075665  0.997988  1
  Hg  Hg5  1  0.075665  0.348633  0.997988  1
  Hg  Hg6  1  0.924336  0.651367  0.997988  1
  Hg  Hg7  1  0.651367  0.924336  0.997988  1
  Hg  Hg8  1  0.099655  0.099655  0.411796  1
  Hg  Hg9  1  0.900345  0.900345  0.411796  1
  Hg  Hg10  1  0.572330  0.155724  0.497893  1
  Hg  Hg11  1  0.844276  0.427670  0.497893  1
  Hg  Hg12  1  0.155724  0.572330  0.497893  1
  Hg  Hg13  1  0.427670  0.844276  0.497893  1
  Hg  Hg14  1  0.598792  0.401208  0.915894  1
  Hg  Hg15  1  0.401208  0.598792  0.915894  1
  Se  Se16  1  0.500000  0.500000  0.249179  1
  Se  Se17  1  0.680689  0.319311  0.492141  1
  Se  Se18  1  0.319311  0.680689  0.492141  1
  Se  Se19  1  0.690098  0.022869  0.497368  1
  Se  Se20  1  0.977132  0.309902  0.497368  1
  Se  Se21  1  0.022869  0.690098  0.497368  1
  Se  Se22  1  0.309902  0.977132  0.497368  1
  Se  Se23  1  0.000000  0.000000  0.734800  1
  Se  Se24  1  0.181396  0.181396  0.991001  1
  Se  Se25  1  0.818604  0.818604  0.991001  1
  Se  Se26  1  0.473969  0.199293  0.996543  1
  Se  Se27  1  0.199293  0.473969  0.996543  1
  Se  Se28  1  0.800707  0.526031  0.996543  1
  Se  Se29  1  0.526031  0.800707  0.996543  1
