# generated using pymatgen
data_Sc(MnH3)2
_symmetry_space_group_name_H-M   'P 1'
_cell_length_a   4.53022875
_cell_length_b   4.53931843
_cell_length_c   4.53084483
_cell_angle_alpha   59.90987525
_cell_angle_beta   59.87879970
_cell_angle_gamma   59.92879805
_symmetry_Int_Tables_number   1
_chemical_formula_structural   Sc(MnH3)2
_chemical_formula_sum   'Sc1 Mn2 H6'
_cell_volume   65.74246119
_cell_formula_units_Z   1
loop_
 _symmetry_equiv_pos_site_id
 _symmetry_equiv_pos_as_xyz
  1  'x, y, z'
loop_
 _atom_site_type_symbol
 _atom_site_label
 _atom_site_symmetry_multiplicity
 _atom_site_fract_x
 _atom_site_fract_y
 _atom_site_fract_z
 _atom_site_occupancy
  Sc  Sc0  1  0.643427  0.892812  0.907867  1
  Mn  Mn1  1  0.143460  0.393857  0.408037  1
  Mn  Mn2  1  0.893879  0.141957  0.158074  1
  H  H3  1  0.149651  0.935158  0.405508  1
  H  H4  1  0.619092  0.402348  0.403626  1
  H  H5  1  0.155541  0.872556  0.921926  1
  H  H6  1  0.631107  0.374088  0.915188  1
  H  H7  1  0.670021  0.860806  0.422884  1
  H  H8  1  0.132719  0.408068  0.878079  1
