# generated using pymatgen
data_Tb8Re(TcB8)3
_symmetry_space_group_name_H-M   'P 1'
_cell_length_a   3.70402700
_cell_length_b   9.19264217
_cell_length_c   11.57711322
_cell_angle_alpha   90.02211939
_cell_angle_beta   90.00000000
_cell_angle_gamma   90.00000000
_symmetry_Int_Tables_number   1
_chemical_formula_structural   Tb8Re(TcB8)3
_chemical_formula_sum   'Tb8 Re1 Tc3 B24'
_cell_volume   394.19830004
_cell_formula_units_Z   1
loop_
 _symmetry_equiv_pos_site_id
 _symmetry_equiv_pos_as_xyz
  1  'x, y, z'
loop_
 _atom_site_type_symbol
 _atom_site_label
 _atom_site_symmetry_multiplicity
 _atom_site_fract_x
 _atom_site_fract_y
 _atom_site_fract_z
 _atom_site_occupancy
  Tb  Tb0  1  0.000000  0.324522  0.414113  1
  Tb  Tb1  1  0.000000  0.675952  0.585912  1
  Tb  Tb2  1  0.000000  0.824253  0.085907  1
  Tb  Tb3  1  0.000000  0.175955  0.914323  1
  Tb  Tb4  1  0.000000  0.942571  0.368902  1
  Tb  Tb5  1  0.000000  0.057960  0.629977  1
  Tb  Tb6  1  0.000000  0.442479  0.131123  1
  Tb  Tb7  1  0.000000  0.556310  0.869577  1
  Re  Re8  1  0.000000  0.861489  0.820571  1
  Tc  Tc9  1  0.000000  0.638710  0.320475  1
  Tc  Tc10  1  0.000000  0.361411  0.679450  1
  Tc  Tc11  1  0.000000  0.138717  0.179556  1
  B  B12  1  0.500000  0.553707  0.432576  1
  B  B13  1  0.500000  0.446619  0.567516  1
  B  B14  1  0.500000  0.053630  0.067607  1
  B  B15  1  0.500000  0.946546  0.932673  1
  B  B16  1  0.500000  0.748282  0.417992  1
  B  B17  1  0.500000  0.252131  0.581883  1
  B  B18  1  0.500000  0.248091  0.082112  1
  B  B19  1  0.500000  0.751372  0.918116  1
  B  B20  1  0.500000  0.791220  0.265322  1
  B  B21  1  0.500000  0.208625  0.734495  1
  B  B22  1  0.500000  0.291203  0.234763  1
  B  B23  1  0.500000  0.708400  0.765465  1
  B  B24  1  0.500000  0.631009  0.186023  1
  B  B25  1  0.500000  0.368605  0.814000  1
  B  B26  1  0.500000  0.131150  0.314014  1
  B  B27  1  0.500000  0.869169  0.685840  1
  B  B28  1  0.500000  0.983227  0.211548  1
  B  B29  1  0.500000  0.017207  0.788149  1
  B  B30  1  0.500000  0.483170  0.288496  1
  B  B31  1  0.500000  0.516794  0.711763  1
  B  B32  1  0.500000  0.600301  0.028172  1
  B  B33  1  0.500000  0.398887  0.972160  1
  B  B34  1  0.500000  0.100777  0.471551  1
  B  B35  1  0.500000  0.899548  0.527879  1
