# generated using pymatgen
data_HfUCo2Sn
_symmetry_space_group_name_H-M   'P 1'
_cell_length_a   7.35299100
_cell_length_b   7.03623600
_cell_length_c   3.35914100
_cell_angle_alpha   90.00000000
_cell_angle_beta   90.00000000
_cell_angle_gamma   90.00000000
_symmetry_Int_Tables_number   1
_chemical_formula_structural   HfUCo2Sn
_chemical_formula_sum   'Hf2 U2 Co4 Sn2'
_cell_volume   173.79315433
_cell_formula_units_Z   2
loop_
 _symmetry_equiv_pos_site_id
 _symmetry_equiv_pos_as_xyz
  1  'x, y, z'
loop_
 _atom_site_type_symbol
 _atom_site_label
 _atom_site_symmetry_multiplicity
 _atom_site_fract_x
 _atom_site_fract_y
 _atom_site_fract_z
 _atom_site_occupancy
  Hf  Hf0  1  0.326131  0.832350  0.500000  1
  Hf  Hf1  1  0.826131  0.667650  0.500000  1
  U  U2  1  0.176773  0.336868  0.500000  1
  U  U3  1  0.676773  0.163132  0.500000  1
  Co  Co4  1  0.364395  0.153037  0.000000  1
  Co  Co5  1  0.864395  0.346963  0.000000  1
  Co  Co6  1  0.123891  0.599428  0.000000  1
  Co  Co7  1  0.623891  0.900572  0.000000  1
  Sn  Sn8  1  0.008811  0.979200  0.000000  1
  Sn  Sn9  1  0.508811  0.520800  0.000000  1
