# generated using pymatgen
data_KFe2I9
_symmetry_space_group_name_H-M   'P 1'
_cell_length_a   8.80557385
_cell_length_b   8.64293360
_cell_length_c   18.88373797
_cell_angle_alpha   86.60031434
_cell_angle_beta   79.48467710
_cell_angle_gamma   81.46029828
_symmetry_Int_Tables_number   1
_chemical_formula_structural   KFe2I9
_chemical_formula_sum   'K2 Fe4 I18'
_cell_volume   1396.59751140
_cell_formula_units_Z   2
loop_
 _symmetry_equiv_pos_site_id
 _symmetry_equiv_pos_as_xyz
  1  'x, y, z'
loop_
 _atom_site_type_symbol
 _atom_site_label
 _atom_site_symmetry_multiplicity
 _atom_site_fract_x
 _atom_site_fract_y
 _atom_site_fract_z
 _atom_site_occupancy
  K  K0  1  0.026962  0.194818  0.598209  1
  K  K1  1  0.973038  0.805182  0.401791  1
  Fe  Fe2  1  0.186327  0.707364  0.593654  1
  Fe  Fe3  1  0.813673  0.292636  0.406346  1
  Fe  Fe4  1  0.711655  0.310735  0.871896  1
  Fe  Fe5  1  0.288345  0.689265  0.128104  1
  I  I6  1  0.551918  0.851089  0.847181  1
  I  I7  1  0.448082  0.148911  0.152819  1
  I  I8  1  0.205381  0.464580  0.677224  1
  I  I9  1  0.794619  0.535420  0.322776  1
  I  I10  1  0.642417  0.542506  0.781929  1
  I  I11  1  0.357583  0.457494  0.218071  1
  I  I12  1  0.328503  0.906310  0.639927  1
  I  I13  1  0.671497  0.093690  0.360073  1
  I  I14  1  0.932413  0.131386  0.803573  1
  I  I15  1  0.067587  0.868614  0.196427  1
  I  I16  1  0.224918  0.601302  0.015304  1
  I  I17  1  0.775082  0.398698  0.984696  1
  I  I18  1  0.683521  0.354703  0.535946  1
  I  I19  1  0.316479  0.645297  0.464054  1
  I  I20  1  0.895029  0.816378  0.596245  1
  I  I21  1  0.104971  0.183622  0.403755  1
  I  I22  1  0.461791  0.165922  0.904748  1
  I  I23  1  0.538209  0.834078  0.095252  1
