# generated using pymatgen
data_DyHo19(Ir2Ru)4
_symmetry_space_group_name_H-M   'P 1'
_cell_length_a   10.78929434
_cell_length_b   10.79005534
_cell_length_c   6.41511700
_cell_angle_alpha   89.99974738
_cell_angle_beta   90.00111137
_cell_angle_gamma   90.02867531
_symmetry_Int_Tables_number   1
_chemical_formula_structural   DyHo19(Ir2Ru)4
_chemical_formula_sum   'Dy1 Ho19 Ir8 Ru4'
_cell_volume   746.82911439
_cell_formula_units_Z   1
loop_
 _symmetry_equiv_pos_site_id
 _symmetry_equiv_pos_as_xyz
  1  'x, y, z'
loop_
 _atom_site_type_symbol
 _atom_site_label
 _atom_site_symmetry_multiplicity
 _atom_site_fract_x
 _atom_site_fract_y
 _atom_site_fract_z
 _atom_site_occupancy
  Dy  Dy0  1  0.293427  0.086560  0.377382  1
  Ho  Ho1  1  0.293454  0.913357  0.877581  1
  Ho  Ho2  1  0.706588  0.086641  0.877377  1
  Ho  Ho3  1  0.706566  0.913516  0.377637  1
  Ho  Ho4  1  0.586503  0.793421  0.877542  1
  Ho  Ho5  1  0.586696  0.206665  0.377555  1
  Ho  Ho6  1  0.413487  0.793268  0.377485  1
  Ho  Ho7  1  0.413540  0.206599  0.877501  1
  Ho  Ho8  1  0.206566  0.413517  0.622483  1
  Ho  Ho9  1  0.206625  0.586576  0.122526  1
  Ho  Ho10  1  0.793379  0.413373  0.122505  1
  Ho  Ho11  1  0.793397  0.586530  0.622472  1
  Ho  Ho12  1  0.913384  0.706508  0.122479  1
  Ho  Ho13  1  0.913351  0.293343  0.622576  1
  Ho  Ho14  1  0.086620  0.706528  0.622485  1
  Ho  Ho15  1  0.086450  0.293470  0.122371  1
  Ho  Ho16  1  0.999941  0.999986  0.500007  1
  Ho  Ho17  1  0.999915  0.999989  0.999923  1
  Ho  Ho18  1  0.499945  0.499988  0.999913  1
  Ho  Ho19  1  0.500058  0.500067  0.499927  1
  Ir  Ir20  1  0.847665  0.152402  0.250021  1
  Ir  Ir21  1  0.847670  0.847615  0.750005  1
  Ir  Ir22  1  0.152165  0.152443  0.750306  1
  Ir  Ir23  1  0.152271  0.847472  0.249959  1
  Ir  Ir24  1  0.652434  0.347634  0.750000  1
  Ir  Ir25  1  0.652363  0.652398  0.250133  1
  Ir  Ir26  1  0.347642  0.347887  0.249862  1
  Ir  Ir27  1  0.347608  0.652356  0.750039  1
  Ru  Ru28  1  0.500014  0.999896  0.121707  1
  Ru  Ru29  1  0.500171  0.999919  0.622015  1
  Ru  Ru30  1  0.000020  0.499992  0.878106  1
  Ru  Ru31  1  0.000084  0.500087  0.378121  1
