# generated using pymatgen
data_Pr3U(Al3Ir)6
_symmetry_space_group_name_H-M   'P 1'
_cell_length_a   7.61828794
_cell_length_b   7.62147851
_cell_length_c   9.53262900
_cell_angle_alpha   90.00000000
_cell_angle_beta   90.00000000
_cell_angle_gamma   119.48424525
_symmetry_Int_Tables_number   1
_chemical_formula_structural   Pr3U(Al3Ir)6
_chemical_formula_sum   'Pr3 U1 Al18 Ir6'
_cell_volume   481.80757320
_cell_formula_units_Z   1
loop_
 _symmetry_equiv_pos_site_id
 _symmetry_equiv_pos_as_xyz
  1  'x, y, z'
loop_
 _atom_site_type_symbol
 _atom_site_label
 _atom_site_symmetry_multiplicity
 _atom_site_fract_x
 _atom_site_fract_y
 _atom_site_fract_z
 _atom_site_occupancy
  Pr  Pr0  1  0.995677  0.670167  0.750000  1
  Pr  Pr1  1  0.005387  0.329691  0.250000  1
  Pr  Pr2  1  0.669988  0.994748  0.750000  1
  U  U3  1  0.326618  0.999929  0.250000  1
  Al  Al4  1  0.129993  0.129841  0.750000  1
  Al  Al5  1  0.870890  0.867315  0.250000  1
  Al  Al6  1  0.002751  0.334705  0.572489  1
  Al  Al7  1  0.996754  0.664029  0.423527  1
  Al  Al8  1  0.996754  0.664029  0.076473  1
  Al  Al9  1  0.335385  0.003539  0.929467  1
  Al  Al10  1  0.002751  0.334705  0.927511  1
  Al  Al11  1  0.665162  0.998298  0.076323  1
  Al  Al12  1  0.665162  0.998298  0.423677  1
  Al  Al13  1  0.335385  0.003539  0.570533  1
  Al  Al14  1  0.335324  0.335436  0.052249  1
  Al  Al15  1  0.665586  0.665671  0.951759  1
  Al  Al16  1  0.665586  0.665671  0.548241  1
  Al  Al17  1  0.335324  0.335436  0.447751  1
  Al  Al18  1  0.339689  0.546377  0.750000  1
  Al  Al19  1  0.653100  0.449857  0.250000  1
  Al  Al20  1  0.546638  0.339290  0.750000  1
  Al  Al21  1  0.455855  0.664688  0.250000  1
  Ir  Ir22  1  0.669397  0.327323  0.496825  1
  Ir  Ir23  1  0.328867  0.673726  0.496076  1
  Ir  Ir24  1  0.328867  0.673726  0.003924  1
  Ir  Ir25  1  0.669397  0.327323  0.003175  1
  Ir  Ir26  1  0.003856  0.001321  0.495271  1
  Ir  Ir27  1  0.003856  0.001321  0.004729  1
