# generated using pymatgen
data_Tb12Ga2CuTc2Ni
_symmetry_space_group_name_H-M   'P 1'
_cell_length_a   8.43815327
_cell_length_b   8.43815398
_cell_length_c   8.43815343
_cell_angle_alpha   104.45416628
_cell_angle_beta   110.64625956
_cell_angle_gamma   113.44054002
_symmetry_Int_Tables_number   1
_chemical_formula_structural   Tb12Ga2CuTc2Ni
_chemical_formula_sum   'Tb12 Ga2 Cu1 Tc2 Ni1'
_cell_volume   459.57962184
_cell_formula_units_Z   1
loop_
 _symmetry_equiv_pos_site_id
 _symmetry_equiv_pos_as_xyz
  1  'x, y, z'
loop_
 _atom_site_type_symbol
 _atom_site_label
 _atom_site_symmetry_multiplicity
 _atom_site_fract_x
 _atom_site_fract_y
 _atom_site_fract_z
 _atom_site_occupancy
  Tb  Tb0  1  0.689996  0.257916  0.947912  1
  Tb  Tb1  1  0.309170  0.741972  0.051142  1
  Tb  Tb2  1  0.690830  0.741972  0.432802  1
  Tb  Tb3  1  0.310004  0.257916  0.567919  1
  Tb  Tb4  1  0.811900  0.148959  0.337059  1
  Tb  Tb5  1  0.814342  0.482715  0.668374  1
  Tb  Tb6  1  0.185658  0.854032  0.668374  1
  Tb  Tb7  1  0.188100  0.525160  0.337059  1
  Tb  Tb8  1  0.598036  0.776400  0.817618  1
  Tb  Tb9  1  0.958781  0.776400  0.178365  1
  Tb  Tb10  1  0.041219  0.219583  0.817618  1
  Tb  Tb11  1  0.401964  0.219583  0.178365  1
  Ga  Ga12  1  0.500000  0.500071  0.000071  1
  Ga  Ga13  1  0.500000  0.999813  0.499813  1
  Cu  Cu14  1  0.000000  0.117264  0.117264  1
  Tc  Tc15  1  0.821862  0.499116  0.320978  1
  Tc  Tc16  1  0.178138  0.499116  0.677254  1
  Ni  Ni17  1  0.000000  0.882011  0.882011  1
