# generated using pymatgen
data_Ho3GaSiNi
_symmetry_space_group_name_H-M   'P 1'
_cell_length_a   4.04660100
_cell_length_b   11.36417100
_cell_length_c   11.53248100
_cell_angle_alpha   90.00000000
_cell_angle_beta   90.00000000
_cell_angle_gamma   90.00000000
_symmetry_Int_Tables_number   1
_chemical_formula_structural   Ho3GaSiNi
_chemical_formula_sum   'Ho12 Ga4 Si4 Ni4'
_cell_volume   530.33573582
_cell_formula_units_Z   4
loop_
 _symmetry_equiv_pos_site_id
 _symmetry_equiv_pos_as_xyz
  1  'x, y, z'
loop_
 _atom_site_type_symbol
 _atom_site_label
 _atom_site_symmetry_multiplicity
 _atom_site_fract_x
 _atom_site_fract_y
 _atom_site_fract_z
 _atom_site_occupancy
  Ho  Ho0  1  0.250000  0.131779  0.551290  1
  Ho  Ho1  1  0.250000  0.368221  0.051290  1
  Ho  Ho2  1  0.750000  0.868221  0.448710  1
  Ho  Ho3  1  0.750000  0.631779  0.948710  1
  Ho  Ho4  1  0.250000  0.795552  0.724458  1
  Ho  Ho5  1  0.250000  0.704448  0.224458  1
  Ho  Ho6  1  0.750000  0.204448  0.275542  1
  Ho  Ho7  1  0.750000  0.295552  0.775542  1
  Ho  Ho8  1  0.250000  0.055012  0.884303  1
  Ho  Ho9  1  0.250000  0.444988  0.384303  1
  Ho  Ho10  1  0.750000  0.944988  0.115697  1
  Ho  Ho11  1  0.750000  0.555012  0.615697  1
  Ga  Ga12  1  0.250000  0.495309  0.806795  1
  Ga  Ga13  1  0.250000  0.004691  0.306795  1
  Ga  Ga14  1  0.750000  0.504691  0.193205  1
  Ga  Ga15  1  0.750000  0.995309  0.693205  1
  Si  Si16  1  0.250000  0.814262  0.980848  1
  Si  Si17  1  0.250000  0.685738  0.480848  1
  Si  Si18  1  0.750000  0.185738  0.019152  1
  Si  Si19  1  0.750000  0.314262  0.519152  1
  Ni  Ni20  1  0.250000  0.369508  0.624281  1
  Ni  Ni21  1  0.250000  0.130492  0.124281  1
  Ni  Ni22  1  0.750000  0.630492  0.375719  1
  Ni  Ni23  1  0.750000  0.869508  0.875719  1
