# generated using pymatgen
data_Li3Tb2Ni16(P4W)3
_symmetry_space_group_name_H-M   'P 1'
_cell_length_a   12.08646000
_cell_length_b   12.08645865
_cell_length_c   3.71309300
_cell_angle_alpha   90.00000000
_cell_angle_beta   90.00000000
_cell_angle_gamma   119.99999274
_symmetry_Int_Tables_number   1
_chemical_formula_structural   Li3Tb2Ni16(P4W)3
_chemical_formula_sum   'Li3 Tb2 Ni16 P12 W3'
_cell_volume   469.74771921
_cell_formula_units_Z   1
loop_
 _symmetry_equiv_pos_site_id
 _symmetry_equiv_pos_as_xyz
  1  'x, y, z'
loop_
 _atom_site_type_symbol
 _atom_site_label
 _atom_site_symmetry_multiplicity
 _atom_site_fract_x
 _atom_site_fract_y
 _atom_site_fract_z
 _atom_site_occupancy
  Li  Li0  1  0.183665  0.183665  0.500000  1
  Li  Li1  1  0.816335  0.000000  0.500000  1
  Li  Li2  1  0.000000  0.816335  0.500000  1
  Tb  Tb3  1  0.666667  0.333333  0.000000  1
  Tb  Tb4  1  0.333333  0.666667  0.000000  1
  Ni  Ni5  1  0.821087  0.191847  0.000000  1
  Ni  Ni6  1  0.808153  0.629240  0.000000  1
  Ni  Ni7  1  0.370760  0.178913  0.000000  1
  Ni  Ni8  1  0.191847  0.821087  0.000000  1
  Ni  Ni9  1  0.629240  0.808153  0.000000  1
  Ni  Ni10  1  0.178913  0.370760  0.000000  1
  Ni  Ni11  1  0.644268  0.125022  0.500000  1
  Ni  Ni12  1  0.874978  0.519246  0.500000  1
  Ni  Ni13  1  0.480754  0.355732  0.500000  1
  Ni  Ni14  1  0.125022  0.644268  0.500000  1
  Ni  Ni15  1  0.519246  0.874978  0.500000  1
  Ni  Ni16  1  0.355732  0.480754  0.500000  1
  Ni  Ni17  1  0.725617  0.725617  0.500000  1
  Ni  Ni18  1  0.274383  0.000000  0.500000  1
  Ni  Ni19  1  0.000000  0.274383  0.500000  1
  Ni  Ni20  1  0.000000  0.000000  0.000000  1
  P  P21  1  0.356032  0.356032  0.000000  1
  P  P22  1  0.643968  0.000000  0.000000  1
  P  P23  1  0.000000  0.643968  0.000000  1
  P  P24  1  0.837146  0.314960  0.500000  1
  P  P25  1  0.685040  0.522186  0.500000  1
  P  P26  1  0.477814  0.162854  0.500000  1
  P  P27  1  0.314960  0.837146  0.500000  1
  P  P28  1  0.522186  0.685040  0.500000  1
  P  P29  1  0.162854  0.477814  0.500000  1
  P  P30  1  0.826526  0.826526  0.000000  1
  P  P31  1  0.173474  0.000000  0.000000  1
  P  P32  1  0.000000  0.173474  0.000000  1
  W  W33  1  0.554560  0.554560  0.000000  1
  W  W34  1  0.445440  0.000000  0.000000  1
  W  W35  1  0.000000  0.445440  0.000000  1
