# generated using pymatgen
data_Pr4ErP12Pd3Ru16
_symmetry_space_group_name_H-M   'P 1'
_cell_length_a   12.69994200
_cell_length_b   12.69994252
_cell_length_c   4.01772400
_cell_angle_alpha   90.00000000
_cell_angle_beta   90.00000000
_cell_angle_gamma   119.99999864
_symmetry_Int_Tables_number   1
_chemical_formula_structural   Pr4ErP12Pd3Ru16
_chemical_formula_sum   'Pr4 Er1 P12 Pd3 Ru16'
_cell_volume   561.19556453
_cell_formula_units_Z   1
loop_
 _symmetry_equiv_pos_site_id
 _symmetry_equiv_pos_as_xyz
  1  'x, y, z'
loop_
 _atom_site_type_symbol
 _atom_site_label
 _atom_site_symmetry_multiplicity
 _atom_site_fract_x
 _atom_site_fract_y
 _atom_site_fract_z
 _atom_site_occupancy
  Pr  Pr0  1  0.181974  0.181930  0.500000  1
  Pr  Pr1  1  0.818070  0.000044  0.500000  1
  Pr  Pr2  1  0.999956  0.818026  0.500000  1
  Pr  Pr3  1  0.333333  0.666667  0.000000  1
  Er  Er4  1  0.666667  0.333333  0.000000  1
  P  P5  1  0.811136  0.809572  0.000000  1
  P  P6  1  0.190428  0.001564  0.000000  1
  P  P7  1  0.998436  0.188864  0.000000  1
  P  P8  1  0.177802  0.477229  0.500000  1
  P  P9  1  0.522771  0.700571  0.500000  1
  P  P10  1  0.299429  0.822198  0.500000  1
  P  P11  1  0.700069  0.517880  0.500000  1
  P  P12  1  0.817810  0.299931  0.500000  1
  P  P13  1  0.482120  0.182190  0.500000  1
  P  P14  1  0.368839  0.369281  0.000000  1
  P  P15  1  0.630719  0.999558  0.000000  1
  P  P16  1  0.000442  0.631161  0.000000  1
  Pd  Pd17  1  0.553368  0.553490  0.000000  1
  Pd  Pd18  1  0.446510  0.999878  0.000000  1
  Pd  Pd19  1  0.000122  0.446632  0.000000  1
  Ru  Ru20  1  0.710449  0.708515  0.500000  1
  Ru  Ru21  1  0.291485  0.001934  0.500000  1
  Ru  Ru22  1  0.998066  0.289551  0.500000  1
  Ru  Ru23  1  0.184746  0.379439  0.000000  1
  Ru  Ru24  1  0.620561  0.805307  0.000000  1
  Ru  Ru25  1  0.194693  0.815254  0.000000  1
  Ru  Ru26  1  0.804198  0.616519  0.000000  1
  Ru  Ru27  1  0.812320  0.195802  0.000000  1
  Ru  Ru28  1  0.383481  0.187680  0.000000  1
  Ru  Ru29  1  0.368995  0.490530  0.500000  1
  Ru  Ru30  1  0.509470  0.878466  0.500000  1
  Ru  Ru31  1  0.121534  0.631005  0.500000  1
  Ru  Ru32  1  0.874744  0.504201  0.500000  1
  Ru  Ru33  1  0.629458  0.125256  0.500000  1
  Ru  Ru34  1  0.495799  0.370542  0.500000  1
  Ru  Ru35  1  0.000000  0.000000  0.000000  1
