# generated using pymatgen
data_Pa2(PdRu)3
_symmetry_space_group_name_H-M   'P 1'
_cell_length_a   4.08335500
_cell_length_b   4.23860900
_cell_length_c   7.91857400
_cell_angle_alpha   90.00000000
_cell_angle_beta   90.00000000
_cell_angle_gamma   90.00000000
_symmetry_Int_Tables_number   1
_chemical_formula_structural   Pa2(PdRu)3
_chemical_formula_sum   'Pa2 Pd3 Ru3'
_cell_volume   137.05266156
_cell_formula_units_Z   1
loop_
 _symmetry_equiv_pos_site_id
 _symmetry_equiv_pos_as_xyz
  1  'x, y, z'
loop_
 _atom_site_type_symbol
 _atom_site_label
 _atom_site_symmetry_multiplicity
 _atom_site_fract_x
 _atom_site_fract_y
 _atom_site_fract_z
 _atom_site_occupancy
  Pa  Pa0  1  0.000000  0.000000  0.244884  1
  Pa  Pa1  1  0.000000  0.000000  0.755116  1
  Pd  Pd2  1  0.500000  0.500000  0.248286  1
  Pd  Pd3  1  0.500000  0.500000  0.751714  1
  Pd  Pd4  1  0.000000  0.500000  0.500000  1
  Ru  Ru5  1  0.000000  0.500000  0.000000  1
  Ru  Ru6  1  0.500000  0.000000  0.500000  1
  Ru  Ru7  1  0.500000  0.000000  0.000000  1
