# generated using pymatgen
data_DyY11(InSi2)2
_symmetry_space_group_name_H-M   'P 1'
_cell_length_a   8.55569002
_cell_length_b   8.55479875
_cell_length_c   8.55569010
_cell_angle_alpha   112.31678722
_cell_angle_beta   110.98100410
_cell_angle_gamma   105.20546711
_symmetry_Int_Tables_number   1
_chemical_formula_structural   DyY11(InSi2)2
_chemical_formula_sum   'Dy1 Y11 In2 Si4'
_cell_volume   479.97587216
_cell_formula_units_Z   1
loop_
 _symmetry_equiv_pos_site_id
 _symmetry_equiv_pos_as_xyz
  1  'x, y, z'
loop_
 _atom_site_type_symbol
 _atom_site_label
 _atom_site_symmetry_multiplicity
 _atom_site_fract_x
 _atom_site_fract_y
 _atom_site_fract_z
 _atom_site_occupancy
  Dy  Dy0  1  0.679562  0.977770  0.298209  1
  Y  Y1  1  0.443038  0.238853  0.203883  1
  Y  Y2  1  0.557719  0.761393  0.796802  1
  Y  Y3  1  0.034969  0.238853  0.795814  1
  Y  Y4  1  0.964591  0.761393  0.203674  1
  Y  Y5  1  0.184416  0.277490  0.461928  1
  Y  Y6  1  0.815709  0.722712  0.538054  1
  Y  Y7  1  0.184659  0.722712  0.907003  1
  Y  Y8  1  0.815562  0.277490  0.093073  1
  Y  Y9  1  0.320104  0.618204  0.298100  1
  Y  Y10  1  0.679752  0.381708  0.701956  1
  Y  Y11  1  0.320204  0.021899  0.701693  1
  In  In12  1  0.499788  0.500049  0.000261  1
  In  In13  1  0.000274  0.000274  0.000000  1
  Si  Si14  1  0.368663  0.999799  0.368537  1
  Si  Si15  1  0.631262  0.999799  0.631136  1
  Si  Si16  1  0.115527  0.615490  0.499963  1
  Si  Si17  1  0.884200  0.384113  0.499913  1
