# generated using pymatgen
data_TmLu4CoRu
_symmetry_space_group_name_H-M   'P 1'
_cell_length_a   6.15907012
_cell_length_b   7.05587613
_cell_length_c   8.28909707
_cell_angle_alpha   96.79449413
_cell_angle_beta   112.34517262
_cell_angle_gamma   89.61732477
_symmetry_Int_Tables_number   1
_chemical_formula_structural   TmLu4CoRu
_chemical_formula_sum   'Tm2 Lu8 Co2 Ru2'
_cell_volume   330.54765933
_cell_formula_units_Z   2
loop_
 _symmetry_equiv_pos_site_id
 _symmetry_equiv_pos_as_xyz
  1  'x, y, z'
loop_
 _atom_site_type_symbol
 _atom_site_label
 _atom_site_symmetry_multiplicity
 _atom_site_fract_x
 _atom_site_fract_y
 _atom_site_fract_z
 _atom_site_occupancy
  Tm  Tm0  1  0.525797  0.088679  0.815383  1
  Tm  Tm1  1  0.474203  0.911321  0.184617  1
  Lu  Lu2  1  0.699922  0.417652  0.188538  1
  Lu  Lu3  1  0.300078  0.582348  0.811462  1
  Lu  Lu4  1  0.289157  0.320576  0.433063  1
  Lu  Lu5  1  0.710843  0.679424  0.566937  1
  Lu  Lu6  1  0.856548  0.186589  0.564399  1
  Lu  Lu7  1  0.143452  0.813411  0.435601  1
  Lu  Lu8  1  0.078593  0.259092  0.000329  1
  Lu  Lu9  1  0.921407  0.740908  0.999671  1
  Co  Co10  1  0.326270  0.577201  0.226646  1
  Co  Co11  1  0.673730  0.422799  0.773354  1
  Ru  Ru12  1  0.104208  0.924833  0.783879  1
  Ru  Ru13  1  0.895792  0.075167  0.216121  1
