# generated using pymatgen
data_Pr2Co17Si8Os
_symmetry_space_group_name_H-M   'P 1'
_cell_length_a   7.95808348
_cell_length_b   8.01238033
_cell_length_c   7.98351411
_cell_angle_alpha   121.87824593
_cell_angle_beta   121.66116499
_cell_angle_gamma   86.97426918
_symmetry_Int_Tables_number   1
_chemical_formula_structural   Pr2Co17Si8Os
_chemical_formula_sum   'Pr2 Co17 Si8 Os1'
_cell_volume   349.75292629
_cell_formula_units_Z   1
loop_
 _symmetry_equiv_pos_site_id
 _symmetry_equiv_pos_as_xyz
  1  'x, y, z'
loop_
 _atom_site_type_symbol
 _atom_site_label
 _atom_site_symmetry_multiplicity
 _atom_site_fract_x
 _atom_site_fract_y
 _atom_site_fract_z
 _atom_site_occupancy
  Pr  Pr0  1  0.749931  0.751175  0.001368  1
  Pr  Pr1  1  0.248563  0.249807  0.998632  1
  Co  Co2  1  0.447710  0.949701  0.758089  1
  Co  Co3  1  0.189621  0.691612  0.241911  1
  Co  Co4  1  0.548195  0.043624  0.237171  1
  Co  Co5  1  0.947896  0.191433  0.500000  1
  Co  Co6  1  0.198674  0.929156  0.129468  1
  Co  Co7  1  0.800437  0.069573  0.870355  1
  Co  Co8  1  0.430083  0.699219  0.129645  1
  Co  Co9  1  0.569206  0.299688  0.870532  1
  Co  Co10  1  0.701114  0.572833  0.264401  1
  Co  Co11  1  0.300282  0.430352  0.732054  1
  Co  Co12  1  0.936713  0.808433  0.735599  1
  Co  Co13  1  0.311367  0.549909  0.500000  1
  Co  Co14  1  0.811024  0.306453  0.762829  1
  Co  Co15  1  0.002784  0.502382  0.500000  1
  Co  Co16  1  0.500075  0.000373  0.500000  1
  Co  Co17  1  0.068227  0.198297  0.267946  1
  Co  Co18  1  0.051989  0.810684  0.500000  1
  Si  Si19  1  0.290331  0.789543  0.835138  1
  Si  Si20  1  0.053452  0.546762  0.842536  1
  Si  Si21  1  0.541536  0.716645  0.500000  1
  Si  Si22  1  0.790656  0.953172  0.500000  1
  Si  Si23  1  0.444354  0.284609  0.500000  1
  Si  Si24  1  0.955193  0.454406  0.164862  1
  Si  Si25  1  0.710915  0.204226  0.157464  1
  Si  Si26  1  0.209591  0.046651  0.500000  1
  Os  Os27  1  0.690081  0.449284  0.500000  1
