# generated using pymatgen
data_Cs2Hf7BBr18
_symmetry_space_group_name_H-M   'P 1'
_cell_length_a   11.06235734
_cell_length_b   11.06235835
_cell_length_c   11.06235804
_cell_angle_alpha   55.65855065
_cell_angle_beta   55.65854427
_cell_angle_gamma   55.65855288
_symmetry_Int_Tables_number   1
_chemical_formula_structural   Cs2Hf7BBr18
_chemical_formula_sum   'Cs2 Hf7 B1 Br18'
_cell_volume   860.83031341
_cell_formula_units_Z   1
loop_
 _symmetry_equiv_pos_site_id
 _symmetry_equiv_pos_as_xyz
  1  'x, y, z'
loop_
 _atom_site_type_symbol
 _atom_site_label
 _atom_site_symmetry_multiplicity
 _atom_site_fract_x
 _atom_site_fract_y
 _atom_site_fract_z
 _atom_site_occupancy
  Cs  Cs0  1  0.775304  0.775304  0.775304  1
  Cs  Cs1  1  0.224696  0.224696  0.224696  1
  Hf  Hf2  1  0.152574  0.904756  0.802994  1
  Hf  Hf3  1  0.847426  0.095244  0.197006  1
  Hf  Hf4  1  0.095244  0.197006  0.847426  1
  Hf  Hf5  1  0.197006  0.847426  0.095244  1
  Hf  Hf6  1  0.904756  0.802994  0.152574  1
  Hf  Hf7  1  0.802994  0.152574  0.904756  1
  Hf  Hf8  1  0.500000  0.500000  0.500000  1
  B  B9  1  0.000000  0.000000  0.000000  1
  Br  Br10  1  0.224587  0.469183  0.642693  1
  Br  Br11  1  0.775413  0.530817  0.357307  1
  Br  Br12  1  0.343159  0.053170  0.933476  1
  Br  Br13  1  0.656841  0.946830  0.066524  1
  Br  Br14  1  0.933476  0.343159  0.053170  1
  Br  Br15  1  0.712893  0.878369  0.410457  1
  Br  Br16  1  0.357307  0.775413  0.530817  1
  Br  Br17  1  0.589543  0.287107  0.121631  1
  Br  Br18  1  0.287107  0.121631  0.589543  1
  Br  Br19  1  0.121631  0.589543  0.287107  1
  Br  Br20  1  0.946830  0.066524  0.656841  1
  Br  Br21  1  0.410457  0.712893  0.878369  1
  Br  Br22  1  0.878369  0.410457  0.712893  1
  Br  Br23  1  0.066524  0.656841  0.946830  1
  Br  Br24  1  0.469183  0.642693  0.224587  1
  Br  Br25  1  0.642693  0.224587  0.469183  1
  Br  Br26  1  0.530817  0.357307  0.775413  1
  Br  Br27  1  0.053170  0.933476  0.343159  1
