# generated using pymatgen
data_Yb10As7Au
_symmetry_space_group_name_H-M   'P 1'
_cell_length_a   7.64973104
_cell_length_b   7.84386534
_cell_length_c   14.99392300
_cell_angle_alpha   90.00000000
_cell_angle_beta   90.00000000
_cell_angle_gamma   86.26774355
_symmetry_Int_Tables_number   1
_chemical_formula_structural   Yb10As7Au
_chemical_formula_sum   'Yb20 As14 Au2'
_cell_volume   897.77914077
_cell_formula_units_Z   2
loop_
 _symmetry_equiv_pos_site_id
 _symmetry_equiv_pos_as_xyz
  1  'x, y, z'
loop_
 _atom_site_type_symbol
 _atom_site_label
 _atom_site_symmetry_multiplicity
 _atom_site_fract_x
 _atom_site_fract_y
 _atom_site_fract_z
 _atom_site_occupancy
  Yb  Yb0  1  0.027891  0.198118  0.414217  1
  Yb  Yb1  1  0.871446  0.645989  0.385321  1
  Yb  Yb2  1  0.535692  0.325387  0.101651  1
  Yb  Yb3  1  0.128554  0.354011  0.614679  1
  Yb  Yb4  1  0.383923  0.850320  0.390183  1
  Yb  Yb5  1  0.128554  0.354011  0.885321  1
  Yb  Yb6  1  0.383923  0.850320  0.109817  1
  Yb  Yb7  1  0.212863  0.497513  0.250000  1
  Yb  Yb8  1  0.535692  0.325387  0.398349  1
  Yb  Yb9  1  0.787137  0.502487  0.750000  1
  Yb  Yb10  1  0.972109  0.801882  0.914217  1
  Yb  Yb11  1  0.972109  0.801882  0.585783  1
  Yb  Yb12  1  0.464308  0.674613  0.601651  1
  Yb  Yb13  1  0.616077  0.149680  0.609817  1
  Yb  Yb14  1  0.290198  0.005253  0.750000  1
  Yb  Yb15  1  0.616077  0.149680  0.890183  1
  Yb  Yb16  1  0.709802  0.994747  0.250000  1
  Yb  Yb17  1  0.871446  0.645989  0.114679  1
  Yb  Yb18  1  0.464308  0.674613  0.898349  1
  Yb  Yb19  1  0.027891  0.198118  0.085783  1
  As  As20  1  0.829681  0.365997  0.250000  1
  As  As21  1  0.413644  0.394490  0.750000  1
  As  As22  1  0.677822  0.868848  0.750000  1
  As  As23  1  0.775008  0.458062  0.546460  1
  As  As24  1  0.733369  0.975061  0.054190  1
  As  As25  1  0.775008  0.458062  0.953540  1
  As  As26  1  0.224992  0.541938  0.453540  1
  As  As27  1  0.224992  0.541938  0.046460  1
  As  As28  1  0.170319  0.634003  0.750000  1
  As  As29  1  0.322178  0.131152  0.250000  1
  As  As30  1  0.586356  0.605510  0.250000  1
  As  As31  1  0.266631  0.024939  0.945810  1
  As  As32  1  0.733369  0.975061  0.445810  1
  As  As33  1  0.266631  0.024939  0.554190  1
  Au  Au34  1  0.079072  0.866902  0.250000  1
  Au  Au35  1  0.920928  0.133098  0.750000  1
