# generated using pymatgen
data_Ce2TcAsPRhO2
_symmetry_space_group_name_H-M   'P 1'
_cell_length_a   3.98999400
_cell_length_b   3.98999400
_cell_length_c   8.32730100
_cell_angle_alpha   90.00000000
_cell_angle_beta   90.00000000
_cell_angle_gamma   90.00000000
_symmetry_Int_Tables_number   1
_chemical_formula_structural   Ce2TcAsPRhO2
_chemical_formula_sum   'Ce2 Tc1 As1 P1 Rh1 O2'
_cell_volume   132.57106594
_cell_formula_units_Z   1
loop_
 _symmetry_equiv_pos_site_id
 _symmetry_equiv_pos_as_xyz
  1  'x, y, z'
loop_
 _atom_site_type_symbol
 _atom_site_label
 _atom_site_symmetry_multiplicity
 _atom_site_fract_x
 _atom_site_fract_y
 _atom_site_fract_z
 _atom_site_occupancy
  Ce  Ce0  1  0.250001  0.250001  0.143045  1
  Ce  Ce1  1  0.750001  0.750001  0.847891  1
  Tc  Tc2  1  0.750001  0.250003  0.508113  1
  As  As3  1  0.750001  0.750001  0.337528  1
  P  P4  1  0.250001  0.250001  0.654907  1
  Rh  Rh5  1  0.250003  0.750001  0.512374  1
  O  O6  1  0.750001  0.250003  0.998363  1
  O  O7  1  0.250003  0.750001  0.997777  1
