# generated using pymatgen
data_PrTm(WN3)2
_symmetry_space_group_name_H-M   'P 1'
_cell_length_a   7.26845928
_cell_length_b   7.26859823
_cell_length_c   6.17164553
_cell_angle_alpha   76.34980173
_cell_angle_beta   76.34705634
_cell_angle_gamma   83.44459691
_symmetry_Int_Tables_number   1
_chemical_formula_structural   PrTm(WN3)2
_chemical_formula_sum   'Pr2 Tm2 W4 N12'
_cell_volume   307.30407325
_cell_formula_units_Z   2
loop_
 _symmetry_equiv_pos_site_id
 _symmetry_equiv_pos_as_xyz
  1  'x, y, z'
loop_
 _atom_site_type_symbol
 _atom_site_label
 _atom_site_symmetry_multiplicity
 _atom_site_fract_x
 _atom_site_fract_y
 _atom_site_fract_z
 _atom_site_occupancy
  Pr  Pr0  1  0.693585  0.306438  0.250003  1
  Pr  Pr1  1  0.306415  0.693562  0.749997  1
  Tm  Tm2  1  0.913429  0.086565  0.749999  1
  Tm  Tm3  1  0.086571  0.913435  0.250001  1
  W  W4  1  0.619527  0.803218  0.239383  1
  W  W5  1  0.196780  0.380480  0.260629  1
  W  W6  1  0.380473  0.196782  0.760617  1
  W  W7  1  0.803220  0.619520  0.739371  1
  N  N8  1  0.626846  0.658031  0.010906  1
  N  N9  1  0.380485  0.896429  0.332281  1
  N  N10  1  0.341974  0.373158  0.489102  1
  N  N11  1  0.103560  0.619518  0.167724  1
  N  N12  1  0.004301  0.211459  0.358985  1
  N  N13  1  0.788545  0.995708  0.141020  1
  N  N14  1  0.211455  0.004292  0.858980  1
  N  N15  1  0.619515  0.103571  0.667719  1
  N  N16  1  0.373154  0.341969  0.989094  1
  N  N17  1  0.896440  0.380482  0.832276  1
  N  N18  1  0.658026  0.626842  0.510898  1
  N  N19  1  0.995699  0.788541  0.641015  1
