# generated using pymatgen
data_TcTeCl
_symmetry_space_group_name_H-M   'P 1'
_cell_length_a   10.14012985
_cell_length_b   10.14012941
_cell_length_c   11.48657600
_cell_angle_alpha   90.00000000
_cell_angle_beta   90.00000000
_cell_angle_gamma   106.40729008
_symmetry_Int_Tables_number   1
_chemical_formula_structural   TcTeCl
_chemical_formula_sum   'Tc12 Te12 Cl12'
_cell_volume   1132.97964708
_cell_formula_units_Z   12
loop_
 _symmetry_equiv_pos_site_id
 _symmetry_equiv_pos_as_xyz
  1  'x, y, z'
loop_
 _atom_site_type_symbol
 _atom_site_label
 _atom_site_symmetry_multiplicity
 _atom_site_fract_x
 _atom_site_fract_y
 _atom_site_fract_z
 _atom_site_occupancy
  Tc  Tc0  1  0.359336  0.640664  0.250000  1
  Tc  Tc1  1  0.321715  0.833802  0.108114  1
  Tc  Tc2  1  0.378101  0.890387  0.332079  1
  Tc  Tc3  1  0.640664  0.359336  0.750000  1
  Tc  Tc4  1  0.621899  0.109613  0.832079  1
  Tc  Tc5  1  0.678285  0.166198  0.608114  1
  Tc  Tc6  1  0.833802  0.321715  0.891886  1
  Tc  Tc7  1  0.890387  0.378101  0.667921  1
  Tc  Tc8  1  0.873323  0.126677  0.750000  1
  Tc  Tc9  1  0.109613  0.621899  0.167921  1
  Tc  Tc10  1  0.166198  0.678285  0.391886  1
  Tc  Tc11  1  0.126677  0.873323  0.250000  1
  Te  Te12  1  0.301594  0.582251  0.022000  1
  Te  Te13  1  0.417749  0.698406  0.478000  1
  Te  Te14  1  0.339787  0.087582  0.189072  1
  Te  Te15  1  0.582251  0.301594  0.978000  1
  Te  Te16  1  0.698406  0.417749  0.522000  1
  Te  Te17  1  0.660213  0.912418  0.689072  1
  Te  Te18  1  0.912418  0.660213  0.310928  1
  Te  Te19  1  0.813504  0.073101  0.977010  1
  Te  Te20  1  0.926899  0.186496  0.522990  1
  Te  Te21  1  0.087582  0.339787  0.810928  1
  Te  Te22  1  0.073101  0.813504  0.022990  1
  Te  Te23  1  0.186496  0.926899  0.477010  1
  Cl  Cl24  1  0.493416  0.506584  0.750000  1
  Cl  Cl25  1  0.450712  0.161925  0.694505  1
  Cl  Cl26  1  0.428273  0.921002  0.914606  1
  Cl  Cl27  1  0.506584  0.493416  0.250000  1
  Cl  Cl28  1  0.571727  0.078998  0.414606  1
  Cl  Cl29  1  0.549288  0.838075  0.194505  1
  Cl  Cl30  1  0.838075  0.549288  0.805495  1
  Cl  Cl31  1  0.921002  0.428273  0.085394  1
  Cl  Cl32  1  0.976367  0.023632  0.250000  1
  Cl  Cl33  1  0.078998  0.571727  0.585394  1
  Cl  Cl34  1  0.023632  0.976367  0.750000  1
  Cl  Cl35  1  0.161925  0.450712  0.305495  1
