# generated using pymatgen
data_TbY6Cd(Co3Sn11)2
_symmetry_space_group_name_H-M   'P 1'
_cell_length_a   9.68715600
_cell_length_b   9.68715720
_cell_length_c   10.01647600
_cell_angle_alpha   90.00000000
_cell_angle_beta   90.00000000
_cell_angle_gamma   120.00000272
_symmetry_Int_Tables_number   1
_chemical_formula_structural   TbY6Cd(Co3Sn11)2
_chemical_formula_sum   'Tb1 Y6 Cd1 Co6 Sn22'
_cell_volume   814.02588617
_cell_formula_units_Z   1
loop_
 _symmetry_equiv_pos_site_id
 _symmetry_equiv_pos_as_xyz
  1  'x, y, z'
loop_
 _atom_site_type_symbol
 _atom_site_label
 _atom_site_symmetry_multiplicity
 _atom_site_fract_x
 _atom_site_fract_y
 _atom_site_fract_z
 _atom_site_occupancy
  Tb  Tb0  1  0.000000  0.000000  0.000000  1
  Y  Y1  1  0.043769  0.521885  0.306155  1
  Y  Y2  1  0.478115  0.956231  0.306155  1
  Y  Y3  1  0.478115  0.521885  0.306155  1
  Y  Y4  1  0.956231  0.478115  0.693845  1
  Y  Y5  1  0.521885  0.043769  0.693845  1
  Y  Y6  1  0.521885  0.478115  0.693845  1
  Cd  Cd7  1  0.000000  0.000000  0.500000  1
  Co  Co8  1  0.167507  0.832493  0.803427  1
  Co  Co9  1  0.664986  0.832493  0.803427  1
  Co  Co10  1  0.167507  0.335014  0.803427  1
  Co  Co11  1  0.832493  0.167507  0.196573  1
  Co  Co12  1  0.335014  0.167507  0.196573  1
  Co  Co13  1  0.832493  0.664986  0.196573  1
  Sn  Sn14  1  0.116229  0.883771  0.271661  1
  Sn  Sn15  1  0.767542  0.883771  0.271661  1
  Sn  Sn16  1  0.116229  0.232458  0.271661  1
  Sn  Sn17  1  0.883771  0.116229  0.728339  1
  Sn  Sn18  1  0.232458  0.116229  0.728339  1
  Sn  Sn19  1  0.883771  0.767542  0.728339  1
  Sn  Sn20  1  0.345861  0.000000  0.000000  1
  Sn  Sn21  1  0.654139  0.654139  0.000000  1
  Sn  Sn22  1  0.000000  0.345861  0.000000  1
  Sn  Sn23  1  0.345861  0.345861  0.000000  1
  Sn  Sn24  1  0.000000  0.654139  0.000000  1
  Sn  Sn25  1  0.654139  0.000000  0.000000  1
  Sn  Sn26  1  0.782067  0.564135  0.451983  1
  Sn  Sn27  1  0.782067  0.217933  0.451983  1
  Sn  Sn28  1  0.435865  0.217933  0.451983  1
  Sn  Sn29  1  0.217933  0.435865  0.548017  1
  Sn  Sn30  1  0.217933  0.782067  0.548017  1
  Sn  Sn31  1  0.564135  0.782067  0.548017  1
  Sn  Sn32  1  0.666667  0.333333  0.181833  1
  Sn  Sn33  1  0.333333  0.666667  0.818167  1
  Sn  Sn34  1  0.666667  0.333333  0.883719  1
  Sn  Sn35  1  0.333333  0.666667  0.116281  1
