# generated using pymatgen
data_Ac3HoAu5
_symmetry_space_group_name_H-M   'P 1'
_cell_length_a   8.52990303
_cell_length_b   8.52990280
_cell_length_c   8.52990311
_cell_angle_alpha   65.88592603
_cell_angle_beta   65.88592990
_cell_angle_gamma   65.88590469
_symmetry_Int_Tables_number   1
_chemical_formula_structural   Ac3HoAu5
_chemical_formula_sum   'Ac6 Ho2 Au10'
_cell_volume   494.80874187
_cell_formula_units_Z   2
loop_
 _symmetry_equiv_pos_site_id
 _symmetry_equiv_pos_as_xyz
  1  'x, y, z'
loop_
 _atom_site_type_symbol
 _atom_site_label
 _atom_site_symmetry_multiplicity
 _atom_site_fract_x
 _atom_site_fract_y
 _atom_site_fract_z
 _atom_site_occupancy
  Ac  Ac0  1  0.891588  0.186801  0.622919  1
  Ac  Ac1  1  0.622919  0.891588  0.186801  1
  Ac  Ac2  1  0.186801  0.622919  0.891588  1
  Ac  Ac3  1  0.108412  0.813199  0.377081  1
  Ac  Ac4  1  0.377081  0.108412  0.813199  1
  Ac  Ac5  1  0.813199  0.377081  0.108412  1
  Ho  Ho6  1  0.657764  0.657764  0.657764  1
  Ho  Ho7  1  0.342236  0.342236  0.342236  1
  Au  Au8  1  0.000000  0.000000  0.000000  1
  Au  Au9  1  0.500000  0.500000  0.500000  1
  Au  Au10  1  0.803044  0.803044  0.803044  1
  Au  Au11  1  0.196956  0.196956  0.196956  1
  Au  Au12  1  0.940745  0.547008  0.323464  1
  Au  Au13  1  0.323464  0.940745  0.547008  1
  Au  Au14  1  0.547008  0.323464  0.940745  1
  Au  Au15  1  0.059255  0.452992  0.676536  1
  Au  Au16  1  0.676536  0.059255  0.452992  1
  Au  Au17  1  0.452992  0.676536  0.059255  1
