# generated using pymatgen
data_Y7NiSn23Os5
_symmetry_space_group_name_H-M   'P 1'
_cell_length_a   9.85779556
_cell_length_b   9.85779632
_cell_length_c   10.13550189
_cell_angle_alpha   89.70442806
_cell_angle_beta   90.29557329
_cell_angle_gamma   119.95694824
_symmetry_Int_Tables_number   1
_chemical_formula_structural   Y7NiSn23Os5
_chemical_formula_sum   'Y7 Ni1 Sn23 Os5'
_cell_volume   853.32814730
_cell_formula_units_Z   1
loop_
 _symmetry_equiv_pos_site_id
 _symmetry_equiv_pos_as_xyz
  1  'x, y, z'
loop_
 _atom_site_type_symbol
 _atom_site_label
 _atom_site_symmetry_multiplicity
 _atom_site_fract_x
 _atom_site_fract_y
 _atom_site_fract_z
 _atom_site_occupancy
  Y  Y0  1  0.993256  0.006744  0.008057  1
  Y  Y1  1  0.032939  0.515832  0.303054  1
  Y  Y2  1  0.484168  0.967061  0.303054  1
  Y  Y3  1  0.482952  0.517048  0.302982  1
  Y  Y4  1  0.963752  0.479067  0.693959  1
  Y  Y5  1  0.520933  0.036248  0.693959  1
  Y  Y6  1  0.518268  0.481732  0.696009  1
  Ni  Ni7  1  0.170943  0.829057  0.801253  1
  Sn  Sn8  1  0.000478  0.999522  0.502841  1
  Sn  Sn9  1  0.117249  0.882751  0.277163  1
  Sn  Sn10  1  0.765460  0.882254  0.277759  1
  Sn  Sn11  1  0.117746  0.234540  0.277759  1
  Sn  Sn12  1  0.882228  0.117772  0.723568  1
  Sn  Sn13  1  0.233599  0.112209  0.726067  1
  Sn  Sn14  1  0.887791  0.766401  0.726067  1
  Sn  Sn15  1  0.346680  0.999735  0.996499  1
  Sn  Sn16  1  0.649523  0.650384  0.000303  1
  Sn  Sn17  1  0.001211  0.352459  0.999619  1
  Sn  Sn18  1  0.349616  0.350477  0.000303  1
  Sn  Sn19  1  0.000265  0.653320  0.996499  1
  Sn  Sn20  1  0.647541  0.998789  0.999619  1
  Sn  Sn21  1  0.779697  0.559522  0.458892  1
  Sn  Sn22  1  0.779704  0.220296  0.458421  1
  Sn  Sn23  1  0.440478  0.220303  0.458892  1
  Sn  Sn24  1  0.220681  0.439788  0.540299  1
  Sn  Sn25  1  0.220469  0.779531  0.545088  1
  Sn  Sn26  1  0.560212  0.779319  0.540299  1
  Sn  Sn27  1  0.666521  0.333479  0.175796  1
  Sn  Sn28  1  0.334414  0.665586  0.820180  1
  Sn  Sn29  1  0.666784  0.333216  0.874934  1
  Sn  Sn30  1  0.332781  0.667219  0.123377  1
  Os  Os31  1  0.661601  0.830844  0.799028  1
  Os  Os32  1  0.169156  0.338399  0.799028  1
  Os  Os33  1  0.831300  0.168700  0.199051  1
  Os  Os34  1  0.337993  0.168391  0.200161  1
  Os  Os35  1  0.831609  0.662007  0.200161  1
