# generated using pymatgen
data_Zr2Pa6(SnSb)5
_symmetry_space_group_name_H-M   'P 1'
_cell_length_a   9.24883800
_cell_length_b   9.25788923
_cell_length_c   6.19212800
_cell_angle_alpha   90.00000000
_cell_angle_beta   90.00000000
_cell_angle_gamma   119.96765680
_symmetry_Int_Tables_number   1
_chemical_formula_structural   Zr2Pa6(SnSb)5
_chemical_formula_sum   'Zr2 Pa6 Sn5 Sb5'
_cell_volume   459.31556108
_cell_formula_units_Z   1
loop_
 _symmetry_equiv_pos_site_id
 _symmetry_equiv_pos_as_xyz
  1  'x, y, z'
loop_
 _atom_site_type_symbol
 _atom_site_label
 _atom_site_symmetry_multiplicity
 _atom_site_fract_x
 _atom_site_fract_y
 _atom_site_fract_z
 _atom_site_occupancy
  Zr  Zr0  1  0.000136  0.000000  0.000767  1
  Zr  Zr1  1  0.000136  0.000000  0.499233  1
  Pa  Pa2  1  0.621567  0.000000  0.250000  1
  Pa  Pa3  1  0.381933  0.000000  0.750000  1
  Pa  Pa4  1  0.996464  0.614750  0.250000  1
  Pa  Pa5  1  0.000536  0.382581  0.750000  1
  Pa  Pa6  1  0.381714  0.385250  0.250000  1
  Pa  Pa7  1  0.617955  0.617419  0.750000  1
  Sn  Sn8  1  0.278502  0.000000  0.250000  1
  Sn  Sn9  1  0.333028  0.668811  0.000118  1
  Sn  Sn10  1  0.664218  0.331189  0.000118  1
  Sn  Sn11  1  0.664218  0.331189  0.499882  1
  Sn  Sn12  1  0.333028  0.668811  0.499882  1
  Sb  Sb13  1  0.724431  0.000000  0.750000  1
  Sb  Sb14  1  0.000857  0.276139  0.250000  1
  Sb  Sb15  1  0.000724  0.724890  0.750000  1
  Sb  Sb16  1  0.724718  0.723861  0.250000  1
  Sb  Sb17  1  0.275834  0.275110  0.750000  1
