# generated using pymatgen
data_Ba9NaSi5Sb
_symmetry_space_group_name_H-M   'P 1'
_cell_length_a   10.25089542
_cell_length_b   10.25067854
_cell_length_c   10.24892300
_cell_angle_alpha   130.87385229
_cell_angle_beta   130.87572300
_cell_angle_gamma   72.02423229
_symmetry_Int_Tables_number   1
_chemical_formula_structural   Ba9NaSi5Sb
_chemical_formula_sum   'Ba9 Na1 Si5 Sb1'
_cell_volume   602.11163208
_cell_formula_units_Z   1
loop_
 _symmetry_equiv_pos_site_id
 _symmetry_equiv_pos_as_xyz
  1  'x, y, z'
loop_
 _atom_site_type_symbol
 _atom_site_label
 _atom_site_symmetry_multiplicity
 _atom_site_fract_x
 _atom_site_fract_y
 _atom_site_fract_z
 _atom_site_occupancy
  Ba  Ba0  1  0.545026  0.050317  0.870359  1
  Ba  Ba1  1  0.179965  0.674666  0.129651  1
  Ba  Ba2  1  0.050393  0.179960  0.505329  1
  Ba  Ba3  1  0.674642  0.545068  0.494685  1
  Ba  Ba4  1  0.468614  0.935205  0.129863  1
  Ba  Ba5  1  0.805333  0.338748  0.870120  1
  Ba  Ba6  1  0.935092  0.805313  0.466498  1
  Ba  Ba7  1  0.338803  0.468592  0.533490  1
  Ba  Ba8  1  0.007240  0.007238  0.000001  1
  Na  Na9  1  0.493496  0.493495  0.000003  1
  Si  Si10  1  0.762011  0.762013  0.999999  1
  Si  Si11  1  0.905364  0.395365  0.300047  1
  Si  Si12  1  0.095311  0.605312  0.699950  1
  Si  Si13  1  0.395412  0.095300  0.490022  1
  Si  Si14  1  0.605278  0.905389  0.509977  1
  Sb  Sb15  1  0.238021  0.238018  0.000005  1
