# generated using pymatgen
data_Er4Mn3Os5
_symmetry_space_group_name_H-M   'P 1'
_cell_length_a   5.31168141
_cell_length_b   5.31168230
_cell_length_c   8.59631000
_cell_angle_alpha   90.00000000
_cell_angle_beta   90.00000000
_cell_angle_gamma   120.14764879
_symmetry_Int_Tables_number   1
_chemical_formula_structural   Er4Mn3Os5
_chemical_formula_sum   'Er4 Mn3 Os5'
_cell_volume   209.72912203
_cell_formula_units_Z   1
loop_
 _symmetry_equiv_pos_site_id
 _symmetry_equiv_pos_as_xyz
  1  'x, y, z'
loop_
 _atom_site_type_symbol
 _atom_site_label
 _atom_site_symmetry_multiplicity
 _atom_site_fract_x
 _atom_site_fract_y
 _atom_site_fract_z
 _atom_site_occupancy
  Er  Er0  1  0.332903  0.667097  0.435160  1
  Er  Er1  1  0.666328  0.333672  0.565465  1
  Er  Er2  1  0.666328  0.333672  0.934535  1
  Er  Er3  1  0.332903  0.667097  0.064840  1
  Mn  Mn4  1  0.003674  0.996326  0.501457  1
  Mn  Mn5  1  0.003674  0.996326  0.998543  1
  Mn  Mn6  1  0.834358  0.165642  0.250000  1
  Os  Os7  1  0.825374  0.661230  0.250000  1
  Os  Os8  1  0.338770  0.174626  0.250000  1
  Os  Os9  1  0.167762  0.832238  0.750000  1
  Os  Os10  1  0.168674  0.340749  0.750000  1
  Os  Os11  1  0.659251  0.831326  0.750000  1
