# generated using pymatgen
data_Ce3Tm(B4Ru)4
_symmetry_space_group_name_H-M   'P 1'
_cell_length_a   3.61153400
_cell_length_b   5.99293114
_cell_length_c   11.62433442
_cell_angle_alpha   90.12266194
_cell_angle_beta   90.00000000
_cell_angle_gamma   90.00000000
_symmetry_Int_Tables_number   1
_chemical_formula_structural   Ce3Tm(B4Ru)4
_chemical_formula_sum   'Ce3 Tm1 B16 Ru4'
_cell_volume   251.59273469
_cell_formula_units_Z   1
loop_
 _symmetry_equiv_pos_site_id
 _symmetry_equiv_pos_as_xyz
  1  'x, y, z'
loop_
 _atom_site_type_symbol
 _atom_site_label
 _atom_site_symmetry_multiplicity
 _atom_site_fract_x
 _atom_site_fract_y
 _atom_site_fract_z
 _atom_site_occupancy
  Ce  Ce0  1  0.500000  0.129149  0.149760  1
  Ce  Ce1  1  0.500000  0.870852  0.849054  1
  Ce  Ce2  1  0.500000  0.628860  0.351609  1
  Tm  Tm3  1  0.500000  0.371362  0.649099  1
  B  B4  1  0.000000  0.475870  0.190828  1
  B  B5  1  0.000000  0.523091  0.807146  1
  B  B6  1  0.000000  0.974656  0.310379  1
  B  B7  1  0.000000  0.026473  0.690621  1
  B  B8  1  0.000000  0.287269  0.315585  1
  B  B9  1  0.000000  0.710484  0.685169  1
  B  B10  1  0.000000  0.786132  0.186177  1
  B  B11  1  0.000000  0.214085  0.812728  1
  B  B12  1  0.000000  0.363937  0.470161  1
  B  B13  1  0.000000  0.636228  0.532398  1
  B  B14  1  0.000000  0.862296  0.030776  1
  B  B15  1  0.000000  0.137299  0.968177  1
  B  B16  1  0.000000  0.388426  0.045486  1
  B  B17  1  0.000000  0.610544  0.952673  1
  B  B18  1  0.000000  0.889060  0.455521  1
  B  B19  1  0.000000  0.114008  0.547609  1
  Ru  Ru20  1  0.500000  0.140112  0.407099  1
  Ru  Ru21  1  0.500000  0.859277  0.593147  1
  Ru  Ru22  1  0.500000  0.640407  0.093380  1
  Ru  Ru23  1  0.500000  0.360125  0.905417  1
