# generated using pymatgen
data_Sc5Fe18CuP12
_symmetry_space_group_name_H-M   'P 1'
_cell_length_a   11.76745700
_cell_length_b   11.76745701
_cell_length_c   3.63243000
_cell_angle_alpha   90.00000000
_cell_angle_beta   90.00000000
_cell_angle_gamma   119.99999716
_symmetry_Int_Tables_number   1
_chemical_formula_structural   Sc5Fe18CuP12
_chemical_formula_sum   'Sc5 Fe18 Cu1 P12'
_cell_volume   435.60528311
_cell_formula_units_Z   1
loop_
 _symmetry_equiv_pos_site_id
 _symmetry_equiv_pos_as_xyz
  1  'x, y, z'
loop_
 _atom_site_type_symbol
 _atom_site_label
 _atom_site_symmetry_multiplicity
 _atom_site_fract_x
 _atom_site_fract_y
 _atom_site_fract_z
 _atom_site_occupancy
  Sc  Sc0  1  0.666667  0.333333  0.000000  1
  Sc  Sc1  1  0.333333  0.666667  0.000000  1
  Sc  Sc2  1  0.189682  0.189682  0.500000  1
  Sc  Sc3  1  0.810318  0.000000  0.500000  1
  Sc  Sc4  1  0.000000  0.810318  0.500000  1
  Fe  Fe5  1  0.818929  0.196582  0.000000  1
  Fe  Fe6  1  0.803418  0.622345  0.000000  1
  Fe  Fe7  1  0.377655  0.181071  0.000000  1
  Fe  Fe8  1  0.196582  0.818929  0.000000  1
  Fe  Fe9  1  0.622345  0.803418  0.000000  1
  Fe  Fe10  1  0.181071  0.377655  0.000000  1
  Fe  Fe11  1  0.556270  0.556270  0.000000  1
  Fe  Fe12  1  0.443730  0.000000  0.000000  1
  Fe  Fe13  1  0.000000  0.443730  0.000000  1
  Fe  Fe14  1  0.641053  0.123497  0.500000  1
  Fe  Fe15  1  0.876503  0.517556  0.500000  1
  Fe  Fe16  1  0.482444  0.358947  0.500000  1
  Fe  Fe17  1  0.123497  0.641053  0.500000  1
  Fe  Fe18  1  0.517556  0.876503  0.500000  1
  Fe  Fe19  1  0.358947  0.482444  0.500000  1
  Fe  Fe20  1  0.715853  0.715853  0.500000  1
  Fe  Fe21  1  0.284147  0.000000  0.500000  1
  Fe  Fe22  1  0.000000  0.284147  0.500000  1
  Cu  Cu23  1  0.000000  0.000000  0.000000  1
  P  P24  1  0.367851  0.367851  0.000000  1
  P  P25  1  0.632149  0.000000  0.000000  1
  P  P26  1  0.000000  0.632149  0.000000  1
  P  P27  1  0.832461  0.314664  0.500000  1
  P  P28  1  0.685336  0.517797  0.500000  1
  P  P29  1  0.482203  0.167539  0.500000  1
  P  P30  1  0.314664  0.832461  0.500000  1
  P  P31  1  0.517797  0.685336  0.500000  1
  P  P32  1  0.167539  0.482203  0.500000  1
  P  P33  1  0.815234  0.815234  0.000000  1
  P  P34  1  0.184766  0.000000  0.000000  1
  P  P35  1  0.000000  0.184766  0.000000  1
