# generated using pymatgen
data_KVSn5O12
_symmetry_space_group_name_H-M   'P 1'
_cell_length_a   8.93925532
_cell_length_b   8.85748743
_cell_length_c   8.91761000
_cell_angle_alpha   107.48270642
_cell_angle_beta   107.83855409
_cell_angle_gamma   113.31561088
_symmetry_Int_Tables_number   1
_chemical_formula_structural   KVSn5O12
_chemical_formula_sum   'K2 V2 Sn10 O24'
_cell_volume   540.70301047
_cell_formula_units_Z   2
loop_
 _symmetry_equiv_pos_site_id
 _symmetry_equiv_pos_as_xyz
  1  'x, y, z'
loop_
 _atom_site_type_symbol
 _atom_site_label
 _atom_site_symmetry_multiplicity
 _atom_site_fract_x
 _atom_site_fract_y
 _atom_site_fract_z
 _atom_site_occupancy
  K  K0  1  0.271997  0.277448  0.997484  1
  K  K1  1  0.728829  0.729071  0.008166  1
  V  V2  1  0.851169  0.337572  0.184687  1
  V  V3  1  0.000549  0.813214  0.481727  1
  Sn  Sn4  1  0.673106  0.848136  0.517968  1
  Sn  Sn5  1  0.486253  0.002331  0.817859  1
  Sn  Sn6  1  0.819337  0.331956  0.820153  1
  Sn  Sn7  1  0.517750  0.003343  0.182672  1
  Sn  Sn8  1  0.670856  0.482951  0.483215  1
  Sn  Sn9  1  0.331507  0.147021  0.485323  1
  Sn  Sn10  1  0.328377  0.514033  0.511942  1
  Sn  Sn11  1  0.997966  0.179904  0.509372  1
  Sn  Sn12  1  0.146334  0.669072  0.815784  1
  Sn  Sn13  1  0.177187  0.668544  0.188046  1
  O  O14  1  0.663098  0.040195  0.702947  1
  O  O15  1  0.318929  0.967244  0.949500  1
  O  O16  1  0.660610  0.297076  0.953209  1
  O  O17  1  0.708093  0.998568  0.375104  1
  O  O18  1  0.624490  0.329197  0.621821  1
  O  O19  1  0.289732  0.994668  0.620775  1
  O  O20  1  0.677803  0.036680  0.050387  1
  O  O21  1  0.340545  0.958848  0.295929  1
  O  O22  1  0.670943  0.290645  0.291339  1
  O  O23  1  0.297943  0.348785  0.644965  1
  O  O24  1  0.965415  0.011788  0.636450  1
  O  O25  1  0.627502  0.676694  0.645109  1
  O  O26  1  0.038211  0.983968  0.356979  1
  O  O27  1  0.703877  0.651663  0.357688  1
  O  O28  1  0.370552  0.318486  0.356370  1
  O  O29  1  0.996208  0.374965  0.705436  1
  O  O30  1  0.331890  0.709122  0.710073  1
  O  O31  1  0.982667  0.631713  0.948910  1
  O  O32  1  0.378153  0.670275  0.379404  1
  O  O33  1  0.038948  0.337504  0.375626  1
  O  O34  1  0.957525  0.666349  0.619771  1
  O  O35  1  0.015755  0.373398  0.053211  1
  O  O36  1  0.340602  0.702540  0.049168  1
  O  O37  1  0.999292  0.625034  0.295436  1
