# generated using pymatgen
data_Dy17Ho3Ir7Rh5
_symmetry_space_group_name_H-M   'P 1'
_cell_length_a   10.87231915
_cell_length_b   10.87225308
_cell_length_c   6.38193800
_cell_angle_alpha   89.98908964
_cell_angle_beta   89.99184740
_cell_angle_gamma   89.94131815
_symmetry_Int_Tables_number   1
_chemical_formula_structural   Dy17Ho3Ir7Rh5
_chemical_formula_sum   'Dy17 Ho3 Ir7 Rh5'
_cell_volume   754.38680925
_cell_formula_units_Z   1
loop_
 _symmetry_equiv_pos_site_id
 _symmetry_equiv_pos_as_xyz
  1  'x, y, z'
loop_
 _atom_site_type_symbol
 _atom_site_label
 _atom_site_symmetry_multiplicity
 _atom_site_fract_x
 _atom_site_fract_y
 _atom_site_fract_z
 _atom_site_occupancy
  Dy  Dy0  1  0.290213  0.088695  0.379464  1
  Dy  Dy1  1  0.290393  0.911223  0.878941  1
  Dy  Dy2  1  0.709013  0.088321  0.878237  1
  Dy  Dy3  1  0.709014  0.909667  0.379551  1
  Dy  Dy4  1  0.588747  0.790201  0.879393  1
  Dy  Dy5  1  0.587316  0.209915  0.379165  1
  Dy  Dy6  1  0.410970  0.790299  0.379256  1
  Dy  Dy7  1  0.411110  0.209601  0.879058  1
  Dy  Dy8  1  0.209800  0.411275  0.620591  1
  Dy  Dy9  1  0.209696  0.589055  0.120757  1
  Dy  Dy10  1  0.790094  0.412665  0.120837  1
  Dy  Dy11  1  0.790399  0.588870  0.620937  1
  Dy  Dy12  1  0.911308  0.709853  0.120488  1
  Dy  Dy13  1  0.911671  0.291047  0.621817  1
  Dy  Dy14  1  0.088788  0.709553  0.621115  1
  Dy  Dy15  1  0.090326  0.290929  0.120394  1
  Dy  Dy16  1  0.000002  0.999778  0.499864  1
  Ho  Ho17  1  0.000251  0.999971  0.000126  1
  Ho  Ho18  1  0.499915  0.499790  0.999845  1
  Ho  Ho19  1  0.500211  0.500078  0.500145  1
  Ir  Ir20  1  0.846079  0.846787  0.750185  1
  Ir  Ir21  1  0.153201  0.153931  0.750201  1
  Ir  Ir22  1  0.153930  0.846072  0.249797  1
  Ir  Ir23  1  0.654404  0.345597  0.749995  1
  Ir  Ir24  1  0.653948  0.653515  0.249770  1
  Ir  Ir25  1  0.346483  0.346048  0.250243  1
  Ir  Ir26  1  0.346225  0.653766  0.749989  1
  Rh  Rh27  1  0.845966  0.154031  0.249837  1
  Rh  Rh28  1  0.500600  0.000257  0.122802  1
  Rh  Rh29  1  0.500410  0.000237  0.622210  1
  Rh  Rh30  1  0.999766  0.499581  0.877788  1
  Rh  Rh31  1  0.999747  0.499394  0.377201  1
