# generated using pymatgen
data_Dy16MgTl(Co2Ag)2
_symmetry_space_group_name_H-M   'P 1'
_cell_length_a   9.49515628
_cell_length_b   9.49091765
_cell_length_c   9.49091655
_cell_angle_alpha   59.96718190
_cell_angle_beta   59.86232124
_cell_angle_gamma   59.86232415
_symmetry_Int_Tables_number   1
_chemical_formula_structural   Dy16MgTl(Co2Ag)2
_chemical_formula_sum   'Dy16 Mg1 Tl1 Co4 Ag2'
_cell_volume   603.37761563
_cell_formula_units_Z   1
loop_
 _symmetry_equiv_pos_site_id
 _symmetry_equiv_pos_as_xyz
  1  'x, y, z'
loop_
 _atom_site_type_symbol
 _atom_site_label
 _atom_site_symmetry_multiplicity
 _atom_site_fract_x
 _atom_site_fract_y
 _atom_site_fract_z
 _atom_site_occupancy
  Dy  Dy0  1  0.808752  0.188833  0.188833  1
  Dy  Dy1  1  0.187180  0.811127  0.811127  1
  Dy  Dy2  1  0.185027  0.812346  0.186688  1
  Dy  Dy3  1  0.809012  0.188656  0.810189  1
  Dy  Dy4  1  0.185027  0.186688  0.812346  1
  Dy  Dy5  1  0.809012  0.810189  0.188656  1
  Dy  Dy6  1  0.939219  0.563610  0.563610  1
  Dy  Dy7  1  0.560883  0.939681  0.939681  1
  Dy  Dy8  1  0.561936  0.943731  0.563494  1
  Dy  Dy9  1  0.937950  0.561937  0.941023  1
  Dy  Dy10  1  0.561936  0.563494  0.943731  1
  Dy  Dy11  1  0.937950  0.941023  0.561937  1
  Dy  Dy12  1  0.343572  0.344204  0.344204  1
  Dy  Dy13  1  0.346302  0.346989  0.963423  1
  Dy  Dy14  1  0.346302  0.963423  0.346989  1
  Dy  Dy15  1  0.955683  0.349362  0.349362  1
  Mg  Mg16  1  0.283503  0.568177  0.568177  1
  Tl  Tl17  1  0.583846  0.581358  0.581358  1
  Co  Co18  1  0.137613  0.142625  0.142625  1
  Co  Co19  1  0.139179  0.141791  0.578430  1
  Co  Co20  1  0.139179  0.578430  0.141791  1
  Co  Co21  1  0.576762  0.141572  0.141572  1
  Ag  Ag22  1  0.582085  0.582010  0.248743  1
  Ag  Ag23  1  0.582085  0.248743  0.582010  1
