# generated using pymatgen
data_Re2TcI9
_symmetry_space_group_name_H-M   'P 1'
_cell_length_a   11.38192600
_cell_length_b   9.51493112
_cell_length_c   10.07977378
_cell_angle_alpha   69.39297450
_cell_angle_beta   90.00000000
_cell_angle_gamma   90.00000000
_symmetry_Int_Tables_number   1
_chemical_formula_structural   Re2TcI9
_chemical_formula_sum   'Re4 Tc2 I18'
_cell_volume   1021.77587321
_cell_formula_units_Z   2
loop_
 _symmetry_equiv_pos_site_id
 _symmetry_equiv_pos_as_xyz
  1  'x, y, z'
loop_
 _atom_site_type_symbol
 _atom_site_label
 _atom_site_symmetry_multiplicity
 _atom_site_fract_x
 _atom_site_fract_y
 _atom_site_fract_z
 _atom_site_occupancy
  Re  Re0  1  0.750419  0.164184  0.653860  1
  Re  Re1  1  0.139435  0.839537  0.135784  1
  Re  Re2  1  0.639435  0.160463  0.864216  1
  Re  Re3  1  0.250419  0.835816  0.346140  1
  Tc  Tc4  1  0.861082  0.161002  0.864982  1
  Tc  Tc5  1  0.361082  0.838998  0.135018  1
  I  I6  1  0.410307  0.551629  0.190931  1
  I  I7  1  0.410714  0.143782  0.014618  1
  I  I8  1  0.249068  0.098209  0.377469  1
  I  I9  1  0.993000  0.164424  0.633368  1
  I  I10  1  0.249328  0.565535  0.530032  1
  I  I11  1  0.590101  0.857420  0.982524  1
  I  I12  1  0.748898  0.147129  0.111393  1
  I  I13  1  0.006778  0.835791  0.367456  1
  I  I14  1  0.248898  0.852871  0.888607  1
  I  I15  1  0.749328  0.434465  0.469968  1
  I  I16  1  0.493000  0.835576  0.366632  1
  I  I17  1  0.590869  0.447618  0.806541  1
  I  I18  1  0.090869  0.552382  0.193459  1
  I  I19  1  0.090101  0.142580  0.017476  1
  I  I20  1  0.910714  0.856218  0.985382  1
  I  I21  1  0.506778  0.164209  0.632544  1
  I  I22  1  0.910307  0.448371  0.809069  1
  I  I23  1  0.749068  0.901791  0.622531  1
