# generated using pymatgen
data_Pr3Nd5Si15Ir
_symmetry_space_group_name_H-M   'P 1'
_cell_length_a   8.23121200
_cell_length_b   8.23314928
_cell_length_c   8.48372900
_cell_angle_alpha   90.00190492
_cell_angle_beta   90.00000000
_cell_angle_gamma   119.99222461
_symmetry_Int_Tables_number   1
_chemical_formula_structural   Pr3Nd5Si15Ir
_chemical_formula_sum   'Pr3 Nd5 Si15 Ir1'
_cell_volume   497.94481834
_cell_formula_units_Z   1
loop_
 _symmetry_equiv_pos_site_id
 _symmetry_equiv_pos_as_xyz
  1  'x, y, z'
loop_
 _atom_site_type_symbol
 _atom_site_label
 _atom_site_symmetry_multiplicity
 _atom_site_fract_x
 _atom_site_fract_y
 _atom_site_fract_z
 _atom_site_occupancy
  Pr  Pr0  1  0.500331  0.000661  0.254363  1
  Pr  Pr1  1  0.000033  0.000065  0.748555  1
  Pr  Pr2  1  0.999997  0.999993  0.251069  1
  Nd  Nd3  1  0.499993  0.500018  0.745832  1
  Nd  Nd4  1  0.500511  0.499455  0.254321  1
  Nd  Nd5  1  0.000026  0.500018  0.745832  1
  Nd  Nd6  1  0.998945  0.499455  0.254321  1
  Nd  Nd7  1  0.499926  0.999853  0.745852  1
  Si  Si8  1  0.830052  0.170498  0.999614  1
  Si  Si9  1  0.163552  0.836198  0.999148  1
  Si  Si10  1  0.340446  0.170498  0.999614  1
  Si  Si11  1  0.167787  0.831736  0.501009  1
  Si  Si12  1  0.672645  0.836198  0.999148  1
  Si  Si13  1  0.833872  0.166540  0.500005  1
  Si  Si14  1  0.829817  0.659634  0.000162  1
  Si  Si15  1  0.663949  0.831736  0.501009  1
  Si  Si16  1  0.163772  0.327547  0.999523  1
  Si  Si17  1  0.332668  0.166540  0.500005  1
  Si  Si18  1  0.168061  0.336123  0.500505  1
  Si  Si19  1  0.833574  0.667148  0.499518  1
  Si  Si20  1  0.333109  0.666217  0.001069  1
  Si  Si21  1  0.333161  0.666322  0.498963  1
  Si  Si22  1  0.666894  0.333789  0.501975  1
  Ir  Ir23  1  0.666881  0.333761  0.998584  1
