# generated using pymatgen
data_SeS7Cl2
_symmetry_space_group_name_H-M   'P 1'
_cell_length_a   9.23838200
_cell_length_b   9.81721000
_cell_length_c   13.93522200
_cell_angle_alpha   90.00000000
_cell_angle_beta   90.00000000
_cell_angle_gamma   90.00000000
_symmetry_Int_Tables_number   1
_chemical_formula_structural   SeS7Cl2
_chemical_formula_sum   'Se4 S28 Cl8'
_cell_volume   1263.85685663
_cell_formula_units_Z   4
loop_
 _symmetry_equiv_pos_site_id
 _symmetry_equiv_pos_as_xyz
  1  'x, y, z'
loop_
 _atom_site_type_symbol
 _atom_site_label
 _atom_site_symmetry_multiplicity
 _atom_site_fract_x
 _atom_site_fract_y
 _atom_site_fract_z
 _atom_site_occupancy
  Se  Se0  1  0.750000  0.194724  0.093485  1
  Se  Se1  1  0.750000  0.694724  0.406515  1
  Se  Se2  1  0.250001  0.305276  0.593484  1
  Se  Se3  1  0.250001  0.805276  0.906515  1
  S  S4  1  0.547729  0.317687  0.035769  1
  S  S5  1  0.952270  0.317687  0.035769  1
  S  S6  1  0.517435  0.755871  0.090173  1
  S  S7  1  0.982565  0.755871  0.090173  1
  S  S8  1  0.070342  0.632691  0.198889  1
  S  S9  1  0.429658  0.632691  0.198889  1
  S  S10  1  0.250001  0.225649  0.244470  1
  S  S11  1  0.250001  0.725648  0.255530  1
  S  S12  1  0.070342  0.132690  0.301110  1
  S  S13  1  0.429658  0.132690  0.301110  1
  S  S14  1  0.517435  0.255871  0.409827  1
  S  S15  1  0.982565  0.255871  0.409827  1
  S  S16  1  0.547729  0.817687  0.464231  1
  S  S17  1  0.952270  0.817687  0.464231  1
  S  S18  1  0.047730  0.182313  0.535769  1
  S  S19  1  0.452270  0.182313  0.535769  1
  S  S20  1  0.017436  0.744129  0.590173  1
  S  S21  1  0.482564  0.744129  0.590173  1
  S  S22  1  0.570343  0.867310  0.698890  1
  S  S23  1  0.929657  0.867310  0.698890  1
  S  S24  1  0.750000  0.274352  0.744471  1
  S  S25  1  0.750000  0.774352  0.755530  1
  S  S26  1  0.570343  0.367310  0.801110  1
  S  S27  1  0.929657  0.367310  0.801110  1
  S  S28  1  0.017436  0.244129  0.909826  1
  S  S29  1  0.482564  0.244129  0.909826  1
  S  S30  1  0.047730  0.682313  0.964231  1
  S  S31  1  0.452270  0.682313  0.964231  1
  Cl  Cl32  1  0.250001  0.967384  0.025552  1
  Cl  Cl33  1  0.750000  0.377940  0.210195  1
  Cl  Cl34  1  0.750000  0.877941  0.289804  1
  Cl  Cl35  1  0.250001  0.467384  0.474448  1
  Cl  Cl36  1  0.750000  0.532615  0.525553  1
  Cl  Cl37  1  0.250001  0.122061  0.710196  1
  Cl  Cl38  1  0.250001  0.622060  0.789804  1
  Cl  Cl39  1  0.750000  0.032615  0.974448  1
