# generated using pymatgen
data_Tb4Y2Al15Si9Os8
_symmetry_space_group_name_H-M   'P 1'
_cell_length_a   8.71590206
_cell_length_b   8.71127647
_cell_length_c   9.38702600
_cell_angle_alpha   90.00000000
_cell_angle_beta   90.00000000
_cell_angle_gamma   120.07808553
_symmetry_Int_Tables_number   1
_chemical_formula_structural   Tb4Y2Al15Si9Os8
_chemical_formula_sum   'Tb4 Y2 Al15 Si9 Os8'
_cell_volume   616.75195071
_cell_formula_units_Z   1
loop_
 _symmetry_equiv_pos_site_id
 _symmetry_equiv_pos_as_xyz
  1  'x, y, z'
loop_
 _atom_site_type_symbol
 _atom_site_label
 _atom_site_symmetry_multiplicity
 _atom_site_fract_x
 _atom_site_fract_y
 _atom_site_fract_z
 _atom_site_occupancy
  Tb  Tb0  1  0.613152  0.807356  0.250000  1
  Tb  Tb1  1  0.385668  0.191366  0.750000  1
  Tb  Tb2  1  0.193783  0.805967  0.250000  1
  Tb  Tb3  1  0.806804  0.193417  0.750000  1
  Y  Y4  1  0.192115  0.386131  0.250000  1
  Y  Y5  1  0.809001  0.615131  0.750000  1
  Al  Al6  1  0.165811  0.329319  0.577411  1
  Al  Al7  1  0.836002  0.671106  0.420723  1
  Al  Al8  1  0.670942  0.834487  0.577308  1
  Al  Al9  1  0.836002  0.671106  0.079277  1
  Al  Al10  1  0.328767  0.163840  0.420708  1
  Al  Al11  1  0.165811  0.329319  0.922589  1
  Al  Al12  1  0.164396  0.835778  0.577627  1
  Al  Al13  1  0.328767  0.163840  0.079292  1
  Al  Al14  1  0.835154  0.164634  0.421632  1
  Al  Al15  1  0.670942  0.834487  0.922692  1
  Al  Al16  1  0.835154  0.164634  0.078368  1
  Al  Al17  1  0.164396  0.835778  0.922373  1
  Al  Al18  1  0.435950  0.564834  0.750000  1
  Al  Al19  1  0.999813  0.998143  0.250000  1
  Al  Al20  1  0.000638  0.001491  0.750000  1
  Si  Si21  1  0.334134  0.665071  0.039577  1
  Si  Si22  1  0.666242  0.334506  0.959447  1
  Si  Si23  1  0.666242  0.334506  0.540553  1
  Si  Si24  1  0.334134  0.665071  0.460423  1
  Si  Si25  1  0.561793  0.125029  0.250000  1
  Si  Si26  1  0.435480  0.874733  0.750000  1
  Si  Si27  1  0.875185  0.437854  0.250000  1
  Si  Si28  1  0.124883  0.564719  0.750000  1
  Si  Si29  1  0.562521  0.436633  0.250000  1
  Os  Os30  1  0.500127  0.000811  0.000558  1
  Os  Os31  1  0.999152  0.499858  0.000543  1
  Os  Os32  1  0.500127  0.000811  0.499442  1
  Os  Os33  1  0.501002  0.498992  0.006700  1
  Os  Os34  1  0.999152  0.499858  0.499457  1
  Os  Os35  1  0.501002  0.498992  0.493300  1
  Os  Os36  1  0.999879  0.000193  0.999895  1
  Os  Os37  1  0.999879  0.000193  0.500105  1
