# generated using pymatgen
data_Sm2GePd14
_symmetry_space_group_name_H-M   'P 1'
_cell_length_a   8.97453900
_cell_length_b   8.97453900
_cell_length_c   7.18574800
_cell_angle_alpha   90.00000000
_cell_angle_beta   90.00000000
_cell_angle_gamma   90.00000000
_symmetry_Int_Tables_number   1
_chemical_formula_structural   Sm2GePd14
_chemical_formula_sum   'Sm4 Ge2 Pd28'
_cell_volume   578.75703231
_cell_formula_units_Z   2
loop_
 _symmetry_equiv_pos_site_id
 _symmetry_equiv_pos_as_xyz
  1  'x, y, z'
loop_
 _atom_site_type_symbol
 _atom_site_label
 _atom_site_symmetry_multiplicity
 _atom_site_fract_x
 _atom_site_fract_y
 _atom_site_fract_z
 _atom_site_occupancy
  Sm  Sm0  1  0.500000  0.000000  0.936380  1
  Sm  Sm1  1  0.000000  0.500000  0.063620  1
  Sm  Sm2  1  0.000000  0.000000  0.500000  1
  Sm  Sm3  1  0.500000  0.500000  0.500000  1
  Ge  Ge4  1  0.500000  0.000000  0.448485  1
  Ge  Ge5  1  0.000000  0.500000  0.551515  1
  Pd  Pd6  1  0.330646  0.830646  0.621367  1
  Pd  Pd7  1  0.330646  0.169354  0.621367  1
  Pd  Pd8  1  0.669354  0.830646  0.621367  1
  Pd  Pd9  1  0.669354  0.169354  0.621367  1
  Pd  Pd10  1  0.169354  0.669354  0.378633  1
  Pd  Pd11  1  0.169354  0.330646  0.378633  1
  Pd  Pd12  1  0.830646  0.669354  0.378633  1
  Pd  Pd13  1  0.830646  0.330646  0.378633  1
  Pd  Pd14  1  0.500000  0.765873  0.252796  1
  Pd  Pd15  1  0.500000  0.234127  0.252796  1
  Pd  Pd16  1  0.265873  0.000000  0.252796  1
  Pd  Pd17  1  0.734127  0.000000  0.252796  1
  Pd  Pd18  1  0.000000  0.734127  0.747204  1
  Pd  Pd19  1  0.000000  0.265873  0.747204  1
  Pd  Pd20  1  0.234127  0.500000  0.747204  1
  Pd  Pd21  1  0.765873  0.500000  0.747204  1
  Pd  Pd22  1  0.500000  0.348701  0.856292  1
  Pd  Pd23  1  0.500000  0.651299  0.856292  1
  Pd  Pd24  1  0.848701  0.000000  0.856292  1
  Pd  Pd25  1  0.151299  0.000000  0.856292  1
  Pd  Pd26  1  0.000000  0.151299  0.143708  1
  Pd  Pd27  1  0.000000  0.848701  0.143708  1
  Pd  Pd28  1  0.651299  0.500000  0.143708  1
  Pd  Pd29  1  0.348701  0.500000  0.143708  1
  Pd  Pd30  1  0.250000  0.750000  0.000000  1
  Pd  Pd31  1  0.250000  0.250000  0.000000  1
  Pd  Pd32  1  0.750000  0.750000  0.000000  1
  Pd  Pd33  1  0.750000  0.250000  0.000000  1
