# generated using pymatgen
data_SrPrMn2(RuO5)2
_symmetry_space_group_name_H-M   'P 1'
_cell_length_a   5.70339500
_cell_length_b   8.03270196
_cell_length_c   8.98736372
_cell_angle_alpha   89.36722497
_cell_angle_beta   90.00000000
_cell_angle_gamma   90.00000000
_symmetry_Int_Tables_number   1
_chemical_formula_structural   SrPrMn2(RuO5)2
_chemical_formula_sum   'Sr2 Pr2 Mn4 Ru4 O20'
_cell_volume   411.71902545
_cell_formula_units_Z   2
loop_
 _symmetry_equiv_pos_site_id
 _symmetry_equiv_pos_as_xyz
  1  'x, y, z'
loop_
 _atom_site_type_symbol
 _atom_site_label
 _atom_site_symmetry_multiplicity
 _atom_site_fract_x
 _atom_site_fract_y
 _atom_site_fract_z
 _atom_site_occupancy
  Sr  Sr0  1  0.000000  0.351054  0.670369  1
  Sr  Sr1  1  0.000000  0.648946  0.329631  1
  Pr  Pr2  1  0.000000  0.851400  0.827793  1
  Pr  Pr3  1  0.000000  0.148600  0.172207  1
  Mn  Mn4  1  0.500000  0.079186  0.854195  1
  Mn  Mn5  1  0.500000  0.920814  0.145805  1
  Mn  Mn6  1  0.500000  0.578569  0.645020  1
  Mn  Mn7  1  0.500000  0.421431  0.354980  1
  Ru  Ru8  1  0.279674  0.500000  0.000000  1
  Ru  Ru9  1  0.720424  0.000000  0.500000  1
  Ru  Ru10  1  0.720326  0.500000  0.000000  1
  Ru  Ru11  1  0.279576  0.000000  0.500000  1
  O  O12  1  0.254583  0.919530  0.289218  1
  O  O13  1  0.254583  0.080470  0.710782  1
  O  O14  1  0.740965  0.393733  0.204654  1
  O  O15  1  0.740965  0.606267  0.795346  1
  O  O16  1  0.745417  0.080470  0.710782  1
  O  O17  1  0.745417  0.919530  0.289218  1
  O  O18  1  0.259035  0.606267  0.795346  1
  O  O19  1  0.259035  0.393733  0.204654  1
  O  O20  1  0.500000  0.333239  0.922575  1
  O  O21  1  0.500000  0.666761  0.077425  1
  O  O22  1  0.500000  0.827102  0.562731  1
  O  O23  1  0.500000  0.172898  0.437269  1
  O  O24  1  0.267922  0.000000  0.000000  1
  O  O25  1  0.722249  0.500000  0.500000  1
  O  O26  1  0.732078  0.000000  0.000000  1
  O  O27  1  0.277751  0.500000  0.500000  1
  O  O28  1  0.000000  0.146788  0.449180  1
  O  O29  1  0.000000  0.853212  0.550820  1
  O  O30  1  0.000000  0.647146  0.048109  1
  O  O31  1  0.000000  0.352854  0.951891  1
