# generated using pymatgen
data_Dy3Lu3FeBi2
_symmetry_space_group_name_H-M   'P 1'
_cell_length_a   8.22619203
_cell_length_b   8.22494894
_cell_length_c   4.15711700
_cell_angle_alpha   90.00000000
_cell_angle_beta   90.00000000
_cell_angle_gamma   119.99499531
_symmetry_Int_Tables_number   1
_chemical_formula_structural   Dy3Lu3FeBi2
_chemical_formula_sum   'Dy3 Lu3 Fe1 Bi2'
_cell_volume   243.59974701
_cell_formula_units_Z   1
loop_
 _symmetry_equiv_pos_site_id
 _symmetry_equiv_pos_as_xyz
  1  'x, y, z'
loop_
 _atom_site_type_symbol
 _atom_site_label
 _atom_site_symmetry_multiplicity
 _atom_site_fract_x
 _atom_site_fract_y
 _atom_site_fract_z
 _atom_site_occupancy
  Dy  Dy0  1  0.612542  0.999974  0.000000  1
  Dy  Dy1  1  0.000000  0.612604  0.000000  1
  Dy  Dy2  1  0.387458  0.387432  0.000000  1
  Lu  Lu3  1  0.226406  0.999993  0.500000  1
  Lu  Lu4  1  0.000000  0.226404  0.500000  1
  Lu  Lu5  1  0.773594  0.773587  0.500000  1
  Fe  Fe6  1  0.000000  0.000024  0.000000  1
  Bi  Bi7  1  0.333327  0.666655  0.500000  1
  Bi  Bi8  1  0.666673  0.333327  0.500000  1
