# generated using pymatgen
data_Pr3Th(Zn5Ge)2
_symmetry_space_group_name_H-M   'P 1'
_cell_length_a   8.42341316
_cell_length_b   8.42341410
_cell_length_c   8.92807600
_cell_angle_alpha   90.00000000
_cell_angle_beta   90.00000000
_cell_angle_gamma   149.29031834
_symmetry_Int_Tables_number   1
_chemical_formula_structural   Pr3Th(Zn5Ge)2
_chemical_formula_sum   'Pr3 Th1 Zn10 Ge2'
_cell_volume   323.51167713
_cell_formula_units_Z   1
loop_
 _symmetry_equiv_pos_site_id
 _symmetry_equiv_pos_as_xyz
  1  'x, y, z'
loop_
 _atom_site_type_symbol
 _atom_site_label
 _atom_site_symmetry_multiplicity
 _atom_site_fract_x
 _atom_site_fract_y
 _atom_site_fract_z
 _atom_site_occupancy
  Pr  Pr0  1  0.797125  0.202875  0.750000  1
  Pr  Pr1  1  0.000091  0.999909  0.502953  1
  Pr  Pr2  1  0.000091  0.999909  0.997047  1
  Th  Th3  1  0.203057  0.796943  0.250000  1
  Zn  Zn4  1  0.813773  0.186227  0.393045  1
  Zn  Zn5  1  0.184708  0.815292  0.607843  1
  Zn  Zn6  1  0.813773  0.186227  0.106955  1
  Zn  Zn7  1  0.184708  0.815292  0.892157  1
  Zn  Zn8  1  0.653122  0.346878  0.479280  1
  Zn  Zn9  1  0.348095  0.651905  0.520838  1
  Zn  Zn10  1  0.653122  0.346878  0.020720  1
  Zn  Zn11  1  0.348095  0.651905  0.979162  1
  Zn  Zn12  1  0.402728  0.597272  0.250000  1
  Zn  Zn13  1  0.597196  0.402804  0.750000  1
  Ge  Ge14  1  0.557318  0.442682  0.250000  1
  Ge  Ge15  1  0.442995  0.557005  0.750000  1
