# generated using pymatgen
data_Li2Yb2PrInGa8
_symmetry_space_group_name_H-M   'P 1'
_cell_length_a   8.41090650
_cell_length_b   8.41090525
_cell_length_c   8.41090542
_cell_angle_alpha   149.43173352
_cell_angle_beta   110.52546149
_cell_angle_gamma   77.78108622
_symmetry_Int_Tables_number   1
_chemical_formula_structural   Li2Yb2PrInGa8
_chemical_formula_sum   'Li2 Yb2 Pr1 In1 Ga8'
_cell_volume   278.25940347
_cell_formula_units_Z   1
loop_
 _symmetry_equiv_pos_site_id
 _symmetry_equiv_pos_as_xyz
  1  'x, y, z'
loop_
 _atom_site_type_symbol
 _atom_site_label
 _atom_site_symmetry_multiplicity
 _atom_site_fract_x
 _atom_site_fract_y
 _atom_site_fract_z
 _atom_site_occupancy
  Li  Li0  1  0.800806  0.000000  0.800806  1
  Li  Li1  1  0.199194  0.000000  0.199194  1
  Yb  Yb2  1  0.201188  0.201188  0.000000  1
  Yb  Yb3  1  0.798812  0.798812  0.000000  1
  Pr  Pr4  1  0.500000  0.500000  0.000000  1
  In  In5  1  0.000000  0.500000  0.500000  1
  Ga  Ga6  1  0.073713  0.351488  0.722225  1
  Ga  Ga7  1  0.926287  0.648512  0.277775  1
  Ga  Ga8  1  0.629265  0.351488  0.277775  1
  Ga  Ga9  1  0.370735  0.648512  0.722225  1
  Ga  Ga10  1  0.794125  0.160356  0.633770  1
  Ga  Ga11  1  0.205875  0.839644  0.366230  1
  Ga  Ga12  1  0.526586  0.160356  0.366230  1
  Ga  Ga13  1  0.473414  0.839644  0.633770  1
