# generated using pymatgen
data_La6OsAuBr6
_symmetry_space_group_name_H-M   'P 1'
_cell_length_a   10.63278494
_cell_length_b   10.63278571
_cell_length_c   10.82206552
_cell_angle_alpha   109.25593729
_cell_angle_beta   109.25593756
_cell_angle_gamma   109.18877843
_symmetry_Int_Tables_number   1
_chemical_formula_structural   La6OsAuBr6
_chemical_formula_sum   'La12 Os2 Au2 Br12'
_cell_volume   950.04842962
_cell_formula_units_Z   2
loop_
 _symmetry_equiv_pos_site_id
 _symmetry_equiv_pos_as_xyz
  1  'x, y, z'
loop_
 _atom_site_type_symbol
 _atom_site_label
 _atom_site_symmetry_multiplicity
 _atom_site_fract_x
 _atom_site_fract_y
 _atom_site_fract_z
 _atom_site_occupancy
  La  La0  1  0.471162  0.476116  0.244635  1
  La  La1  1  0.731482  0.226528  0.255365  1
  La  La2  1  0.736016  0.005378  0.476700  1
  La  La3  1  0.240683  0.471320  0.476700  1
  La  La4  1  0.273472  0.768518  0.244635  1
  La  La5  1  0.028680  0.259317  0.023300  1
  La  La6  1  0.023884  0.028838  0.255365  1
  La  La7  1  0.494622  0.763984  0.023300  1
  La  La8  1  0.485167  0.235167  0.470332  1
  La  La9  1  0.009948  0.490052  0.750000  1
  La  La10  1  0.264833  0.014833  0.029668  1
  La  La11  1  0.240052  0.259948  0.750000  1
  Os  Os12  1  0.250100  0.249900  0.250000  1
  Os  Os13  1  0.499900  0.000100  0.250000  1
  Au  Au14  1  0.999468  0.249468  0.498935  1
  Au  Au15  1  0.250532  0.500532  0.001065  1
  Br  Br16  1  0.251149  0.751865  0.748967  1
  Br  Br17  1  0.502899  0.502183  0.751033  1
  Br  Br18  1  0.991024  0.742574  0.993539  1
  Br  Br19  1  0.748135  0.248851  0.751033  1
  Br  Br20  1  0.997817  0.997101  0.748967  1
  Br  Br21  1  0.249035  0.997486  0.506461  1
  Br  Br22  1  0.757426  0.508976  0.506461  1
  Br  Br23  1  0.502514  0.250965  0.993539  1
  Br  Br24  1  0.753010  0.746990  0.250000  1
  Br  Br25  1  0.745383  0.995383  0.990764  1
  Br  Br26  1  0.996990  0.503010  0.250000  1
  Br  Br27  1  0.504617  0.754617  0.509236  1
