# generated using pymatgen
data_NaCrCdF6
_symmetry_space_group_name_H-M   'P 1'
_cell_length_a   9.35967800
_cell_length_b   9.35967857
_cell_length_c   5.16545800
_cell_angle_alpha   90.00000000
_cell_angle_beta   90.00000000
_cell_angle_gamma   120.00000505
_symmetry_Int_Tables_number   1
_chemical_formula_structural   NaCrCdF6
_chemical_formula_sum   'Na3 Cr3 Cd3 F18'
_cell_volume   391.88738781
_cell_formula_units_Z   3
loop_
 _symmetry_equiv_pos_site_id
 _symmetry_equiv_pos_as_xyz
  1  'x, y, z'
loop_
 _atom_site_type_symbol
 _atom_site_label
 _atom_site_symmetry_multiplicity
 _atom_site_fract_x
 _atom_site_fract_y
 _atom_site_fract_z
 _atom_site_occupancy
  Na  Na0  1  0.625991  0.000000  0.000000  1
  Na  Na1  1  0.000000  0.625991  0.000000  1
  Na  Na2  1  0.374009  0.374009  0.000000  1
  Cr  Cr3  1  0.333333  0.666667  0.498642  1
  Cr  Cr4  1  0.666667  0.333333  0.501358  1
  Cr  Cr5  1  0.000000  0.000000  0.000000  1
  Cd  Cd6  1  0.296087  0.000000  0.500000  1
  Cd  Cd7  1  0.000000  0.296087  0.500000  1
  Cd  Cd8  1  0.703913  0.703913  0.500000  1
  F  F9  1  0.136318  0.544461  0.285611  1
  F  F10  1  0.455539  0.591858  0.285611  1
  F  F11  1  0.544461  0.136318  0.714389  1
  F  F12  1  0.408142  0.863682  0.285611  1
  F  F13  1  0.591858  0.455539  0.714389  1
  F  F14  1  0.863682  0.408142  0.714389  1
  F  F15  1  0.107789  0.197970  0.212969  1
  F  F16  1  0.802030  0.909819  0.212969  1
  F  F17  1  0.197970  0.107789  0.787031  1
  F  F18  1  0.090181  0.892211  0.212969  1
  F  F19  1  0.909819  0.802030  0.787031  1
  F  F20  1  0.892211  0.090181  0.787031  1
  F  F21  1  0.466221  0.240466  0.289241  1
  F  F22  1  0.759534  0.225755  0.289241  1
  F  F23  1  0.240466  0.466221  0.710759  1
  F  F24  1  0.774245  0.533779  0.289241  1
  F  F25  1  0.225755  0.759534  0.710759  1
  F  F26  1  0.533779  0.774245  0.710759  1
