# generated using pymatgen
data_Tb5Dy2Y(MoO6)4
_symmetry_space_group_name_H-M   'P 1'
_cell_length_a   9.98090905
_cell_length_b   9.98090814
_cell_length_c   5.41829703
_cell_angle_alpha   75.04369097
_cell_angle_beta   75.04368992
_cell_angle_gamma   68.12766150
_symmetry_Int_Tables_number   1
_chemical_formula_structural   Tb5Dy2Y(MoO6)4
_chemical_formula_sum   'Tb5 Dy2 Y1 Mo4 O24'
_cell_volume   475.98028950
_cell_formula_units_Z   1
loop_
 _symmetry_equiv_pos_site_id
 _symmetry_equiv_pos_as_xyz
  1  'x, y, z'
loop_
 _atom_site_type_symbol
 _atom_site_label
 _atom_site_symmetry_multiplicity
 _atom_site_fract_x
 _atom_site_fract_y
 _atom_site_fract_z
 _atom_site_occupancy
  Tb  Tb0  1  0.784161  0.552281  0.621157  1
  Tb  Tb1  1  0.447719  0.215839  0.878843  1
  Tb  Tb2  1  0.215785  0.448000  0.378737  1
  Tb  Tb3  1  0.552000  0.784215  0.121263  1
  Tb  Tb4  1  0.864123  0.135877  0.750000  1
  Dy  Dy5  1  0.393484  0.606516  0.750000  1
  Dy  Dy6  1  0.606241  0.393759  0.250000  1
  Y  Y7  1  0.136219  0.863781  0.250000  1
  Mo  Mo8  1  0.988860  0.703950  0.938943  1
  Mo  Mo9  1  0.296050  0.011140  0.561057  1
  Mo  Mo10  1  0.011113  0.296162  0.061189  1
  Mo  Mo11  1  0.703838  0.988887  0.438811  1
  O  O12  1  0.426759  0.391558  0.077773  1
  O  O13  1  0.608442  0.573241  0.422227  1
  O  O14  1  0.573121  0.608607  0.922037  1
  O  O15  1  0.391393  0.426879  0.577963  1
  O  O16  1  0.192365  0.663027  0.080880  1
  O  O17  1  0.336973  0.807635  0.419120  1
  O  O18  1  0.807918  0.337197  0.919706  1
  O  O19  1  0.662803  0.192082  0.580294  1
  O  O20  1  0.115713  0.673640  0.628556  1
  O  O21  1  0.326360  0.884287  0.871444  1
  O  O22  1  0.884365  0.326575  0.371747  1
  O  O23  1  0.673425  0.115635  0.128253  1
  O  O24  1  0.710579  0.817661  0.363496  1
  O  O25  1  0.182339  0.289421  0.136504  1
  O  O26  1  0.289251  0.182265  0.636519  1
  O  O27  1  0.817735  0.710749  0.863481  1
  O  O28  1  0.889259  0.951673  0.484373  1
  O  O29  1  0.048327  0.110741  0.015627  1
  O  O30  1  0.110873  0.048065  0.514814  1
  O  O31  1  0.951935  0.889127  0.985186  1
  O  O32  1  0.569061  0.974900  0.743756  1
  O  O33  1  0.025100  0.430939  0.756244  1
  O  O34  1  0.431067  0.024758  0.256614  1
  O  O35  1  0.975242  0.568933  0.243386  1
