# generated using pymatgen
data_Tc5(O4F)3
_symmetry_space_group_name_H-M   'P 1'
_cell_length_a   5.47335285
_cell_length_b   6.63456047
_cell_length_c   8.40921100
_cell_angle_alpha   103.79917539
_cell_angle_beta   108.61098297
_cell_angle_gamma   89.05772277
_symmetry_Int_Tables_number   1
_chemical_formula_structural   Tc5(O4F)3
_chemical_formula_sum   'Tc5 O12 F3'
_cell_volume   280.45358879
_cell_formula_units_Z   1
loop_
 _symmetry_equiv_pos_site_id
 _symmetry_equiv_pos_as_xyz
  1  'x, y, z'
loop_
 _atom_site_type_symbol
 _atom_site_label
 _atom_site_symmetry_multiplicity
 _atom_site_fract_x
 _atom_site_fract_y
 _atom_site_fract_z
 _atom_site_occupancy
  Tc  Tc0  1  0.951739  0.985090  0.992157  1
  Tc  Tc1  1  0.368498  0.612456  0.803455  1
  Tc  Tc2  1  0.831083  0.189900  0.595523  1
  Tc  Tc3  1  0.247703  0.817033  0.406584  1
  Tc  Tc4  1  0.599803  0.400914  0.199363  1
  O  O5  1  0.670603  0.800729  0.902305  1
  O  O6  1  0.166587  0.793038  0.893541  1
  O  O7  1  0.100155  0.400383  0.699010  1
  O  O8  1  0.892866  0.096000  0.798577  1
  O  O9  1  0.527945  0.002348  0.496702  1
  O  O10  1  0.030445  0.007716  0.504285  1
  O  O11  1  0.305642  0.705933  0.599815  1
  O  O12  1  0.709112  0.302305  0.398097  1
  O  O13  1  0.419157  0.608021  0.303496  1
  O  O14  1  0.780969  0.194393  0.095182  1
  O  O15  1  0.099466  0.901210  0.199363  1
  O  O16  1  0.490097  0.499826  0.000882  1
  F  F17  1  0.600390  0.401909  0.699719  1
  F  F18  1  0.912480  0.600646  0.295682  1
  F  F19  1  0.287630  0.200497  0.102700  1
