# generated using pymatgen
data_Pr18Tm2Ir5Pt7
_symmetry_space_group_name_H-M   'P 1'
_cell_length_a   11.46842673
_cell_length_b   11.46819899
_cell_length_c   6.53749954
_cell_angle_alpha   90.06079893
_cell_angle_beta   90.06071147
_cell_angle_gamma   90.10695289
_symmetry_Int_Tables_number   1
_chemical_formula_structural   Pr18Tm2Ir5Pt7
_chemical_formula_sum   'Pr18 Tm2 Ir5 Pt7'
_cell_volume   859.82385380
_cell_formula_units_Z   1
loop_
 _symmetry_equiv_pos_site_id
 _symmetry_equiv_pos_as_xyz
  1  'x, y, z'
loop_
 _atom_site_type_symbol
 _atom_site_label
 _atom_site_symmetry_multiplicity
 _atom_site_fract_x
 _atom_site_fract_y
 _atom_site_fract_z
 _atom_site_occupancy
  Pr  Pr0  1  0.295201  0.087909  0.373833  1
  Pr  Pr1  1  0.296171  0.907411  0.873953  1
  Pr  Pr2  1  0.703868  0.087800  0.873680  1
  Pr  Pr3  1  0.703631  0.910318  0.372752  1
  Pr  Pr4  1  0.584915  0.788864  0.875352  1
  Pr  Pr5  1  0.587797  0.209301  0.377036  1
  Pr  Pr6  1  0.410460  0.788570  0.381042  1
  Pr  Pr7  1  0.411608  0.207811  0.877055  1
  Pr  Pr8  1  0.211143  0.415082  0.624649  1
  Pr  Pr9  1  0.211437  0.589541  0.118954  1
  Pr  Pr10  1  0.790696  0.412201  0.122960  1
  Pr  Pr11  1  0.792185  0.588398  0.622948  1
  Pr  Pr12  1  0.912086  0.704804  0.126162  1
  Pr  Pr13  1  0.912198  0.296129  0.626319  1
  Pr  Pr14  1  0.092591  0.703832  0.626048  1
  Pr  Pr15  1  0.089685  0.296365  0.127246  1
  Pr  Pr16  1  0.998979  0.999444  0.500383  1
  Pr  Pr17  1  0.000555  0.001018  0.999618  1
  Tm  Tm18  1  0.497839  0.500943  0.999080  1
  Tm  Tm19  1  0.499058  0.502157  0.500920  1
  Ir  Ir20  1  0.356072  0.643936  0.750002  1
  Ir  Ir21  1  0.499964  0.999841  0.115017  1
  Ir  Ir22  1  0.499819  0.000683  0.613437  1
  Ir  Ir23  1  0.999313  0.500182  0.886561  1
  Ir  Ir24  1  0.000157  0.500036  0.384983  1
  Pt  Pt25  1  0.844899  0.155095  0.250003  1
  Pt  Pt26  1  0.844263  0.845521  0.750618  1
  Pt  Pt27  1  0.154486  0.155731  0.749386  1
  Pt  Pt28  1  0.154240  0.845765  0.250002  1
  Pt  Pt29  1  0.643860  0.356135  0.750002  1
  Pt  Pt30  1  0.645247  0.644431  0.249977  1
  Pt  Pt31  1  0.355575  0.354747  0.250023  1
