# generated using pymatgen
data_Er3HfFeCo7P6
_symmetry_space_group_name_H-M   'P 1'
_cell_length_a   3.71635700
_cell_length_b   10.68532700
_cell_length_c   12.29871800
_cell_angle_alpha   90.00000000
_cell_angle_beta   90.00000000
_cell_angle_gamma   90.00000000
_symmetry_Int_Tables_number   1
_chemical_formula_structural   Er3HfFeCo7P6
_chemical_formula_sum   'Er6 Hf2 Fe2 Co14 P12'
_cell_volume   488.38811562
_cell_formula_units_Z   2
loop_
 _symmetry_equiv_pos_site_id
 _symmetry_equiv_pos_as_xyz
  1  'x, y, z'
loop_
 _atom_site_type_symbol
 _atom_site_label
 _atom_site_symmetry_multiplicity
 _atom_site_fract_x
 _atom_site_fract_y
 _atom_site_fract_z
 _atom_site_occupancy
  Er  Er0  1  0.750000  0.250000  0.470499  1
  Er  Er1  1  0.250000  0.750000  0.529501  1
  Er  Er2  1  0.250000  0.926720  0.795482  1
  Er  Er3  1  0.250000  0.573280  0.795482  1
  Er  Er4  1  0.750000  0.073280  0.204518  1
  Er  Er5  1  0.750000  0.426720  0.204518  1
  Hf  Hf6  1  0.250000  0.250000  0.841705  1
  Hf  Hf7  1  0.750000  0.750000  0.158295  1
  Fe  Fe8  1  0.750000  0.250000  0.011643  1
  Fe  Fe9  1  0.250000  0.750000  0.988357  1
  Co  Co10  1  0.250000  0.250000  0.295695  1
  Co  Co11  1  0.750000  0.750000  0.704305  1
  Co  Co12  1  0.250000  0.419523  0.005339  1
  Co  Co13  1  0.250000  0.080477  0.005339  1
  Co  Co14  1  0.750000  0.580477  0.994661  1
  Co  Co15  1  0.750000  0.919523  0.994661  1
  Co  Co16  1  0.250000  0.454542  0.566684  1
  Co  Co17  1  0.250000  0.045458  0.566684  1
  Co  Co18  1  0.750000  0.545458  0.433316  1
  Co  Co19  1  0.750000  0.954542  0.433316  1
  Co  Co20  1  0.250000  0.872152  0.297887  1
  Co  Co21  1  0.250000  0.627848  0.297887  1
  Co  Co22  1  0.750000  0.127848  0.702113  1
  Co  Co23  1  0.750000  0.372152  0.702113  1
  P  P24  1  0.250000  0.250000  0.113359  1
  P  P25  1  0.750000  0.750000  0.886641  1
  P  P26  1  0.250000  0.250000  0.636654  1
  P  P27  1  0.750000  0.750000  0.363346  1
  P  P28  1  0.250000  0.439908  0.383499  1
  P  P29  1  0.250000  0.060092  0.383499  1
  P  P30  1  0.750000  0.560092  0.616501  1
  P  P31  1  0.750000  0.939908  0.616501  1
  P  P32  1  0.250000  0.910866  0.105804  1
  P  P33  1  0.250000  0.589134  0.105804  1
  P  P34  1  0.750000  0.089134  0.894196  1
  P  P35  1  0.750000  0.410866  0.894196  1
