# generated using pymatgen
data_Li2MnNi9As7Ru2
_symmetry_space_group_name_H-M   'P 1'
_cell_length_a   9.42593731
_cell_length_b   9.41884294
_cell_length_c   3.69790300
_cell_angle_alpha   90.00000000
_cell_angle_beta   90.00000000
_cell_angle_gamma   120.08578458
_symmetry_Int_Tables_number   1
_chemical_formula_structural   Li2MnNi9As7Ru2
_chemical_formula_sum   'Li2 Mn1 Ni9 As7 Ru2'
_cell_volume   284.07445727
_cell_formula_units_Z   1
loop_
 _symmetry_equiv_pos_site_id
 _symmetry_equiv_pos_as_xyz
  1  'x, y, z'
loop_
 _atom_site_type_symbol
 _atom_site_label
 _atom_site_symmetry_multiplicity
 _atom_site_fract_x
 _atom_site_fract_y
 _atom_site_fract_z
 _atom_site_occupancy
  Li  Li0  1  0.333099  0.666908  0.000000  1
  Li  Li1  1  0.998365  0.999452  0.500000  1
  Mn  Mn2  1  0.793993  0.235608  0.500000  1
  Ni  Ni3  1  0.282197  0.382991  0.500000  1
  Ni  Ni4  1  0.616638  0.900003  0.500000  1
  Ni  Ni5  1  0.101639  0.719389  0.500000  1
  Ni  Ni6  1  0.500174  0.454714  0.000000  1
  Ni  Ni7  1  0.549064  0.050802  0.000000  1
  Ni  Ni8  1  0.950032  0.495107  0.000000  1
  Ni  Ni9  1  0.721473  0.767016  0.000000  1
  Ni  Ni10  1  0.232967  0.954816  0.000000  1
  Ni  Ni11  1  0.045904  0.280282  0.000000  1
  As  As12  1  0.956577  0.751301  0.000000  1
  As  As13  1  0.247614  0.205306  0.000000  1
  As  As14  1  0.796015  0.040930  0.000000  1
  As  As15  1  0.665636  0.334700  0.000000  1
  As  As16  1  0.539764  0.626184  0.500000  1
  As  As17  1  0.374686  0.914329  0.500000  1
  As  As18  1  0.088718  0.463411  0.500000  1
  Ru  Ru19  1  0.757804  0.549017  0.500000  1
  Ru  Ru20  1  0.447640  0.207733  0.500000  1
