# generated using pymatgen
data_Lu5In4HgPt
_symmetry_space_group_name_H-M   'P 1'
_cell_length_a   3.60749500
_cell_length_b   8.13890562
_cell_length_c   18.16553644
_cell_angle_alpha   89.66451526
_cell_angle_beta   90.00000000
_cell_angle_gamma   90.00000000
_symmetry_Int_Tables_number   1
_chemical_formula_structural   Lu5In4HgPt
_chemical_formula_sum   'Lu10 In8 Hg2 Pt2'
_cell_volume   533.35028627
_cell_formula_units_Z   2
loop_
 _symmetry_equiv_pos_site_id
 _symmetry_equiv_pos_as_xyz
  1  'x, y, z'
loop_
 _atom_site_type_symbol
 _atom_site_label
 _atom_site_symmetry_multiplicity
 _atom_site_fract_x
 _atom_site_fract_y
 _atom_site_fract_z
 _atom_site_occupancy
  Lu  Lu0  1  0.000000  0.122005  0.423433  1
  Lu  Lu1  1  0.000000  0.877995  0.576567  1
  Lu  Lu2  1  0.000000  0.384933  0.917189  1
  Lu  Lu3  1  0.000000  0.615067  0.082811  1
  Lu  Lu4  1  0.000000  0.262906  0.213858  1
  Lu  Lu5  1  0.000000  0.737094  0.786142  1
  Lu  Lu6  1  0.000000  0.285473  0.722624  1
  Lu  Lu7  1  0.000000  0.714527  0.277376  1
  Lu  Lu8  1  0.000000  0.000000  0.000000  1
  Lu  Lu9  1  0.000000  0.500000  0.500000  1
  In  In10  1  0.500000  0.419001  0.354066  1
  In  In11  1  0.500000  0.580999  0.645934  1
  In  In12  1  0.500000  0.081488  0.855383  1
  In  In13  1  0.500000  0.918512  0.144617  1
  In  In14  1  0.500000  0.291366  0.063166  1
  In  In15  1  0.500000  0.708634  0.936834  1
  In  In16  1  0.500000  0.212588  0.567920  1
  In  In17  1  0.500000  0.787412  0.432080  1
  Hg  Hg18  1  0.500000  0.025438  0.300394  1
  Hg  Hg19  1  0.500000  0.974562  0.699606  1
  Pt  Pt20  1  0.500000  0.473850  0.805494  1
  Pt  Pt21  1  0.500000  0.526150  0.194506  1
