# generated using pymatgen
data_Pr4SmUSe10
_symmetry_space_group_name_H-M   'P 1'
_cell_length_a   7.94777100
_cell_length_b   8.47110900
_cell_length_c   12.57783300
_cell_angle_alpha   90.00000000
_cell_angle_beta   90.00000000
_cell_angle_gamma   90.00000000
_symmetry_Int_Tables_number   1
_chemical_formula_structural   Pr4SmUSe10
_chemical_formula_sum   'Pr8 Sm2 U2 Se20'
_cell_volume   846.82064897
_cell_formula_units_Z   2
loop_
 _symmetry_equiv_pos_site_id
 _symmetry_equiv_pos_as_xyz
  1  'x, y, z'
loop_
 _atom_site_type_symbol
 _atom_site_label
 _atom_site_symmetry_multiplicity
 _atom_site_fract_x
 _atom_site_fract_y
 _atom_site_fract_z
 _atom_site_occupancy
  Pr  Pr0  1  0.528599  0.500932  0.322255  1
  Pr  Pr1  1  0.971401  0.999068  0.822255  1
  Pr  Pr2  1  0.477002  0.997314  0.677708  1
  Pr  Pr3  1  0.022998  0.502686  0.177708  1
  Pr  Pr4  1  0.477002  0.502686  0.677708  1
  Pr  Pr5  1  0.022998  0.997314  0.177708  1
  Pr  Pr6  1  0.528599  0.999068  0.322255  1
  Pr  Pr7  1  0.971401  0.500932  0.822255  1
  Sm  Sm8  1  0.076051  0.750000  0.492748  1
  Sm  Sm9  1  0.423949  0.750000  0.992748  1
  U  U10  1  0.941813  0.250000  0.505772  1
  U  U11  1  0.558187  0.250000  0.005772  1
  Se  Se12  1  0.834573  0.968955  0.595838  1
  Se  Se13  1  0.665427  0.531045  0.095838  1
  Se  Se14  1  0.165866  0.450326  0.404307  1
  Se  Se15  1  0.334134  0.049674  0.904307  1
  Se  Se16  1  0.165866  0.049674  0.404307  1
  Se  Se17  1  0.334134  0.450326  0.904307  1
  Se  Se18  1  0.834573  0.531045  0.595838  1
  Se  Se19  1  0.665427  0.968955  0.095838  1
  Se  Se20  1  0.827197  0.750000  0.312321  1
  Se  Se21  1  0.672803  0.750000  0.812321  1
  Se  Se22  1  0.168155  0.250000  0.682755  1
  Se  Se23  1  0.331845  0.250000  0.182755  1
  Se  Se24  1  0.458646  0.750000  0.498877  1
  Se  Se25  1  0.041354  0.750000  0.998877  1
  Se  Se26  1  0.550609  0.250000  0.500118  1
  Se  Se27  1  0.949391  0.250000  0.000118  1
  Se  Se28  1  0.194656  0.750000  0.716620  1
  Se  Se29  1  0.305344  0.750000  0.216620  1
  Se  Se30  1  0.809368  0.250000  0.290571  1
  Se  Se31  1  0.690632  0.250000  0.790571  1
