# generated using pymatgen
data_Dy4Er6Os3Ru
_symmetry_space_group_name_H-M   'P 1'
_cell_length_a   6.33265778
_cell_length_b   7.32529739
_cell_length_c   8.40739936
_cell_angle_alpha   96.91989954
_cell_angle_beta   112.24927485
_cell_angle_gamma   90.01543107
_symmetry_Int_Tables_number   1
_chemical_formula_structural   Dy4Er6Os3Ru
_chemical_formula_sum   'Dy4 Er6 Os3 Ru1'
_cell_volume   357.89295300
_cell_formula_units_Z   1
loop_
 _symmetry_equiv_pos_site_id
 _symmetry_equiv_pos_as_xyz
  1  'x, y, z'
loop_
 _atom_site_type_symbol
 _atom_site_label
 _atom_site_symmetry_multiplicity
 _atom_site_fract_x
 _atom_site_fract_y
 _atom_site_fract_z
 _atom_site_occupancy
  Dy  Dy0  1  0.793473  0.583132  0.815370  1
  Dy  Dy1  1  0.975457  0.916791  0.183752  1
  Dy  Dy2  1  0.208883  0.417536  0.187725  1
  Dy  Dy3  1  0.024499  0.084620  0.816823  1
  Er  Er4  1  0.203570  0.683157  0.565443  1
  Er  Er5  1  0.639691  0.817443  0.435615  1
  Er  Er6  1  0.794747  0.316150  0.433683  1
  Er  Er7  1  0.361450  0.181565  0.563925  1
  Er  Er8  1  0.422071  0.749689  0.999967  1
  Er  Er9  1  0.578700  0.250398  0.000452  1
  Os  Os10  1  0.601909  0.922729  0.780189  1
  Os  Os11  1  0.820736  0.577452  0.220295  1
  Os  Os12  1  0.397893  0.077226  0.218869  1
  Ru  Ru13  1  0.176922  0.422109  0.777892  1
