# generated using pymatgen
data_Sc10Co7Si20Pt
_symmetry_space_group_name_H-M   'P 1'
_cell_length_a   12.07922826
_cell_length_b   12.07052531
_cell_length_c   3.95774200
_cell_angle_alpha   90.00000000
_cell_angle_beta   90.00000000
_cell_angle_gamma   90.12586705
_symmetry_Int_Tables_number   1
_chemical_formula_structural   Sc10Co7Si20Pt
_chemical_formula_sum   'Sc10 Co7 Si20 Pt1'
_cell_volume   577.04780171
_cell_formula_units_Z   1
loop_
 _symmetry_equiv_pos_site_id
 _symmetry_equiv_pos_as_xyz
  1  'x, y, z'
loop_
 _atom_site_type_symbol
 _atom_site_label
 _atom_site_symmetry_multiplicity
 _atom_site_fract_x
 _atom_site_fract_y
 _atom_site_fract_z
 _atom_site_occupancy
  Sc  Sc0  1  0.001032  0.999508  0.000000  1
  Sc  Sc1  1  0.499418  0.508879  0.000000  1
  Sc  Sc2  1  0.680878  0.173857  0.500000  1
  Sc  Sc3  1  0.171697  0.323849  0.500000  1
  Sc  Sc4  1  0.822534  0.675329  0.500000  1
  Sc  Sc5  1  0.323733  0.824009  0.500000  1
  Sc  Sc6  1  0.890383  0.389415  0.500000  1
  Sc  Sc7  1  0.385755  0.107987  0.500000  1
  Sc  Sc8  1  0.611645  0.887105  0.500000  1
  Sc  Sc9  1  0.110697  0.611313  0.500000  1
  Co  Co10  1  0.252363  0.478206  0.000000  1
  Co  Co11  1  0.745419  0.525397  0.000000  1
  Co  Co12  1  0.475494  0.746626  0.000000  1
  Co  Co13  1  0.976936  0.754290  0.000000  1
  Co  Co14  1  0.024307  0.245363  0.000000  1
  Co  Co15  1  0.757703  0.022964  0.000000  1
  Co  Co16  1  0.245721  0.976598  0.000000  1
  Si  Si17  1  0.574063  0.058600  0.000000  1
  Si  Si18  1  0.067251  0.432301  0.000000  1
  Si  Si19  1  0.930977  0.569408  0.000000  1
  Si  Si20  1  0.430502  0.930728  0.000000  1
  Si  Si21  1  0.194922  0.155509  0.000000  1
  Si  Si22  1  0.156917  0.802235  0.000000  1
  Si  Si23  1  0.846204  0.195216  0.000000  1
  Si  Si24  1  0.803720  0.842388  0.000000  1
  Si  Si25  1  0.301304  0.657789  0.000000  1
  Si  Si26  1  0.710106  0.343766  0.000000  1
  Si  Si27  1  0.656692  0.699419  0.000000  1
  Si  Si28  1  0.330691  0.302825  0.000000  1
  Si  Si29  1  0.001185  0.163796  0.500000  1
  Si  Si30  1  0.163730  0.995300  0.500000  1
  Si  Si31  1  0.837956  0.998219  0.500000  1
  Si  Si32  1  0.996641  0.835767  0.500000  1
  Si  Si33  1  0.498462  0.667427  0.500000  1
  Si  Si34  1  0.501468  0.353892  0.500000  1
  Si  Si35  1  0.663860  0.498487  0.500000  1
  Si  Si36  1  0.335583  0.494008  0.500000  1
  Pt  Pt37  1  0.522052  0.252229  0.000000  1
