# generated using pymatgen
data_DyHo6Hf3(Si5Ir2)4
_symmetry_space_group_name_H-M   'P 1'
_cell_length_a   12.54822901
_cell_length_b   12.54820730
_cell_length_c   4.19266000
_cell_angle_alpha   90.00000000
_cell_angle_beta   90.00000000
_cell_angle_gamma   90.03689371
_symmetry_Int_Tables_number   1
_chemical_formula_structural   DyHo6Hf3(Si5Ir2)4
_chemical_formula_sum   'Dy1 Ho6 Hf3 Si20 Ir8'
_cell_volume   660.16679440
_cell_formula_units_Z   1
loop_
 _symmetry_equiv_pos_site_id
 _symmetry_equiv_pos_as_xyz
  1  'x, y, z'
loop_
 _atom_site_type_symbol
 _atom_site_label
 _atom_site_symmetry_multiplicity
 _atom_site_fract_x
 _atom_site_fract_y
 _atom_site_fract_z
 _atom_site_occupancy
  Dy  Dy0  1  0.118006  0.615375  0.500000  1
  Ho  Ho1  1  0.499772  0.501545  0.000000  1
  Ho  Ho2  1  0.998438  0.000399  0.000000  1
  Ho  Ho3  1  0.824620  0.675308  0.500000  1
  Ho  Ho4  1  0.884613  0.381963  0.500000  1
  Ho  Ho5  1  0.384235  0.115741  0.500000  1
  Ho  Ho6  1  0.611375  0.888614  0.500000  1
  Hf  Hf7  1  0.673882  0.174430  0.500000  1
  Hf  Hf8  1  0.325631  0.826169  0.500000  1
  Hf  Hf9  1  0.174521  0.325433  0.500000  1
  Si  Si10  1  0.565563  0.067736  0.000000  1
  Si  Si11  1  0.432267  0.934450  0.000000  1
  Si  Si12  1  0.067487  0.432486  0.000000  1
  Si  Si13  1  0.934637  0.565294  0.000000  1
  Si  Si14  1  0.661905  0.701942  0.000000  1
  Si  Si15  1  0.334795  0.299697  0.000000  1
  Si  Si16  1  0.166353  0.800637  0.000000  1
  Si  Si17  1  0.834963  0.200397  0.000000  1
  Si  Si18  1  0.299703  0.665004  0.000000  1
  Si  Si19  1  0.699440  0.333606  0.000000  1
  Si  Si20  1  0.200188  0.165242  0.000000  1
  Si  Si21  1  0.797965  0.838115  0.000000  1
  Si  Si22  1  0.656664  0.498017  0.500000  1
  Si  Si23  1  0.343888  0.489308  0.500000  1
  Si  Si24  1  0.156109  0.991372  0.500000  1
  Si  Si25  1  0.840646  0.004624  0.500000  1
  Si  Si26  1  0.495438  0.659342  0.500000  1
  Si  Si27  1  0.508664  0.343874  0.500000  1
  Si  Si28  1  0.010501  0.156310  0.500000  1
  Si  Si29  1  0.001754  0.843539  0.500000  1
  Ir  Ir30  1  0.744330  0.519058  0.000000  1
  Ir  Ir31  1  0.254335  0.478052  0.000000  1
  Ir  Ir32  1  0.245665  0.979668  0.000000  1
  Ir  Ir33  1  0.752757  0.023927  0.000000  1
  Ir  Ir34  1  0.476121  0.747238  0.000000  1
  Ir  Ir35  1  0.520386  0.254314  0.000000  1
  Ir  Ir36  1  0.021694  0.245881  0.000000  1
  Ir  Ir37  1  0.980684  0.755894  0.000000  1
