# generated using pymatgen
data_Ti13Al3(Pt2N)4
_symmetry_space_group_name_H-M   'P 1'
_cell_length_a   8.23010388
_cell_length_b   8.23123986
_cell_length_c   8.23010400
_cell_angle_alpha   60.00456469
_cell_angle_beta   59.99999951
_cell_angle_gamma   60.00456717
_symmetry_Int_Tables_number   1
_chemical_formula_structural   Ti13Al3(Pt2N)4
_chemical_formula_sum   'Ti13 Al3 Pt8 N4'
_cell_volume   394.26739808
_cell_formula_units_Z   1
loop_
 _symmetry_equiv_pos_site_id
 _symmetry_equiv_pos_as_xyz
  1  'x, y, z'
loop_
 _atom_site_type_symbol
 _atom_site_label
 _atom_site_symmetry_multiplicity
 _atom_site_fract_x
 _atom_site_fract_y
 _atom_site_fract_z
 _atom_site_occupancy
  Ti  Ti0  1  0.625000  0.125000  0.625000  1
  Ti  Ti1  1  0.817582  0.816931  0.182744  1
  Ti  Ti2  1  0.180642  0.182777  0.818290  1
  Ti  Ti3  1  0.818290  0.182777  0.818290  1
  Ti  Ti4  1  0.182744  0.816931  0.182744  1
  Ti  Ti5  1  0.182744  0.816931  0.817582  1
  Ti  Ti6  1  0.818290  0.182777  0.180642  1
  Ti  Ti7  1  0.432418  0.433069  0.067256  1
  Ti  Ti8  1  0.069358  0.067223  0.431710  1
  Ti  Ti9  1  0.431710  0.067223  0.431710  1
  Ti  Ti10  1  0.067256  0.433069  0.067256  1
  Ti  Ti11  1  0.067256  0.433069  0.432418  1
  Ti  Ti12  1  0.431710  0.067223  0.069358  1
  Al  Al13  1  0.125000  0.625000  0.625000  1
  Al  Al14  1  0.625000  0.625000  0.125000  1
  Al  Al15  1  0.625000  0.625000  0.625000  1
  Pt  Pt16  1  0.771991  0.409817  0.409097  1
  Pt  Pt17  1  0.409423  0.771729  0.409423  1
  Pt  Pt18  1  0.409097  0.409817  0.771991  1
  Pt  Pt19  1  0.409097  0.409817  0.409097  1
  Pt  Pt20  1  0.478009  0.840183  0.840903  1
  Pt  Pt21  1  0.840577  0.478271  0.840577  1
  Pt  Pt22  1  0.840903  0.840183  0.478009  1
  Pt  Pt23  1  0.840903  0.840183  0.840903  1
  N  N24  1  0.625000  0.125000  0.125000  1
  N  N25  1  0.125000  0.625000  0.125000  1
  N  N26  1  0.125000  0.125000  0.625000  1
  N  N27  1  0.125000  0.125000  0.125000  1
