# generated using pymatgen
data_Pr2Si4Ir5Rh
_symmetry_space_group_name_H-M   'P 1'
_cell_length_a   6.72921813
_cell_length_b   6.72921848
_cell_length_c   6.72377527
_cell_angle_alpha   130.31887690
_cell_angle_beta   114.70825288
_cell_angle_gamma   86.32037559
_symmetry_Int_Tables_number   1
_chemical_formula_structural   Pr2Si4Ir5Rh
_chemical_formula_sum   'Pr2 Si4 Ir5 Rh1'
_cell_volume   201.32071269
_cell_formula_units_Z   1
loop_
 _symmetry_equiv_pos_site_id
 _symmetry_equiv_pos_as_xyz
  1  'x, y, z'
loop_
 _atom_site_type_symbol
 _atom_site_label
 _atom_site_symmetry_multiplicity
 _atom_site_fract_x
 _atom_site_fract_y
 _atom_site_fract_z
 _atom_site_occupancy
  Pr  Pr0  1  0.250496  0.972641  0.723137  1
  Pr  Pr1  1  0.749504  0.027359  0.276863  1
  Si  Si2  1  0.078414  0.279665  0.200452  1
  Si  Si3  1  0.921586  0.720335  0.799548  1
  Si  Si4  1  0.420787  0.622038  0.200452  1
  Si  Si5  1  0.579213  0.377962  0.799548  1
  Ir  Ir6  1  0.500000  0.500000  0.500000  1
  Ir  Ir7  1  0.280276  0.999134  0.280617  1
  Ir  Ir8  1  0.719724  0.000866  0.719383  1
  Ir  Ir9  1  0.218516  0.499659  0.719383  1
  Ir  Ir10  1  0.781484  0.500341  0.280617  1
  Rh  Rh11  1  0.000000  0.500000  0.000000  1
