# generated using pymatgen
data_DyErNiPt
_symmetry_space_group_name_H-M   'P 1'
_cell_length_a   4.34237200
_cell_length_b   5.50653300
_cell_length_c   7.07957100
_cell_angle_alpha   90.00000000
_cell_angle_beta   90.00000000
_cell_angle_gamma   90.00000000
_symmetry_Int_Tables_number   1
_chemical_formula_structural   DyErNiPt
_chemical_formula_sum   'Dy2 Er2 Ni2 Pt2'
_cell_volume   169.28255819
_cell_formula_units_Z   2
loop_
 _symmetry_equiv_pos_site_id
 _symmetry_equiv_pos_as_xyz
  1  'x, y, z'
loop_
 _atom_site_type_symbol
 _atom_site_label
 _atom_site_symmetry_multiplicity
 _atom_site_fract_x
 _atom_site_fract_y
 _atom_site_fract_z
 _atom_site_occupancy
  Dy  Dy0  1  0.500000  0.385237  0.319255  1
  Dy  Dy1  1  0.500000  0.614763  0.819255  1
  Er  Er2  1  0.000000  0.117916  0.679674  1
  Er  Er3  1  0.000000  0.882084  0.179674  1
  Ni  Ni4  1  0.000000  0.612757  0.541427  1
  Ni  Ni5  1  0.000000  0.387243  0.041427  1
  Pt  Pt6  1  0.500000  0.887226  0.459644  1
  Pt  Pt7  1  0.500000  0.112774  0.959644  1
