# generated using pymatgen
data_TaTiNb2(CoP)4
_symmetry_space_group_name_H-M   'P 1'
_cell_length_a   3.58836900
_cell_length_b   6.11273901
_cell_length_c   6.94862829
_cell_angle_alpha   90.09293518
_cell_angle_beta   90.00000000
_cell_angle_gamma   90.00000000
_symmetry_Int_Tables_number   1
_chemical_formula_structural   TaTiNb2(CoP)4
_chemical_formula_sum   'Ta1 Ti1 Nb2 Co4 P4'
_cell_volume   152.41631529
_cell_formula_units_Z   1
loop_
 _symmetry_equiv_pos_site_id
 _symmetry_equiv_pos_as_xyz
  1  'x, y, z'
loop_
 _atom_site_type_symbol
 _atom_site_label
 _atom_site_symmetry_multiplicity
 _atom_site_fract_x
 _atom_site_fract_y
 _atom_site_fract_z
 _atom_site_occupancy
  Ta  Ta0  1  0.750000  0.025085  0.673321  1
  Ti  Ti1  1  0.750000  0.525413  0.824437  1
  Nb  Nb2  1  0.250000  0.972776  0.327104  1
  Nb  Nb3  1  0.250000  0.474144  0.173492  1
  Co  Co4  1  0.250000  0.855922  0.935173  1
  Co  Co5  1  0.250000  0.356070  0.566435  1
  Co  Co6  1  0.750000  0.142239  0.056148  1
  Co  Co7  1  0.750000  0.644156  0.443734  1
  P  P8  1  0.250000  0.230528  0.878799  1
  P  P9  1  0.250000  0.722315  0.624872  1
  P  P10  1  0.750000  0.774147  0.117612  1
  P  P11  1  0.750000  0.277204  0.378872  1
