# generated using pymatgen
data_Ba4U3MnSe12
_symmetry_space_group_name_H-M   'P 1'
_cell_length_a   7.53638457
_cell_length_b   7.63265346
_cell_length_c   10.86235700
_cell_angle_alpha   90.23978613
_cell_angle_beta   90.29005392
_cell_angle_gamma   89.92332255
_symmetry_Int_Tables_number   1
_chemical_formula_structural   Ba4U3MnSe12
_chemical_formula_sum   'Ba4 U3 Mn1 Se12'
_cell_volume   624.81712450
_cell_formula_units_Z   1
loop_
 _symmetry_equiv_pos_site_id
 _symmetry_equiv_pos_as_xyz
  1  'x, y, z'
loop_
 _atom_site_type_symbol
 _atom_site_label
 _atom_site_symmetry_multiplicity
 _atom_site_fract_x
 _atom_site_fract_y
 _atom_site_fract_z
 _atom_site_occupancy
  Ba  Ba0  1  0.996193  0.043577  0.233486  1
  Ba  Ba1  1  0.486191  0.442409  0.766676  1
  Ba  Ba2  1  0.513809  0.557591  0.233324  1
  Ba  Ba3  1  0.003807  0.956423  0.766514  1
  U  U4  1  0.000000  0.500000  0.000000  1
  U  U5  1  0.000000  0.500000  0.500000  1
  U  U6  1  0.500000  0.000000  0.500000  1
  Mn  Mn7  1  0.500000  0.000000  0.000000  1
  Se  Se8  1  0.691630  0.311824  0.461649  1
  Se  Se9  1  0.186849  0.192716  0.538799  1
  Se  Se10  1  0.779329  0.784796  0.032077  1
  Se  Se11  1  0.282753  0.720689  0.966549  1
  Se  Se12  1  0.308370  0.688176  0.538351  1
  Se  Se13  1  0.813151  0.807284  0.461201  1
  Se  Se14  1  0.220671  0.215204  0.967923  1
  Se  Se15  1  0.717247  0.279311  0.033451  1
  Se  Se16  1  0.074032  0.484780  0.251274  1
  Se  Se17  1  0.562285  0.010214  0.749908  1
  Se  Se18  1  0.437715  0.989786  0.250092  1
  Se  Se19  1  0.925968  0.515220  0.748726  1
