# generated using pymatgen
data_Hf10C8O
_symmetry_space_group_name_H-M   'P 1'
_cell_length_a   8.69223981
_cell_length_b   8.69511024
_cell_length_c   10.87735267
_cell_angle_alpha   62.91775294
_cell_angle_beta   62.93540699
_cell_angle_gamma   44.37308645
_symmetry_Int_Tables_number   1
_chemical_formula_structural   Hf10C8O
_chemical_formula_sum   'Hf20 C16 O2'
_cell_volume   500.68066295
_cell_formula_units_Z   2
loop_
 _symmetry_equiv_pos_site_id
 _symmetry_equiv_pos_as_xyz
  1  'x, y, z'
loop_
 _atom_site_type_symbol
 _atom_site_label
 _atom_site_symmetry_multiplicity
 _atom_site_fract_x
 _atom_site_fract_y
 _atom_site_fract_z
 _atom_site_occupancy
  Hf  Hf0  1  0.237639  0.476735  0.945083  1
  Hf  Hf1  1  0.718713  0.973212  0.958744  1
  Hf  Hf2  1  0.564321  0.330331  0.648987  1
  Hf  Hf3  1  0.435679  0.669669  0.351013  1
  Hf  Hf4  1  0.281287  0.026788  0.041256  1
  Hf  Hf5  1  0.085134  0.817660  0.640820  1
  Hf  Hf6  1  0.128277  0.366331  0.747713  1
  Hf  Hf7  1  0.914866  0.182340  0.359180  1
  Hf  Hf8  1  0.967861  0.721241  0.456645  1
  Hf  Hf9  1  0.762361  0.523265  0.054917  1
  Hf  Hf10  1  0.620271  0.881195  0.745945  1
  Hf  Hf11  1  0.815997  0.081429  0.145354  1
  Hf  Hf12  1  0.476908  0.224862  0.446907  1
  Hf  Hf13  1  0.671479  0.436053  0.850584  1
  Hf  Hf14  1  0.523092  0.775138  0.553093  1
  Hf  Hf15  1  0.328521  0.563947  0.149416  1
  Hf  Hf16  1  0.379729  0.118805  0.254055  1
  Hf  Hf17  1  0.184003  0.918571  0.854646  1
  Hf  Hf18  1  0.032139  0.278759  0.543355  1
  Hf  Hf19  1  0.871723  0.633669  0.252287  1
  C  C20  1  0.577056  0.826507  0.146941  1
  C  C21  1  0.778515  0.023834  0.551449  1
  C  C22  1  0.422944  0.173493  0.853059  1
  C  C23  1  0.627813  0.375803  0.248898  1
  C  C24  1  0.273001  0.528751  0.551807  1
  C  C25  1  0.476317  0.725461  0.950145  1
  C  C26  1  0.323510  0.075518  0.651142  1
  C  C27  1  0.174016  0.423449  0.350532  1
  C  C28  1  0.975329  0.226019  0.951980  1
  C  C29  1  0.825984  0.576551  0.649468  1
  C  C30  1  0.024671  0.773981  0.048020  1
  C  C31  1  0.676490  0.924482  0.348858  1
  C  C32  1  0.726999  0.471249  0.448193  1
  C  C33  1  0.523683  0.274539  0.049855  1
  C  C34  1  0.372187  0.624197  0.751102  1
  C  C35  1  0.221485  0.976166  0.448551  1
  O  O36  1  0.074550  0.325451  0.147599  1
  O  O37  1  0.925450  0.674549  0.852401  1
