# generated using pymatgen
data_Y8Tm12Sn13Bi3
_symmetry_space_group_name_H-M   'P 1'
_cell_length_a   8.07452316
_cell_length_b   8.13148522
_cell_length_c   15.34058300
_cell_angle_alpha   90.05755308
_cell_angle_beta   89.77700458
_cell_angle_gamma   90.10314659
_symmetry_Int_Tables_number   1
_chemical_formula_structural   Y8Tm12Sn13Bi3
_chemical_formula_sum   'Y8 Tm12 Sn13 Bi3'
_cell_volume   1007.22017670
_cell_formula_units_Z   1
loop_
 _symmetry_equiv_pos_site_id
 _symmetry_equiv_pos_as_xyz
  1  'x, y, z'
loop_
 _atom_site_type_symbol
 _atom_site_label
 _atom_site_symmetry_multiplicity
 _atom_site_fract_x
 _atom_site_fract_y
 _atom_site_fract_z
 _atom_site_occupancy
  Y  Y0  1  0.529596  0.328325  0.900029  1
  Y  Y1  1  0.039419  0.175251  0.603250  1
  Y  Y2  1  0.460701  0.674966  0.397122  1
  Y  Y3  1  0.965609  0.821423  0.100560  1
  Y  Y4  1  0.475179  0.671938  0.098427  1
  Y  Y5  1  0.976972  0.826391  0.398534  1
  Y  Y6  1  0.522075  0.325126  0.601349  1
  Y  Y7  1  0.022003  0.180141  0.899893  1
  Tm  Tm8  1  0.370497  0.834513  0.875297  1
  Tm  Tm9  1  0.875533  0.660293  0.625744  1
  Tm  Tm10  1  0.626210  0.159336  0.373866  1
  Tm  Tm11  1  0.129428  0.342322  0.124346  1
  Tm  Tm12  1  0.637295  0.161560  0.123789  1
  Tm  Tm13  1  0.135492  0.337675  0.376258  1
  Tm  Tm14  1  0.364926  0.837691  0.623646  1
  Tm  Tm15  1  0.867735  0.661998  0.875874  1
  Tm  Tm16  1  0.198752  0.502677  0.750674  1
  Tm  Tm17  1  0.698094  0.997403  0.754170  1
  Tm  Tm18  1  0.801199  0.497625  0.246848  1
  Tm  Tm19  1  0.301507  0.002614  0.252475  1
  Sn  Sn20  1  0.207893  0.535998  0.958024  1
  Sn  Sn21  1  0.709893  0.962885  0.958257  1
  Sn  Sn22  1  0.211164  0.535449  0.542176  1
  Sn  Sn23  1  0.289574  0.035772  0.457873  1
  Sn  Sn24  1  0.793555  0.462429  0.041695  1
  Sn  Sn25  1  0.565323  0.623258  0.747413  1
  Sn  Sn26  1  0.065026  0.878643  0.750818  1
  Sn  Sn27  1  0.436189  0.376660  0.248942  1
  Sn  Sn28  1  0.936193  0.123182  0.251142  1
  Sn  Sn29  1  0.338125  0.148981  0.751652  1
  Sn  Sn30  1  0.835864  0.350667  0.748789  1
  Sn  Sn31  1  0.662157  0.849599  0.250036  1
  Sn  Sn32  1  0.161979  0.649350  0.248994  1
  Bi  Bi33  1  0.288620  0.035692  0.042085  1
  Bi  Bi34  1  0.786134  0.466201  0.457579  1
  Bi  Bi35  1  0.714090  0.965964  0.542372  1
