# generated using pymatgen
data_Dy9Y7(AgRh)4
_symmetry_space_group_name_H-M   'P 1'
_cell_length_a   9.54060379
_cell_length_b   9.53902102
_cell_length_c   9.49384815
_cell_angle_alpha   60.16657308
_cell_angle_beta   60.15108512
_cell_angle_gamma   60.41181975
_symmetry_Int_Tables_number   1
_chemical_formula_structural   Dy9Y7(AgRh)4
_chemical_formula_sum   'Dy9 Y7 Ag4 Rh4'
_cell_volume   614.30683303
_cell_formula_units_Z   1
loop_
 _symmetry_equiv_pos_site_id
 _symmetry_equiv_pos_as_xyz
  1  'x, y, z'
loop_
 _atom_site_type_symbol
 _atom_site_label
 _atom_site_symmetry_multiplicity
 _atom_site_fract_x
 _atom_site_fract_y
 _atom_site_fract_z
 _atom_site_occupancy
  Dy  Dy0  1  0.603398  0.603354  0.602769  1
  Dy  Dy1  1  0.603356  0.603382  0.190499  1
  Dy  Dy2  1  0.603680  0.190314  0.603033  1
  Dy  Dy3  1  0.190289  0.603673  0.602986  1
  Dy  Dy4  1  0.061978  0.437225  0.438012  1
  Dy  Dy5  1  0.437224  0.061959  0.062792  1
  Dy  Dy6  1  0.436891  0.062298  0.437659  1
  Dy  Dy7  1  0.062308  0.436888  0.063139  1
  Dy  Dy8  1  0.437013  0.437017  0.062982  1
  Y  Y9  1  0.062117  0.062095  0.437894  1
  Y  Y10  1  0.186153  0.813779  0.813966  1
  Y  Y11  1  0.813773  0.186165  0.186089  1
  Y  Y12  1  0.813994  0.185965  0.814189  1
  Y  Y13  1  0.185948  0.813995  0.185860  1
  Y  Y14  1  0.813675  0.813674  0.186323  1
  Y  Y15  1  0.185902  0.185900  0.814097  1
  Ag  Ag16  1  0.832114  0.832127  0.831684  1
  Ag  Ag17  1  0.832128  0.832102  0.504072  1
  Ag  Ag18  1  0.832162  0.504556  0.831633  1
  Ag  Ag19  1  0.504534  0.832163  0.831660  1
  Rh  Rh20  1  0.393847  0.393640  0.392939  1
  Rh  Rh21  1  0.393629  0.393829  0.819608  1
  Rh  Rh22  1  0.396051  0.817824  0.393140  1
  Rh  Rh23  1  0.817838  0.396076  0.392979  1
