# generated using pymatgen
data_As3Pb2IO6
_symmetry_space_group_name_H-M   'P 1'
_cell_length_a   5.48193600
_cell_length_b   8.50308359
_cell_length_c   11.09422047
_cell_angle_alpha   74.14126727
_cell_angle_beta   90.00000000
_cell_angle_gamma   90.00000000
_symmetry_Int_Tables_number   1
_chemical_formula_structural   As3Pb2IO6
_chemical_formula_sum   'As6 Pb4 I2 O12'
_cell_volume   497.45574844
_cell_formula_units_Z   2
loop_
 _symmetry_equiv_pos_site_id
 _symmetry_equiv_pos_as_xyz
  1  'x, y, z'
loop_
 _atom_site_type_symbol
 _atom_site_label
 _atom_site_symmetry_multiplicity
 _atom_site_fract_x
 _atom_site_fract_y
 _atom_site_fract_z
 _atom_site_occupancy
  As  As0  1  0.250000  0.732944  0.418674  1
  As  As1  1  0.750000  0.267056  0.581326  1
  As  As2  1  0.250000  0.593160  0.170797  1
  As  As3  1  0.750000  0.406840  0.829203  1
  As  As4  1  0.250000  0.609708  0.810604  1
  As  As5  1  0.750000  0.390292  0.189396  1
  Pb  Pb6  1  0.250000  0.154428  0.395138  1
  Pb  Pb7  1  0.750000  0.845572  0.604862  1
  Pb  Pb8  1  0.250000  0.040240  0.770518  1
  Pb  Pb9  1  0.750000  0.959760  0.229482  1
  I  I10  1  0.750000  0.808652  0.937327  1
  I  I11  1  0.250000  0.191348  0.062673  1
  O  O12  1  0.995961  0.526740  0.732917  1
  O  O13  1  0.495961  0.473260  0.267083  1
  O  O14  1  0.004039  0.473260  0.267083  1
  O  O15  1  0.504039  0.526740  0.732917  1
  O  O16  1  0.009319  0.879072  0.412805  1
  O  O17  1  0.509319  0.120928  0.587195  1
  O  O18  1  0.990681  0.120928  0.587195  1
  O  O19  1  0.490681  0.879072  0.412805  1
  O  O20  1  0.750000  0.241778  0.754474  1
  O  O21  1  0.250000  0.758222  0.245526  1
  O  O22  1  0.250000  0.803981  0.698833  1
  O  O23  1  0.750000  0.196019  0.301167  1
