# generated using pymatgen
data_PrTh7(Si3Pd)4
_symmetry_space_group_name_H-M   'P 1'
_cell_length_a   8.25000300
_cell_length_b   8.25000309
_cell_length_c   8.54152400
_cell_angle_alpha   90.00000000
_cell_angle_beta   90.00000000
_cell_angle_gamma   120.00000363
_symmetry_Int_Tables_number   1
_chemical_formula_structural   PrTh7(Si3Pd)4
_chemical_formula_sum   'Pr1 Th7 Si12 Pd4'
_cell_volume   503.47069750
_cell_formula_units_Z   1
loop_
 _symmetry_equiv_pos_site_id
 _symmetry_equiv_pos_as_xyz
  1  'x, y, z'
loop_
 _atom_site_type_symbol
 _atom_site_label
 _atom_site_symmetry_multiplicity
 _atom_site_fract_x
 _atom_site_fract_y
 _atom_site_fract_z
 _atom_site_occupancy
  Pr  Pr0  1  0.000000  0.000000  0.250000  1
  Th  Th1  1  0.499622  0.500378  0.750000  1
  Th  Th2  1  0.500419  0.499581  0.250000  1
  Th  Th3  1  0.000755  0.500378  0.750000  1
  Th  Th4  1  0.999161  0.499581  0.250000  1
  Th  Th5  1  0.499622  0.999245  0.750000  1
  Th  Th6  1  0.500419  0.000839  0.250000  1
  Th  Th7  1  0.000000  0.000000  0.750000  1
  Si  Si8  1  0.834147  0.165853  0.999422  1
  Si  Si9  1  0.165858  0.834142  0.000035  1
  Si  Si10  1  0.331707  0.165853  0.999422  1
  Si  Si11  1  0.165858  0.834142  0.499965  1
  Si  Si12  1  0.668283  0.834142  0.000035  1
  Si  Si13  1  0.834147  0.165853  0.500578  1
  Si  Si14  1  0.834147  0.668293  0.999422  1
  Si  Si15  1  0.668283  0.834142  0.499965  1
  Si  Si16  1  0.165858  0.331717  0.000035  1
  Si  Si17  1  0.331707  0.165853  0.500578  1
  Si  Si18  1  0.165858  0.331717  0.499965  1
  Si  Si19  1  0.834147  0.668293  0.500578  1
  Pd  Pd20  1  0.666667  0.333333  0.997007  1
  Pd  Pd21  1  0.333333  0.666667  0.001395  1
  Pd  Pd22  1  0.333333  0.666667  0.498605  1
  Pd  Pd23  1  0.666667  0.333333  0.502993  1
