# generated using pymatgen
data_Yb3DyTm2(Si3Ru)8
_symmetry_space_group_name_H-M   'P 1'
_cell_length_a   10.14280947
_cell_length_b   10.14274678
_cell_length_c   8.11713928
_cell_angle_alpha   89.96168635
_cell_angle_beta   90.03749230
_cell_angle_gamma   132.82364396
_symmetry_Int_Tables_number   1
_chemical_formula_structural   Yb3DyTm2(Si3Ru)8
_chemical_formula_sum   'Yb3 Dy1 Tm2 Si24 Ru8'
_cell_volume   612.47293995
_cell_formula_units_Z   1
loop_
 _symmetry_equiv_pos_site_id
 _symmetry_equiv_pos_as_xyz
  1  'x, y, z'
loop_
 _atom_site_type_symbol
 _atom_site_label
 _atom_site_symmetry_multiplicity
 _atom_site_fract_x
 _atom_site_fract_y
 _atom_site_fract_z
 _atom_site_occupancy
  Yb  Yb0  1  0.500272  0.500239  0.500091  1
  Yb  Yb1  1  0.000242  0.000272  0.999909  1
  Yb  Yb2  1  0.501582  0.001578  0.749997  1
  Dy  Dy3  1  0.001072  0.501073  0.749996  1
  Tm  Tm4  1  0.000039  0.500040  0.250003  1
  Tm  Tm5  1  0.499486  0.999482  0.250004  1
  Si  Si6  1  0.795084  0.203572  0.499191  1
  Si  Si7  1  0.297034  0.705757  0.000053  1
  Si  Si8  1  0.205760  0.797032  0.499946  1
  Si  Si9  1  0.703576  0.295088  0.000809  1
  Si  Si10  1  0.332818  0.334411  0.832347  1
  Si  Si11  1  0.665986  0.668147  0.167176  1
  Si  Si12  1  0.168147  0.165982  0.332827  1
  Si  Si13  1  0.834413  0.832817  0.667647  1
  Si  Si14  1  0.122898  0.889921  0.730956  1
  Si  Si15  1  0.108547  0.876840  0.270365  1
  Si  Si16  1  0.608448  0.376780  0.229545  1
  Si  Si17  1  0.623534  0.390430  0.769157  1
  Si  Si18  1  0.876779  0.108448  0.270450  1
  Si  Si19  1  0.890429  0.123534  0.730845  1
  Si  Si20  1  0.389923  0.622895  0.769044  1
  Si  Si21  1  0.376839  0.608545  0.229634  1
  Si  Si22  1  0.346597  0.113844  0.505391  1
  Si  Si23  1  0.886186  0.653705  0.492770  1
  Si  Si24  1  0.386055  0.152825  0.006861  1
  Si  Si25  1  0.845826  0.613863  0.992961  1
  Si  Si26  1  0.652817  0.886049  0.493129  1
  Si  Si27  1  0.113864  0.345835  0.507048  1
  Si  Si28  1  0.613847  0.846595  0.994611  1
  Si  Si29  1  0.153712  0.386189  0.007225  1
  Ru  Ru30  1  0.672029  0.329059  0.497385  1
  Ru  Ru31  1  0.169881  0.827524  0.002675  1
  Ru  Ru32  1  0.327525  0.669879  0.497328  1
  Ru  Ru33  1  0.829051  0.172028  0.002621  1
  Ru  Ru34  1  0.126215  0.126468  0.626121  1
  Ru  Ru35  1  0.873197  0.873824  0.374599  1
  Ru  Ru36  1  0.373820  0.373206  0.125408  1
  Ru  Ru37  1  0.626469  0.626224  0.873873  1
