# generated using pymatgen
data_Rb4Na2DyInP4
_symmetry_space_group_name_H-M   'P 1'
_cell_length_a   9.25782234
_cell_length_b   9.25782287
_cell_length_c   9.25782228
_cell_angle_alpha   136.01996864
_cell_angle_beta   62.99614383
_cell_angle_gamma   137.26234491
_symmetry_Int_Tables_number   1
_chemical_formula_structural   Rb4Na2DyInP4
_chemical_formula_sum   'Rb4 Na2 Dy1 In1 P4'
_cell_volume   369.22590508
_cell_formula_units_Z   1
loop_
 _symmetry_equiv_pos_site_id
 _symmetry_equiv_pos_as_xyz
  1  'x, y, z'
loop_
 _atom_site_type_symbol
 _atom_site_label
 _atom_site_symmetry_multiplicity
 _atom_site_fract_x
 _atom_site_fract_y
 _atom_site_fract_z
 _atom_site_occupancy
  Rb  Rb0  1  0.331820  0.784385  0.092280  1
  Rb  Rb1  1  0.168180  0.260461  0.452565  1
  Rb  Rb2  1  0.807894  0.715614  0.547436  1
  Rb  Rb3  1  0.692106  0.239540  0.907721  1
  Na  Na4  1  0.750001  0.250001  0.500000  1
  Na  Na5  1  0.250001  0.750001  0.500000  1
  Dy  Dy6  1  0.250001  0.250001  0.000000  1
  In  In7  1  0.750000  0.750000  0.000000  1
  P  P8  1  0.899096  0.213024  0.123650  1
  P  P9  1  0.600903  0.724553  0.313926  1
  P  P10  1  0.410626  0.286976  0.686073  1
  P  P11  1  0.089374  0.775447  0.876350  1
