# generated using pymatgen
data_Na2ScIO6
_symmetry_space_group_name_H-M   'P 1'
_cell_length_a   5.60456554
_cell_length_b   5.60456606
_cell_length_c   5.60456600
_cell_angle_alpha   119.99999962
_cell_angle_beta   120.00000273
_cell_angle_gamma   59.99999788
_symmetry_Int_Tables_number   1
_chemical_formula_structural   Na2ScIO6
_chemical_formula_sum   'Na2 Sc1 I1 O6'
_cell_volume   124.48325053
_cell_formula_units_Z   1
loop_
 _symmetry_equiv_pos_site_id
 _symmetry_equiv_pos_as_xyz
  1  'x, y, z'
loop_
 _atom_site_type_symbol
 _atom_site_label
 _atom_site_symmetry_multiplicity
 _atom_site_fract_x
 _atom_site_fract_y
 _atom_site_fract_z
 _atom_site_occupancy
  Na  Na0  1  0.749999  0.749999  0.249999  1
  Na  Na1  1  0.249999  0.249999  0.750000  1
  Sc  Sc2  1  0.500000  0.500000  0.499999  1
  I  I3  1  0.000000  0.000000  0.000000  1
  O  O4  1  0.762557  0.237443  0.237443  1
  O  O5  1  0.237443  0.762557  0.237443  1
  O  O6  1  0.237445  0.237445  0.237446  1
  O  O7  1  0.762555  0.237445  0.762556  1
  O  O8  1  0.237445  0.762555  0.762556  1
  O  O9  1  0.762556  0.762556  0.762556  1
