# generated using pymatgen
data_DyTmFe3Re14C3
_symmetry_space_group_name_H-M   'P 1'
_cell_length_a   6.92040306
_cell_length_b   6.92040406
_cell_length_c   6.92040304
_cell_angle_alpha   82.41394386
_cell_angle_beta   82.41393888
_cell_angle_gamma   82.41394667
_symmetry_Int_Tables_number   1
_chemical_formula_structural   DyTmFe3Re14C3
_chemical_formula_sum   'Dy1 Tm1 Fe3 Re14 C3'
_cell_volume   323.43358469
_cell_formula_units_Z   1
loop_
 _symmetry_equiv_pos_site_id
 _symmetry_equiv_pos_as_xyz
  1  'x, y, z'
loop_
 _atom_site_type_symbol
 _atom_site_label
 _atom_site_symmetry_multiplicity
 _atom_site_fract_x
 _atom_site_fract_y
 _atom_site_fract_z
 _atom_site_occupancy
  Dy  Dy0  1  0.648697  0.648697  0.648697  1
  Tm  Tm1  1  0.350902  0.350902  0.350902  1
  Fe  Fe2  1  0.999870  0.999870  0.500077  1
  Fe  Fe3  1  0.500077  0.999870  0.999870  1
  Fe  Fe4  1  0.999870  0.500077  0.999870  1
  Re  Re5  1  0.722076  0.277849  0.000096  1
  Re  Re6  1  0.000096  0.722076  0.277849  1
  Re  Re7  1  0.277849  0.000096  0.722076  1
  Re  Re8  1  0.000096  0.277849  0.722076  1
  Re  Re9  1  0.722076  0.000096  0.277849  1
  Re  Re10  1  0.277849  0.722076  0.000096  1
  Re  Re11  1  0.346510  0.346510  0.860844  1
  Re  Re12  1  0.860844  0.346510  0.346510  1
  Re  Re13  1  0.346510  0.860844  0.346510  1
  Re  Re14  1  0.652994  0.652994  0.140290  1
  Re  Re15  1  0.140290  0.652994  0.652994  1
  Re  Re16  1  0.652994  0.140290  0.652994  1
  Re  Re17  1  0.897662  0.897662  0.897662  1
  Re  Re18  1  0.102543  0.102543  0.102543  1
  C  C19  1  0.498805  0.498805  0.002588  1
  C  C20  1  0.002588  0.498805  0.498805  1
  C  C21  1  0.498805  0.002588  0.498805  1
