# generated using pymatgen
data_Sm2CoP4Rh3
_symmetry_space_group_name_H-M   'P 1'
_cell_length_a   4.10507800
_cell_length_b   4.10507800
_cell_length_c   9.43552000
_cell_angle_alpha   90.00000000
_cell_angle_beta   90.00000000
_cell_angle_gamma   90.00000000
_symmetry_Int_Tables_number   1
_chemical_formula_structural   Sm2CoP4Rh3
_chemical_formula_sum   'Sm2 Co1 P4 Rh3'
_cell_volume   159.00422578
_cell_formula_units_Z   1
loop_
 _symmetry_equiv_pos_site_id
 _symmetry_equiv_pos_as_xyz
  1  'x, y, z'
loop_
 _atom_site_type_symbol
 _atom_site_label
 _atom_site_symmetry_multiplicity
 _atom_site_fract_x
 _atom_site_fract_y
 _atom_site_fract_z
 _atom_site_occupancy
  Sm  Sm0  1  0.500000  0.000000  0.738874  1
  Sm  Sm1  1  0.000000  0.500000  0.260101  1
  Co  Co2  1  0.000000  0.500000  0.611677  1
  P  P3  1  0.500000  0.500000  0.509943  1
  P  P4  1  0.500000  0.000000  0.137593  1
  P  P5  1  0.000000  0.000000  0.509943  1
  P  P6  1  0.000000  0.500000  0.850900  1
  Rh  Rh7  1  0.500000  0.000000  0.389741  1
  Rh  Rh8  1  0.000000  0.000000  0.995614  1
  Rh  Rh9  1  0.500000  0.500000  0.995614  1
