# generated using pymatgen
data_Cs7Tl3VP5
_symmetry_space_group_name_H-M   'P 1'
_cell_length_a   8.76129767
_cell_length_b   9.56525915
_cell_length_c   14.65387700
_cell_angle_alpha   85.40899290
_cell_angle_beta   84.97751844
_cell_angle_gamma   85.04732431
_symmetry_Int_Tables_number   1
_chemical_formula_structural   Cs7Tl3VP5
_chemical_formula_sum   'Cs14 Tl6 V2 P10'
_cell_volume   1215.51698093
_cell_formula_units_Z   2
loop_
 _symmetry_equiv_pos_site_id
 _symmetry_equiv_pos_as_xyz
  1  'x, y, z'
loop_
 _atom_site_type_symbol
 _atom_site_label
 _atom_site_symmetry_multiplicity
 _atom_site_fract_x
 _atom_site_fract_y
 _atom_site_fract_z
 _atom_site_occupancy
  Cs  Cs0  1  0.834562  0.364006  0.650725  1
  Cs  Cs1  1  0.817307  0.805734  0.132188  1
  Cs  Cs2  1  0.238949  0.009921  0.468610  1
  Cs  Cs3  1  0.269553  0.258588  0.250435  1
  Cs  Cs4  1  0.736272  0.502977  0.974996  1
  Cs  Cs5  1  0.263728  0.497023  0.025004  1
  Cs  Cs6  1  0.678891  0.086474  0.888016  1
  Cs  Cs7  1  0.761051  0.990079  0.531390  1
  Cs  Cs8  1  0.730447  0.741412  0.749565  1
  Cs  Cs9  1  0.327993  0.344531  0.599444  1
  Cs  Cs10  1  0.165438  0.635994  0.349275  1
  Cs  Cs11  1  0.182693  0.194266  0.867812  1
  Cs  Cs12  1  0.321109  0.913526  0.111984  1
  Cs  Cs13  1  0.672007  0.655469  0.400556  1
  Tl  Tl14  1  0.060560  0.814702  0.870800  1
  Tl  Tl15  1  0.939440  0.185298  0.129200  1
  Tl  Tl16  1  0.365480  0.951539  0.705225  1
  Tl  Tl17  1  0.097546  0.720150  0.622090  1
  Tl  Tl18  1  0.902454  0.279850  0.377910  1
  Tl  Tl19  1  0.634520  0.048461  0.294775  1
  V  V20  1  0.353591  0.605883  0.773202  1
  V  V21  1  0.646409  0.394117  0.226798  1
  P  P22  1  0.899458  0.449807  0.211807  1
  P  P23  1  0.618768  0.218736  0.127520  1
  P  P24  1  0.100542  0.550193  0.788193  1
  P  P25  1  0.582486  0.307055  0.378076  1
  P  P26  1  0.417514  0.692945  0.621924  1
  P  P27  1  0.032211  0.001379  0.701120  1
  P  P28  1  0.502249  0.412999  0.806699  1
  P  P29  1  0.497751  0.587001  0.193301  1
  P  P30  1  0.381232  0.781264  0.872480  1
  P  P31  1  0.967789  0.998621  0.298880  1
