# generated using pymatgen
data_Er6Sc2Ti11Si16Pt
_symmetry_space_group_name_H-M   'P 1'
_cell_length_a   6.97877740
_cell_length_b   6.98493348
_cell_length_c   12.74227465
_cell_angle_alpha   90.20913475
_cell_angle_beta   89.92075362
_cell_angle_gamma   89.70674010
_symmetry_Int_Tables_number   1
_chemical_formula_structural   Er6Sc2Ti11Si16Pt
_chemical_formula_sum   'Er6 Sc2 Ti11 Si16 Pt1'
_cell_volume   621.12580735
_cell_formula_units_Z   1
loop_
 _symmetry_equiv_pos_site_id
 _symmetry_equiv_pos_as_xyz
  1  'x, y, z'
loop_
 _atom_site_type_symbol
 _atom_site_label
 _atom_site_symmetry_multiplicity
 _atom_site_fract_x
 _atom_site_fract_y
 _atom_site_fract_z
 _atom_site_occupancy
  Er  Er0  1  0.501922  0.157033  0.214995  1
  Er  Er1  1  0.841956  0.496010  0.283833  1
  Er  Er2  1  0.158273  0.502189  0.783974  1
  Er  Er3  1  0.657183  0.998692  0.968399  1
  Er  Er4  1  0.004832  0.339861  0.532929  1
  Er  Er5  1  0.999757  0.656244  0.030891  1
  Sc  Sc6  1  0.343225  0.999045  0.466690  1
  Sc  Sc7  1  0.499784  0.844167  0.717030  1
  Ti  Ti8  1  0.176508  0.826676  0.249204  1
  Ti  Ti9  1  0.825197  0.174669  0.750677  1
  Ti  Ti10  1  0.671141  0.675178  0.500932  1
  Ti  Ti11  1  0.147949  0.001493  0.873915  1
  Ti  Ti12  1  0.494677  0.654930  0.123832  1
  Ti  Ti13  1  0.503285  0.352443  0.626708  1
  Ti  Ti14  1  0.653149  0.493714  0.874809  1
  Ti  Ti15  1  0.351132  0.507784  0.374409  1
  Ti  Ti16  1  0.850123  0.994171  0.375901  1
  Ti  Ti17  1  0.003925  0.148566  0.124805  1
  Ti  Ti18  1  0.991729  0.852874  0.624875  1
  Si  Si19  1  0.207849  0.130148  0.682097  1
  Si  Si20  1  0.373203  0.713221  0.928407  1
  Si  Si21  1  0.627824  0.290522  0.433624  1
  Si  Si22  1  0.710252  0.372129  0.068312  1
  Si  Si23  1  0.297227  0.640676  0.569220  1
  Si  Si24  1  0.797097  0.865648  0.183811  1
  Si  Si25  1  0.137820  0.199553  0.318613  1
  Si  Si26  1  0.861731  0.797301  0.815450  1
  Si  Si27  1  0.286424  0.946147  0.063539  1
  Si  Si28  1  0.545681  0.794621  0.317022  1
  Si  Si29  1  0.450887  0.204101  0.813672  1
  Si  Si30  1  0.789390  0.549635  0.684454  1
  Si  Si31  1  0.209367  0.449424  0.185639  1
  Si  Si32  1  0.699824  0.045664  0.566179  1
  Si  Si33  1  0.947173  0.285832  0.935170  1
  Si  Si34  1  0.051047  0.710472  0.435760  1
  Pt  Pt35  1  0.331456  0.329170  0.000224  1
