# generated using pymatgen
data_Li3Ac2CePt3
_symmetry_space_group_name_H-M   'P 1'
_cell_length_a   7.56160100
_cell_length_b   7.49409994
_cell_length_c   4.24071500
_cell_angle_alpha   90.00000000
_cell_angle_beta   90.00000000
_cell_angle_gamma   120.30249332
_symmetry_Int_Tables_number   1
_chemical_formula_structural   Li3Ac2CePt3
_chemical_formula_sum   'Li3 Ac2 Ce1 Pt3'
_cell_volume   207.47753811
_cell_formula_units_Z   1
loop_
 _symmetry_equiv_pos_site_id
 _symmetry_equiv_pos_as_xyz
  1  'x, y, z'
loop_
 _atom_site_type_symbol
 _atom_site_label
 _atom_site_symmetry_multiplicity
 _atom_site_fract_x
 _atom_site_fract_y
 _atom_site_fract_z
 _atom_site_occupancy
  Li  Li0  1  0.229105  0.000044  0.500000  1
  Li  Li1  1  0.989738  0.219383  0.500000  1
  Li  Li2  1  0.770490  0.780622  0.500000  1
  Ac  Ac3  1  0.002674  0.593087  0.000000  1
  Ac  Ac4  1  0.409857  0.406576  0.000000  1
  Ce  Ce5  1  0.596606  0.000397  0.000000  1
  Pt  Pt6  1  0.356015  0.692292  0.500000  1
  Pt  Pt7  1  0.663738  0.307599  0.500000  1
  Pt  Pt8  1  0.981778  0.000000  0.000000  1
