# generated using pymatgen
data_Lu7Sc3(Bi2Sb)2
_symmetry_space_group_name_H-M   'P 1'
_cell_length_a   7.90404900
_cell_length_b   9.19157768
_cell_length_c   11.62823985
_cell_angle_alpha   90.04395800
_cell_angle_beta   90.00000000
_cell_angle_gamma   90.00000000
_symmetry_Int_Tables_number   1
_chemical_formula_structural   Lu7Sc3(Bi2Sb)2
_chemical_formula_sum   'Lu14 Sc6 Bi8 Sb4'
_cell_volume   844.79928804
_cell_formula_units_Z   2
loop_
 _symmetry_equiv_pos_site_id
 _symmetry_equiv_pos_as_xyz
  1  'x, y, z'
loop_
 _atom_site_type_symbol
 _atom_site_label
 _atom_site_symmetry_multiplicity
 _atom_site_fract_x
 _atom_site_fract_y
 _atom_site_fract_z
 _atom_site_occupancy
  Lu  Lu0  1  0.809007  0.065793  0.557542  1
  Lu  Lu1  1  0.309007  0.434207  0.942458  1
  Lu  Lu2  1  0.809513  0.434279  0.557609  1
  Lu  Lu3  1  0.309513  0.065721  0.942391  1
  Lu  Lu4  1  0.191115  0.934140  0.442186  1
  Lu  Lu5  1  0.691115  0.565860  0.057814  1
  Lu  Lu6  1  0.182744  0.749666  0.717160  1
  Lu  Lu7  1  0.682744  0.750334  0.782840  1
  Lu  Lu8  1  0.816572  0.249541  0.282654  1
  Lu  Lu9  1  0.316572  0.250459  0.217346  1
  Lu  Lu10  1  0.853265  0.750755  0.284754  1
  Lu  Lu11  1  0.353265  0.749245  0.215246  1
  Lu  Lu12  1  0.146016  0.249860  0.714802  1
  Lu  Lu13  1  0.646016  0.250140  0.785198  1
  Sc  Sc14  1  0.191042  0.566211  0.442709  1
  Sc  Sc15  1  0.691042  0.933789  0.057291  1
  Sc  Sc16  1  0.025351  0.751327  0.989104  1
  Sc  Sc17  1  0.525351  0.748673  0.510896  1
  Sc  Sc18  1  0.973679  0.249226  0.012085  1
  Sc  Sc19  1  0.473679  0.250774  0.487915  1
  Bi  Bi20  1  0.934800  0.496957  0.828808  1
  Bi  Bi21  1  0.434800  0.003043  0.671192  1
  Bi  Bi22  1  0.063254  0.996269  0.171203  1
  Bi  Bi23  1  0.563254  0.503731  0.328797  1
  Bi  Bi24  1  0.065465  0.503922  0.173229  1
  Bi  Bi25  1  0.565465  0.996078  0.326771  1
  Bi  Bi26  1  0.933669  0.003121  0.829400  1
  Bi  Bi27  1  0.433669  0.496879  0.670600  1
  Sb  Sb28  1  0.903131  0.748302  0.540851  1
  Sb  Sb29  1  0.403131  0.751698  0.959149  1
  Sb  Sb30  1  0.101374  0.254136  0.457263  1
  Sb  Sb31  1  0.601374  0.245864  0.042737  1
