# generated using pymatgen
data_Dy2Er3Tm11(Ga3Co)2
_symmetry_space_group_name_H-M   'P 1'
_cell_length_a   9.89693501
_cell_length_b   9.89661069
_cell_length_c   6.85685700
_cell_angle_alpha   89.99983733
_cell_angle_beta   90.00038323
_cell_angle_gamma   119.99543533
_symmetry_Int_Tables_number   1
_chemical_formula_structural   Dy2Er3Tm11(Ga3Co)2
_chemical_formula_sum   'Dy2 Er3 Tm11 Ga6 Co2'
_cell_volume   581.65156823
_cell_formula_units_Z   1
loop_
 _symmetry_equiv_pos_site_id
 _symmetry_equiv_pos_as_xyz
  1  'x, y, z'
loop_
 _atom_site_type_symbol
 _atom_site_label
 _atom_site_symmetry_multiplicity
 _atom_site_fract_x
 _atom_site_fract_y
 _atom_site_fract_z
 _atom_site_occupancy
  Dy  Dy0  1  0.999987  0.000003  0.270311  1
  Dy  Dy1  1  0.000013  0.000005  0.770302  1
  Er  Er2  1  0.072534  0.536264  0.293165  1
  Er  Er3  1  0.927503  0.463769  0.793173  1
  Er  Er4  1  0.536229  0.072491  0.793180  1
  Tm  Tm5  1  0.173637  0.826420  0.990730  1
  Tm  Tm6  1  0.826355  0.173542  0.490645  1
  Tm  Tm7  1  0.173690  0.347233  0.990689  1
  Tm  Tm8  1  0.652708  0.826308  0.990737  1
  Tm  Tm9  1  0.347259  0.173655  0.490653  1
  Tm  Tm10  1  0.826306  0.652753  0.490692  1
  Tm  Tm11  1  0.333404  0.666669  0.672574  1
  Tm  Tm12  1  0.666599  0.333328  0.172633  1
  Tm  Tm13  1  0.463763  0.536259  0.293255  1
  Tm  Tm14  1  0.536236  0.463763  0.793271  1
  Tm  Tm15  1  0.463750  0.927472  0.293253  1
  Ga  Ga16  1  0.163819  0.836228  0.540328  1
  Ga  Ga17  1  0.836213  0.163774  0.040381  1
  Ga  Ga18  1  0.163817  0.327581  0.540356  1
  Ga  Ga19  1  0.672382  0.836190  0.540308  1
  Ga  Ga20  1  0.327584  0.163815  0.040356  1
  Ga  Ga21  1  0.836177  0.672406  0.040337  1
  Co  Co22  1  0.333404  0.666703  0.057416  1
  Co  Co23  1  0.666630  0.333369  0.557368  1
