# generated using pymatgen
data_NdYPt10
_symmetry_space_group_name_H-M   'P 1'
_cell_length_a   4.46003900
_cell_length_b   5.39293200
_cell_length_c   9.31813800
_cell_angle_alpha   89.99998938
_cell_angle_beta   90.00000000
_cell_angle_gamma   90.00000000
_symmetry_Int_Tables_number   1
_chemical_formula_structural   NdYPt10
_chemical_formula_sum   'Nd1 Y1 Pt10'
_cell_volume   224.12625715
_cell_formula_units_Z   1
loop_
 _symmetry_equiv_pos_site_id
 _symmetry_equiv_pos_as_xyz
  1  'x, y, z'
loop_
 _atom_site_type_symbol
 _atom_site_label
 _atom_site_symmetry_multiplicity
 _atom_site_fract_x
 _atom_site_fract_y
 _atom_site_fract_z
 _atom_site_occupancy
  Nd  Nd0  1  0.000000  0.999971  0.000000  1
  Y  Y1  1  0.000000  0.499975  0.500000  1
  Pt  Pt2  1  0.000000  0.999977  0.335538  1
  Pt  Pt3  1  0.000000  0.499986  0.829416  1
  Pt  Pt4  1  0.000000  0.499986  0.170584  1
  Pt  Pt5  1  0.000000  0.999977  0.664462  1
  Pt  Pt6  1  0.500000  0.999981  0.500000  1
  Pt  Pt7  1  0.500000  0.499992  0.000000  1
  Pt  Pt8  1  0.500000  0.250842  0.251862  1
  Pt  Pt9  1  0.500000  0.749135  0.748138  1
  Pt  Pt10  1  0.500000  0.749135  0.251862  1
  Pt  Pt11  1  0.500000  0.250842  0.748138  1
