# generated using pymatgen
data_Tb4AgHgPt2
_symmetry_space_group_name_H-M   'P 1'
_cell_length_a   4.68053500
_cell_length_b   5.66753947
_cell_length_c   7.39209397
_cell_angle_alpha   92.28552510
_cell_angle_beta   90.00000000
_cell_angle_gamma   90.00000000
_symmetry_Int_Tables_number   1
_chemical_formula_structural   Tb4AgHgPt2
_chemical_formula_sum   'Tb4 Ag1 Hg1 Pt2'
_cell_volume   195.93495038
_cell_formula_units_Z   1
loop_
 _symmetry_equiv_pos_site_id
 _symmetry_equiv_pos_as_xyz
  1  'x, y, z'
loop_
 _atom_site_type_symbol
 _atom_site_label
 _atom_site_symmetry_multiplicity
 _atom_site_fract_x
 _atom_site_fract_y
 _atom_site_fract_z
 _atom_site_occupancy
  Tb  Tb0  1  0.250000  0.361504  0.710663  1
  Tb  Tb1  1  0.250000  0.153347  0.161812  1
  Tb  Tb2  1  0.750000  0.638276  0.289671  1
  Tb  Tb3  1  0.750000  0.847270  0.836433  1
  Ag  Ag4  1  0.250000  0.846897  0.534905  1
  Hg  Hg5  1  0.750000  0.150133  0.468184  1
  Pt  Pt6  1  0.250000  0.664623  0.044826  1
  Pt  Pt7  1  0.750000  0.337948  0.953505  1
