# generated using pymatgen
data_ZrSn3(SeO3)8
_symmetry_space_group_name_H-M   'P 1'
_cell_length_a   8.44752932
_cell_length_b   8.44752932
_cell_length_c   8.44752932
_cell_angle_alpha   89.80945587
_cell_angle_beta   90.19054413
_cell_angle_gamma   90.19054413
_symmetry_Int_Tables_number   1
_chemical_formula_structural   ZrSn3(SeO3)8
_chemical_formula_sum   'Zr1 Sn3 Se8 O24'
_cell_volume   602.81206269
_cell_formula_units_Z   1
loop_
 _symmetry_equiv_pos_site_id
 _symmetry_equiv_pos_as_xyz
  1  'x, y, z'
loop_
 _atom_site_type_symbol
 _atom_site_label
 _atom_site_symmetry_multiplicity
 _atom_site_fract_x
 _atom_site_fract_y
 _atom_site_fract_z
 _atom_site_occupancy
  Zr  Zr0  1  0.500000  0.500000  0.000000  1
  Sn  Sn1  1  0.500000  0.000000  0.500000  1
  Sn  Sn2  1  0.000000  0.000000  0.000000  1
  Sn  Sn3  1  0.000000  0.500000  0.500000  1
  Se  Se4  1  0.830098  0.169902  0.669902  1
  Se  Se5  1  0.169902  0.830098  0.330098  1
  Se  Se6  1  0.679461  0.676547  0.655767  1
  Se  Se7  1  0.155767  0.679461  0.823453  1
  Se  Se8  1  0.323453  0.155767  0.820539  1
  Se  Se9  1  0.844233  0.320539  0.176547  1
  Se  Se10  1  0.676547  0.844233  0.179461  1
  Se  Se11  1  0.320539  0.323453  0.344233  1
  O  O12  1  0.241983  0.459945  0.476595  1
  O  O13  1  0.976595  0.241983  0.040055  1
  O  O14  1  0.038983  0.741907  0.461982  1
  O  O15  1  0.448210  0.263612  0.939487  1
  O  O16  1  0.258093  0.961982  0.461017  1
  O  O17  1  0.560513  0.551790  0.763612  1
  O  O18  1  0.961982  0.038983  0.758093  1
  O  O19  1  0.551790  0.736388  0.060513  1
  O  O20  1  0.540055  0.976595  0.258017  1
  O  O21  1  0.459945  0.023405  0.741983  1
  O  O22  1  0.757760  0.971937  0.038495  1
  O  O23  1  0.263612  0.560513  0.948210  1
  O  O24  1  0.028063  0.538495  0.742240  1
  O  O25  1  0.038018  0.961017  0.241907  1
  O  O26  1  0.242240  0.028063  0.961505  1
  O  O27  1  0.439487  0.448210  0.236388  1
  O  O28  1  0.758017  0.540055  0.523405  1
  O  O29  1  0.971937  0.461505  0.257760  1
  O  O30  1  0.023405  0.758017  0.959945  1
  O  O31  1  0.461505  0.242240  0.471937  1
  O  O32  1  0.538495  0.757760  0.528063  1
  O  O33  1  0.961017  0.258093  0.538018  1
  O  O34  1  0.741907  0.038018  0.538983  1
  O  O35  1  0.736388  0.439487  0.051790  1
