# generated using pymatgen
data_Ce3Pa(InRh2)2
_symmetry_space_group_name_H-M   'P 1'
_cell_length_a   7.71886231
_cell_length_b   7.71886231
_cell_length_c   3.68249500
_cell_angle_alpha   90.00000000
_cell_angle_beta   90.00000000
_cell_angle_gamma   91.41960744
_symmetry_Int_Tables_number   1
_chemical_formula_structural   Ce3Pa(InRh2)2
_chemical_formula_sum   'Ce3 Pa1 In2 Rh4'
_cell_volume   219.33878603
_cell_formula_units_Z   1
loop_
 _symmetry_equiv_pos_site_id
 _symmetry_equiv_pos_as_xyz
  1  'x, y, z'
loop_
 _atom_site_type_symbol
 _atom_site_label
 _atom_site_symmetry_multiplicity
 _atom_site_fract_x
 _atom_site_fract_y
 _atom_site_fract_z
 _atom_site_occupancy
  Ce  Ce0  1  0.328777  0.828777  0.500000  1
  Ce  Ce1  1  0.170599  0.332270  0.500000  1
  Ce  Ce2  1  0.832270  0.670599  0.500000  1
  Pa  Pa3  1  0.665579  0.165579  0.500000  1
  In  In4  1  0.003215  0.001499  0.000000  1
  In  In5  1  0.501499  0.503215  0.000000  1
  Rh  Rh6  1  0.130766  0.630766  0.000000  1
  Rh  Rh7  1  0.850745  0.350745  0.000000  1
  Rh  Rh8  1  0.639518  0.877033  0.000000  1
  Rh  Rh9  1  0.377033  0.139518  0.000000  1
