# generated using pymatgen
data_Ca20(CdHg3)3
_symmetry_space_group_name_H-M   'P 1'
_cell_length_a   8.27941500
_cell_length_b   8.27941500
_cell_length_c   14.83267300
_cell_angle_alpha   90.00000000
_cell_angle_beta   90.00000000
_cell_angle_gamma   90.00000000
_symmetry_Int_Tables_number   1
_chemical_formula_structural   Ca20(CdHg3)3
_chemical_formula_sum   'Ca20 Cd3 Hg9'
_cell_volume   1016.76064068
_cell_formula_units_Z   1
loop_
 _symmetry_equiv_pos_site_id
 _symmetry_equiv_pos_as_xyz
  1  'x, y, z'
loop_
 _atom_site_type_symbol
 _atom_site_label
 _atom_site_symmetry_multiplicity
 _atom_site_fract_x
 _atom_site_fract_y
 _atom_site_fract_z
 _atom_site_occupancy
  Ca  Ca0  1  0.668142  0.161290  0.101440  1
  Ca  Ca1  1  0.165073  0.664313  0.603224  1
  Ca  Ca2  1  0.331858  0.838710  0.101440  1
  Ca  Ca3  1  0.834927  0.335687  0.603224  1
  Ca  Ca4  1  0.838710  0.668142  0.101440  1
  Ca  Ca5  1  0.335687  0.165073  0.603224  1
  Ca  Ca6  1  0.161290  0.331858  0.101440  1
  Ca  Ca7  1  0.664313  0.834927  0.603224  1
  Ca  Ca8  1  0.838710  0.331858  0.898560  1
  Ca  Ca9  1  0.335687  0.834927  0.396776  1
  Ca  Ca10  1  0.161290  0.668142  0.898560  1
  Ca  Ca11  1  0.664313  0.165073  0.396776  1
  Ca  Ca12  1  0.668142  0.838710  0.898560  1
  Ca  Ca13  1  0.165073  0.335687  0.396776  1
  Ca  Ca14  1  0.331858  0.161290  0.898560  1
  Ca  Ca15  1  0.834927  0.664313  0.396776  1
  Ca  Ca16  1  0.500000  0.500000  0.754266  1
  Ca  Ca17  1  0.000000  0.000000  0.250880  1
  Ca  Ca18  1  0.000000  0.000000  0.749120  1
  Ca  Ca19  1  0.500000  0.500000  0.245734  1
  Cd  Cd20  1  0.500000  0.500000  0.500000  1
  Cd  Cd21  1  0.500000  0.500000  0.000000  1
  Cd  Cd22  1  0.000000  0.000000  0.500000  1
  Hg  Hg23  1  0.633919  0.134472  0.751079  1
  Hg  Hg24  1  0.134472  0.633919  0.248921  1
  Hg  Hg25  1  0.865528  0.366081  0.248921  1
  Hg  Hg26  1  0.366081  0.865528  0.751079  1
  Hg  Hg27  1  0.865528  0.633919  0.751079  1
  Hg  Hg28  1  0.366081  0.134472  0.248921  1
  Hg  Hg29  1  0.134472  0.366081  0.751079  1
  Hg  Hg30  1  0.633919  0.865528  0.248921  1
  Hg  Hg31  1  0.000000  0.000000  0.000000  1
