# generated using pymatgen
data_Ac4C2Br5
_symmetry_space_group_name_H-M   'P 1'
_cell_length_a   10.38409537
_cell_length_b   10.38409628
_cell_length_c   8.75483412
_cell_angle_alpha   105.92352183
_cell_angle_beta   105.92352176
_cell_angle_gamma   22.92134404
_symmetry_Int_Tables_number   1
_chemical_formula_structural   Ac4C2Br5
_chemical_formula_sum   'Ac4 C2 Br5'
_cell_volume   352.96837157
_cell_formula_units_Z   1
loop_
 _symmetry_equiv_pos_site_id
 _symmetry_equiv_pos_as_xyz
  1  'x, y, z'
loop_
 _atom_site_type_symbol
 _atom_site_label
 _atom_site_symmetry_multiplicity
 _atom_site_fract_x
 _atom_site_fract_y
 _atom_site_fract_z
 _atom_site_occupancy
  Ac  Ac0  1  0.660347  0.660347  0.110626  1
  Ac  Ac1  1  0.999666  0.999666  0.203440  1
  Ac  Ac2  1  0.000334  0.000334  0.796559  1
  Ac  Ac3  1  0.339653  0.339653  0.889373  1
  C  C4  1  0.536442  0.536442  0.025374  1
  C  C5  1  0.463558  0.463558  0.974626  1
  Br  Br6  1  0.833817  0.833817  0.166610  1
  Br  Br7  1  0.159826  0.159826  0.379301  1
  Br  Br8  1  0.500000  0.500000  0.500000  1
  Br  Br9  1  0.840174  0.840174  0.620700  1
  Br  Br10  1  0.166183  0.166183  0.833390  1
