# generated using pymatgen
data_K3Cr3FeO12
_symmetry_space_group_name_H-M   'P 1'
_cell_length_a   9.32944888
_cell_length_b   9.32944897
_cell_length_c   9.32944931
_cell_angle_alpha   107.91012449
_cell_angle_beta   107.91012239
_cell_angle_gamma   107.91013158
_symmetry_Int_Tables_number   1
_chemical_formula_structural   K3Cr3FeO12
_chemical_formula_sum   'K6 Cr6 Fe2 O24'
_cell_volume   658.74953294
_cell_formula_units_Z   2
loop_
 _symmetry_equiv_pos_site_id
 _symmetry_equiv_pos_as_xyz
  1  'x, y, z'
loop_
 _atom_site_type_symbol
 _atom_site_label
 _atom_site_symmetry_multiplicity
 _atom_site_fract_x
 _atom_site_fract_y
 _atom_site_fract_z
 _atom_site_occupancy
  K  K0  1  0.621762  0.142111  0.772981  1
  K  K1  1  0.772981  0.621762  0.142111  1
  K  K2  1  0.142111  0.772981  0.621762  1
  K  K3  1  0.378238  0.857889  0.227019  1
  K  K4  1  0.227019  0.378238  0.857889  1
  K  K5  1  0.857889  0.227019  0.378238  1
  Cr  Cr6  1  0.892922  0.564664  0.766340  1
  Cr  Cr7  1  0.766340  0.892922  0.564664  1
  Cr  Cr8  1  0.564664  0.766340  0.892922  1
  Cr  Cr9  1  0.107078  0.435336  0.233660  1
  Cr  Cr10  1  0.233660  0.107078  0.435336  1
  Cr  Cr11  1  0.435336  0.233660  0.107078  1
  Fe  Fe12  1  0.000000  0.000000  0.000000  1
  Fe  Fe13  1  0.500000  0.500000  0.500000  1
  O  O14  1  0.734700  0.519983  0.586443  1
  O  O15  1  0.586443  0.734700  0.519983  1
  O  O16  1  0.519983  0.586443  0.734700  1
  O  O17  1  0.265300  0.480017  0.413557  1
  O  O18  1  0.413557  0.265300  0.480017  1
  O  O19  1  0.480017  0.413557  0.265300  1
  O  O20  1  0.821100  0.469388  0.867858  1
  O  O21  1  0.867858  0.821100  0.469388  1
  O  O22  1  0.469388  0.867858  0.821100  1
  O  O23  1  0.178900  0.530612  0.132142  1
  O  O24  1  0.132142  0.178900  0.530612  1
  O  O25  1  0.530612  0.132142  0.178900  1
  O  O26  1  0.022792  0.499257  0.712789  1
  O  O27  1  0.712789  0.022792  0.499257  1
  O  O28  1  0.499257  0.712789  0.022792  1
  O  O29  1  0.977208  0.500743  0.287211  1
  O  O30  1  0.287211  0.977208  0.500743  1
  O  O31  1  0.500743  0.287211  0.977208  1
  O  O32  1  0.997927  0.775873  0.885805  1
  O  O33  1  0.885805  0.997927  0.775873  1
  O  O34  1  0.775873  0.885805  0.997927  1
  O  O35  1  0.002073  0.224127  0.114195  1
  O  O36  1  0.114195  0.002073  0.224127  1
  O  O37  1  0.224127  0.114195  0.002073  1
