# generated using pymatgen
data_Lu12GaCuTc2NiSn
_symmetry_space_group_name_H-M   'P 1'
_cell_length_a   8.31667412
_cell_length_b   8.31667508
_cell_length_c   8.31667500
_cell_angle_alpha   113.31425698
_cell_angle_beta   111.37371737
_cell_angle_gamma   103.87333352
_symmetry_Int_Tables_number   1
_chemical_formula_structural   Lu12GaCuTc2NiSn
_chemical_formula_sum   'Lu12 Ga1 Cu1 Tc2 Ni1 Sn1'
_cell_volume   439.55127531
_cell_formula_units_Z   1
loop_
 _symmetry_equiv_pos_site_id
 _symmetry_equiv_pos_as_xyz
  1  'x, y, z'
loop_
 _atom_site_type_symbol
 _atom_site_label
 _atom_site_symmetry_multiplicity
 _atom_site_fract_x
 _atom_site_fract_y
 _atom_site_fract_z
 _atom_site_occupancy
  Lu  Lu0  1  0.662062  0.847490  0.185427  1
  Lu  Lu1  1  0.332313  0.515684  0.183370  1
  Lu  Lu2  1  0.822293  0.782307  0.599605  1
  Lu  Lu3  1  0.182702  0.782307  0.960014  1
  Lu  Lu4  1  0.822307  0.222704  0.039997  1
  Lu  Lu5  1  0.182707  0.222704  0.400397  1
  Lu  Lu6  1  0.662065  0.476631  0.814566  1
  Lu  Lu7  1  0.332327  0.148929  0.816603  1
  Lu  Lu8  1  0.564480  0.261339  0.303128  1
  Lu  Lu9  1  0.433302  0.738303  0.694997  1
  Lu  Lu10  1  0.043305  0.738303  0.305000  1
  Lu  Lu11  1  0.958212  0.261339  0.696861  1
  Ga  Ga12  1  0.999334  0.499383  0.500049  1
  Cu  Cu13  1  0.879937  0.879976  0.000040  1
  Tc  Tc14  1  0.322044  0.500767  0.821241  1
  Tc  Tc15  1  0.679525  0.500767  0.178723  1
  Ni  Ni16  1  0.121252  0.121196  0.999944  1
  Sn  Sn17  1  0.499832  0.999871  0.500039  1
