# generated using pymatgen
data_ErCr3BiO8
_symmetry_space_group_name_H-M   'P 1'
_cell_length_a   6.30058742
_cell_length_b   6.30058660
_cell_length_c   5.12599090
_cell_angle_alpha   71.86228241
_cell_angle_beta   71.86228764
_cell_angle_gamma   57.86212205
_symmetry_Int_Tables_number   1
_chemical_formula_structural   ErCr3BiO8
_chemical_formula_sum   'Er1 Cr3 Bi1 O8'
_cell_volume   161.03968517
_cell_formula_units_Z   1
loop_
 _symmetry_equiv_pos_site_id
 _symmetry_equiv_pos_as_xyz
  1  'x, y, z'
loop_
 _atom_site_type_symbol
 _atom_site_label
 _atom_site_symmetry_multiplicity
 _atom_site_fract_x
 _atom_site_fract_y
 _atom_site_fract_z
 _atom_site_occupancy
  Er  Er0  1  0.276183  0.276183  0.674768  1
  Cr  Cr1  1  0.998232  0.998232  0.496479  1
  Cr  Cr2  1  0.742167  0.254754  0.001610  1
  Cr  Cr3  1  0.254754  0.742167  0.001610  1
  Bi  Bi4  1  0.716305  0.716305  0.337617  1
  O  O5  1  0.395579  0.395579  0.932328  1
  O  O6  1  0.609437  0.609437  0.042908  1
  O  O7  1  0.900677  0.900677  0.914133  1
  O  O8  1  0.101389  0.101389  0.086214  1
  O  O9  1  0.329719  0.898079  0.600528  1
  O  O10  1  0.898079  0.329719  0.600528  1
  O  O11  1  0.115611  0.661867  0.405639  1
  O  O12  1  0.661867  0.115611  0.405639  1
