# generated using pymatgen
data_K2V4PbO12
_symmetry_space_group_name_H-M   'P 1'
_cell_length_a   11.10066500
_cell_length_b   11.10066500
_cell_length_c   5.44405500
_cell_angle_alpha   90.00000000
_cell_angle_beta   90.00000000
_cell_angle_gamma   90.00000000
_symmetry_Int_Tables_number   1
_chemical_formula_structural   K2V4PbO12
_chemical_formula_sum   'K4 V8 Pb2 O24'
_cell_volume   670.84238954
_cell_formula_units_Z   2
loop_
 _symmetry_equiv_pos_site_id
 _symmetry_equiv_pos_as_xyz
  1  'x, y, z'
loop_
 _atom_site_type_symbol
 _atom_site_label
 _atom_site_symmetry_multiplicity
 _atom_site_fract_x
 _atom_site_fract_y
 _atom_site_fract_z
 _atom_site_occupancy
  K  K0  1  0.750000  0.750000  0.500000  1
  K  K1  1  0.750000  0.250000  0.500000  1
  K  K2  1  0.250000  0.750000  0.500000  1
  K  K3  1  0.250000  0.250000  0.500000  1
  V  V4  1  0.719493  0.000000  0.000000  1
  V  V5  1  0.000000  0.280507  0.000000  1
  V  V6  1  0.280507  0.000000  0.000000  1
  V  V7  1  0.500000  0.780507  0.000000  1
  V  V8  1  0.780507  0.500000  0.000000  1
  V  V9  1  0.219493  0.500000  0.000000  1
  V  V10  1  0.500000  0.219493  0.000000  1
  V  V11  1  0.000000  0.719493  0.000000  1
  Pb  Pb12  1  0.500000  0.500000  0.500000  1
  Pb  Pb13  1  0.000000  0.000000  0.500000  1
  O  O14  1  0.454260  0.304753  0.236930  1
  O  O15  1  0.545740  0.695247  0.236930  1
  O  O16  1  0.695247  0.454260  0.236930  1
  O  O17  1  0.304753  0.545740  0.236930  1
  O  O18  1  0.304753  0.454260  0.763070  1
  O  O19  1  0.454260  0.695247  0.763070  1
  O  O20  1  0.545740  0.304753  0.763070  1
  O  O21  1  0.695247  0.545740  0.763070  1
  O  O22  1  0.045740  0.195247  0.763070  1
  O  O23  1  0.954260  0.804753  0.763070  1
  O  O24  1  0.804753  0.045740  0.763070  1
  O  O25  1  0.195247  0.954260  0.763070  1
  O  O26  1  0.195247  0.045740  0.236930  1
  O  O27  1  0.045740  0.804753  0.236930  1
  O  O28  1  0.124482  0.375518  0.103542  1
  O  O29  1  0.375518  0.875518  0.103542  1
  O  O30  1  0.624482  0.124482  0.103542  1
  O  O31  1  0.875518  0.624482  0.103542  1
  O  O32  1  0.875518  0.375518  0.896458  1
  O  O33  1  0.124482  0.624482  0.896458  1
  O  O34  1  0.375518  0.124482  0.896458  1
  O  O35  1  0.624482  0.875518  0.896458  1
  O  O36  1  0.804753  0.954260  0.236930  1
  O  O37  1  0.954260  0.195247  0.236930  1
