# generated using pymatgen
data_La2TbSi5PPd20
_symmetry_space_group_name_H-M   'P 1'
_cell_length_a   8.77625468
_cell_length_b   8.77626074
_cell_length_c   8.77758100
_cell_angle_alpha   59.99498439
_cell_angle_beta   59.99503256
_cell_angle_gamma   60.00995641
_symmetry_Int_Tables_number   1
_chemical_formula_structural   La2TbSi5PPd20
_chemical_formula_sum   'La2 Tb1 Si5 P1 Pd20'
_cell_volume   478.05567254
_cell_formula_units_Z   1
loop_
 _symmetry_equiv_pos_site_id
 _symmetry_equiv_pos_as_xyz
  1  'x, y, z'
loop_
 _atom_site_type_symbol
 _atom_site_label
 _atom_site_symmetry_multiplicity
 _atom_site_fract_x
 _atom_site_fract_y
 _atom_site_fract_z
 _atom_site_occupancy
  La  La0  1  0.248913  0.248913  0.251089  1
  La  La1  1  0.748908  0.748912  0.751088  1
  Tb  Tb2  1  0.000902  0.000902  0.999098  1
  Si  Si3  1  0.733210  0.264876  0.266790  1
  Si  Si4  1  0.264876  0.733209  0.735124  1
  Si  Si5  1  0.264876  0.733209  0.266791  1
  Si  Si6  1  0.733210  0.264876  0.735124  1
  Si  Si7  1  0.266897  0.266897  0.733103  1
  P  P8  1  0.735720  0.735719  0.264280  1
  Pd  Pd9  1  0.385208  0.385209  0.385105  1
  Pd  Pd10  1  0.614564  0.614562  0.613098  1
  Pd  Pd11  1  0.385209  0.385208  0.844477  1
  Pd  Pd12  1  0.386903  0.842224  0.385436  1
  Pd  Pd13  1  0.614563  0.614563  0.157777  1
  Pd  Pd14  1  0.614895  0.155522  0.614792  1
  Pd  Pd15  1  0.842225  0.386902  0.385436  1
  Pd  Pd16  1  0.155522  0.614895  0.614791  1
  Pd  Pd17  1  0.345437  0.000299  0.999700  1
  Pd  Pd18  1  0.654612  0.998286  0.001714  1
  Pd  Pd19  1  0.000300  0.345437  0.654563  1
  Pd  Pd20  1  0.998286  0.654612  0.345388  1
  Pd  Pd21  1  0.000300  0.345438  0.999700  1
  Pd  Pd22  1  0.654613  0.998286  0.345387  1
  Pd  Pd23  1  0.998286  0.654612  0.001714  1
  Pd  Pd24  1  0.345436  0.000301  0.654563  1
  Pd  Pd25  1  0.001532  0.001532  0.344322  1
  Pd  Pd26  1  0.001532  0.001532  0.652613  1
  Pd  Pd27  1  0.655677  0.347388  0.998467  1
  Pd  Pd28  1  0.347387  0.655677  0.998468  1
