# generated using pymatgen
data_Lu3In3PdPt2
_symmetry_space_group_name_H-M   'P 1'
_cell_length_a   7.67306200
_cell_length_b   7.67306233
_cell_length_c   3.73080200
_cell_angle_alpha   90.00000000
_cell_angle_beta   90.00000000
_cell_angle_gamma   119.99999857
_symmetry_Int_Tables_number   1
_chemical_formula_structural   Lu3In3PdPt2
_chemical_formula_sum   'Lu3 In3 Pd1 Pt2'
_cell_volume   190.22617373
_cell_formula_units_Z   1
loop_
 _symmetry_equiv_pos_site_id
 _symmetry_equiv_pos_as_xyz
  1  'x, y, z'
loop_
 _atom_site_type_symbol
 _atom_site_label
 _atom_site_symmetry_multiplicity
 _atom_site_fract_x
 _atom_site_fract_y
 _atom_site_fract_z
 _atom_site_occupancy
  Lu  Lu0  1  0.000000  0.593197  0.500000  1
  Lu  Lu1  1  0.593197  0.000000  0.500000  1
  Lu  Lu2  1  0.406803  0.406803  0.500000  1
  In  In3  1  0.000000  0.262356  0.000000  1
  In  In4  1  0.262356  0.000000  0.000000  1
  In  In5  1  0.737644  0.737644  0.000000  1
  Pd  Pd6  1  0.000000  0.000000  0.500000  1
  Pt  Pt7  1  0.666667  0.333333  0.000000  1
  Pt  Pt8  1  0.333333  0.666667  0.000000  1
