# generated using pymatgen
data_Na16SnGeAs8
_symmetry_space_group_name_H-M   'P 1'
_cell_length_a   9.90386775
_cell_length_b   9.90386758
_cell_length_c   9.90386900
_cell_angle_alpha   59.99999861
_cell_angle_beta   59.99999918
_cell_angle_gamma   60.00000081
_symmetry_Int_Tables_number   1
_chemical_formula_structural   Na16SnGeAs8
_chemical_formula_sum   'Na16 Sn1 Ge1 As8'
_cell_volume   686.90953121
_cell_formula_units_Z   1
loop_
 _symmetry_equiv_pos_site_id
 _symmetry_equiv_pos_as_xyz
  1  'x, y, z'
loop_
 _atom_site_type_symbol
 _atom_site_label
 _atom_site_symmetry_multiplicity
 _atom_site_fract_x
 _atom_site_fract_y
 _atom_site_fract_z
 _atom_site_occupancy
  Na  Na0  1  0.627662  0.627662  0.117014  1
  Na  Na1  1  0.627662  0.117014  0.627662  1
  Na  Na2  1  0.117014  0.627662  0.627662  1
  Na  Na3  1  0.627662  0.627662  0.627662  1
  Na  Na4  1  0.027852  0.472148  0.472148  1
  Na  Na5  1  0.773757  0.226243  0.226243  1
  Na  Na6  1  0.472148  0.027852  0.472148  1
  Na  Na7  1  0.472148  0.472148  0.027852  1
  Na  Na8  1  0.027852  0.027852  0.472148  1
  Na  Na9  1  0.027852  0.472148  0.027852  1
  Na  Na10  1  0.472148  0.027852  0.027852  1
  Na  Na11  1  0.773757  0.226243  0.773757  1
  Na  Na12  1  0.226243  0.773757  0.226243  1
  Na  Na13  1  0.226243  0.226243  0.773757  1
  Na  Na14  1  0.773757  0.773757  0.226243  1
  Na  Na15  1  0.226243  0.773757  0.773757  1
  Sn  Sn16  1  0.500000  0.500000  0.500000  1
  Ge  Ge17  1  0.750000  0.750000  0.750000  1
  As  As18  1  0.854738  0.854738  0.435789  1
  As  As19  1  0.854738  0.435789  0.854738  1
  As  As20  1  0.389793  0.389793  0.830618  1
  As  As21  1  0.389793  0.830618  0.389793  1
  As  As22  1  0.830618  0.389793  0.389793  1
  As  As23  1  0.854738  0.854738  0.854738  1
  As  As24  1  0.435789  0.854738  0.854738  1
  As  As25  1  0.389793  0.389793  0.389793  1
