# generated using pymatgen
data_Ho3TmTc4F28
_symmetry_space_group_name_H-M   'P 1'
_cell_length_a   5.56757955
_cell_length_b   8.86002961
_cell_length_c   11.95907147
_cell_angle_alpha   62.68944387
_cell_angle_beta   90.05001756
_cell_angle_gamma   90.01450547
_symmetry_Int_Tables_number   1
_chemical_formula_structural   Ho3TmTc4F28
_chemical_formula_sum   'Ho3 Tm1 Tc4 F28'
_cell_volume   524.17018826
_cell_formula_units_Z   1
loop_
 _symmetry_equiv_pos_site_id
 _symmetry_equiv_pos_as_xyz
  1  'x, y, z'
loop_
 _atom_site_type_symbol
 _atom_site_label
 _atom_site_symmetry_multiplicity
 _atom_site_fract_x
 _atom_site_fract_y
 _atom_site_fract_z
 _atom_site_occupancy
  Ho  Ho0  1  0.258607  0.184829  0.735288  1
  Ho  Ho1  1  0.241137  0.185980  0.235179  1
  Ho  Ho2  1  0.741037  0.813538  0.264849  1
  Tm  Tm3  1  0.759226  0.813660  0.764684  1
  Tc  Tc4  1  0.757681  0.274326  0.956117  1
  Tc  Tc5  1  0.258387  0.727213  0.544473  1
  Tc  Tc6  1  0.242061  0.726897  0.042327  1
  Tc  Tc7  1  0.742473  0.272237  0.457148  1
  F  F8  1  0.447798  0.706786  0.917136  1
  F  F9  1  0.946215  0.293331  0.582494  1
  F  F10  1  0.553777  0.294095  0.082043  1
  F  F11  1  0.053569  0.706608  0.419089  1
  F  F12  1  0.447154  0.277388  0.546521  1
  F  F13  1  0.946756  0.723189  0.951681  1
  F  F14  1  0.552540  0.722095  0.454184  1
  F  F15  1  0.053238  0.278284  0.045888  1
  F  F16  1  0.772632  0.523393  0.857966  1
  F  F17  1  0.273326  0.478857  0.641793  1
  F  F18  1  0.225920  0.478509  0.140768  1
  F  F19  1  0.726793  0.520882  0.359129  1
  F  F20  1  0.756216  0.026783  0.052439  1
  F  F21  1  0.256774  0.974960  0.447451  1
  F  F22  1  0.243855  0.974506  0.946594  1
  F  F23  1  0.743924  0.024518  0.554067  1
  F  F24  1  0.975750  0.729738  0.641958  1
  F  F25  1  0.474768  0.271075  0.859428  1
  F  F26  1  0.026165  0.271131  0.360272  1
  F  F27  1  0.524941  0.728799  0.139623  1
  F  F28  1  0.043607  0.746690  0.171748  1
  F  F29  1  0.544562  0.253059  0.327366  1
  F  F30  1  0.955513  0.254025  0.826991  1
  F  F31  1  0.459184  0.747306  0.673291  1
  F  F32  1  0.418844  0.970565  0.232112  1
  F  F33  1  0.919000  0.028835  0.267772  1
  F  F34  1  0.580088  0.025676  0.767396  1
  F  F35  1  0.076484  0.970237  0.732735  1
