# generated using pymatgen
data_Cs2ZrMoH10
_symmetry_space_group_name_H-M   'P 1'
_cell_length_a   11.58749672
_cell_length_b   7.65682500
_cell_length_c   5.01167300
_cell_angle_alpha   90.00000000
_cell_angle_beta   90.17447122
_cell_angle_gamma   90.00000000
_symmetry_Int_Tables_number   1
_chemical_formula_structural   Cs2ZrMoH10
_chemical_formula_sum   'Cs4 Zr2 Mo2 H20'
_cell_volume   444.65078009
_cell_formula_units_Z   2
loop_
 _symmetry_equiv_pos_site_id
 _symmetry_equiv_pos_as_xyz
  1  'x, y, z'
loop_
 _atom_site_type_symbol
 _atom_site_label
 _atom_site_symmetry_multiplicity
 _atom_site_fract_x
 _atom_site_fract_y
 _atom_site_fract_z
 _atom_site_occupancy
  Cs  Cs0  1  0.668362  0.065518  0.335309  1
  Cs  Cs1  1  0.168376  0.434471  0.335318  1
  Cs  Cs2  1  0.826563  0.581366  0.818506  1
  Cs  Cs3  1  0.326560  0.918630  0.818493  1
  Zr  Zr4  1  0.974650  0.085221  0.835893  1
  Zr  Zr5  1  0.474666  0.414799  0.835852  1
  Mo  Mo6  1  0.520768  0.567227  0.300192  1
  Mo  Mo7  1  0.020743  0.932748  0.300235  1
  H  H8  1  0.316853  0.327680  0.825105  1
  H  H9  1  0.816845  0.172316  0.825100  1
  H  H10  1  0.986871  0.709390  0.327246  1
  H  H11  1  0.486872  0.790619  0.327253  1
  H  H12  1  0.615400  0.427582  0.111790  1
  H  H13  1  0.115395  0.072417  0.111777  1
  H  H14  1  0.389643  0.584161  0.106045  1
  H  H15  1  0.889635  0.915851  0.106038  1
  H  H16  1  0.955621  0.148244  0.303739  1
  H  H17  1  0.455624  0.351763  0.303732  1
  H  H18  1  0.154628  0.826918  0.329342  1
  H  H19  1  0.654645  0.673076  0.329354  1
  H  H20  1  0.523463  0.170980  0.828539  1
  H  H21  1  0.023473  0.329016  0.828534  1
  H  H22  1  0.914618  0.908608  0.563932  1
  H  H23  1  0.414628  0.591399  0.563945  1
  H  H24  1  0.102521  0.036559  0.565352  1
  H  H25  1  0.602529  0.463431  0.565367  1
  H  H26  1  0.550032  0.660556  0.983022  1
  H  H27  1  0.050021  0.839453  0.982987  1
