# generated using pymatgen
data_Nd2Er3GaSi3
_symmetry_space_group_name_H-M   'P 1'
_cell_length_a   7.49519100
_cell_length_b   14.81862800
_cell_length_c   7.80501300
_cell_angle_alpha   90.00000000
_cell_angle_beta   90.00000000
_cell_angle_gamma   90.00000000
_symmetry_Int_Tables_number   1
_chemical_formula_structural   Nd2Er3GaSi3
_chemical_formula_sum   'Nd8 Er12 Ga4 Si12'
_cell_volume   866.89067443
_cell_formula_units_Z   4
loop_
 _symmetry_equiv_pos_site_id
 _symmetry_equiv_pos_as_xyz
  1  'x, y, z'
loop_
 _atom_site_type_symbol
 _atom_site_label
 _atom_site_symmetry_multiplicity
 _atom_site_fract_x
 _atom_site_fract_y
 _atom_site_fract_z
 _atom_site_occupancy
  Nd  Nd0  1  0.021121  0.099393  0.178153  1
  Nd  Nd1  1  0.021121  0.400607  0.178153  1
  Nd  Nd2  1  0.521121  0.099393  0.321847  1
  Nd  Nd3  1  0.521121  0.400607  0.321847  1
  Nd  Nd4  1  0.478950  0.598628  0.679053  1
  Nd  Nd5  1  0.478950  0.901372  0.679053  1
  Nd  Nd6  1  0.978951  0.598628  0.820947  1
  Nd  Nd7  1  0.978951  0.901372  0.820947  1
  Er  Er8  1  0.345858  0.250000  0.009368  1
  Er  Er9  1  0.320965  0.623883  0.176059  1
  Er  Er10  1  0.320965  0.876116  0.176059  1
  Er  Er11  1  0.820964  0.623883  0.323941  1
  Er  Er12  1  0.820964  0.876116  0.323941  1
  Er  Er13  1  0.845858  0.250000  0.490632  1
  Er  Er14  1  0.155135  0.750000  0.510088  1
  Er  Er15  1  0.177891  0.124623  0.678094  1
  Er  Er16  1  0.177891  0.375376  0.678094  1
  Er  Er17  1  0.677891  0.124623  0.821906  1
  Er  Er18  1  0.677891  0.375376  0.821906  1
  Er  Er19  1  0.655135  0.750000  0.989912  1
  Ga  Ga20  1  0.650754  0.539262  0.033697  1
  Ga  Ga21  1  0.650754  0.960738  0.033697  1
  Ga  Ga22  1  0.150754  0.539262  0.466304  1
  Ga  Ga23  1  0.150754  0.960738  0.466304  1
  Si  Si24  1  0.026674  0.750000  0.112385  1
  Si  Si25  1  0.725865  0.250000  0.122272  1
  Si  Si26  1  0.225864  0.250000  0.377728  1
  Si  Si27  1  0.526674  0.750000  0.387615  1
  Si  Si28  1  0.850356  0.040522  0.532795  1
  Si  Si29  1  0.850356  0.459477  0.532795  1
  Si  Si30  1  0.473422  0.250000  0.613000  1
  Si  Si31  1  0.772973  0.750000  0.620881  1
  Si  Si32  1  0.272973  0.750000  0.879119  1
  Si  Si33  1  0.973421  0.250000  0.887000  1
  Si  Si34  1  0.350355  0.040522  0.967204  1
  Si  Si35  1  0.350355  0.459477  0.967204  1
