# generated using pymatgen
data_Al11Re3Ru
_symmetry_space_group_name_H-M   'P 1'
_cell_length_a   5.18083075
_cell_length_b   5.17221707
_cell_length_c   9.03023865
_cell_angle_alpha   105.02930606
_cell_angle_beta   90.33212519
_cell_angle_gamma   100.22418305
_symmetry_Int_Tables_number   1
_chemical_formula_structural   Al11Re3Ru
_chemical_formula_sum   'Al11 Re3 Ru1'
_cell_volume   229.64733602
_cell_formula_units_Z   1
loop_
 _symmetry_equiv_pos_site_id
 _symmetry_equiv_pos_as_xyz
  1  'x, y, z'
loop_
 _atom_site_type_symbol
 _atom_site_label
 _atom_site_symmetry_multiplicity
 _atom_site_fract_x
 _atom_site_fract_y
 _atom_site_fract_z
 _atom_site_occupancy
  Al  Al0  1  0.799886  0.262843  0.634736  1
  Al  Al1  1  0.198851  0.740474  0.366136  1
  Al  Al2  1  0.147345  0.465872  0.871612  1
  Al  Al3  1  0.855118  0.534876  0.130141  1
  Al  Al4  1  0.999063  0.999093  0.000024  1
  Al  Al5  1  0.501681  0.095755  0.873703  1
  Al  Al6  1  0.498113  0.901085  0.128260  1
  Al  Al7  1  0.570633  0.320348  0.376102  1
  Al  Al8  1  0.431806  0.676153  0.622387  1
  Al  Al9  1  0.940280  0.808869  0.667354  1
  Al  Al10  1  0.057808  0.194580  0.328519  1
  Re  Re11  1  0.720185  0.849379  0.400786  1
  Re  Re12  1  0.661891  0.608892  0.865428  1
  Re  Re13  1  0.338524  0.386665  0.132631  1
  Ru  Ru14  1  0.278814  0.155115  0.602181  1
