# generated using pymatgen
data_YLu2Fe8Co3B4
_symmetry_space_group_name_H-M   'P 1'
_cell_length_a   5.02273601
_cell_length_b   5.02298842
_cell_length_c   9.94410400
_cell_angle_alpha   89.99941341
_cell_angle_beta   89.99983288
_cell_angle_gamma   119.99065893
_symmetry_Int_Tables_number   1
_chemical_formula_structural   YLu2Fe8Co3B4
_chemical_formula_sum   'Y1 Lu2 Fe8 Co3 B4'
_cell_volume   217.28997505
_cell_formula_units_Z   1
loop_
 _symmetry_equiv_pos_site_id
 _symmetry_equiv_pos_as_xyz
  1  'x, y, z'
loop_
 _atom_site_type_symbol
 _atom_site_label
 _atom_site_symmetry_multiplicity
 _atom_site_fract_x
 _atom_site_fract_y
 _atom_site_fract_z
 _atom_site_occupancy
  Y  Y0  1  0.999989  0.000008  0.999987  1
  Lu  Lu1  1  0.000000  0.000006  0.348429  1
  Lu  Lu2  1  0.999997  0.999984  0.651554  1
  Fe  Fe3  1  0.333312  0.666637  0.999991  1
  Fe  Fe4  1  0.666668  0.333362  0.999988  1
  Fe  Fe5  1  0.500009  0.000041  0.203537  1
  Fe  Fe6  1  0.500011  0.499985  0.203543  1
  Fe  Fe7  1  0.999941  0.499978  0.203547  1
  Fe  Fe8  1  0.500016  0.000042  0.796472  1
  Fe  Fe9  1  0.500023  0.499979  0.796438  1
  Fe  Fe10  1  0.999953  0.499982  0.796451  1
  Co  Co11  1  0.500002  0.000005  0.499991  1
  Co  Co12  1  0.500002  0.499996  0.500020  1
  Co  Co13  1  0.999991  0.499997  0.500011  1
  B  B14  1  0.333304  0.666634  0.353206  1
  B  B15  1  0.666693  0.333372  0.353188  1
  B  B16  1  0.666637  0.333337  0.646832  1
  B  B17  1  0.333353  0.666655  0.646816  1
