# generated using pymatgen
data_Pr9Er11Sn16
_symmetry_space_group_name_H-M   'P 1'
_cell_length_a   8.07584985
_cell_length_b   8.31897618
_cell_length_c   15.61502006
_cell_angle_alpha   90.25670792
_cell_angle_beta   90.06912919
_cell_angle_gamma   90.21490657
_symmetry_Int_Tables_number   1
_chemical_formula_structural   Pr9Er11Sn16
_chemical_formula_sum   'Pr9 Er11 Sn16'
_cell_volume   1049.04211566
_cell_formula_units_Z   1
loop_
 _symmetry_equiv_pos_site_id
 _symmetry_equiv_pos_as_xyz
  1  'x, y, z'
loop_
 _atom_site_type_symbol
 _atom_site_label
 _atom_site_symmetry_multiplicity
 _atom_site_fract_x
 _atom_site_fract_y
 _atom_site_fract_z
 _atom_site_occupancy
  Pr  Pr0  1  0.155150  0.333320  0.622018  1
  Pr  Pr1  1  0.494825  0.676777  0.597156  1
  Pr  Pr2  1  0.995322  0.824281  0.905681  1
  Pr  Pr3  1  0.504528  0.322901  0.096131  1
  Pr  Pr4  1  0.003764  0.178157  0.401876  1
  Pr  Pr5  1  0.504768  0.324980  0.402532  1
  Pr  Pr6  1  0.005148  0.175626  0.096646  1
  Pr  Pr7  1  0.496102  0.678074  0.904874  1
  Pr  Pr8  1  0.995894  0.821509  0.595915  1
  Er  Er9  1  0.657911  0.165873  0.626468  1
  Er  Er10  1  0.156802  0.333466  0.875376  1
  Er  Er11  1  0.343340  0.835324  0.124815  1
  Er  Er12  1  0.844242  0.665196  0.374154  1
  Er  Er13  1  0.342976  0.835651  0.372012  1
  Er  Er14  1  0.842287  0.666212  0.125711  1
  Er  Er15  1  0.657392  0.164385  0.877330  1
  Er  Er16  1  0.823988  0.499378  0.750116  1
  Er  Er17  1  0.324935  0.999136  0.751764  1
  Er  Er18  1  0.175701  0.500990  0.248992  1
  Er  Er19  1  0.676139  0.999965  0.249961  1
  Sn  Sn20  1  0.680298  0.958492  0.458419  1
  Sn  Sn21  1  0.178730  0.540301  0.041575  1
  Sn  Sn22  1  0.317358  0.042251  0.959310  1
  Sn  Sn23  1  0.807029  0.460351  0.539925  1
  Sn  Sn24  1  0.326785  0.034623  0.540009  1
  Sn  Sn25  1  0.821927  0.460049  0.958974  1
  Sn  Sn26  1  0.682362  0.957912  0.042337  1
  Sn  Sn27  1  0.182988  0.545553  0.453910  1
  Sn  Sn28  1  0.462621  0.375018  0.754096  1
  Sn  Sn29  1  0.957836  0.118803  0.751829  1
  Sn  Sn30  1  0.539920  0.624330  0.248629  1
  Sn  Sn31  1  0.039200  0.877365  0.249557  1
  Sn  Sn32  1  0.690235  0.855707  0.751214  1
  Sn  Sn33  1  0.189784  0.646479  0.752195  1
  Sn  Sn34  1  0.310819  0.144983  0.249114  1
  Sn  Sn35  1  0.810897  0.356584  0.249383  1
