# generated using pymatgen
data_CsBaVSe4
_symmetry_space_group_name_H-M   'P 1'
_cell_length_a   7.21329500
_cell_length_b   10.50031300
_cell_length_c   12.61034700
_cell_angle_alpha   90.00000000
_cell_angle_beta   90.00000000
_cell_angle_gamma   90.00000000
_symmetry_Int_Tables_number   1
_chemical_formula_structural   CsBaVSe4
_chemical_formula_sum   'Cs4 Ba4 V4 Se16'
_cell_volume   955.13107727
_cell_formula_units_Z   4
loop_
 _symmetry_equiv_pos_site_id
 _symmetry_equiv_pos_as_xyz
  1  'x, y, z'
loop_
 _atom_site_type_symbol
 _atom_site_label
 _atom_site_symmetry_multiplicity
 _atom_site_fract_x
 _atom_site_fract_y
 _atom_site_fract_z
 _atom_site_occupancy
  Cs  Cs0  1  0.250000  0.867099  0.930733  1
  Cs  Cs1  1  0.250000  0.632901  0.430733  1
  Cs  Cs2  1  0.750000  0.132901  0.069267  1
  Cs  Cs3  1  0.750000  0.367099  0.569267  1
  Ba  Ba4  1  0.250000  0.403080  0.849971  1
  Ba  Ba5  1  0.250000  0.096920  0.349971  1
  Ba  Ba6  1  0.750000  0.596920  0.150029  1
  Ba  Ba7  1  0.750000  0.903080  0.650029  1
  V  V8  1  0.250000  0.119264  0.668448  1
  V  V9  1  0.250000  0.380736  0.168448  1
  V  V10  1  0.750000  0.880736  0.331552  1
  V  V11  1  0.750000  0.619264  0.831552  1
  Se  Se12  1  0.504585  0.132141  0.775988  1
  Se  Se13  1  0.995415  0.367859  0.275988  1
  Se  Se14  1  0.004585  0.867859  0.224012  1
  Se  Se15  1  0.495415  0.632141  0.724012  1
  Se  Se16  1  0.495415  0.867859  0.224012  1
  Se  Se17  1  0.004585  0.632141  0.724012  1
  Se  Se18  1  0.995415  0.132141  0.775988  1
  Se  Se19  1  0.504585  0.367859  0.275988  1
  Se  Se20  1  0.250000  0.293139  0.557914  1
  Se  Se21  1  0.250000  0.206861  0.057914  1
  Se  Se22  1  0.750000  0.706861  0.442086  1
  Se  Se23  1  0.750000  0.793139  0.942086  1
  Se  Se24  1  0.250000  0.932132  0.575978  1
  Se  Se25  1  0.250000  0.567868  0.075978  1
  Se  Se26  1  0.750000  0.067868  0.424022  1
  Se  Se27  1  0.750000  0.432132  0.924022  1
