# generated using pymatgen
data_NdSm4Th5(Sn3C)2
_symmetry_space_group_name_H-M   'P 1'
_cell_length_a   9.28835797
_cell_length_b   9.28835719
_cell_length_c   6.59385300
_cell_angle_alpha   90.00000000
_cell_angle_beta   90.00000000
_cell_angle_gamma   119.69469596
_symmetry_Int_Tables_number   1
_chemical_formula_structural   NdSm4Th5(Sn3C)2
_chemical_formula_sum   'Nd1 Sm4 Th5 Sn6 C2'
_cell_volume   494.16914454
_cell_formula_units_Z   1
loop_
 _symmetry_equiv_pos_site_id
 _symmetry_equiv_pos_as_xyz
  1  'x, y, z'
loop_
 _atom_site_type_symbol
 _atom_site_label
 _atom_site_symmetry_multiplicity
 _atom_site_fract_x
 _atom_site_fract_y
 _atom_site_fract_z
 _atom_site_occupancy
  Nd  Nd0  1  0.772137  0.772137  0.250000  1
  Sm  Sm1  1  0.666663  0.332651  0.500351  1
  Sm  Sm2  1  0.332651  0.666663  0.500351  1
  Sm  Sm3  1  0.332651  0.666663  0.999649  1
  Sm  Sm4  1  0.666663  0.332651  0.999649  1
  Th  Th5  1  0.215802  0.997823  0.250000  1
  Th  Th6  1  0.997823  0.215802  0.250000  1
  Th  Th7  1  0.219469  0.219469  0.750000  1
  Th  Th8  1  0.781121  0.999982  0.750000  1
  Th  Th9  1  0.999982  0.781121  0.750000  1
  Sn  Sn10  1  0.403193  0.403193  0.250000  1
  Sn  Sn11  1  0.596790  0.000315  0.250000  1
  Sn  Sn12  1  0.000315  0.596790  0.250000  1
  Sn  Sn13  1  0.596905  0.596905  0.750000  1
  Sn  Sn14  1  0.404307  0.000402  0.750000  1
  Sn  Sn15  1  0.000402  0.404307  0.750000  1
  C  C16  1  0.006564  0.006564  0.503884  1
  C  C17  1  0.006564  0.006564  0.996116  1
