# generated using pymatgen
data_Dy4Fe6Co7P12Ru7
_symmetry_space_group_name_H-M   'P 1'
_cell_length_a   3.66059800
_cell_length_b   10.37417640
_cell_length_c   12.11813900
_cell_angle_alpha   90.09546929
_cell_angle_beta   90.00000000
_cell_angle_gamma   90.00000000
_symmetry_Int_Tables_number   1
_chemical_formula_structural   Dy4Fe6Co7P12Ru7
_chemical_formula_sum   'Dy4 Fe6 Co7 P12 Ru7'
_cell_volume   460.19404377
_cell_formula_units_Z   1
loop_
 _symmetry_equiv_pos_site_id
 _symmetry_equiv_pos_as_xyz
  1  'x, y, z'
loop_
 _atom_site_type_symbol
 _atom_site_label
 _atom_site_symmetry_multiplicity
 _atom_site_fract_x
 _atom_site_fract_y
 _atom_site_fract_z
 _atom_site_occupancy
  Dy  Dy0  1  0.250000  0.578495  0.710418  1
  Dy  Dy1  1  0.250000  0.922021  0.209127  1
  Dy  Dy2  1  0.750000  0.417455  0.290145  1
  Dy  Dy3  1  0.750000  0.082757  0.793285  1
  Fe  Fe4  1  0.750000  0.120705  0.299840  1
  Fe  Fe5  1  0.750000  0.378746  0.801216  1
  Fe  Fe6  1  0.250000  0.461791  0.936855  1
  Fe  Fe7  1  0.250000  0.037069  0.436246  1
  Fe  Fe8  1  0.750000  0.538379  0.066729  1
  Fe  Fe9  1  0.750000  0.960139  0.566825  1
  Co  Co10  1  0.250000  0.100695  0.983362  1
  Co  Co11  1  0.250000  0.224540  0.171808  1
  Co  Co12  1  0.250000  0.272519  0.675912  1
  Co  Co13  1  0.750000  0.773294  0.823997  1
  Co  Co14  1  0.750000  0.727095  0.322962  1
  Co  Co15  1  0.250000  0.880640  0.701997  1
  Co  Co16  1  0.250000  0.621871  0.200194  1
  P  P17  1  0.250000  0.425594  0.112969  1
  P  P18  1  0.250000  0.074078  0.613041  1
  P  P19  1  0.750000  0.571806  0.887756  1
  P  P20  1  0.750000  0.927440  0.387364  1
  P  P21  1  0.250000  0.271747  0.861909  1
  P  P22  1  0.250000  0.225280  0.359041  1
  P  P23  1  0.750000  0.730991  0.136872  1
  P  P24  1  0.750000  0.769994  0.638407  1
  P  P25  1  0.250000  0.602806  0.386526  1
  P  P26  1  0.250000  0.900292  0.887759  1
  P  P27  1  0.750000  0.395561  0.614796  1
  P  P28  1  0.750000  0.103660  0.112866  1
  Ru  Ru29  1  0.250000  0.705463  0.985933  1
  Ru  Ru30  1  0.250000  0.796297  0.486786  1
  Ru  Ru31  1  0.750000  0.292977  0.012522  1
  Ru  Ru32  1  0.750000  0.201301  0.515614  1
  Ru  Ru33  1  0.250000  0.400731  0.482429  1
  Ru  Ru34  1  0.750000  0.596156  0.514933  1
  Ru  Ru35  1  0.750000  0.909611  0.011563  1
