# generated using pymatgen
data_TbDy3LuPb3
_symmetry_space_group_name_H-M   'P 1'
_cell_length_a   9.03737008
_cell_length_b   9.03944474
_cell_length_c   6.61778300
_cell_angle_alpha   89.99982214
_cell_angle_beta   90.00008768
_cell_angle_gamma   120.00758610
_symmetry_Int_Tables_number   1
_chemical_formula_structural   TbDy3LuPb3
_chemical_formula_sum   'Tb2 Dy6 Lu2 Pb6'
_cell_volume   468.15942574
_cell_formula_units_Z   2
loop_
 _symmetry_equiv_pos_site_id
 _symmetry_equiv_pos_as_xyz
  1  'x, y, z'
loop_
 _atom_site_type_symbol
 _atom_site_label
 _atom_site_symmetry_multiplicity
 _atom_site_fract_x
 _atom_site_fract_y
 _atom_site_fract_z
 _atom_site_occupancy
  Tb  Tb0  1  0.238028  0.238058  0.750644  1
  Tb  Tb1  1  0.238028  0.999970  0.249356  1
  Dy  Dy2  1  0.999942  0.761897  0.750644  1
  Dy  Dy3  1  0.761952  0.761985  0.249354  1
  Dy  Dy4  1  0.999942  0.238045  0.249356  1
  Dy  Dy5  1  0.761952  0.999967  0.750646  1
  Dy  Dy6  1  0.333341  0.666671  0.500000  1
  Dy  Dy7  1  0.666714  0.333357  0.500000  1
  Lu  Lu8  1  0.333345  0.666673  0.000000  1
  Lu  Lu9  1  0.666709  0.333354  0.000000  1
  Pb  Pb10  1  0.999913  0.395608  0.752462  1
  Pb  Pb11  1  0.395597  0.395686  0.247541  1
  Pb  Pb12  1  0.604513  0.999997  0.247538  1
  Pb  Pb13  1  0.604513  0.604516  0.752462  1
  Pb  Pb14  1  0.395597  0.999911  0.752459  1
  Pb  Pb15  1  0.999913  0.604305  0.247538  1
