# generated using pymatgen
data_KCeNdS6
_symmetry_space_group_name_H-M   'P 1'
_cell_length_a   11.23166206
_cell_length_b   11.23166080
_cell_length_c   11.23166000
_cell_angle_alpha   159.35420069
_cell_angle_beta   152.57619495
_cell_angle_gamma   34.57317618
_symmetry_Int_Tables_number   1
_chemical_formula_structural   KCeNdS6
_chemical_formula_sum   'K1 Ce1 Nd1 S6'
_cell_volume   229.86174475
_cell_formula_units_Z   1
loop_
 _symmetry_equiv_pos_site_id
 _symmetry_equiv_pos_as_xyz
  1  'x, y, z'
loop_
 _atom_site_type_symbol
 _atom_site_label
 _atom_site_symmetry_multiplicity
 _atom_site_fract_x
 _atom_site_fract_y
 _atom_site_fract_z
 _atom_site_occupancy
  K  K0  1  0.997617  0.997617  0.000000  1
  Ce  Ce1  1  0.685974  0.185974  0.500000  1
  Nd  Nd2  1  0.317177  0.817177  0.500000  1
  S  S3  1  0.202089  0.399959  0.802130  1
  S  S4  1  0.220301  0.220301  0.000000  1
  S  S5  1  0.408826  0.603655  0.805173  1
  S  S6  1  0.597829  0.399959  0.197870  1
  S  S7  1  0.798483  0.603655  0.194827  1
  S  S8  1  0.771704  0.771704  0.000000  1
