# generated using pymatgen
data_SrLaPr2(Pt2O7)2
_symmetry_space_group_name_H-M   'P 1'
_cell_length_a   7.50614028
_cell_length_b   7.45795603
_cell_length_c   7.50613997
_cell_angle_alpha   59.91320184
_cell_angle_beta   60.07581614
_cell_angle_gamma   59.91320161
_symmetry_Int_Tables_number   1
_chemical_formula_structural   SrLaPr2(Pt2O7)2
_chemical_formula_sum   'Sr1 La1 Pr2 Pt4 O14'
_cell_volume   296.90307932
_cell_formula_units_Z   1
loop_
 _symmetry_equiv_pos_site_id
 _symmetry_equiv_pos_as_xyz
  1  'x, y, z'
loop_
 _atom_site_type_symbol
 _atom_site_label
 _atom_site_symmetry_multiplicity
 _atom_site_fract_x
 _atom_site_fract_y
 _atom_site_fract_z
 _atom_site_occupancy
  Sr  Sr0  1  0.125000  0.625000  0.125000  1
  La  La1  1  0.125000  0.125000  0.125000  1
  Pr  Pr2  1  0.625000  0.125000  0.125000  1
  Pr  Pr3  1  0.125000  0.125000  0.625000  1
  Pt  Pt4  1  0.625000  0.625000  0.125000  1
  Pt  Pt5  1  0.625000  0.625000  0.625000  1
  Pt  Pt6  1  0.625000  0.125000  0.625000  1
  Pt  Pt7  1  0.125000  0.625000  0.625000  1
  O  O8  1  0.704792  0.292016  0.294292  1
  O  O9  1  0.698275  0.709823  0.296217  1
  O  O10  1  0.297244  0.706525  0.297244  1
  O  O11  1  0.996711  0.011107  0.996711  1
  O  O12  1  0.707967  0.291132  0.707967  1
  O  O13  1  0.953783  0.540177  0.551725  1
  O  O14  1  0.296217  0.709823  0.698275  1
  O  O15  1  0.542033  0.958868  0.542033  1
  O  O16  1  0.253289  0.238893  0.253289  1
  O  O17  1  0.952756  0.543475  0.952756  1
  O  O18  1  0.551725  0.540177  0.953783  1
  O  O19  1  0.955708  0.957984  0.545208  1
  O  O20  1  0.545208  0.957984  0.955708  1
  O  O21  1  0.294292  0.292016  0.704792  1
