# generated using pymatgen
data_Dy5HoCo9(P4Ru3)3
_symmetry_space_group_name_H-M   'P 1'
_cell_length_a   3.83415800
_cell_length_b   10.65164987
_cell_length_c   12.49812307
_cell_angle_alpha   89.75192935
_cell_angle_beta   90.00000000
_cell_angle_gamma   90.00000000
_symmetry_Int_Tables_number   1
_chemical_formula_structural   Dy5HoCo9(P4Ru3)3
_chemical_formula_sum   'Dy5 Ho1 Co9 P12 Ru9'
_cell_volume   510.41991922
_cell_formula_units_Z   1
loop_
 _symmetry_equiv_pos_site_id
 _symmetry_equiv_pos_as_xyz
  1  'x, y, z'
loop_
 _atom_site_type_symbol
 _atom_site_label
 _atom_site_symmetry_multiplicity
 _atom_site_fract_x
 _atom_site_fract_y
 _atom_site_fract_z
 _atom_site_occupancy
  Dy  Dy0  1  0.000000  0.500556  0.525329  1
  Dy  Dy1  1  0.500000  0.000692  0.472139  1
  Dy  Dy2  1  0.500000  0.820258  0.200950  1
  Dy  Dy3  1  0.500000  0.180926  0.201186  1
  Dy  Dy4  1  0.000000  0.678402  0.799748  1
  Ho  Ho5  1  0.000000  0.321441  0.798751  1
  Co  Co6  1  0.000000  0.498296  0.985735  1
  Co  Co7  1  0.500000  0.000378  0.016572  1
  Co  Co8  1  0.000000  0.374855  0.279873  1
  Co  Co9  1  0.500000  0.331298  0.989407  1
  Co  Co10  1  0.500000  0.665605  0.991289  1
  Co  Co11  1  0.000000  0.168375  0.012466  1
  Co  Co12  1  0.000000  0.832564  0.011221  1
  Co  Co13  1  0.500000  0.500187  0.703324  1
  Co  Co14  1  0.000000  0.001009  0.297024  1
  P  P15  1  0.500000  0.316243  0.616668  1
  P  P16  1  0.500000  0.686176  0.618775  1
  P  P17  1  0.000000  0.189409  0.377951  1
  P  P18  1  0.000000  0.813363  0.380442  1
  P  P19  1  0.500000  0.498936  0.882153  1
  P  P20  1  0.000000  0.000083  0.119035  1
  P  P21  1  0.500000  0.845347  0.902028  1
  P  P22  1  0.500000  0.154341  0.900380  1
  P  P23  1  0.000000  0.653160  0.099954  1
  P  P24  1  0.000000  0.345732  0.103634  1
  P  P25  1  0.500000  0.499499  0.338388  1
  P  P26  1  0.000000  0.001193  0.662015  1
  Ru  Ru27  1  0.500000  0.301023  0.422591  1
  Ru  Ru28  1  0.500000  0.702526  0.427634  1
  Ru  Ru29  1  0.000000  0.204860  0.568992  1
  Ru  Ru30  1  0.000000  0.798711  0.572058  1
  Ru  Ru31  1  0.500000  0.875860  0.719627  1
  Ru  Ru32  1  0.500000  0.126400  0.717618  1
  Ru  Ru33  1  0.000000  0.618596  0.281769  1
  Ru  Ru34  1  0.500000  0.491949  0.149408  1
  Ru  Ru35  1  0.000000  0.001750  0.853866  1
