# generated using pymatgen
data_NdDy11In20
_symmetry_space_group_name_H-M   'P 1'
_cell_length_a   6.52884226
_cell_length_b   10.44529460
_cell_length_c   12.31439465
_cell_angle_alpha   89.96336726
_cell_angle_beta   89.90532485
_cell_angle_gamma   89.95637459
_symmetry_Int_Tables_number   1
_chemical_formula_structural   NdDy11In20
_chemical_formula_sum   'Nd1 Dy11 In20'
_cell_volume   839.78696631
_cell_formula_units_Z   1
loop_
 _symmetry_equiv_pos_site_id
 _symmetry_equiv_pos_as_xyz
  1  'x, y, z'
loop_
 _atom_site_type_symbol
 _atom_site_label
 _atom_site_symmetry_multiplicity
 _atom_site_fract_x
 _atom_site_fract_y
 _atom_site_fract_z
 _atom_site_occupancy
  Nd  Nd0  1  0.610366  0.492970  0.642210  1
  Dy  Dy1  1  0.349775  0.750159  0.056117  1
  Dy  Dy2  1  0.148817  0.749811  0.555805  1
  Dy  Dy3  1  0.650040  0.250181  0.944098  1
  Dy  Dy4  1  0.850337  0.249359  0.443526  1
  Dy  Dy5  1  0.890698  0.493152  0.141703  1
  Dy  Dy6  1  0.609327  0.006872  0.641494  1
  Dy  Dy7  1  0.109480  0.993181  0.858570  1
  Dy  Dy8  1  0.389988  0.506858  0.357231  1
  Dy  Dy9  1  0.109653  0.506810  0.858647  1
  Dy  Dy10  1  0.390354  0.993247  0.358125  1
  Dy  Dy11  1  0.890543  0.007033  0.141707  1
  In  In12  1  0.616747  0.752312  0.503615  1
  In  In13  1  0.883339  0.750183  0.005788  1
  In  In14  1  0.381977  0.249200  0.493976  1
  In  In15  1  0.116799  0.249971  0.994480  1
  In  In16  1  0.651667  0.750137  0.245392  1
  In  In17  1  0.849732  0.751597  0.746455  1
  In  In18  1  0.347613  0.248635  0.754979  1
  In  In19  1  0.151806  0.249839  0.254259  1
  In  In20  1  0.125396  0.750161  0.284442  1
  In  In21  1  0.374078  0.750552  0.784691  1
  In  In22  1  0.877034  0.247738  0.716234  1
  In  In23  1  0.625412  0.249865  0.215598  1
  In  In24  1  0.875742  0.544290  0.400147  1
  In  In25  1  0.624891  0.956222  0.900872  1
  In  In26  1  0.124811  0.043680  0.599046  1
  In  In27  1  0.374901  0.455954  0.099257  1
  In  In28  1  0.123145  0.455504  0.598621  1
  In  In29  1  0.375014  0.043851  0.099225  1
  In  In30  1  0.875457  0.956094  0.400686  1
  In  In31  1  0.625062  0.544579  0.903000  1
