# generated using pymatgen
data_Y12Er8Si15Ag
_symmetry_space_group_name_H-M   'P 1'
_cell_length_a   7.45374259
_cell_length_b   7.68083048
_cell_length_c   14.58893502
_cell_angle_alpha   90.19728908
_cell_angle_beta   90.62376398
_cell_angle_gamma   90.11554981
_symmetry_Int_Tables_number   1
_chemical_formula_structural   Y12Er8Si15Ag
_chemical_formula_sum   'Y12 Er8 Si15 Ag1'
_cell_volume   835.17393637
_cell_formula_units_Z   1
loop_
 _symmetry_equiv_pos_site_id
 _symmetry_equiv_pos_as_xyz
  1  'x, y, z'
loop_
 _atom_site_type_symbol
 _atom_site_label
 _atom_site_symmetry_multiplicity
 _atom_site_fract_x
 _atom_site_fract_y
 _atom_site_fract_z
 _atom_site_occupancy
  Y  Y0  1  0.523869  0.675181  0.601810  1
  Y  Y1  1  0.028758  0.816760  0.901190  1
  Y  Y2  1  0.469894  0.319149  0.098281  1
  Y  Y3  1  0.979979  0.184380  0.398811  1
  Y  Y4  1  0.471819  0.325942  0.400105  1
  Y  Y5  1  0.970330  0.182781  0.098140  1
  Y  Y6  1  0.530655  0.682070  0.899834  1
  Y  Y7  1  0.025362  0.817790  0.601048  1
  Y  Y8  1  0.851720  0.506399  0.750017  1
  Y  Y9  1  0.349923  0.990517  0.748318  1
  Y  Y10  1  0.150557  0.490483  0.249691  1
  Y  Y11  1  0.651124  0.009760  0.249299  1
  Er  Er12  1  0.679329  0.175416  0.624796  1
  Er  Er13  1  0.182374  0.322155  0.877311  1
  Er  Er14  1  0.317959  0.820160  0.121384  1
  Er  Er15  1  0.826132  0.675364  0.376165  1
  Er  Er16  1  0.317974  0.824857  0.377647  1
  Er  Er17  1  0.817283  0.678572  0.121901  1
  Er  Er18  1  0.680841  0.178933  0.877376  1
  Er  Er19  1  0.176314  0.320954  0.623593  1
  Si  Si20  1  0.144895  0.529038  0.040483  1
  Si  Si21  1  0.353598  0.030187  0.959756  1
  Si  Si22  1  0.847820  0.469427  0.541075  1
  Si  Si23  1  0.342062  0.029797  0.542266  1
  Si  Si24  1  0.854579  0.470505  0.958884  1
  Si  Si25  1  0.644275  0.969961  0.039165  1
  Si  Si26  1  0.149868  0.531915  0.461191  1
  Si  Si27  1  0.477086  0.391687  0.751014  1
  Si  Si28  1  0.976395  0.106700  0.752659  1
  Si  Si29  1  0.524003  0.611462  0.248453  1
  Si  Si30  1  0.024777  0.892870  0.247606  1
  Si  Si31  1  0.733589  0.871811  0.751957  1
  Si  Si32  1  0.232573  0.625451  0.751461  1
  Si  Si33  1  0.269265  0.125620  0.247152  1
  Si  Si34  1  0.766217  0.376215  0.248624  1
  Ag  Ag35  1  0.656803  0.969728  0.461537  1
