# generated using pymatgen
data_DyEr3Nb4(Fe4P3)4
_symmetry_space_group_name_H-M   'P 1'
_cell_length_a   3.68476600
_cell_length_b   10.48076054
_cell_length_c   12.33181263
_cell_angle_alpha   90.03673382
_cell_angle_beta   90.00000000
_cell_angle_gamma   90.00000000
_symmetry_Int_Tables_number   1
_chemical_formula_structural   DyEr3Nb4(Fe4P3)4
_chemical_formula_sum   'Dy1 Er3 Nb4 Fe16 P12'
_cell_volume   476.24402506
_cell_formula_units_Z   1
loop_
 _symmetry_equiv_pos_site_id
 _symmetry_equiv_pos_as_xyz
  1  'x, y, z'
loop_
 _atom_site_type_symbol
 _atom_site_label
 _atom_site_symmetry_multiplicity
 _atom_site_fract_x
 _atom_site_fract_y
 _atom_site_fract_z
 _atom_site_occupancy
  Dy  Dy0  1  0.250000  0.584961  0.713107  1
  Er  Er1  1  0.250000  0.915096  0.213621  1
  Er  Er2  1  0.750000  0.414886  0.286464  1
  Er  Er3  1  0.750000  0.085161  0.786418  1
  Nb  Nb4  1  0.250000  0.705249  0.991439  1
  Nb  Nb5  1  0.250000  0.795221  0.491082  1
  Nb  Nb6  1  0.750000  0.294882  0.008797  1
  Nb  Nb7  1  0.750000  0.204731  0.508449  1
  Fe  Fe8  1  0.250000  0.416769  0.492297  1
  Fe  Fe9  1  0.250000  0.082891  0.992605  1
  Fe  Fe10  1  0.750000  0.582603  0.506904  1
  Fe  Fe11  1  0.750000  0.917096  0.007463  1
  Fe  Fe12  1  0.250000  0.216409  0.173471  1
  Fe  Fe13  1  0.250000  0.283274  0.673332  1
  Fe  Fe14  1  0.750000  0.783847  0.826970  1
  Fe  Fe15  1  0.750000  0.716504  0.326756  1
  Fe  Fe16  1  0.250000  0.879910  0.699741  1
  Fe  Fe17  1  0.250000  0.620795  0.199868  1
  Fe  Fe18  1  0.750000  0.120680  0.300200  1
  Fe  Fe19  1  0.750000  0.378618  0.800222  1
  Fe  Fe20  1  0.250000  0.463480  0.933339  1
  Fe  Fe21  1  0.250000  0.036329  0.433227  1
  Fe  Fe22  1  0.750000  0.536146  0.067105  1
  Fe  Fe23  1  0.750000  0.964321  0.566578  1
  P  P24  1  0.250000  0.427236  0.113156  1
  P  P25  1  0.250000  0.072916  0.612994  1
  P  P26  1  0.750000  0.572317  0.887806  1
  P  P27  1  0.750000  0.927448  0.386984  1
  P  P28  1  0.250000  0.271920  0.856642  1
  P  P29  1  0.250000  0.227975  0.356631  1
  P  P30  1  0.750000  0.728015  0.143409  1
  P  P31  1  0.750000  0.773363  0.643121  1
  P  P32  1  0.250000  0.593508  0.377849  1
  P  P33  1  0.250000  0.906539  0.877842  1
  P  P34  1  0.750000  0.405286  0.621884  1
  P  P35  1  0.750000  0.093618  0.122227  1
