# generated using pymatgen
data_NaDy4Tm2Co6Sn23
_symmetry_space_group_name_H-M   'P 1'
_cell_length_a   9.69673069
_cell_length_b   9.69673026
_cell_length_c   9.94769024
_cell_angle_alpha   89.95044911
_cell_angle_beta   90.04955104
_cell_angle_gamma   120.06948052
_symmetry_Int_Tables_number   1
_chemical_formula_structural   NaDy4Tm2Co6Sn23
_chemical_formula_sum   'Na1 Dy4 Tm2 Co6 Sn23'
_cell_volume   809.46640320
_cell_formula_units_Z   1
loop_
 _symmetry_equiv_pos_site_id
 _symmetry_equiv_pos_as_xyz
  1  'x, y, z'
loop_
 _atom_site_type_symbol
 _atom_site_label
 _atom_site_symmetry_multiplicity
 _atom_site_fract_x
 _atom_site_fract_y
 _atom_site_fract_z
 _atom_site_occupancy
  Na  Na0  1  0.000000  0.000000  0.000000  1
  Dy  Dy1  1  0.479609  0.959420  0.305299  1
  Dy  Dy2  1  0.520391  0.040580  0.694701  1
  Dy  Dy3  1  0.040580  0.520391  0.305299  1
  Dy  Dy4  1  0.959420  0.479609  0.694701  1
  Tm  Tm5  1  0.480310  0.519690  0.305171  1
  Tm  Tm6  1  0.519690  0.480310  0.694829  1
  Co  Co7  1  0.829476  0.170524  0.200976  1
  Co  Co8  1  0.170524  0.829476  0.799024  1
  Co  Co9  1  0.828575  0.658585  0.201291  1
  Co  Co10  1  0.171425  0.341415  0.798709  1
  Co  Co11  1  0.341415  0.171425  0.201291  1
  Co  Co12  1  0.658585  0.828575  0.798709  1
  Sn  Sn13  1  0.344059  0.000209  0.000021  1
  Sn  Sn14  1  0.655941  0.999791  0.999979  1
  Sn  Sn15  1  0.000209  0.344059  0.999979  1
  Sn  Sn16  1  0.999791  0.655941  0.000021  1
  Sn  Sn17  1  0.655630  0.655630  0.000000  1
  Sn  Sn18  1  0.344370  0.344370  0.000000  1
  Sn  Sn19  1  0.333506  0.666494  0.814414  1
  Sn  Sn20  1  0.666494  0.333506  0.185586  1
  Sn  Sn21  1  0.000000  0.000000  0.500000  1
  Sn  Sn22  1  0.781484  0.218516  0.454534  1
  Sn  Sn23  1  0.218516  0.781484  0.545466  1
  Sn  Sn24  1  0.780389  0.562734  0.454596  1
  Sn  Sn25  1  0.219611  0.437266  0.545404  1
  Sn  Sn26  1  0.437266  0.219611  0.454596  1
  Sn  Sn27  1  0.562734  0.780389  0.545404  1
  Sn  Sn28  1  0.334005  0.665995  0.117138  1
  Sn  Sn29  1  0.665995  0.334005  0.882862  1
  Sn  Sn30  1  0.116142  0.883858  0.271809  1
  Sn  Sn31  1  0.883858  0.116142  0.728191  1
  Sn  Sn32  1  0.116896  0.232908  0.271672  1
  Sn  Sn33  1  0.883104  0.767092  0.728328  1
  Sn  Sn34  1  0.767092  0.883104  0.271672  1
  Sn  Sn35  1  0.232908  0.116896  0.728328  1
