# generated using pymatgen
data_Zr2FeAgF11
_symmetry_space_group_name_H-M   'P 1'
_cell_length_a   5.88440483
_cell_length_b   5.88440477
_cell_length_c   7.91535507
_cell_angle_alpha   69.25346644
_cell_angle_beta   69.25346688
_cell_angle_gamma   73.35318921
_symmetry_Int_Tables_number   1
_chemical_formula_structural   Zr2FeAgF11
_chemical_formula_sum   'Zr2 Fe1 Ag1 F11'
_cell_volume   235.59050085
_cell_formula_units_Z   1
loop_
 _symmetry_equiv_pos_site_id
 _symmetry_equiv_pos_as_xyz
  1  'x, y, z'
loop_
 _atom_site_type_symbol
 _atom_site_label
 _atom_site_symmetry_multiplicity
 _atom_site_fract_x
 _atom_site_fract_y
 _atom_site_fract_z
 _atom_site_occupancy
  Zr  Zr0  1  0.511585  0.511585  0.759634  1
  Zr  Zr1  1  0.488415  0.488415  0.240366  1
  Fe  Fe2  1  0.000000  0.000000  0.500000  1
  Ag  Ag3  1  0.000000  0.000000  0.000000  1
  F  F4  1  0.232595  0.803796  0.685373  1
  F  F5  1  0.196204  0.767405  0.314627  1
  F  F6  1  0.767405  0.196204  0.314627  1
  F  F7  1  0.803796  0.232595  0.685373  1
  F  F8  1  0.500000  0.500000  0.500000  1
  F  F9  1  0.664148  0.335852  0.000000  1
  F  F10  1  0.335852  0.664148  0.000000  1
  F  F11  1  0.243669  0.243669  0.354021  1
  F  F12  1  0.756331  0.756331  0.645979  1
  F  F13  1  0.278345  0.278345  0.888142  1
  F  F14  1  0.721655  0.721655  0.111858  1
