# generated using pymatgen
data_Tb4As6Ir2Rh5
_symmetry_space_group_name_H-M   'P 1'
_cell_length_a   7.32357978
_cell_length_b   7.32017361
_cell_length_c   7.32012928
_cell_angle_alpha   109.49774497
_cell_angle_beta   109.46306304
_cell_angle_gamma   109.42833579
_symmetry_Int_Tables_number   1
_chemical_formula_structural   Tb4As6Ir2Rh5
_chemical_formula_sum   'Tb4 As6 Ir2 Rh5'
_cell_volume   302.18498488
_cell_formula_units_Z   1
loop_
 _symmetry_equiv_pos_site_id
 _symmetry_equiv_pos_as_xyz
  1  'x, y, z'
loop_
 _atom_site_type_symbol
 _atom_site_label
 _atom_site_symmetry_multiplicity
 _atom_site_fract_x
 _atom_site_fract_y
 _atom_site_fract_z
 _atom_site_occupancy
  Tb  Tb0  1  0.999996  0.000143  0.499994  1
  Tb  Tb1  1  0.499999  0.999983  0.000041  1
  Tb  Tb2  1  0.999980  0.500001  0.999844  1
  Tb  Tb3  1  0.499995  0.499954  0.500026  1
  As  As4  1  0.680204  0.679830  0.000348  1
  As  As5  1  0.320246  0.320050  0.000215  1
  As  As6  1  0.999996  0.680335  0.679806  1
  As  As7  1  0.000022  0.320181  0.319704  1
  As  As8  1  0.679703  0.999701  0.679835  1
  As  As9  1  0.319834  0.999727  0.320292  1
  Ir  Ir10  1  0.249846  0.499495  0.750397  1
  Ir  Ir11  1  0.750208  0.249684  0.500542  1
  Rh  Rh12  1  0.000009  0.000098  0.999930  1
  Rh  Rh13  1  0.499995  0.250674  0.749401  1
  Rh  Rh14  1  0.499986  0.750462  0.249409  1
  Rh  Rh15  1  0.749221  0.499508  0.249767  1
  Rh  Rh16  1  0.250761  0.750176  0.500449  1
