# generated using pymatgen
data_Y8HoTmIr6
_symmetry_space_group_name_H-M   'P 1'
_cell_length_a   10.92515300
_cell_length_b   10.92515300
_cell_length_c   6.37703000
_cell_angle_alpha   90.00000000
_cell_angle_beta   90.00000000
_cell_angle_gamma   90.00000000
_symmetry_Int_Tables_number   1
_chemical_formula_structural   Y8HoTmIr6
_chemical_formula_sum   'Y16 Ho2 Tm2 Ir12'
_cell_volume   761.15572017
_cell_formula_units_Z   2
loop_
 _symmetry_equiv_pos_site_id
 _symmetry_equiv_pos_as_xyz
  1  'x, y, z'
loop_
 _atom_site_type_symbol
 _atom_site_label
 _atom_site_symmetry_multiplicity
 _atom_site_fract_x
 _atom_site_fract_y
 _atom_site_fract_z
 _atom_site_occupancy
  Y  Y0  1  0.290792  0.087744  0.377370  1
  Y  Y1  1  0.290792  0.912256  0.877370  1
  Y  Y2  1  0.709208  0.087744  0.877370  1
  Y  Y3  1  0.709208  0.912256  0.377370  1
  Y  Y4  1  0.587657  0.790505  0.877405  1
  Y  Y5  1  0.587657  0.209495  0.377405  1
  Y  Y6  1  0.412343  0.790505  0.377405  1
  Y  Y7  1  0.412343  0.209495  0.877405  1
  Y  Y8  1  0.209495  0.412343  0.622595  1
  Y  Y9  1  0.209495  0.587657  0.122595  1
  Y  Y10  1  0.790505  0.412343  0.122595  1
  Y  Y11  1  0.790505  0.587657  0.622595  1
  Y  Y12  1  0.912256  0.709208  0.122630  1
  Y  Y13  1  0.912256  0.290792  0.622630  1
  Y  Y14  1  0.087744  0.709208  0.622630  1
  Y  Y15  1  0.087744  0.290792  0.122630  1
  Ho  Ho16  1  0.000000  0.000000  0.500000  1
  Ho  Ho17  1  0.000000  0.000000  0.000000  1
  Tm  Tm18  1  0.500000  0.500000  0.000000  1
  Tm  Tm19  1  0.500000  0.500000  0.500000  1
  Ir  Ir20  1  0.847907  0.152093  0.250000  1
  Ir  Ir21  1  0.847907  0.847907  0.750000  1
  Ir  Ir22  1  0.152093  0.152093  0.750000  1
  Ir  Ir23  1  0.152093  0.847907  0.250000  1
  Ir  Ir24  1  0.651528  0.348472  0.750000  1
  Ir  Ir25  1  0.651528  0.651528  0.250000  1
  Ir  Ir26  1  0.348472  0.348472  0.250000  1
  Ir  Ir27  1  0.348472  0.651528  0.750000  1
  Ir  Ir28  1  0.500000  0.000000  0.122650  1
  Ir  Ir29  1  0.500000  0.000000  0.622650  1
  Ir  Ir30  1  0.000000  0.500000  0.877350  1
  Ir  Ir31  1  0.000000  0.500000  0.377350  1
