# generated using pymatgen
data_Zr6Ta5Ga11Os7
_symmetry_space_group_name_H-M   'P 1'
_cell_length_a   8.90155236
_cell_length_b   8.90155277
_cell_length_c   8.86878931
_cell_angle_alpha   59.87771650
_cell_angle_beta   59.87771710
_cell_angle_gamma   59.99999530
_symmetry_Int_Tables_number   1
_chemical_formula_structural   Zr6Ta5Ga11Os7
_chemical_formula_sum   'Zr6 Ta5 Ga11 Os7'
_cell_volume   495.99312584
_cell_formula_units_Z   1
loop_
 _symmetry_equiv_pos_site_id
 _symmetry_equiv_pos_as_xyz
  1  'x, y, z'
loop_
 _atom_site_type_symbol
 _atom_site_label
 _atom_site_symmetry_multiplicity
 _atom_site_fract_x
 _atom_site_fract_y
 _atom_site_fract_z
 _atom_site_occupancy
  Zr  Zr0  1  0.704099  0.704099  0.299140  1
  Zr  Zr1  1  0.292661  0.704099  0.299140  1
  Zr  Zr2  1  0.704099  0.292661  0.299140  1
  Zr  Zr3  1  0.305155  0.305155  0.703147  1
  Zr  Zr4  1  0.686543  0.305155  0.703147  1
  Zr  Zr5  1  0.305155  0.686543  0.703147  1
  Ta  Ta6  1  0.877937  0.877937  0.366189  1
  Ta  Ta7  1  0.874533  0.371454  0.879480  1
  Ta  Ta8  1  0.371454  0.874533  0.879480  1
  Ta  Ta9  1  0.874533  0.874533  0.879480  1
  Ta  Ta10  1  0.126366  0.126366  0.620902  1
  Ga  Ga11  1  0.119004  0.642326  0.119666  1
  Ga  Ga12  1  0.642326  0.119004  0.119666  1
  Ga  Ga13  1  0.119004  0.119004  0.119666  1
  Ga  Ga14  1  0.653874  0.653874  0.038377  1
  Ga  Ga15  1  0.657286  0.030170  0.655259  1
  Ga  Ga16  1  0.030170  0.657286  0.655259  1
  Ga  Ga17  1  0.657286  0.657286  0.655259  1
  Ga  Ga18  1  0.337421  0.337421  0.987736  1
  Ga  Ga19  1  0.341911  0.977627  0.338552  1
  Ga  Ga20  1  0.977627  0.341911  0.338552  1
  Ga  Ga21  1  0.341911  0.341911  0.338552  1
  Os  Os22  1  0.005242  0.005242  0.984274  1
  Os  Os23  1  0.998293  0.998293  0.506399  1
  Os  Os24  1  0.497015  0.998293  0.506399  1
  Os  Os25  1  0.998293  0.497015  0.506399  1
  Os  Os26  1  0.502025  0.502025  0.999196  1
  Os  Os27  1  0.996753  0.502025  0.999196  1
  Os  Os28  1  0.502025  0.996753  0.999196  1
