# generated using pymatgen
data_HoTh3Al11Ga7Ir6
_symmetry_space_group_name_H-M   'P 1'
_cell_length_a   7.63117429
_cell_length_b   7.64001686
_cell_length_c   9.57015947
_cell_angle_alpha   90.05388219
_cell_angle_beta   89.91894230
_cell_angle_gamma   119.67060431
_symmetry_Int_Tables_number   1
_chemical_formula_structural   HoTh3Al11Ga7Ir6
_chemical_formula_sum   'Ho1 Th3 Al11 Ga7 Ir6'
_cell_volume   484.80491129
_cell_formula_units_Z   1
loop_
 _symmetry_equiv_pos_site_id
 _symmetry_equiv_pos_as_xyz
  1  'x, y, z'
loop_
 _atom_site_type_symbol
 _atom_site_label
 _atom_site_symmetry_multiplicity
 _atom_site_fract_x
 _atom_site_fract_y
 _atom_site_fract_z
 _atom_site_occupancy
  Ho  Ho0  1  0.329094  0.005112  0.749957  1
  Th  Th1  1  0.996302  0.668888  0.248470  1
  Th  Th2  1  0.002397  0.329996  0.754556  1
  Th  Th3  1  0.671469  0.997149  0.248402  1
  Al  Al4  1  0.000398  0.672081  0.922720  1
  Al  Al5  1  0.000484  0.669749  0.575665  1
  Al  Al6  1  0.334815  0.003114  0.432708  1
  Al  Al7  1  0.005684  0.335120  0.429907  1
  Al  Al8  1  0.660393  0.996267  0.575618  1
  Al  Al9  1  0.657820  0.993379  0.922666  1
  Al  Al10  1  0.334802  0.004088  0.067244  1
  Al  Al11  1  0.335960  0.332605  0.556538  1
  Al  Al12  1  0.664130  0.664073  0.450512  1
  Al  Al13  1  0.663163  0.663013  0.049001  1
  Al  Al14  1  0.335877  0.332626  0.944718  1
  Ga  Ga15  1  0.138282  0.132164  0.250076  1
  Ga  Ga16  1  0.870630  0.868306  0.748932  1
  Ga  Ga17  1  0.003423  0.335168  0.079560  1
  Ga  Ga18  1  0.346533  0.545375  0.250122  1
  Ga  Ga19  1  0.654012  0.449590  0.748764  1
  Ga  Ga20  1  0.542627  0.339594  0.249629  1
  Ga  Ga21  1  0.454594  0.662072  0.749153  1
  Ir  Ir22  1  0.670038  0.328741  0.998219  1
  Ir  Ir23  1  0.329010  0.672656  0.999686  1
  Ir  Ir24  1  0.327183  0.670233  0.499404  1
  Ir  Ir25  1  0.673924  0.329262  0.498826  1
  Ir  Ir26  1  0.998210  0.998365  0.999824  1
  Ir  Ir27  1  0.998747  0.001212  0.499120  1
