# generated using pymatgen
data_Ce3Dy5(TcB6)4
_symmetry_space_group_name_H-M   'P 1'
_cell_length_a   3.72834800
_cell_length_b   9.18956445
_cell_length_c   11.57940900
_cell_angle_alpha   90.07774099
_cell_angle_beta   90.00000000
_cell_angle_gamma   90.00000000
_symmetry_Int_Tables_number   1
_chemical_formula_structural   Ce3Dy5(TcB6)4
_chemical_formula_sum   'Ce3 Dy5 Tc4 B24'
_cell_volume   396.73212118
_cell_formula_units_Z   1
loop_
 _symmetry_equiv_pos_site_id
 _symmetry_equiv_pos_as_xyz
  1  'x, y, z'
loop_
 _atom_site_type_symbol
 _atom_site_label
 _atom_site_symmetry_multiplicity
 _atom_site_fract_x
 _atom_site_fract_y
 _atom_site_fract_z
 _atom_site_occupancy
  Ce  Ce0  1  0.000000  0.322219  0.414344  1
  Ce  Ce1  1  0.000000  0.677397  0.586516  1
  Ce  Ce2  1  0.000000  0.824184  0.085550  1
  Dy  Dy3  1  0.000000  0.176929  0.913744  1
  Dy  Dy4  1  0.000000  0.944477  0.371975  1
  Dy  Dy5  1  0.000000  0.056173  0.628934  1
  Dy  Dy6  1  0.000000  0.442795  0.128376  1
  Dy  Dy7  1  0.000000  0.556057  0.871106  1
  Tc  Tc8  1  0.000000  0.638612  0.320700  1
  Tc  Tc9  1  0.000000  0.362526  0.678253  1
  Tc  Tc10  1  0.000000  0.138369  0.179525  1
  Tc  Tc11  1  0.000000  0.860862  0.821092  1
  B  B12  1  0.500000  0.554471  0.431528  1
  B  B13  1  0.500000  0.445502  0.568497  1
  B  B14  1  0.500000  0.054161  0.067498  1
  B  B15  1  0.500000  0.946104  0.932228  1
  B  B16  1  0.500000  0.748437  0.418283  1
  B  B17  1  0.500000  0.251307  0.582191  1
  B  B18  1  0.500000  0.248313  0.080766  1
  B  B19  1  0.500000  0.752178  0.918327  1
  B  B20  1  0.500000  0.791125  0.265907  1
  B  B21  1  0.500000  0.208185  0.734631  1
  B  B22  1  0.500000  0.290929  0.233263  1
  B  B23  1  0.500000  0.709108  0.766160  1
  B  B24  1  0.500000  0.631431  0.185831  1
  B  B25  1  0.500000  0.368081  0.814498  1
  B  B26  1  0.500000  0.131816  0.313790  1
  B  B27  1  0.500000  0.868838  0.686568  1
  B  B28  1  0.500000  0.984290  0.212082  1
  B  B29  1  0.500000  0.017168  0.787675  1
  B  B30  1  0.500000  0.483903  0.287110  1
  B  B31  1  0.500000  0.515710  0.713100  1
  B  B32  1  0.500000  0.603715  0.028858  1
  B  B33  1  0.500000  0.394490  0.970504  1
  B  B34  1  0.500000  0.106701  0.470659  1
  B  B35  1  0.500000  0.893436  0.529930  1
