# generated using pymatgen
data_Ta4Be5Nb2SiRu6
_symmetry_space_group_name_H-M   'P 1'
_cell_length_a   7.36110872
_cell_length_b   7.35942982
_cell_length_c   7.36127045
_cell_angle_alpha   126.03184415
_cell_angle_beta   129.44791694
_cell_angle_gamma   77.08611822
_symmetry_Int_Tables_number   1
_chemical_formula_structural   Ta4Be5Nb2SiRu6
_chemical_formula_sum   'Ta4 Be5 Nb2 Si1 Ru6'
_cell_volume   241.71401975
_cell_formula_units_Z   1
loop_
 _symmetry_equiv_pos_site_id
 _symmetry_equiv_pos_as_xyz
  1  'x, y, z'
loop_
 _atom_site_type_symbol
 _atom_site_label
 _atom_site_symmetry_multiplicity
 _atom_site_fract_x
 _atom_site_fract_y
 _atom_site_fract_z
 _atom_site_occupancy
  Ta  Ta0  1  0.556694  0.089008  0.042329  1
  Ta  Ta1  1  0.458822  0.506372  0.558136  1
  Ta  Ta2  1  0.948280  0.505773  0.046820  1
  Ta  Ta3  1  0.046219  0.088715  0.532467  1
  Be  Be4  1  0.750033  0.497556  0.247323  1
  Be  Be5  1  0.250118  0.497212  0.747672  1
  Be  Be6  1  0.331841  0.830061  0.498878  1
  Be  Be7  1  0.665540  0.163936  0.496111  1
  Be  Be8  1  0.835002  0.830643  0.994871  1
  Nb  Nb9  1  0.739474  0.895617  0.644057  1
  Nb  Nb10  1  0.250806  0.894780  0.155874  1
  Si  Si11  1  0.166928  0.162624  0.997229  1
  Ru  Ru12  1  0.499623  0.246352  0.746743  1
  Ru  Ru13  1  0.999659  0.248024  0.248616  1
  Ru  Ru14  1  0.126377  0.746862  0.620874  1
  Ru  Ru15  1  0.873314  0.494249  0.620727  1
  Ru  Ru16  1  0.626743  0.747292  0.120485  1
  Ru  Ru17  1  0.374527  0.497121  0.122989  1
