# generated using pymatgen
data_Gd8Zn(Si4Ir)3
_symmetry_space_group_name_H-M   'P 1'
_cell_length_a   8.19312400
_cell_length_b   8.19312268
_cell_length_c   7.98629100
_cell_angle_alpha   90.00000000
_cell_angle_beta   90.00000000
_cell_angle_gamma   120.00000532
_symmetry_Int_Tables_number   1
_chemical_formula_structural   Gd8Zn(Si4Ir)3
_chemical_formula_sum   'Gd8 Zn1 Si12 Ir3'
_cell_volume   464.27438669
_cell_formula_units_Z   1
loop_
 _symmetry_equiv_pos_site_id
 _symmetry_equiv_pos_as_xyz
  1  'x, y, z'
loop_
 _atom_site_type_symbol
 _atom_site_label
 _atom_site_symmetry_multiplicity
 _atom_site_fract_x
 _atom_site_fract_y
 _atom_site_fract_z
 _atom_site_occupancy
  Gd  Gd0  1  0.510887  0.021771  0.246301  1
  Gd  Gd1  1  0.492911  0.985823  0.753641  1
  Gd  Gd2  1  0.978229  0.489113  0.246301  1
  Gd  Gd3  1  0.014177  0.507089  0.753641  1
  Gd  Gd4  1  0.510887  0.489113  0.246301  1
  Gd  Gd5  1  0.492911  0.507089  0.753641  1
  Gd  Gd6  1  0.000000  0.000000  0.252011  1
  Gd  Gd7  1  0.000000  0.000000  0.751176  1
  Zn  Zn8  1  0.333333  0.666667  0.456950  1
  Si  Si9  1  0.166159  0.332319  0.004395  1
  Si  Si10  1  0.833904  0.667808  0.997767  1
  Si  Si11  1  0.667681  0.833841  0.004395  1
  Si  Si12  1  0.832210  0.664420  0.500627  1
  Si  Si13  1  0.332192  0.166096  0.997767  1
  Si  Si14  1  0.163445  0.326889  0.502258  1
  Si  Si15  1  0.166159  0.833841  0.004395  1
  Si  Si16  1  0.335580  0.167790  0.500627  1
  Si  Si17  1  0.833904  0.166096  0.997767  1
  Si  Si18  1  0.673111  0.836555  0.502258  1
  Si  Si19  1  0.832210  0.167790  0.500627  1
  Si  Si20  1  0.163445  0.836555  0.502258  1
  Ir  Ir21  1  0.333333  0.666667  0.021195  1
  Ir  Ir22  1  0.666667  0.333333  0.968830  1
  Ir  Ir23  1  0.666667  0.333333  0.534867  1
