# generated using pymatgen
data_Nd8Y2B2Cl15
_symmetry_space_group_name_H-M   'P 1'
_cell_length_a   8.98699466
_cell_length_b   9.79534875
_cell_length_c   10.61980963
_cell_angle_alpha   90.94365600
_cell_angle_beta   114.57974678
_cell_angle_gamma   110.98761145
_symmetry_Int_Tables_number   1
_chemical_formula_structural   Nd8Y2B2Cl15
_chemical_formula_sum   'Nd8 Y2 B2 Cl15'
_cell_volume   778.53740826
_cell_formula_units_Z   1
loop_
 _symmetry_equiv_pos_site_id
 _symmetry_equiv_pos_as_xyz
  1  'x, y, z'
loop_
 _atom_site_type_symbol
 _atom_site_label
 _atom_site_symmetry_multiplicity
 _atom_site_fract_x
 _atom_site_fract_y
 _atom_site_fract_z
 _atom_site_occupancy
  Nd  Nd0  1  0.809673  0.417898  0.278299  1
  Nd  Nd1  1  0.190327  0.582102  0.721701  1
  Nd  Nd2  1  0.681067  0.743832  0.818931  1
  Nd  Nd3  1  0.318933  0.256168  0.181069  1
  Nd  Nd4  1  0.527883  0.699372  0.102541  1
  Nd  Nd5  1  0.472117  0.300628  0.897459  1
  Nd  Nd6  1  0.591423  0.035630  0.333252  1
  Nd  Nd7  1  0.408577  0.964370  0.666748  1
  Y  Y8  1  0.726842  0.075757  0.048104  1
  Y  Y9  1  0.273158  0.924243  0.951896  1
  B  B10  1  0.466985  0.822096  0.877749  1
  B  B11  1  0.533015  0.177904  0.122251  1
  Cl  Cl12  1  0.000000  0.000000  0.000000  1
  Cl  Cl13  1  0.634414  0.882226  0.585363  1
  Cl  Cl14  1  0.365586  0.117774  0.414637  1
  Cl  Cl15  1  0.882793  0.299643  0.524085  1
  Cl  Cl16  1  0.117207  0.700357  0.475915  1
  Cl  Cl17  1  0.288047  0.769183  0.171980  1
  Cl  Cl18  1  0.711953  0.230817  0.828020  1
  Cl  Cl19  1  0.042472  0.331767  0.217896  1
  Cl  Cl20  1  0.164074  0.051297  0.713281  1
  Cl  Cl21  1  0.835926  0.948703  0.286719  1
  Cl  Cl22  1  0.232414  0.410308  0.945309  1
  Cl  Cl23  1  0.767586  0.589692  0.054691  1
  Cl  Cl24  1  0.406886  0.466305  0.658327  1
  Cl  Cl25  1  0.593114  0.533695  0.341673  1
  Cl  Cl26  1  0.957528  0.668233  0.782104  1
