# generated using pymatgen
data_SrPb2WCl2O5
_symmetry_space_group_name_H-M   'P 1'
_cell_length_a   11.31741400
_cell_length_b   7.11083119
_cell_length_c   7.11083213
_cell_angle_alpha   132.62180179
_cell_angle_beta   90.00000000
_cell_angle_gamma   90.00000000
_symmetry_Int_Tables_number   1
_chemical_formula_structural   SrPb2WCl2O5
_chemical_formula_sum   'Sr2 Pb4 W2 Cl4 O10'
_cell_volume   421.08626870
_cell_formula_units_Z   2
loop_
 _symmetry_equiv_pos_site_id
 _symmetry_equiv_pos_as_xyz
  1  'x, y, z'
loop_
 _atom_site_type_symbol
 _atom_site_label
 _atom_site_symmetry_multiplicity
 _atom_site_fract_x
 _atom_site_fract_y
 _atom_site_fract_z
 _atom_site_occupancy
  Sr  Sr0  1  0.750000  0.902966  0.097032  1
  Sr  Sr1  1  0.249999  0.097032  0.902966  1
  Pb  Pb2  1  0.468452  0.347179  0.652818  1
  Pb  Pb3  1  0.531548  0.652818  0.347179  1
  Pb  Pb4  1  0.968452  0.652818  0.347179  1
  Pb  Pb5  1  0.031549  0.347179  0.652818  1
  W  W6  1  0.750000  0.235451  0.764546  1
  W  W7  1  0.249999  0.764546  0.235451  1
  Cl  Cl8  1  0.500000  0.000000  0.000000  1
  Cl  Cl9  1  0.000000  0.000000  0.000000  1
  Cl  Cl10  1  0.750000  0.475635  0.524362  1
  Cl  Cl11  1  0.249999  0.524362  0.475635  1
  O  O12  1  0.750000  0.100460  0.899537  1
  O  O13  1  0.249999  0.899537  0.100460  1
  O  O14  1  0.631295  0.504383  0.962761  1
  O  O15  1  0.368706  0.962761  0.504383  1
  O  O16  1  0.131295  0.495617  0.037239  1
  O  O17  1  0.868705  0.037239  0.495617  1
  O  O18  1  0.368706  0.495617  0.037239  1
  O  O19  1  0.631295  0.037239  0.495617  1
  O  O20  1  0.868705  0.504383  0.962761  1
  O  O21  1  0.131295  0.962761  0.504383  1
