# generated using pymatgen
data_Pr7PaTe12
_symmetry_space_group_name_H-M   'P 1'
_cell_length_a   4.45544500
_cell_length_b   12.05293186
_cell_length_c   12.37939388
_cell_angle_alpha   90.26567864
_cell_angle_beta   89.99996704
_cell_angle_gamma   89.99999396
_symmetry_Int_Tables_number   1
_chemical_formula_structural   Pr7PaTe12
_chemical_formula_sum   'Pr7 Pa1 Te12'
_cell_volume   664.78085041
_cell_formula_units_Z   1
loop_
 _symmetry_equiv_pos_site_id
 _symmetry_equiv_pos_as_xyz
  1  'x, y, z'
loop_
 _atom_site_type_symbol
 _atom_site_label
 _atom_site_symmetry_multiplicity
 _atom_site_fract_x
 _atom_site_fract_y
 _atom_site_fract_z
 _atom_site_occupancy
  Pr  Pr0  1  0.250001  0.498211  0.696740  1
  Pr  Pr1  1  0.750000  0.502791  0.301824  1
  Pr  Pr2  1  0.749999  0.996521  0.804534  1
  Pr  Pr3  1  0.250001  0.002315  0.196538  1
  Pr  Pr4  1  0.250000  0.188537  0.517304  1
  Pr  Pr5  1  0.750000  0.811537  0.482276  1
  Pr  Pr6  1  0.750000  0.687603  0.982954  1
  Pa  Pa7  1  0.249999  0.312213  0.015322  1
  Te  Te8  1  0.249999  0.878192  0.957991  1
  Te  Te9  1  0.750000  0.131166  0.044521  1
  Te  Te10  1  0.750000  0.376295  0.542793  1
  Te  Te11  1  0.250000  0.622672  0.457167  1
  Te  Te12  1  0.250001  0.200628  0.780081  1
  Te  Te13  1  0.750000  0.800286  0.224511  1
  Te  Te14  1  0.749999  0.698035  0.726349  1
  Te  Te15  1  0.250001  0.299207  0.267472  1
  Te  Te16  1  0.250001  0.553582  0.116944  1
  Te  Te17  1  0.749999  0.438100  0.884178  1
  Te  Te18  1  0.750001  0.057018  0.380425  1
  Te  Te19  1  0.249999  0.945093  0.620076  1
