# generated using pymatgen
data_CaTb5SmRhBr12
_symmetry_space_group_name_H-M   'P 1'
_cell_length_a   9.27694466
_cell_length_b   9.35859713
_cell_length_c   9.36907729
_cell_angle_alpha   106.69278779
_cell_angle_beta   106.75387693
_cell_angle_gamma   107.09705162
_symmetry_Int_Tables_number   1
_chemical_formula_structural   CaTb5SmRhBr12
_chemical_formula_sum   'Ca1 Tb5 Sm1 Rh1 Br12'
_cell_volume   680.20375154
_cell_formula_units_Z   1
loop_
 _symmetry_equiv_pos_site_id
 _symmetry_equiv_pos_as_xyz
  1  'x, y, z'
loop_
 _atom_site_type_symbol
 _atom_site_label
 _atom_site_symmetry_multiplicity
 _atom_site_fract_x
 _atom_site_fract_y
 _atom_site_fract_z
 _atom_site_occupancy
  Ca  Ca0  1  0.499742  0.500024  0.500206  1
  Tb  Tb1  1  0.023058  0.314786  0.105121  1
  Tb  Tb2  1  0.103469  0.023015  0.313705  1
  Tb  Tb3  1  0.695913  0.898843  0.977877  1
  Tb  Tb4  1  0.977039  0.684994  0.894922  1
  Tb  Tb5  1  0.894555  0.976422  0.685439  1
  Sm  Sm6  1  0.307654  0.101984  0.021784  1
  Rh  Rh7  1  0.999913  0.999814  0.999528  1
  Br  Br8  1  0.681757  0.218207  0.071760  1
  Br  Br9  1  0.071587  0.678532  0.217902  1
  Br  Br10  1  0.216728  0.071353  0.675021  1
  Br  Br11  1  0.321173  0.777826  0.927718  1
  Br  Br12  1  0.928081  0.321444  0.781965  1
  Br  Br13  1  0.779906  0.927400  0.320087  1
  Br  Br14  1  0.454722  0.158871  0.377557  1
  Br  Br15  1  0.374187  0.458084  0.160299  1
  Br  Br16  1  0.156558  0.373718  0.454176  1
  Br  Br17  1  0.545283  0.841917  0.626984  1
  Br  Br18  1  0.625823  0.546616  0.842294  1
  Br  Br19  1  0.842852  0.626152  0.545656  1
