# generated using pymatgen
data_Tb4Y2ErFeI12
_symmetry_space_group_name_H-M   'P 1'
_cell_length_a   9.81063821
_cell_length_b   9.73890322
_cell_length_c   9.78423999
_cell_angle_alpha   106.85081327
_cell_angle_beta   106.95050058
_cell_angle_gamma   107.05324751
_symmetry_Int_Tables_number   1
_chemical_formula_structural   Tb4Y2ErFeI12
_chemical_formula_sum   'Tb4 Y2 Er1 Fe1 I12'
_cell_volume   779.56395375
_cell_formula_units_Z   1
loop_
 _symmetry_equiv_pos_site_id
 _symmetry_equiv_pos_as_xyz
  1  'x, y, z'
loop_
 _atom_site_type_symbol
 _atom_site_label
 _atom_site_symmetry_multiplicity
 _atom_site_fract_x
 _atom_site_fract_y
 _atom_site_fract_z
 _atom_site_occupancy
  Tb  Tb0  1  0.978028  0.906806  0.707117  1
  Tb  Tb1  1  0.087742  0.278979  0.020507  1
  Tb  Tb2  1  0.293289  0.021080  0.093533  1
  Tb  Tb3  1  0.911136  0.721022  0.978974  1
  Y  Y4  1  0.499442  0.499991  0.500069  1
  Y  Y5  1  0.021947  0.093008  0.292917  1
  Er  Er6  1  0.712027  0.979489  0.908179  1
  Fe  Fe7  1  0.000427  0.999885  0.999657  1
  I  I8  1  0.072550  0.227546  0.680160  1
  I  I9  1  0.384632  0.159257  0.462994  1
  I  I10  1  0.614321  0.841345  0.539690  1
  I  I11  1  0.222977  0.679129  0.071128  1
  I  I12  1  0.774666  0.317945  0.928452  1
  I  I13  1  0.679049  0.071242  0.222897  1
  I  I14  1  0.539836  0.617125  0.840088  1
  I  I15  1  0.837852  0.536717  0.615574  1
  I  I16  1  0.927039  0.773022  0.318805  1
  I  I17  1  0.322433  0.928604  0.775079  1
  I  I18  1  0.460031  0.385662  0.160226  1
  I  I19  1  0.160575  0.462146  0.383952  1
