# generated using pymatgen
data_K2V2F7
_symmetry_space_group_name_H-M   'P 1'
_cell_length_a   7.83215238
_cell_length_b   7.83275392
_cell_length_c   7.83200654
_cell_angle_alpha   120.48796891
_cell_angle_beta   117.06073417
_cell_angle_gamma   92.15606792
_symmetry_Int_Tables_number   1
_chemical_formula_structural   K2V2F7
_chemical_formula_sum   'K4 V4 F14'
_cell_volume   345.41946662
_cell_formula_units_Z   2
loop_
 _symmetry_equiv_pos_site_id
 _symmetry_equiv_pos_as_xyz
  1  'x, y, z'
loop_
 _atom_site_type_symbol
 _atom_site_label
 _atom_site_symmetry_multiplicity
 _atom_site_fract_x
 _atom_site_fract_y
 _atom_site_fract_z
 _atom_site_occupancy
  K  K0  1  0.111629  0.249070  0.862561  1
  K  K1  1  0.613491  0.750927  0.862564  1
  K  K2  1  0.611697  0.250361  0.862060  1
  K  K3  1  0.611701  0.749639  0.361335  1
  V  V4  1  0.612314  0.249992  0.362331  1
  V  V5  1  0.112337  0.750005  0.362321  1
  V  V6  1  0.112456  0.250003  0.362468  1
  V  V7  1  0.112470  0.749997  0.862447  1
  F  F8  1  0.487935  0.336823  0.151125  1
  F  F9  1  0.814297  0.663172  0.151124  1
  F  F10  1  0.798942  0.551620  0.620304  1
  F  F11  1  0.068697  0.448393  0.247337  1
  F  F12  1  0.068716  0.821367  0.620283  1
  F  F13  1  0.798910  0.178634  0.247341  1
  F  F14  1  0.425865  0.321737  0.477410  1
  F  F15  1  0.155660  0.678265  0.104127  1
  F  F16  1  0.155682  0.051565  0.477407  1
  F  F17  1  0.425841  0.948423  0.104115  1
  F  F18  1  0.007699  0.000004  0.007697  1
  F  F19  1  0.735737  0.162834  0.572901  1
  F  F20  1  0.410089  0.837177  0.572909  1
  F  F21  1  0.217336  0.499991  0.717335  1
