# generated using pymatgen
data_Rb17Na(InSb4)2
_symmetry_space_group_name_H-M   'P 1'
_cell_length_a   10.97723761
_cell_length_b   11.12061907
_cell_length_c   11.65489700
_cell_angle_alpha   90.00000000
_cell_angle_beta   90.00000000
_cell_angle_gamma   120.43302358
_symmetry_Int_Tables_number   1
_chemical_formula_structural   Rb17Na(InSb4)2
_chemical_formula_sum   'Rb17 Na1 In2 Sb8'
_cell_volume   1226.73145251
_cell_formula_units_Z   1
loop_
 _symmetry_equiv_pos_site_id
 _symmetry_equiv_pos_as_xyz
  1  'x, y, z'
loop_
 _atom_site_type_symbol
 _atom_site_label
 _atom_site_symmetry_multiplicity
 _atom_site_fract_x
 _atom_site_fract_y
 _atom_site_fract_z
 _atom_site_occupancy
  Rb  Rb0  1  0.882331  0.119943  0.750000  1
  Rb  Rb1  1  0.767017  0.883508  0.250000  1
  Rb  Rb2  1  0.120742  0.239924  0.250000  1
  Rb  Rb3  1  0.120742  0.880818  0.250000  1
  Rb  Rb4  1  0.882331  0.762388  0.750000  1
  Rb  Rb5  1  0.208588  0.796428  0.952846  1
  Rb  Rb6  1  0.208588  0.412158  0.952846  1
  Rb  Rb7  1  0.583269  0.791634  0.955888  1
  Rb  Rb8  1  0.411586  0.205793  0.463596  1
  Rb  Rb9  1  0.791443  0.582770  0.043474  1
  Rb  Rb10  1  0.791443  0.208674  0.456526  1
  Rb  Rb11  1  0.791443  0.582770  0.456526  1
  Rb  Rb12  1  0.208588  0.796428  0.547154  1
  Rb  Rb13  1  0.583269  0.791634  0.544112  1
  Rb  Rb14  1  0.411586  0.205793  0.036404  1
  Rb  Rb15  1  0.791443  0.208674  0.043474  1
  Rb  Rb16  1  0.208588  0.412158  0.547154  1
  Na  Na17  1  0.237718  0.118859  0.750000  1
  In  In18  1  0.333636  0.666819  0.250000  1
  In  In19  1  0.666246  0.333122  0.750000  1
  Sb  Sb20  1  0.009877  0.004938  0.993118  1
  Sb  Sb21  1  0.030933  0.515467  0.250000  1
  Sb  Sb22  1  0.485765  0.965961  0.250000  1
  Sb  Sb23  1  0.504800  0.036083  0.750000  1
  Sb  Sb24  1  0.504800  0.468715  0.750000  1
  Sb  Sb25  1  0.009877  0.004938  0.506882  1
  Sb  Sb26  1  0.485765  0.519804  0.250000  1
  Sb  Sb27  1  0.967589  0.483794  0.750000  1
