# generated using pymatgen
data_Er7Sn23(OsRu2)2
_symmetry_space_group_name_H-M   'P 1'
_cell_length_a   9.84032664
_cell_length_b   9.84032717
_cell_length_c   10.06822109
_cell_angle_alpha   90.09899149
_cell_angle_beta   89.90101110
_cell_angle_gamma   120.00820106
_symmetry_Int_Tables_number   1
_chemical_formula_structural   Er7Sn23(OsRu2)2
_chemical_formula_sum   'Er7 Sn23 Os2 Ru4'
_cell_volume   844.23950075
_cell_formula_units_Z   1
loop_
 _symmetry_equiv_pos_site_id
 _symmetry_equiv_pos_as_xyz
  1  'x, y, z'
loop_
 _atom_site_type_symbol
 _atom_site_label
 _atom_site_symmetry_multiplicity
 _atom_site_fract_x
 _atom_site_fract_y
 _atom_site_fract_z
 _atom_site_occupancy
  Er  Er0  1  0.486041  0.513959  0.302245  1
  Er  Er1  1  0.513959  0.486041  0.697755  1
  Er  Er2  1  0.487191  0.973101  0.301739  1
  Er  Er3  1  0.512809  0.026899  0.698261  1
  Er  Er4  1  0.026899  0.512809  0.301739  1
  Er  Er5  1  0.973101  0.487191  0.698261  1
  Er  Er6  1  0.000000  0.000000  0.000000  1
  Sn  Sn7  1  0.119007  0.880993  0.273624  1
  Sn  Sn8  1  0.880993  0.119007  0.726376  1
  Sn  Sn9  1  0.118802  0.236677  0.275853  1
  Sn  Sn10  1  0.881198  0.763323  0.724147  1
  Sn  Sn11  1  0.763323  0.881198  0.275853  1
  Sn  Sn12  1  0.236677  0.118802  0.724147  1
  Sn  Sn13  1  0.779274  0.220726  0.464889  1
  Sn  Sn14  1  0.220726  0.779274  0.535111  1
  Sn  Sn15  1  0.779030  0.559344  0.463936  1
  Sn  Sn16  1  0.220970  0.440656  0.536064  1
  Sn  Sn17  1  0.440656  0.220970  0.463936  1
  Sn  Sn18  1  0.559344  0.779030  0.536064  1
  Sn  Sn19  1  0.349501  0.000382  0.000913  1
  Sn  Sn20  1  0.650499  0.999618  0.999087  1
  Sn  Sn21  1  0.000382  0.349501  0.999087  1
  Sn  Sn22  1  0.999618  0.650499  0.000913  1
  Sn  Sn23  1  0.651107  0.651107  0.000000  1
  Sn  Sn24  1  0.348893  0.348893  0.000000  1
  Sn  Sn25  1  0.333640  0.666360  0.132482  1
  Sn  Sn26  1  0.666360  0.333640  0.867518  1
  Sn  Sn27  1  0.333695  0.666305  0.825291  1
  Sn  Sn28  1  0.666305  0.333695  0.174709  1
  Sn  Sn29  1  0.000000  0.000000  0.500000  1
  Os  Os30  1  0.829356  0.170644  0.202865  1
  Os  Os31  1  0.170644  0.829356  0.797135  1
  Ru  Ru32  1  0.829302  0.659309  0.202552  1
  Ru  Ru33  1  0.170698  0.340691  0.797448  1
  Ru  Ru34  1  0.340691  0.170698  0.202552  1
  Ru  Ru35  1  0.659309  0.829302  0.797448  1
