# generated using pymatgen
data_Zr3Fe4MoP4
_symmetry_space_group_name_H-M   'P 1'
_cell_length_a   3.70723600
_cell_length_b   6.24549026
_cell_length_c   7.05164612
_cell_angle_alpha   90.39859514
_cell_angle_beta   90.00000000
_cell_angle_gamma   90.00000000
_symmetry_Int_Tables_number   1
_chemical_formula_structural   Zr3Fe4MoP4
_chemical_formula_sum   'Zr3 Fe4 Mo1 P4'
_cell_volume   163.26638229
_cell_formula_units_Z   1
loop_
 _symmetry_equiv_pos_site_id
 _symmetry_equiv_pos_as_xyz
  1  'x, y, z'
loop_
 _atom_site_type_symbol
 _atom_site_label
 _atom_site_symmetry_multiplicity
 _atom_site_fract_x
 _atom_site_fract_y
 _atom_site_fract_z
 _atom_site_occupancy
  Zr  Zr0  1  0.750000  0.483352  0.321701  1
  Zr  Zr1  1  0.250000  0.015995  0.813908  1
  Zr  Zr2  1  0.750000  0.978816  0.184149  1
  Fe  Fe3  1  0.750000  0.858664  0.567110  1
  Fe  Fe4  1  0.250000  0.147103  0.440379  1
  Fe  Fe5  1  0.750000  0.356677  0.934661  1
  Fe  Fe6  1  0.250000  0.642475  0.052700  1
  Mo  Mo7  1  0.250000  0.517988  0.677130  1
  P  P8  1  0.250000  0.281100  0.113170  1
  P  P9  1  0.750000  0.707803  0.876192  1
  P  P10  1  0.250000  0.780998  0.399469  1
  P  P11  1  0.750000  0.229027  0.619430  1
