# generated using pymatgen
data_CuB4Ir4PdPt2
_symmetry_space_group_name_H-M   'P 1'
_cell_length_a   6.71883960
_cell_length_b   6.10112948
_cell_length_c   5.54763436
_cell_angle_alpha   70.90779707
_cell_angle_beta   58.82014002
_cell_angle_gamma   50.83975438
_symmetry_Int_Tables_number   1
_chemical_formula_structural   CuB4Ir4PdPt2
_chemical_formula_sum   'Cu1 B4 Ir4 Pd1 Pt2'
_cell_volume   150.85928009
_cell_formula_units_Z   1
loop_
 _symmetry_equiv_pos_site_id
 _symmetry_equiv_pos_as_xyz
  1  'x, y, z'
loop_
 _atom_site_type_symbol
 _atom_site_label
 _atom_site_symmetry_multiplicity
 _atom_site_fract_x
 _atom_site_fract_y
 _atom_site_fract_z
 _atom_site_occupancy
  Cu  Cu0  1  0.879826  0.387515  0.790354  1
  B  B1  1  0.055499  0.974861  0.557760  1
  B  B2  1  0.683046  0.860654  0.201518  1
  B  B3  1  0.399347  0.567149  0.980931  1
  B  B4  1  0.269342  0.197090  0.850033  1
  Ir  Ir5  1  0.100553  0.631331  0.868542  1
  Ir  Ir6  1  0.389512  0.848800  0.146008  1
  Ir  Ir7  1  0.621640  0.150786  0.848801  1
  Ir  Ir8  1  0.387428  0.875735  0.637191  1
  Pd  Pd9  1  0.864211  0.369437  0.305663  1
  Pt  Pt10  1  0.940631  0.779003  0.395706  1
  Pt  Pt11  1  0.459366  0.307239  0.367092  1
