# generated using pymatgen
data_Ce3Th7Si8N3
_symmetry_space_group_name_H-M   'P 1'
_cell_length_a   10.65800700
_cell_length_b   10.65800914
_cell_length_c   4.53224200
_cell_angle_alpha   90.00000000
_cell_angle_beta   90.00000000
_cell_angle_gamma   119.99999646
_symmetry_Int_Tables_number   1
_chemical_formula_structural   Ce3Th7Si8N3
_chemical_formula_sum   'Ce3 Th7 Si8 N3'
_cell_volume   445.85724466
_cell_formula_units_Z   1
loop_
 _symmetry_equiv_pos_site_id
 _symmetry_equiv_pos_as_xyz
  1  'x, y, z'
loop_
 _atom_site_type_symbol
 _atom_site_label
 _atom_site_symmetry_multiplicity
 _atom_site_fract_x
 _atom_site_fract_y
 _atom_site_fract_z
 _atom_site_occupancy
  Ce  Ce0  1  0.500000  0.000000  0.500000  1
  Ce  Ce1  1  0.000000  0.500000  0.500000  1
  Ce  Ce2  1  0.500000  0.500000  0.500000  1
  Th  Th3  1  0.214823  0.785177  0.000000  1
  Th  Th4  1  0.214823  0.429646  0.000000  1
  Th  Th5  1  0.785177  0.570354  0.000000  1
  Th  Th6  1  0.429646  0.214823  0.000000  1
  Th  Th7  1  0.000000  0.000000  0.000000  1
  Th  Th8  1  0.570354  0.785177  0.000000  1
  Th  Th9  1  0.785177  0.214823  0.000000  1
  Si  Si10  1  0.666667  0.333333  0.500000  1
  Si  Si11  1  0.000000  0.776306  0.500000  1
  Si  Si12  1  0.333333  0.666667  0.500000  1
  Si  Si13  1  0.223694  0.223694  0.500000  1
  Si  Si14  1  0.776306  0.776306  0.500000  1
  Si  Si15  1  0.776306  0.000000  0.500000  1
  Si  Si16  1  0.223694  0.000000  0.500000  1
  Si  Si17  1  0.000000  0.223694  0.500000  1
  N  N18  1  0.500000  0.500000  0.000000  1
  N  N19  1  0.500000  0.000000  0.000000  1
  N  N20  1  0.000000  0.500000  0.000000  1
