# generated using pymatgen
data_Nd2Co2Hg
_symmetry_space_group_name_H-M   'P 1'
_cell_length_a   4.01522700
_cell_length_b   4.01522624
_cell_length_c   17.23631100
_cell_angle_alpha   90.00000000
_cell_angle_beta   90.00000000
_cell_angle_gamma   119.99999799
_symmetry_Int_Tables_number   1
_chemical_formula_structural   Nd2Co2Hg
_chemical_formula_sum   'Nd4 Co4 Hg2'
_cell_volume   240.65510926
_cell_formula_units_Z   2
loop_
 _symmetry_equiv_pos_site_id
 _symmetry_equiv_pos_as_xyz
  1  'x, y, z'
loop_
 _atom_site_type_symbol
 _atom_site_label
 _atom_site_symmetry_multiplicity
 _atom_site_fract_x
 _atom_site_fract_y
 _atom_site_fract_z
 _atom_site_occupancy
  Nd  Nd0  1  0.000000  0.000000  0.108346  1
  Nd  Nd1  1  0.000000  0.000000  0.891654  1
  Nd  Nd2  1  0.000000  0.000000  0.608346  1
  Nd  Nd3  1  0.000000  0.000000  0.391654  1
  Co  Co4  1  0.333333  0.666667  0.500770  1
  Co  Co5  1  0.666667  0.333333  0.499230  1
  Co  Co6  1  0.666667  0.333333  0.000770  1
  Co  Co7  1  0.333333  0.666667  0.999230  1
  Hg  Hg8  1  0.333333  0.666667  0.250000  1
  Hg  Hg9  1  0.666667  0.333333  0.750000  1
