# generated using pymatgen
data_Sc2ReRu3
_symmetry_space_group_name_H-M   'P 1'
_cell_length_a   5.20089677
_cell_length_b   5.09355026
_cell_length_c   8.73602700
_cell_angle_alpha   90.00000000
_cell_angle_beta   90.00000000
_cell_angle_gamma   119.31954698
_symmetry_Int_Tables_number   1
_chemical_formula_structural   Sc2ReRu3
_chemical_formula_sum   'Sc4 Re2 Ru6'
_cell_volume   201.78115471
_cell_formula_units_Z   2
loop_
 _symmetry_equiv_pos_site_id
 _symmetry_equiv_pos_as_xyz
  1  'x, y, z'
loop_
 _atom_site_type_symbol
 _atom_site_label
 _atom_site_symmetry_multiplicity
 _atom_site_fract_x
 _atom_site_fract_y
 _atom_site_fract_z
 _atom_site_occupancy
  Sc  Sc0  1  0.329661  0.661782  0.433342  1
  Sc  Sc1  1  0.670339  0.332120  0.933342  1
  Sc  Sc2  1  0.670339  0.332120  0.566658  1
  Sc  Sc3  1  0.329661  0.661782  0.066658  1
  Re  Re4  1  0.167078  0.836308  0.750000  1
  Re  Re5  1  0.832922  0.669231  0.250000  1
  Ru  Ru6  1  0.653938  0.835897  0.750000  1
  Ru  Ru7  1  0.346062  0.181959  0.250000  1
  Ru  Ru8  1  0.831817  0.184153  0.250000  1
  Ru  Ru9  1  0.168183  0.352335  0.750000  1
  Ru  Ru10  1  0.000000  0.976156  0.500000  1
  Ru  Ru11  1  0.000000  0.976156  0.000000  1
