# generated using pymatgen
data_Li2Ta(NbN2)3
_symmetry_space_group_name_H-M   'P 1'
_cell_length_a   5.25592000
_cell_length_b   5.25592029
_cell_length_c   10.33312800
_cell_angle_alpha   90.00000000
_cell_angle_beta   90.00000000
_cell_angle_gamma   120.00001075
_symmetry_Int_Tables_number   1
_chemical_formula_structural   Li2Ta(NbN2)3
_chemical_formula_sum   'Li4 Ta2 Nb6 N12'
_cell_volume   247.20651400
_cell_formula_units_Z   2
loop_
 _symmetry_equiv_pos_site_id
 _symmetry_equiv_pos_as_xyz
  1  'x, y, z'
loop_
 _atom_site_type_symbol
 _atom_site_label
 _atom_site_symmetry_multiplicity
 _atom_site_fract_x
 _atom_site_fract_y
 _atom_site_fract_z
 _atom_site_occupancy
  Li  Li0  1  0.333333  0.666667  0.000000  1
  Li  Li1  1  0.333333  0.666667  0.500000  1
  Li  Li2  1  0.666667  0.333333  0.500000  1
  Li  Li3  1  0.666667  0.333333  0.000000  1
  Ta  Ta4  1  0.000000  0.000000  0.500000  1
  Ta  Ta5  1  0.000000  0.000000  0.000000  1
  Nb  Nb6  1  0.000000  0.350387  0.250000  1
  Nb  Nb7  1  0.649613  0.000000  0.750000  1
  Nb  Nb8  1  0.350387  0.350387  0.750000  1
  Nb  Nb9  1  0.649613  0.649613  0.250000  1
  Nb  Nb10  1  0.350387  0.000000  0.250000  1
  Nb  Nb11  1  0.000000  0.649613  0.750000  1
  N  N12  1  0.678701  0.678701  0.623378  1
  N  N13  1  0.678701  0.678701  0.876622  1
  N  N14  1  0.321299  0.321299  0.123378  1
  N  N15  1  0.321299  0.321299  0.376622  1
  N  N16  1  0.321299  0.000000  0.876622  1
  N  N17  1  0.321299  0.000000  0.623378  1
  N  N18  1  0.000000  0.678701  0.376622  1
  N  N19  1  0.000000  0.678701  0.123378  1
  N  N20  1  0.678701  0.000000  0.123378  1
  N  N21  1  0.678701  0.000000  0.376622  1
  N  N22  1  0.000000  0.321299  0.876622  1
  N  N23  1  0.000000  0.321299  0.623378  1
