# generated using pymatgen
data_PrAl2SiAg
_symmetry_space_group_name_H-M   'P 1'
_cell_length_a   4.26201207
_cell_length_b   4.26201211
_cell_length_c   6.27350655
_cell_angle_alpha   70.14241746
_cell_angle_beta   70.14241805
_cell_angle_gamma   90.00000607
_symmetry_Int_Tables_number   1
_chemical_formula_structural   PrAl2SiAg
_chemical_formula_sum   'Pr1 Al2 Si1 Ag1'
_cell_volume   99.94658096
_cell_formula_units_Z   1
loop_
 _symmetry_equiv_pos_site_id
 _symmetry_equiv_pos_as_xyz
  1  'x, y, z'
loop_
 _atom_site_type_symbol
 _atom_site_label
 _atom_site_symmetry_multiplicity
 _atom_site_fract_x
 _atom_site_fract_y
 _atom_site_fract_z
 _atom_site_occupancy
  Pr  Pr0  1  0.988750  0.988750  0.022501  1
  Al  Al1  1  0.751354  0.251354  0.497291  1
  Al  Al2  1  0.251354  0.751354  0.497291  1
  Si  Si3  1  0.390683  0.390683  0.218635  1
  Ag  Ag4  1  0.617859  0.617859  0.764283  1
