# generated using pymatgen
data_Dy2Y2(Al8Pt3)3
_symmetry_space_group_name_H-M   'P 1'
_cell_length_a   7.52748682
_cell_length_b   7.54910229
_cell_length_c   13.17936476
_cell_angle_alpha   84.57512931
_cell_angle_beta   79.12345699
_cell_angle_gamma   59.97288395
_symmetry_Int_Tables_number   1
_chemical_formula_structural   Dy2Y2(Al8Pt3)3
_chemical_formula_sum   'Dy2 Y2 Al24 Pt9'
_cell_volume   636.76490205
_cell_formula_units_Z   1
loop_
 _symmetry_equiv_pos_site_id
 _symmetry_equiv_pos_as_xyz
  1  'x, y, z'
loop_
 _atom_site_type_symbol
 _atom_site_label
 _atom_site_symmetry_multiplicity
 _atom_site_fract_x
 _atom_site_fract_y
 _atom_site_fract_z
 _atom_site_occupancy
  Dy  Dy0  1  0.734158  0.498454  0.807546  1
  Dy  Dy1  1  0.265842  0.501546  0.192454  1
  Y  Y2  1  0.393392  0.168427  0.807992  1
  Y  Y3  1  0.606608  0.831573  0.192008  1
  Al  Al4  1  0.684576  0.833553  0.944507  1
  Al  Al5  1  0.315424  0.166447  0.055493  1
  Al  Al6  1  0.146980  0.832301  0.561158  1
  Al  Al7  1  0.853020  0.167699  0.438842  1
  Al  Al8  1  0.479758  0.166840  0.558630  1
  Al  Al9  1  0.520242  0.833160  0.441370  1
  Al  Al10  1  0.217117  0.165289  0.330055  1
  Al  Al11  1  0.782883  0.834711  0.669945  1
  Al  Al12  1  0.437970  0.506168  0.669931  1
  Al  Al13  1  0.562030  0.493832  0.330069  1
  Al  Al14  1  0.109784  0.160024  0.669198  1
  Al  Al15  1  0.890216  0.839976  0.330802  1
  Al  Al16  1  0.353248  0.499048  0.944729  1
  Al  Al17  1  0.646752  0.500952  0.055271  1
  Al  Al18  1  0.014682  0.167908  0.953174  1
  Al  Al19  1  0.985318  0.832092  0.046826  1
  Al  Al20  1  0.186802  0.498862  0.441247  1
  Al  Al21  1  0.813198  0.501138  0.558753  1
  Al  Al22  1  0.734260  0.164025  0.183281  1
  Al  Al23  1  0.265740  0.835975  0.816719  1
  Al  Al24  1  0.061764  0.631661  0.815473  1
  Al  Al25  1  0.938236  0.368339  0.184527  1
  Al  Al26  1  0.854830  0.041711  0.815968  1
  Al  Al27  1  0.145170  0.958289  0.184032  1
  Pt  Pt28  1  0.120056  0.492348  0.638720  1
  Pt  Pt29  1  0.879944  0.507652  0.361280  1
  Pt  Pt30  1  0.657337  0.171163  0.999931  1
  Pt  Pt31  1  0.342663  0.828837  0.000069  1
  Pt  Pt32  1  0.538167  0.166800  0.361277  1
  Pt  Pt33  1  0.461833  0.833200  0.638723  1
  Pt  Pt34  1  0.779252  0.174796  0.637171  1
  Pt  Pt35  1  0.220748  0.825204  0.362829  1
  Pt  Pt36  1  0.000000  0.500000  0.000000  1
