# generated using pymatgen
data_Nd3Sm(AuCl6)4
_symmetry_space_group_name_H-M   'P 1'
_cell_length_a   7.74273099
_cell_length_b   10.08745465
_cell_length_c   14.40654738
_cell_angle_alpha   103.65162439
_cell_angle_beta   96.56450516
_cell_angle_gamma   112.04435858
_symmetry_Int_Tables_number   1
_chemical_formula_structural   Nd3Sm(AuCl6)4
_chemical_formula_sum   'Nd3 Sm1 Au4 Cl24'
_cell_volume   987.43910868
_cell_formula_units_Z   1
loop_
 _symmetry_equiv_pos_site_id
 _symmetry_equiv_pos_as_xyz
  1  'x, y, z'
loop_
 _atom_site_type_symbol
 _atom_site_label
 _atom_site_symmetry_multiplicity
 _atom_site_fract_x
 _atom_site_fract_y
 _atom_site_fract_z
 _atom_site_occupancy
  Nd  Nd0  1  0.580271  0.925352  0.622348  1
  Nd  Nd1  1  0.026912  0.686635  0.127940  1
  Nd  Nd2  1  0.420286  0.075223  0.378081  1
  Sm  Sm3  1  0.972729  0.313067  0.871630  1
  Au  Au4  1  0.293789  0.632844  0.764453  1
  Au  Au5  1  0.500034  0.500073  0.500057  1
  Au  Au6  1  0.705831  0.366725  0.235799  1
  Au  Au7  1  0.999945  0.000347  0.999661  1
  Cl  Cl8  1  0.778343  0.098112  0.969491  1
  Cl  Cl9  1  0.723192  0.153184  0.261500  1
  Cl  Cl10  1  0.276637  0.846455  0.738470  1
  Cl  Cl11  1  0.769651  0.795255  0.027894  1
  Cl  Cl12  1  0.617551  0.193358  0.745811  1
  Cl  Cl13  1  0.307875  0.415346  0.786209  1
  Cl  Cl14  1  0.689620  0.583750  0.214294  1
  Cl  Cl15  1  0.300490  0.624047  0.498782  1
  Cl  Cl16  1  0.228878  0.205741  0.971390  1
  Cl  Cl17  1  0.757866  0.727488  0.523650  1
  Cl  Cl18  1  0.223262  0.903831  0.029611  1
  Cl  Cl19  1  0.728915  0.049658  0.483267  1
  Cl  Cl20  1  0.608111  0.727668  0.747052  1
  Cl  Cl21  1  0.953185  0.060870  0.732331  1
  Cl  Cl22  1  0.242248  0.272734  0.476469  1
  Cl  Cl23  1  0.385702  0.807625  0.255195  1
  Cl  Cl24  1  0.977948  0.539070  0.779052  1
  Cl  Cl25  1  0.762043  0.434774  0.977005  1
  Cl  Cl26  1  0.236897  0.561025  0.020308  1
  Cl  Cl27  1  0.022115  0.459191  0.221756  1
  Cl  Cl28  1  0.391477  0.272083  0.252901  1
  Cl  Cl29  1  0.271420  0.950502  0.517018  1
  Cl  Cl30  1  0.699598  0.376043  0.501277  1
  Cl  Cl31  1  0.047182  0.941922  0.269298  1
