# generated using pymatgen
data_KLa3(PPt3)8
_symmetry_space_group_name_H-M   'P 1'
_cell_length_a   8.58114296
_cell_length_b   8.58114296
_cell_length_c   8.58114296
_cell_angle_alpha   89.87044768
_cell_angle_beta   90.12955232
_cell_angle_gamma   90.12955232
_symmetry_Int_Tables_number   1
_chemical_formula_structural   KLa3(PPt3)8
_chemical_formula_sum   'K1 La3 P8 Pt24'
_cell_volume   631.87632790
_cell_formula_units_Z   1
loop_
 _symmetry_equiv_pos_site_id
 _symmetry_equiv_pos_as_xyz
  1  'x, y, z'
loop_
 _atom_site_type_symbol
 _atom_site_label
 _atom_site_symmetry_multiplicity
 _atom_site_fract_x
 _atom_site_fract_y
 _atom_site_fract_z
 _atom_site_occupancy
  K  K0  1  0.500000  0.500000  0.000000  1
  La  La1  1  0.500000  0.000000  0.500000  1
  La  La2  1  0.000000  0.500000  0.500000  1
  La  La3  1  0.000000  0.000000  0.000000  1
  P  P4  1  0.803249  0.307543  0.194288  1
  P  P5  1  0.194815  0.805185  0.305185  1
  P  P6  1  0.692457  0.694288  0.696751  1
  P  P7  1  0.305712  0.196751  0.807543  1
  P  P8  1  0.196751  0.692457  0.805712  1
  P  P9  1  0.805185  0.194815  0.694815  1
  P  P10  1  0.307543  0.305712  0.303249  1
  P  P11  1  0.694288  0.803249  0.192457  1
  Pt  Pt12  1  0.422994  0.845968  0.160658  1
  Pt  Pt13  1  0.577109  0.338750  0.346899  1
  Pt  Pt14  1  0.078002  0.156952  0.657699  1
  Pt  Pt15  1  0.922146  0.658347  0.842269  1
  Pt  Pt16  1  0.153101  0.422891  0.838750  1
  Pt  Pt17  1  0.339342  0.577006  0.345968  1
  Pt  Pt18  1  0.657731  0.077854  0.158347  1
  Pt  Pt19  1  0.842301  0.921998  0.656952  1
  Pt  Pt20  1  0.843048  0.157699  0.421998  1
  Pt  Pt21  1  0.341653  0.342269  0.577854  1
  Pt  Pt22  1  0.154032  0.660658  0.077006  1
  Pt  Pt23  1  0.661250  0.846899  0.922891  1
  Pt  Pt24  1  0.577006  0.154032  0.839342  1
  Pt  Pt25  1  0.422891  0.661250  0.653101  1
  Pt  Pt26  1  0.921998  0.843048  0.342301  1
  Pt  Pt27  1  0.077854  0.341653  0.157731  1
  Pt  Pt28  1  0.846899  0.577109  0.161250  1
  Pt  Pt29  1  0.660658  0.422994  0.654032  1
  Pt  Pt30  1  0.342269  0.922146  0.841653  1
  Pt  Pt31  1  0.157699  0.078002  0.343048  1
  Pt  Pt32  1  0.156952  0.842301  0.578002  1
  Pt  Pt33  1  0.658347  0.657731  0.422146  1
  Pt  Pt34  1  0.845968  0.339342  0.922994  1
  Pt  Pt35  1  0.338750  0.153101  0.077109  1
