# generated using pymatgen
data_VGe(As2O7)2
_symmetry_space_group_name_H-M   'P 1'
_cell_length_a   4.97656043
_cell_length_b   7.13344973
_cell_length_c   8.20290381
_cell_angle_alpha   91.02233769
_cell_angle_beta   92.97256265
_cell_angle_gamma   104.89499526
_symmetry_Int_Tables_number   1
_chemical_formula_structural   VGe(As2O7)2
_chemical_formula_sum   'V1 Ge1 As4 O14'
_cell_volume   280.89329143
_cell_formula_units_Z   1
loop_
 _symmetry_equiv_pos_site_id
 _symmetry_equiv_pos_as_xyz
  1  'x, y, z'
loop_
 _atom_site_type_symbol
 _atom_site_label
 _atom_site_symmetry_multiplicity
 _atom_site_fract_x
 _atom_site_fract_y
 _atom_site_fract_z
 _atom_site_occupancy
  V  V0  1  0.999992  0.000003  0.999995  1
  Ge  Ge1  1  0.500005  0.500001  0.499994  1
  As  As2  1  0.477594  0.862351  0.241545  1
  As  As3  1  0.898795  0.265806  0.311040  1
  As  As4  1  0.101206  0.734188  0.688962  1
  As  As5  1  0.522399  0.137652  0.758456  1
  O  O6  1  0.648326  0.836848  0.070914  1
  O  O7  1  0.951218  0.235729  0.108984  1
  O  O8  1  0.187733  0.941693  0.197466  1
  O  O9  1  0.704808  0.430112  0.325314  1
  O  O10  1  0.359958  0.657555  0.349180  1
  O  O11  1  0.698017  0.037873  0.379117  1
  O  O12  1  0.186798  0.290896  0.440816  1
  O  O13  1  0.813201  0.709099  0.559185  1
  O  O14  1  0.301982  0.962128  0.620887  1
  O  O15  1  0.640033  0.342441  0.650817  1
  O  O16  1  0.295197  0.569888  0.674680  1
  O  O17  1  0.812270  0.058314  0.802539  1
  O  O18  1  0.048788  0.764273  0.891019  1
  O  O19  1  0.351681  0.163154  0.929091  1
