# generated using pymatgen
data_Ac3(ReO5)2
_symmetry_space_group_name_H-M   'P 1'
_cell_length_a   5.74027235
_cell_length_b   5.74027582
_cell_length_c   7.35827260
_cell_angle_alpha   72.20982199
_cell_angle_beta   72.20992821
_cell_angle_gamma   89.89171088
_symmetry_Int_Tables_number   1
_chemical_formula_structural   Ac3(ReO5)2
_chemical_formula_sum   'Ac3 Re2 O10'
_cell_volume   218.70571083
_cell_formula_units_Z   1
loop_
 _symmetry_equiv_pos_site_id
 _symmetry_equiv_pos_as_xyz
  1  'x, y, z'
loop_
 _atom_site_type_symbol
 _atom_site_label
 _atom_site_symmetry_multiplicity
 _atom_site_fract_x
 _atom_site_fract_y
 _atom_site_fract_z
 _atom_site_occupancy
  Ac  Ac0  1  0.000000  0.000000  0.500000  1
  Ac  Ac1  1  0.743551  0.256448  0.000000  1
  Ac  Ac2  1  0.256449  0.743552  0.000000  1
  Re  Re3  1  0.633500  0.633502  0.326454  1
  Re  Re4  1  0.366500  0.366498  0.673546  1
  O  O5  1  0.402600  0.866249  0.290413  1
  O  O6  1  0.597400  0.133751  0.709587  1
  O  O7  1  0.133751  0.597398  0.709588  1
  O  O8  1  0.866249  0.402602  0.290412  1
  O  O9  1  0.642713  0.642713  0.594374  1
  O  O10  1  0.357287  0.357287  0.405626  1
  O  O11  1  0.673177  0.673177  0.033691  1
  O  O12  1  0.326823  0.326823  0.966309  1
  O  O13  1  0.900823  0.900822  0.221245  1
  O  O14  1  0.099177  0.099178  0.778755  1
