# generated using pymatgen
data_Y5Ho11Cd3AgIr4
_symmetry_space_group_name_H-M   'P 1'
_cell_length_a   9.61469401
_cell_length_b   9.61096153
_cell_length_c   9.61096123
_cell_angle_alpha   59.85239923
_cell_angle_beta   59.83161021
_cell_angle_gamma   59.83161360
_symmetry_Int_Tables_number   1
_chemical_formula_structural   Y5Ho11Cd3AgIr4
_chemical_formula_sum   'Y5 Ho11 Cd3 Ag1 Ir4'
_cell_volume   625.69077587
_cell_formula_units_Z   1
loop_
 _symmetry_equiv_pos_site_id
 _symmetry_equiv_pos_as_xyz
  1  'x, y, z'
loop_
 _atom_site_type_symbol
 _atom_site_label
 _atom_site_symmetry_multiplicity
 _atom_site_fract_x
 _atom_site_fract_y
 _atom_site_fract_z
 _atom_site_occupancy
  Y  Y0  1  0.561179  0.937221  0.937221  1
  Y  Y1  1  0.561641  0.936650  0.560937  1
  Y  Y2  1  0.937064  0.561272  0.936620  1
  Y  Y3  1  0.561641  0.560937  0.936650  1
  Y  Y4  1  0.937064  0.936620  0.561272  1
  Ho  Ho5  1  0.348799  0.349155  0.349155  1
  Ho  Ho6  1  0.349396  0.349746  0.953446  1
  Ho  Ho7  1  0.349396  0.953446  0.349746  1
  Ho  Ho8  1  0.953440  0.349578  0.349578  1
  Ho  Ho9  1  0.810393  0.189138  0.189138  1
  Ho  Ho10  1  0.187168  0.810243  0.810243  1
  Ho  Ho11  1  0.188842  0.810239  0.189502  1
  Ho  Ho12  1  0.810175  0.187630  0.810016  1
  Ho  Ho13  1  0.188842  0.189502  0.810239  1
  Ho  Ho14  1  0.810175  0.810016  0.187630  1
  Ho  Ho15  1  0.937265  0.560585  0.560585  1
  Cd  Cd16  1  0.581157  0.581138  0.259336  1
  Cd  Cd17  1  0.581157  0.259336  0.581138  1
  Cd  Cd18  1  0.259041  0.581134  0.581134  1
  Ag  Ag19  1  0.583308  0.582539  0.582539  1
  Ir  Ir20  1  0.141918  0.141725  0.141725  1
  Ir  Ir21  1  0.142568  0.143425  0.575829  1
  Ir  Ir22  1  0.142568  0.575829  0.143425  1
  Ir  Ir23  1  0.575807  0.142900  0.142900  1
