# generated using pymatgen
data_PrNd2Er2(In2Pd)2
_symmetry_space_group_name_H-M   'P 1'
_cell_length_a   3.72531100
_cell_length_b   8.28852900
_cell_length_c   18.47175400
_cell_angle_alpha   90.00000000
_cell_angle_beta   90.00000000
_cell_angle_gamma   90.00000000
_symmetry_Int_Tables_number   1
_chemical_formula_structural   PrNd2Er2(In2Pd)2
_chemical_formula_sum   'Pr2 Nd4 Er4 In8 Pd4'
_cell_volume   570.35878119
_cell_formula_units_Z   2
loop_
 _symmetry_equiv_pos_site_id
 _symmetry_equiv_pos_as_xyz
  1  'x, y, z'
loop_
 _atom_site_type_symbol
 _atom_site_label
 _atom_site_symmetry_multiplicity
 _atom_site_fract_x
 _atom_site_fract_y
 _atom_site_fract_z
 _atom_site_occupancy
  Pr  Pr0  1  0.000000  0.500000  0.500000  1
  Pr  Pr1  1  0.000000  0.000000  0.000000  1
  Nd  Nd2  1  0.000000  0.736942  0.285242  1
  Nd  Nd3  1  0.000000  0.263058  0.714758  1
  Nd  Nd4  1  0.000000  0.763058  0.785242  1
  Nd  Nd5  1  0.000000  0.236942  0.214758  1
  Er  Er6  1  0.000000  0.619603  0.084907  1
  Er  Er7  1  0.000000  0.380397  0.915093  1
  Er  Er8  1  0.000000  0.880397  0.584907  1
  Er  Er9  1  0.000000  0.119603  0.415093  1
  In  In10  1  0.500000  0.693572  0.936556  1
  In  In11  1  0.500000  0.306428  0.063444  1
  In  In12  1  0.500000  0.806428  0.436556  1
  In  In13  1  0.500000  0.193572  0.563444  1
  In  In14  1  0.500000  0.589052  0.652693  1
  In  In15  1  0.500000  0.410948  0.347307  1
  In  In16  1  0.500000  0.910948  0.152693  1
  In  In17  1  0.500000  0.089052  0.847307  1
  Pd  Pd18  1  0.500000  0.525783  0.192919  1
  Pd  Pd19  1  0.500000  0.474217  0.807081  1
  Pd  Pd20  1  0.500000  0.974217  0.692919  1
  Pd  Pd21  1  0.500000  0.025783  0.307081  1
