# generated using pymatgen
data_Ba2YbAlGaP4
_symmetry_space_group_name_H-M   'P 1'
_cell_length_a   8.43768126
_cell_length_b   8.43768226
_cell_length_c   6.73855362
_cell_angle_alpha   87.98237025
_cell_angle_beta   87.98238211
_cell_angle_gamma   77.29812073
_symmetry_Int_Tables_number   1
_chemical_formula_structural   Ba2YbAlGaP4
_chemical_formula_sum   'Ba4 Yb2 Al2 Ga2 P8'
_cell_volume   467.53128222
_cell_formula_units_Z   2
loop_
 _symmetry_equiv_pos_site_id
 _symmetry_equiv_pos_as_xyz
  1  'x, y, z'
loop_
 _atom_site_type_symbol
 _atom_site_label
 _atom_site_symmetry_multiplicity
 _atom_site_fract_x
 _atom_site_fract_y
 _atom_site_fract_z
 _atom_site_occupancy
  Ba  Ba0  1  0.007353  0.743754  0.544145  1
  Ba  Ba1  1  0.256246  0.992647  0.955855  1
  Ba  Ba2  1  0.995978  0.259689  0.450979  1
  Ba  Ba3  1  0.740311  0.004022  0.049021  1
  Yb  Yb4  1  0.406904  0.593096  0.250000  1
  Yb  Yb5  1  0.597630  0.402370  0.750000  1
  Al  Al6  1  0.176301  0.423916  0.922308  1
  Al  Al7  1  0.576084  0.823699  0.577692  1
  Ga  Ga8  1  0.819918  0.576077  0.078506  1
  Ga  Ga9  1  0.423923  0.180082  0.421494  1
  P  P10  1  0.063319  0.693804  0.038669  1
  P  P11  1  0.306196  0.936681  0.461331  1
  P  P12  1  0.937448  0.304154  0.958930  1
  P  P13  1  0.695846  0.062552  0.541070  1
  P  P14  1  0.719620  0.579217  0.421066  1
  P  P15  1  0.420783  0.280380  0.078934  1
  P  P16  1  0.281031  0.424893  0.584902  1
  P  P17  1  0.575107  0.718969  0.915098  1
