# generated using pymatgen
data_NdDy5(MoO7)2
_symmetry_space_group_name_H-M   'P 1'
_cell_length_a   6.47179695
_cell_length_b   6.47179673
_cell_length_c   7.56304115
_cell_angle_alpha   90.04028809
_cell_angle_beta   89.95971256
_cell_angle_gamma   109.20367304
_symmetry_Int_Tables_number   1
_chemical_formula_structural   NdDy5(MoO7)2
_chemical_formula_sum   'Nd1 Dy5 Mo2 O14'
_cell_volume   299.14480752
_cell_formula_units_Z   1
loop_
 _symmetry_equiv_pos_site_id
 _symmetry_equiv_pos_as_xyz
  1  'x, y, z'
loop_
 _atom_site_type_symbol
 _atom_site_label
 _atom_site_symmetry_multiplicity
 _atom_site_fract_x
 _atom_site_fract_y
 _atom_site_fract_z
 _atom_site_occupancy
  Nd  Nd0  1  0.500000  0.500000  0.000000  1
  Dy  Dy1  1  0.500000  0.500000  0.500000  1
  Dy  Dy2  1  0.535431  0.000834  0.747390  1
  Dy  Dy3  1  0.000834  0.535431  0.252610  1
  Dy  Dy4  1  0.464569  0.999166  0.252610  1
  Dy  Dy5  1  0.999166  0.464569  0.747390  1
  Mo  Mo6  1  0.000000  0.000000  0.500000  1
  Mo  Mo7  1  0.000000  0.000000  0.000000  1
  O  O8  1  0.678643  0.925824  0.470496  1
  O  O9  1  0.925824  0.678643  0.529504  1
  O  O10  1  0.678239  0.927985  0.029793  1
  O  O11  1  0.927985  0.678239  0.970207  1
  O  O12  1  0.321357  0.074176  0.529504  1
  O  O13  1  0.074176  0.321357  0.470496  1
  O  O14  1  0.321761  0.072015  0.970207  1
  O  O15  1  0.072015  0.321761  0.029793  1
  O  O16  1  0.928303  0.071697  0.750145  1
  O  O17  1  0.071697  0.928303  0.249855  1
  O  O18  1  0.366568  0.633432  0.741256  1
  O  O19  1  0.633432  0.366568  0.258744  1
  O  O20  1  0.638516  0.361484  0.742218  1
  O  O21  1  0.361484  0.638516  0.257782  1
