# generated using pymatgen
data_Dy4TmRe2BC6
_symmetry_space_group_name_H-M   'P 1'
_cell_length_a   8.31512845
_cell_length_b   8.31512775
_cell_length_c   3.41440100
_cell_angle_alpha   90.00000000
_cell_angle_beta   90.00000000
_cell_angle_gamma   122.53129825
_symmetry_Int_Tables_number   1
_chemical_formula_structural   Dy4TmRe2BC6
_chemical_formula_sum   'Dy4 Tm1 Re2 B1 C6'
_cell_volume   199.03542374
_cell_formula_units_Z   1
loop_
 _symmetry_equiv_pos_site_id
 _symmetry_equiv_pos_as_xyz
  1  'x, y, z'
loop_
 _atom_site_type_symbol
 _atom_site_label
 _atom_site_symmetry_multiplicity
 _atom_site_fract_x
 _atom_site_fract_y
 _atom_site_fract_z
 _atom_site_occupancy
  Dy  Dy0  1  0.077244  0.328933  0.500000  1
  Dy  Dy1  1  0.922756  0.671067  0.500000  1
  Dy  Dy2  1  0.671067  0.922756  0.500000  1
  Dy  Dy3  1  0.328933  0.077244  0.500000  1
  Tm  Tm4  1  0.500000  0.500000  0.000000  1
  Re  Re5  1  0.713679  0.286321  0.000000  1
  Re  Re6  1  0.286321  0.713679  0.000000  1
  B  B7  1  0.000000  0.000000  0.000000  1
  C  C8  1  0.626250  0.373750  0.500000  1
  C  C9  1  0.373750  0.626250  0.500000  1
  C  C10  1  0.183878  0.183878  0.000000  1
  C  C11  1  0.816122  0.816122  0.000000  1
  C  C12  1  0.000000  0.500000  0.000000  1
  C  C13  1  0.500000  0.000000  0.000000  1
