# generated using pymatgen
data_Hf18ReMo7PIr
_symmetry_space_group_name_H-M   'P 1'
_cell_length_a   8.68206821
_cell_length_b   8.69000690
_cell_length_c   8.59223400
_cell_angle_alpha   90.00000000
_cell_angle_beta   90.00000000
_cell_angle_gamma   120.03024786
_symmetry_Int_Tables_number   1
_chemical_formula_structural   Hf18ReMo7PIr
_chemical_formula_sum   'Hf18 Re1 Mo7 P1 Ir1'
_cell_volume   561.23867446
_cell_formula_units_Z   1
loop_
 _symmetry_equiv_pos_site_id
 _symmetry_equiv_pos_as_xyz
  1  'x, y, z'
loop_
 _atom_site_type_symbol
 _atom_site_label
 _atom_site_symmetry_multiplicity
 _atom_site_fract_x
 _atom_site_fract_y
 _atom_site_fract_z
 _atom_site_occupancy
  Hf  Hf0  1  0.198094  0.802421  0.446721  1
  Hf  Hf1  1  0.198094  0.395672  0.446721  1
  Hf  Hf2  1  0.603506  0.801752  0.448472  1
  Hf  Hf3  1  0.802397  0.197361  0.548217  1
  Hf  Hf4  1  0.802397  0.605035  0.548217  1
  Hf  Hf5  1  0.393603  0.196802  0.547779  1
  Hf  Hf6  1  0.802397  0.197361  0.951783  1
  Hf  Hf7  1  0.802397  0.605035  0.951783  1
  Hf  Hf8  1  0.393603  0.196802  0.952221  1
  Hf  Hf9  1  0.198094  0.802421  0.053279  1
  Hf  Hf10  1  0.198094  0.395672  0.053279  1
  Hf  Hf11  1  0.603506  0.801752  0.051528  1
  Hf  Hf12  1  0.541080  0.456725  0.250000  1
  Hf  Hf13  1  0.541080  0.084354  0.250000  1
  Hf  Hf14  1  0.915245  0.457622  0.250000  1
  Hf  Hf15  1  0.460114  0.539423  0.750000  1
  Hf  Hf16  1  0.460114  0.920692  0.750000  1
  Hf  Hf17  1  0.079070  0.539536  0.750000  1
  Re  Re18  1  0.226675  0.113338  0.250000  1
  Mo  Mo19  1  0.889720  0.112277  0.250000  1
  Mo  Mo20  1  0.889720  0.777443  0.250000  1
  Mo  Mo21  1  0.110847  0.890021  0.750000  1
  Mo  Mo22  1  0.110847  0.220826  0.750000  1
  Mo  Mo23  1  0.778349  0.889175  0.750000  1
  Mo  Mo24  1  0.000334  0.000167  0.498840  1
  Mo  Mo25  1  0.000334  0.000167  0.001160  1
  P  P26  1  0.666001  0.333000  0.750000  1
  Ir  Ir27  1  0.334292  0.667147  0.250000  1
