# generated using pymatgen
data_HfZr5(SiRu)6
_symmetry_space_group_name_H-M   'P 1'
_cell_length_a   7.65606430
_cell_length_b   7.64694118
_cell_length_c   7.65606380
_cell_angle_alpha   127.90291948
_cell_angle_beta   122.00371709
_cell_angle_gamma   81.73573777
_symmetry_Int_Tables_number   1
_chemical_formula_structural   HfZr5(SiRu)6
_chemical_formula_sum   'Hf1 Zr5 Si6 Ru6'
_cell_volume   288.63466187
_cell_formula_units_Z   1
loop_
 _symmetry_equiv_pos_site_id
 _symmetry_equiv_pos_as_xyz
  1  'x, y, z'
loop_
 _atom_site_type_symbol
 _atom_site_label
 _atom_site_symmetry_multiplicity
 _atom_site_fract_x
 _atom_site_fract_y
 _atom_site_fract_z
 _atom_site_occupancy
  Hf  Hf0  1  0.947639  0.651661  0.204022  1
  Zr  Zr1  1  0.469791  0.697920  0.728130  1
  Zr  Zr2  1  0.529910  0.258384  0.228475  1
  Zr  Zr3  1  0.747283  0.831549  0.584266  1
  Zr  Zr4  1  0.252929  0.836506  0.083578  1
  Zr  Zr5  1  0.052738  0.258028  0.705290  1
  Si  Si6  1  0.274349  0.269141  0.494792  1
  Si  Si7  1  0.724809  0.217662  0.992854  1
  Si  Si8  1  0.325460  0.588028  0.249256  1
  Si  Si9  1  0.674619  0.922195  0.261343  1
  Si  Si10  1  0.160852  0.922195  0.747575  1
  Si  Si11  1  0.838772  0.588028  0.762569  1
  Ru  Ru12  1  0.503726  0.498208  0.000851  1
  Ru  Ru13  1  0.997356  0.498208  0.494481  1
  Ru  Ru14  1  0.096070  0.255010  0.104119  1
  Ru  Ru15  1  0.903789  0.005933  0.156917  1
  Ru  Ru16  1  0.349016  0.005933  0.602144  1
  Ru  Ru17  1  0.650892  0.255010  0.658941  1
