# generated using pymatgen
data_Sm2Si4Mo3
_symmetry_space_group_name_H-M   'P 1'
_cell_length_a   6.99778400
_cell_length_b   6.83874054
_cell_length_c   6.94426733
_cell_angle_alpha   70.95068471
_cell_angle_beta   90.00000000
_cell_angle_gamma   90.00000000
_symmetry_Int_Tables_number   1
_chemical_formula_structural   Sm2Si4Mo3
_chemical_formula_sum   'Sm4 Si8 Mo6'
_cell_volume   314.12627596
_cell_formula_units_Z   2
loop_
 _symmetry_equiv_pos_site_id
 _symmetry_equiv_pos_as_xyz
  1  'x, y, z'
loop_
 _atom_site_type_symbol
 _atom_site_label
 _atom_site_symmetry_multiplicity
 _atom_site_fract_x
 _atom_site_fract_y
 _atom_site_fract_z
 _atom_site_occupancy
  Sm  Sm0  1  0.668234  0.438608  0.189850  1
  Sm  Sm1  1  0.168234  0.061392  0.810150  1
  Sm  Sm2  1  0.331766  0.561392  0.810150  1
  Sm  Sm3  1  0.831766  0.938608  0.189850  1
  Si  Si4  1  0.453184  0.128562  0.092212  1
  Si  Si5  1  0.953184  0.371438  0.907788  1
  Si  Si6  1  0.546816  0.871438  0.907788  1
  Si  Si7  1  0.046816  0.628562  0.092212  1
  Si  Si8  1  0.867889  0.128378  0.506974  1
  Si  Si9  1  0.367889  0.371622  0.493026  1
  Si  Si10  1  0.132111  0.871622  0.493026  1
  Si  Si11  1  0.632111  0.628378  0.506974  1
  Mo  Mo12  1  0.500000  0.000000  0.500000  1
  Mo  Mo13  1  0.000000  0.500000  0.500000  1
  Mo  Mo14  1  0.162427  0.250386  0.252295  1
  Mo  Mo15  1  0.662427  0.249614  0.747705  1
  Mo  Mo16  1  0.837573  0.749614  0.747705  1
  Mo  Mo17  1  0.337573  0.750386  0.252295  1
