# generated using pymatgen
data_TbY2Tm5Au4
_symmetry_space_group_name_H-M   'P 1'
_cell_length_a   4.88495800
_cell_length_b   7.12734158
_cell_length_c   8.87333009
_cell_angle_alpha   89.83235320
_cell_angle_beta   90.00000000
_cell_angle_gamma   90.00000000
_symmetry_Int_Tables_number   1
_chemical_formula_structural   TbY2Tm5Au4
_chemical_formula_sum   'Tb1 Y2 Tm5 Au4'
_cell_volume   308.93931939
_cell_formula_units_Z   1
loop_
 _symmetry_equiv_pos_site_id
 _symmetry_equiv_pos_as_xyz
  1  'x, y, z'
loop_
 _atom_site_type_symbol
 _atom_site_label
 _atom_site_symmetry_multiplicity
 _atom_site_fract_x
 _atom_site_fract_y
 _atom_site_fract_z
 _atom_site_occupancy
  Tb  Tb0  1  0.750000  0.014189  0.676627  1
  Y  Y1  1  0.250000  0.985228  0.321742  1
  Y  Y2  1  0.750000  0.514879  0.822843  1
  Tm  Tm3  1  0.250000  0.851803  0.921972  1
  Tm  Tm4  1  0.250000  0.352250  0.578761  1
  Tm  Tm5  1  0.750000  0.148741  0.079624  1
  Tm  Tm6  1  0.750000  0.647667  0.419627  1
  Tm  Tm7  1  0.250000  0.485320  0.175838  1
  Au  Au8  1  0.250000  0.254214  0.901629  1
  Au  Au9  1  0.250000  0.753287  0.601128  1
  Au  Au10  1  0.750000  0.745115  0.101294  1
  Au  Au11  1  0.750000  0.247306  0.398915  1
