# generated using pymatgen
data_YTm6Sn23Os6
_symmetry_space_group_name_H-M   'P 1'
_cell_length_a   9.82680900
_cell_length_b   9.82680991
_cell_length_c   10.09730900
_cell_angle_alpha   90.00000000
_cell_angle_beta   90.00000000
_cell_angle_gamma   120.00000029
_symmetry_Int_Tables_number   1
_chemical_formula_structural   YTm6Sn23Os6
_chemical_formula_sum   'Y1 Tm6 Sn23 Os6'
_cell_volume   844.42551530
_cell_formula_units_Z   1
loop_
 _symmetry_equiv_pos_site_id
 _symmetry_equiv_pos_as_xyz
  1  'x, y, z'
loop_
 _atom_site_type_symbol
 _atom_site_label
 _atom_site_symmetry_multiplicity
 _atom_site_fract_x
 _atom_site_fract_y
 _atom_site_fract_z
 _atom_site_occupancy
  Y  Y0  1  0.000000  0.000000  0.000000  1
  Tm  Tm1  1  0.027189  0.513594  0.301480  1
  Tm  Tm2  1  0.486406  0.972811  0.301480  1
  Tm  Tm3  1  0.486406  0.513594  0.301480  1
  Tm  Tm4  1  0.972811  0.486406  0.698520  1
  Tm  Tm5  1  0.513594  0.027189  0.698520  1
  Tm  Tm6  1  0.513594  0.486406  0.698520  1
  Sn  Sn7  1  0.000000  0.000000  0.500000  1
  Sn  Sn8  1  0.118225  0.881775  0.277215  1
  Sn  Sn9  1  0.763548  0.881775  0.277215  1
  Sn  Sn10  1  0.118225  0.236452  0.277215  1
  Sn  Sn11  1  0.881775  0.118225  0.722785  1
  Sn  Sn12  1  0.236452  0.118225  0.722785  1
  Sn  Sn13  1  0.881775  0.763548  0.722785  1
  Sn  Sn14  1  0.350066  0.000000  0.000000  1
  Sn  Sn15  1  0.649934  0.649934  0.000000  1
  Sn  Sn16  1  0.000000  0.350066  0.000000  1
  Sn  Sn17  1  0.350066  0.350066  0.000000  1
  Sn  Sn18  1  0.000000  0.649934  0.000000  1
  Sn  Sn19  1  0.649934  0.000000  0.000000  1
  Sn  Sn20  1  0.779249  0.558497  0.464026  1
  Sn  Sn21  1  0.779249  0.220751  0.464026  1
  Sn  Sn22  1  0.441503  0.220751  0.464026  1
  Sn  Sn23  1  0.220751  0.441503  0.535974  1
  Sn  Sn24  1  0.220751  0.779249  0.535974  1
  Sn  Sn25  1  0.558497  0.779249  0.535974  1
  Sn  Sn26  1  0.666667  0.333333  0.174269  1
  Sn  Sn27  1  0.333333  0.666667  0.825731  1
  Sn  Sn28  1  0.666667  0.333333  0.867202  1
  Sn  Sn29  1  0.333333  0.666667  0.132798  1
  Os  Os30  1  0.170896  0.829104  0.796986  1
  Os  Os31  1  0.658209  0.829104  0.796986  1
  Os  Os32  1  0.170896  0.341791  0.796986  1
  Os  Os33  1  0.829104  0.170896  0.203014  1
  Os  Os34  1  0.341791  0.170896  0.203014  1
  Os  Os35  1  0.829104  0.658209  0.203014  1
