# generated using pymatgen
data_Pr7Y3Pb8
_symmetry_space_group_name_H-M   'P 1'
_cell_length_a   8.39135900
_cell_length_b   8.52312100
_cell_length_c   16.21978296
_cell_angle_alpha   90.03966971
_cell_angle_beta   90.00000000
_cell_angle_gamma   90.00000000
_symmetry_Int_Tables_number   1
_chemical_formula_structural   Pr7Y3Pb8
_chemical_formula_sum   'Pr14 Y6 Pb16'
_cell_volume   1160.04781367
_cell_formula_units_Z   2
loop_
 _symmetry_equiv_pos_site_id
 _symmetry_equiv_pos_as_xyz
  1  'x, y, z'
loop_
 _atom_site_type_symbol
 _atom_site_label
 _atom_site_symmetry_multiplicity
 _atom_site_fract_x
 _atom_site_fract_y
 _atom_site_fract_z
 _atom_site_occupancy
  Pr  Pr0  1  0.366892  0.842705  0.117173  1
  Pr  Pr1  1  0.866892  0.657295  0.382827  1
  Pr  Pr2  1  0.371233  0.839799  0.379817  1
  Pr  Pr3  1  0.871233  0.660201  0.120183  1
  Pr  Pr4  1  0.627644  0.157865  0.880393  1
  Pr  Pr5  1  0.127644  0.342135  0.619607  1
  Pr  Pr6  1  0.471836  0.678152  0.599449  1
  Pr  Pr7  1  0.971836  0.821848  0.900551  1
  Pr  Pr8  1  0.527516  0.321347  0.098142  1
  Pr  Pr9  1  0.027516  0.178653  0.401858  1
  Pr  Pr10  1  0.524800  0.319065  0.403405  1
  Pr  Pr11  1  0.024800  0.180935  0.096595  1
  Pr  Pr12  1  0.475189  0.676421  0.899447  1
  Pr  Pr13  1  0.975189  0.823579  0.600553  1
  Y  Y14  1  0.634029  0.155847  0.625003  1
  Y  Y15  1  0.134029  0.344153  0.874997  1
  Y  Y16  1  0.798357  0.495693  0.750279  1
  Y  Y17  1  0.298357  0.004307  0.749721  1
  Y  Y18  1  0.201063  0.503524  0.248825  1
  Y  Y19  1  0.701063  0.996476  0.251175  1
  Pb  Pb20  1  0.712224  0.969514  0.459693  1
  Pb  Pb21  1  0.212224  0.530486  0.040307  1
  Pb  Pb22  1  0.280459  0.040720  0.952669  1
  Pb  Pb23  1  0.780459  0.459280  0.547331  1
  Pb  Pb24  1  0.297662  0.037224  0.546601  1
  Pb  Pb25  1  0.797662  0.462776  0.953399  1
  Pb  Pb26  1  0.712225  0.966668  0.045964  1
  Pb  Pb27  1  0.212225  0.533332  0.454036  1
  Pb  Pb28  1  0.436379  0.373832  0.749055  1
  Pb  Pb29  1  0.936379  0.126168  0.750945  1
  Pb  Pb30  1  0.564016  0.623225  0.248719  1
  Pb  Pb31  1  0.064016  0.876775  0.251281  1
  Pb  Pb32  1  0.663370  0.847567  0.749012  1
  Pb  Pb33  1  0.163370  0.652433  0.750988  1
  Pb  Pb34  1  0.335104  0.153658  0.249641  1
  Pb  Pb35  1  0.835104  0.346342  0.250359  1
