# generated using pymatgen
data_Na2ScGaB28
_symmetry_space_group_name_H-M   'P 1'
_cell_length_a   7.34927106
_cell_length_b   7.34927103
_cell_length_c   7.42000440
_cell_angle_alpha   132.82304769
_cell_angle_beta   112.08328440
_cell_angle_gamma   86.22428059
_symmetry_Int_Tables_number   1
_chemical_formula_structural   Na2ScGaB28
_chemical_formula_sum   'Na2 Sc1 Ga1 B28'
_cell_volume   261.55645154
_cell_formula_units_Z   1
loop_
 _symmetry_equiv_pos_site_id
 _symmetry_equiv_pos_as_xyz
  1  'x, y, z'
loop_
 _atom_site_type_symbol
 _atom_site_label
 _atom_site_symmetry_multiplicity
 _atom_site_fract_x
 _atom_site_fract_y
 _atom_site_fract_z
 _atom_site_occupancy
  Na  Na0  1  0.900452  0.250482  0.650934  1
  Na  Na1  1  0.099548  0.749518  0.349066  1
  Sc  Sc2  1  0.500000  0.000000  0.000000  1
  Ga  Ga3  1  0.500000  0.500000  0.500000  1
  B  B4  1  0.723584  0.718824  0.320873  1
  B  B5  1  0.744677  0.378260  0.388608  1
  B  B6  1  0.884679  0.679180  0.712231  1
  B  B7  1  0.124581  0.831038  0.799132  1
  B  B8  1  0.531906  0.825448  0.200868  1
  B  B9  1  0.466949  0.672449  0.287769  1
  B  B10  1  0.115321  0.320820  0.287769  1
  B  B11  1  0.875419  0.168962  0.200868  1
  B  B12  1  0.468094  0.174552  0.799132  1
  B  B13  1  0.533051  0.327551  0.712231  1
  B  B14  1  0.102447  0.779047  0.003377  1
  B  B15  1  0.897950  0.902711  0.679127  1
  B  B16  1  0.897553  0.220953  0.996623  1
  B  B17  1  0.275670  0.599071  0.996623  1
  B  B18  1  0.102050  0.097289  0.320873  1
  B  B19  1  0.510348  0.143931  0.388608  1
  B  B20  1  0.276416  0.281176  0.679127  1
  B  B21  1  0.724330  0.400929  0.003377  1
  B  B22  1  0.751788  0.919711  0.831542  1
  B  B23  1  0.248212  0.080289  0.168458  1
  B  B24  1  0.411832  0.579754  0.831542  1
  B  B25  1  0.588168  0.420246  0.168458  1
  B  B26  1  0.863380  0.835158  0.029227  1
  B  B27  1  0.136620  0.164842  0.970773  1
  B  B28  1  0.694069  0.665848  0.029227  1
  B  B29  1  0.305931  0.334152  0.970773  1
  B  B30  1  0.489652  0.856069  0.611392  1
  B  B31  1  0.255323  0.621740  0.611392  1
