# generated using pymatgen
data_Mn3Cr4CoP4
_symmetry_space_group_name_H-M   'P 1'
_cell_length_a   3.57782900
_cell_length_b   5.73693723
_cell_length_c   6.62702521
_cell_angle_alpha   89.83109319
_cell_angle_beta   90.00000000
_cell_angle_gamma   90.00000000
_symmetry_Int_Tables_number   1
_chemical_formula_structural   Mn3Cr4CoP4
_chemical_formula_sum   'Mn3 Cr4 Co1 P4'
_cell_volume   136.02427288
_cell_formula_units_Z   1
loop_
 _symmetry_equiv_pos_site_id
 _symmetry_equiv_pos_as_xyz
  1  'x, y, z'
loop_
 _atom_site_type_symbol
 _atom_site_label
 _atom_site_symmetry_multiplicity
 _atom_site_fract_x
 _atom_site_fract_y
 _atom_site_fract_z
 _atom_site_occupancy
  Mn  Mn0  1  0.750000  0.648817  0.556456  1
  Mn  Mn1  1  0.750000  0.141164  0.942181  1
  Mn  Mn2  1  0.250000  0.351280  0.439516  1
  Cr  Cr3  1  0.750000  0.520700  0.170049  1
  Cr  Cr4  1  0.750000  0.029483  0.327555  1
  Cr  Cr5  1  0.250000  0.473666  0.826095  1
  Cr  Cr6  1  0.250000  0.981313  0.673027  1
  Co  Co7  1  0.250000  0.851345  0.063747  1
  P  P8  1  0.750000  0.267926  0.628164  1
  P  P9  1  0.750000  0.761620  0.876029  1
  P  P10  1  0.250000  0.736820  0.374588  1
  P  P11  1  0.250000  0.235867  0.122592  1
