# generated using pymatgen
data_Sc8Nb8Si16Mo3W
_symmetry_space_group_name_H-M   'P 1'
_cell_length_a   6.61273648
_cell_length_b   6.87323947
_cell_length_c   13.07419900
_cell_angle_alpha   90.00000000
_cell_angle_beta   90.00000000
_cell_angle_gamma   89.95696728
_symmetry_Int_Tables_number   1
_chemical_formula_structural   Sc8Nb8Si16Mo3W
_chemical_formula_sum   'Sc8 Nb8 Si16 Mo3 W1'
_cell_volume   594.23422329
_cell_formula_units_Z   1
loop_
 _symmetry_equiv_pos_site_id
 _symmetry_equiv_pos_as_xyz
  1  'x, y, z'
loop_
 _atom_site_type_symbol
 _atom_site_label
 _atom_site_symmetry_multiplicity
 _atom_site_fract_x
 _atom_site_fract_y
 _atom_site_fract_z
 _atom_site_occupancy
  Sc  Sc0  1  0.500386  0.325899  0.093150  1
  Sc  Sc1  1  0.000327  0.174067  0.406809  1
  Sc  Sc2  1  0.499690  0.674672  0.593579  1
  Sc  Sc3  1  0.998837  0.826356  0.906496  1
  Sc  Sc4  1  0.499690  0.674672  0.906421  1
  Sc  Sc5  1  0.998837  0.826356  0.593504  1
  Sc  Sc6  1  0.500386  0.325899  0.406850  1
  Sc  Sc7  1  0.000327  0.174067  0.093191  1
  Nb  Nb8  1  0.832617  0.330506  0.625507  1
  Nb  Nb9  1  0.333196  0.168365  0.874498  1
  Nb  Nb10  1  0.167096  0.668673  0.125632  1
  Nb  Nb11  1  0.667449  0.831270  0.374179  1
  Nb  Nb12  1  0.167096  0.668673  0.374368  1
  Nb  Nb13  1  0.667449  0.831270  0.125821  1
  Nb  Nb14  1  0.832617  0.330506  0.874493  1
  Nb  Nb15  1  0.333196  0.168365  0.625502  1
  Si  Si16  1  0.669275  0.034484  0.541135  1
  Si  Si17  1  0.169172  0.465501  0.958601  1
  Si  Si18  1  0.330747  0.965067  0.041739  1
  Si  Si19  1  0.830804  0.534739  0.458556  1
  Si  Si20  1  0.330747  0.965067  0.458261  1
  Si  Si21  1  0.830804  0.534739  0.041444  1
  Si  Si22  1  0.669275  0.034484  0.958865  1
  Si  Si23  1  0.169172  0.465501  0.541399  1
  Si  Si24  1  0.531266  0.389366  0.750000  1
  Si  Si25  1  0.032585  0.111489  0.750000  1
  Si  Si26  1  0.468292  0.610620  0.250000  1
  Si  Si27  1  0.968912  0.889608  0.250000  1
  Si  Si28  1  0.795862  0.642750  0.750000  1
  Si  Si29  1  0.294833  0.856108  0.750000  1
  Si  Si30  1  0.204416  0.356378  0.250000  1
  Si  Si31  1  0.704413  0.143753  0.250000  1
  Mo  Mo32  1  0.159809  0.496634  0.750000  1
  Mo  Mo33  1  0.340870  0.996872  0.250000  1
  Mo  Mo34  1  0.840372  0.503260  0.250000  1
  W  W35  1  0.659183  0.003965  0.750000  1
