# generated using pymatgen
data_Rb2CdPb3O8
_symmetry_space_group_name_H-M   'P 1'
_cell_length_a   7.60840572
_cell_length_b   7.60840630
_cell_length_c   7.60840706
_cell_angle_alpha   53.16587495
_cell_angle_beta   53.16586395
_cell_angle_gamma   53.16586416
_symmetry_Int_Tables_number   1
_chemical_formula_structural   Rb2CdPb3O8
_chemical_formula_sum   'Rb2 Cd1 Pb3 O8'
_cell_volume   261.57473082
_cell_formula_units_Z   1
loop_
 _symmetry_equiv_pos_site_id
 _symmetry_equiv_pos_as_xyz
  1  'x, y, z'
loop_
 _atom_site_type_symbol
 _atom_site_label
 _atom_site_symmetry_multiplicity
 _atom_site_fract_x
 _atom_site_fract_y
 _atom_site_fract_z
 _atom_site_occupancy
  Rb  Rb0  1  0.614889  0.614889  0.614889  1
  Rb  Rb1  1  0.263776  0.263776  0.263776  1
  Cd  Cd2  1  0.092621  0.092621  0.092621  1
  Pb  Pb3  1  0.619503  0.115649  0.619503  1
  Pb  Pb4  1  0.115649  0.619503  0.619503  1
  Pb  Pb5  1  0.619503  0.619503  0.115649  1
  O  O6  1  0.844798  0.844798  0.844798  1
  O  O7  1  0.876599  0.418347  0.876599  1
  O  O8  1  0.418347  0.876599  0.876599  1
  O  O9  1  0.876599  0.876599  0.418347  1
  O  O10  1  0.395285  0.395285  0.395285  1
  O  O11  1  0.341564  0.829303  0.341564  1
  O  O12  1  0.829303  0.341564  0.341564  1
  O  O13  1  0.341564  0.341564  0.829303  1
