# generated using pymatgen
data_EuHo2PaPt4
_symmetry_space_group_name_H-M   'P 1'
_cell_length_a   4.56077500
_cell_length_b   5.67143050
_cell_length_c   7.13330484
_cell_angle_alpha   92.58483538
_cell_angle_beta   90.00000000
_cell_angle_gamma   90.00000000
_symmetry_Int_Tables_number   1
_chemical_formula_structural   EuHo2PaPt4
_chemical_formula_sum   'Eu1 Ho2 Pa1 Pt4'
_cell_volume   184.32317563
_cell_formula_units_Z   1
loop_
 _symmetry_equiv_pos_site_id
 _symmetry_equiv_pos_as_xyz
  1  'x, y, z'
loop_
 _atom_site_type_symbol
 _atom_site_label
 _atom_site_symmetry_multiplicity
 _atom_site_fract_x
 _atom_site_fract_y
 _atom_site_fract_z
 _atom_site_occupancy
  Eu  Eu0  1  0.250000  0.143591  0.185996  1
  Ho  Ho1  1  0.750000  0.642109  0.317747  1
  Ho  Ho2  1  0.750000  0.855381  0.817145  1
  Pa  Pa3  1  0.250000  0.358673  0.683134  1
  Pt  Pt4  1  0.250000  0.831705  0.554208  1
  Pt  Pt5  1  0.250000  0.648543  0.030956  1
  Pt  Pt6  1  0.750000  0.170105  0.478577  1
  Pt  Pt7  1  0.750000  0.349893  0.932235  1
