# generated using pymatgen
data_Ta4Co4Si3As
_symmetry_space_group_name_H-M   'P 1'
_cell_length_a   6.22770860
_cell_length_b   3.67261500
_cell_length_c   7.06146706
_cell_angle_alpha   90.00000000
_cell_angle_beta   89.74591405
_cell_angle_gamma   90.00000000
_symmetry_Int_Tables_number   1
_chemical_formula_structural   Ta4Co4Si3As
_chemical_formula_sum   'Ta4 Co4 Si3 As1'
_cell_volume   161.50811723
_cell_formula_units_Z   1
loop_
 _symmetry_equiv_pos_site_id
 _symmetry_equiv_pos_as_xyz
  1  'x, y, z'
loop_
 _atom_site_type_symbol
 _atom_site_label
 _atom_site_symmetry_multiplicity
 _atom_site_fract_x
 _atom_site_fract_y
 _atom_site_fract_z
 _atom_site_occupancy
  Ta  Ta0  1  0.022196  0.250000  0.823921  1
  Ta  Ta1  1  0.519712  0.250000  0.681384  1
  Ta  Ta2  1  0.981889  0.750000  0.174403  1
  Ta  Ta3  1  0.470700  0.750000  0.319597  1
  Co  Co4  1  0.148600  0.250000  0.437837  1
  Co  Co5  1  0.639113  0.250000  0.058435  1
  Co  Co6  1  0.859505  0.750000  0.568704  1
  Co  Co7  1  0.358309  0.750000  0.936733  1
  Si  Si8  1  0.275304  0.250000  0.117066  1
  Si  Si9  1  0.225845  0.750000  0.621118  1
  Si  Si10  1  0.725643  0.750000  0.881880  1
  As  As11  1  0.773183  0.250000  0.378923  1
