# generated using pymatgen
data_CaLa4Co4I
_symmetry_space_group_name_H-M   'P 1'
_cell_length_a   4.03221000
_cell_length_b   4.03220975
_cell_length_c   19.32365000
_cell_angle_alpha   90.00000000
_cell_angle_beta   90.00000000
_cell_angle_gamma   120.00000208
_symmetry_Int_Tables_number   1
_chemical_formula_structural   CaLa4Co4I
_chemical_formula_sum   'Ca1 La4 Co4 I1'
_cell_volume   272.08590390
_cell_formula_units_Z   1
loop_
 _symmetry_equiv_pos_site_id
 _symmetry_equiv_pos_as_xyz
  1  'x, y, z'
loop_
 _atom_site_type_symbol
 _atom_site_label
 _atom_site_symmetry_multiplicity
 _atom_site_fract_x
 _atom_site_fract_y
 _atom_site_fract_z
 _atom_site_occupancy
  Ca  Ca0  1  0.333333  0.666667  0.750000  1
  La  La1  1  0.000000  0.000000  0.113791  1
  La  La2  1  0.000000  0.000000  0.386209  1
  La  La3  1  0.000000  0.000000  0.921635  1
  La  La4  1  0.000000  0.000000  0.578365  1
  Co  Co5  1  0.333333  0.666667  0.016052  1
  Co  Co6  1  0.666667  0.333333  0.017763  1
  Co  Co7  1  0.333333  0.666667  0.483948  1
  Co  Co8  1  0.666667  0.333333  0.482237  1
  I  I9  1  0.666667  0.333333  0.250000  1
