# generated using pymatgen
data_Eu4CuNiH12
_symmetry_space_group_name_H-M   'P 1'
_cell_length_a   7.28609674
_cell_length_b   7.28609486
_cell_length_c   5.40034865
_cell_angle_alpha   89.98163916
_cell_angle_beta   89.98163701
_cell_angle_gamma   136.80021608
_symmetry_Int_Tables_number   1
_chemical_formula_structural   Eu4CuNiH12
_chemical_formula_sum   'Eu4 Cu1 Ni1 H12'
_cell_volume   196.25149942
_cell_formula_units_Z   1
loop_
 _symmetry_equiv_pos_site_id
 _symmetry_equiv_pos_as_xyz
  1  'x, y, z'
loop_
 _atom_site_type_symbol
 _atom_site_label
 _atom_site_symmetry_multiplicity
 _atom_site_fract_x
 _atom_site_fract_y
 _atom_site_fract_z
 _atom_site_occupancy
  Eu  Eu0  1  0.143135  0.856865  0.500000  1
  Eu  Eu1  1  0.642996  0.357004  0.000000  1
  Eu  Eu2  1  0.856865  0.143135  0.500000  1
  Eu  Eu3  1  0.357004  0.642996  0.000000  1
  Cu  Cu4  1  0.000000  0.000000  0.000000  1
  Ni  Ni5  1  0.500000  0.500000  0.500000  1
  H  H6  1  0.999911  0.499996  0.750087  1
  H  H7  1  0.500004  0.000089  0.249913  1
  H  H8  1  0.000089  0.500004  0.249913  1
  H  H9  1  0.499996  0.999911  0.750087  1
  H  H10  1  0.382229  0.617771  0.500000  1
  H  H11  1  0.881078  0.118922  0.000000  1
  H  H12  1  0.617771  0.382229  0.500000  1
  H  H13  1  0.118922  0.881078  0.000000  1
  H  H14  1  0.273945  0.273945  0.726046  1
  H  H15  1  0.726055  0.726055  0.273954  1
  H  H16  1  0.272973  0.272973  0.273843  1
  H  H17  1  0.727027  0.727027  0.726157  1
