# generated using pymatgen
data_DyU7B24MoW3
_symmetry_space_group_name_H-M   'P 1'
_cell_length_a   3.68597100
_cell_length_b   9.28130691
_cell_length_c   11.38475005
_cell_angle_alpha   89.96918878
_cell_angle_beta   90.00000000
_cell_angle_gamma   90.00000000
_symmetry_Int_Tables_number   1
_chemical_formula_structural   DyU7B24MoW3
_chemical_formula_sum   'Dy1 U7 B24 Mo1 W3'
_cell_volume   389.47939383
_cell_formula_units_Z   1
loop_
 _symmetry_equiv_pos_site_id
 _symmetry_equiv_pos_as_xyz
  1  'x, y, z'
loop_
 _atom_site_type_symbol
 _atom_site_label
 _atom_site_symmetry_multiplicity
 _atom_site_fract_x
 _atom_site_fract_y
 _atom_site_fract_z
 _atom_site_occupancy
  Dy  Dy0  1  0.000000  0.335226  0.407911  1
  U  U1  1  0.000000  0.664460  0.592353  1
  U  U2  1  0.000000  0.834493  0.092436  1
  U  U3  1  0.000000  0.165466  0.907496  1
  U  U4  1  0.000000  0.956204  0.394568  1
  U  U5  1  0.000000  0.044440  0.604555  1
  U  U6  1  0.000000  0.456304  0.105590  1
  U  U7  1  0.000000  0.543594  0.895390  1
  B  B8  1  0.500000  0.552888  0.433455  1
  B  B9  1  0.500000  0.451375  0.568783  1
  B  B10  1  0.500000  0.049561  0.066328  1
  B  B11  1  0.500000  0.950036  0.932860  1
  B  B12  1  0.500000  0.743132  0.424672  1
  B  B13  1  0.500000  0.255403  0.576659  1
  B  B14  1  0.500000  0.243803  0.075666  1
  B  B15  1  0.500000  0.756347  0.924388  1
  B  B16  1  0.500000  0.803847  0.272841  1
  B  B17  1  0.500000  0.196179  0.727555  1
  B  B18  1  0.500000  0.303016  0.225104  1
  B  B19  1  0.500000  0.696054  0.772525  1
  B  B20  1  0.500000  0.644543  0.187620  1
  B  B21  1  0.500000  0.355135  0.812928  1
  B  B22  1  0.500000  0.142935  0.311829  1
  B  B23  1  0.500000  0.855164  0.687242  1
  B  B24  1  0.500000  0.985710  0.218133  1
  B  B25  1  0.500000  0.014272  0.781328  1
  B  B26  1  0.500000  0.487783  0.280182  1
  B  B27  1  0.500000  0.515073  0.718381  1
  B  B28  1  0.500000  0.642406  0.039501  1
  B  B29  1  0.500000  0.358277  0.961069  1
  B  B30  1  0.500000  0.137933  0.461503  1
  B  B31  1  0.500000  0.857578  0.539599  1
  Mo  Mo32  1  0.000000  0.648278  0.319269  1
  W  W33  1  0.000000  0.355036  0.682670  1
  W  W34  1  0.000000  0.143160  0.177276  1
  W  W35  1  0.000000  0.854887  0.820333  1
