# generated using pymatgen
data_V10GeB4Se
_symmetry_space_group_name_H-M   'P 1'
_cell_length_a   6.80791535
_cell_length_b   6.80791560
_cell_length_c   6.80791583
_cell_angle_alpha   129.52041629
_cell_angle_beta   129.52041869
_cell_angle_gamma   74.17463626
_symmetry_Int_Tables_number   1
_chemical_formula_structural   V10GeB4Se
_chemical_formula_sum   'V10 Ge1 B4 Se1'
_cell_volume   183.06334379
_cell_formula_units_Z   1
loop_
 _symmetry_equiv_pos_site_id
 _symmetry_equiv_pos_as_xyz
  1  'x, y, z'
loop_
 _atom_site_type_symbol
 _atom_site_label
 _atom_site_symmetry_multiplicity
 _atom_site_fract_x
 _atom_site_fract_y
 _atom_site_fract_z
 _atom_site_occupancy
  V  V0  1  0.531564  0.695701  0.498542  1
  V  V1  1  0.033023  0.531564  0.835863  1
  V  V2  1  0.695701  0.197159  0.164137  1
  V  V3  1  0.968436  0.466977  0.164137  1
  V  V4  1  0.197159  0.033023  0.501458  1
  V  V5  1  0.466977  0.302841  0.498542  1
  V  V6  1  0.804299  0.968436  0.501458  1
  V  V7  1  0.302841  0.804299  0.835863  1
  V  V8  1  0.998441  0.998441  0.000000  1
  V  V9  1  0.501559  0.501559  0.000000  1
  Ge  Ge10  1  0.750000  0.750000  0.000000  1
  B  B11  1  0.615580  0.115580  0.731159  1
  B  B12  1  0.115580  0.384420  0.500000  1
  B  B13  1  0.884420  0.615580  0.500000  1
  B  B14  1  0.384420  0.884420  0.268841  1
  Se  Se15  1  0.250000  0.250000  0.000000  1
