# generated using pymatgen
data_SiB12S
_symmetry_space_group_name_H-M   'P 1'
_cell_length_a   5.27870487
_cell_length_b   5.27870525
_cell_length_c   5.27870527
_cell_angle_alpha   69.85406387
_cell_angle_beta   69.85406084
_cell_angle_gamma   69.85406937
_symmetry_Int_Tables_number   1
_chemical_formula_structural   SiB12S
_chemical_formula_sum   'Si1 B12 S1'
_cell_volume   125.31562001
_cell_formula_units_Z   1
loop_
 _symmetry_equiv_pos_site_id
 _symmetry_equiv_pos_as_xyz
  1  'x, y, z'
loop_
 _atom_site_type_symbol
 _atom_site_label
 _atom_site_symmetry_multiplicity
 _atom_site_fract_x
 _atom_site_fract_y
 _atom_site_fract_z
 _atom_site_occupancy
  Si  Si0  1  0.398273  0.398273  0.398273  1
  B  B1  1  0.014287  0.014287  0.325000  1
  B  B2  1  0.325000  0.014287  0.014287  1
  B  B3  1  0.277698  0.820097  0.820097  1
  B  B4  1  0.820097  0.820097  0.277698  1
  B  B5  1  0.820097  0.277698  0.820097  1
  B  B6  1  0.182396  0.721536  0.182396  1
  B  B7  1  0.721536  0.182396  0.182396  1
  B  B8  1  0.182396  0.182396  0.721536  1
  B  B9  1  0.672691  0.986955  0.986955  1
  B  B10  1  0.986955  0.986955  0.672691  1
  B  B11  1  0.986955  0.672691  0.986955  1
  B  B12  1  0.014287  0.325000  0.014287  1
  S  S13  1  0.597334  0.597334  0.597334  1
