# generated using pymatgen
data_Ta12Al8CuNi3C4
_symmetry_space_group_name_H-M   'P 1'
_cell_length_a   8.24788074
_cell_length_b   8.24104957
_cell_length_c   8.24788600
_cell_angle_alpha   59.97253057
_cell_angle_beta   59.99995485
_cell_angle_gamma   59.97248305
_symmetry_Int_Tables_number   1
_chemical_formula_structural   Ta12Al8CuNi3C4
_chemical_formula_sum   'Ta12 Al8 Cu1 Ni3 C4'
_cell_volume   396.25230625
_cell_formula_units_Z   1
loop_
 _symmetry_equiv_pos_site_id
 _symmetry_equiv_pos_as_xyz
  1  'x, y, z'
loop_
 _atom_site_type_symbol
 _atom_site_label
 _atom_site_symmetry_multiplicity
 _atom_site_fract_x
 _atom_site_fract_y
 _atom_site_fract_z
 _atom_site_occupancy
  Ta  Ta0  1  0.563673  0.936919  0.563673  1
  Ta  Ta1  1  0.315575  0.685592  0.683258  1
  Ta  Ta2  1  0.686327  0.313081  0.314264  1
  Ta  Ta3  1  0.315575  0.685592  0.315575  1
  Ta  Ta4  1  0.683258  0.685592  0.315574  1
  Ta  Ta5  1  0.314264  0.313081  0.686327  1
  Ta  Ta6  1  0.566742  0.564408  0.934426  1
  Ta  Ta7  1  0.934425  0.564408  0.566742  1
  Ta  Ta8  1  0.563673  0.936919  0.935736  1
  Ta  Ta9  1  0.935736  0.936919  0.563673  1
  Ta  Ta10  1  0.686327  0.313081  0.686327  1
  Ta  Ta11  1  0.934425  0.564408  0.934425  1
  Al  Al12  1  0.915666  0.919761  0.915665  1
  Al  Al13  1  0.001089  0.330239  0.334335  1
  Al  Al14  1  0.331983  0.004050  0.331984  1
  Al  Al15  1  0.334334  0.330239  0.001089  1
  Al  Al16  1  0.918017  0.245950  0.918016  1
  Al  Al17  1  0.915666  0.919761  0.248911  1
  Al  Al18  1  0.248911  0.919761  0.915665  1
  Al  Al19  1  0.334334  0.330239  0.334335  1
  Cu  Cu20  1  0.125000  0.625000  0.125000  1
  Ni  Ni21  1  0.125000  0.125000  0.125000  1
  Ni  Ni22  1  0.625000  0.125000  0.125000  1
  Ni  Ni23  1  0.125000  0.125000  0.625000  1
  C  C24  1  0.625000  0.625000  0.625000  1
  C  C25  1  0.125000  0.625000  0.625000  1
  C  C26  1  0.625000  0.125000  0.625000  1
  C  C27  1  0.625000  0.625000  0.125000  1
