# generated using pymatgen
data_Dy5YIrRh17
_symmetry_space_group_name_H-M   'P 1'
_cell_length_a   5.26565100
_cell_length_b   5.26565115
_cell_length_c   17.60158800
_cell_angle_alpha   90.00000000
_cell_angle_beta   90.00000000
_cell_angle_gamma   119.99999275
_symmetry_Int_Tables_number   1
_chemical_formula_structural   Dy5YIrRh17
_chemical_formula_sum   'Dy5 Y1 Ir1 Rh17'
_cell_volume   422.65564127
_cell_formula_units_Z   1
loop_
 _symmetry_equiv_pos_site_id
 _symmetry_equiv_pos_as_xyz
  1  'x, y, z'
loop_
 _atom_site_type_symbol
 _atom_site_label
 _atom_site_symmetry_multiplicity
 _atom_site_fract_x
 _atom_site_fract_y
 _atom_site_fract_z
 _atom_site_occupancy
  Dy  Dy0  1  0.333333  0.666667  0.958104  1
  Dy  Dy1  1  0.666667  0.333333  0.041867  1
  Dy  Dy2  1  0.666667  0.333333  0.458406  1
  Dy  Dy3  1  0.333333  0.666667  0.541592  1
  Dy  Dy4  1  0.333333  0.666667  0.749957  1
  Y  Y5  1  0.666667  0.333333  0.250058  1
  Ir  Ir6  1  0.000000  0.000000  0.500020  1
  Rh  Rh7  1  0.166953  0.833047  0.374356  1
  Rh  Rh8  1  0.166953  0.333907  0.374356  1
  Rh  Rh9  1  0.666093  0.833047  0.374356  1
  Rh  Rh10  1  0.833049  0.166951  0.625715  1
  Rh  Rh11  1  0.833049  0.666096  0.625715  1
  Rh  Rh12  1  0.333904  0.166951  0.625715  1
  Rh  Rh13  1  0.832848  0.167152  0.874322  1
  Rh  Rh14  1  0.832848  0.665695  0.874322  1
  Rh  Rh15  1  0.334305  0.167152  0.874322  1
  Rh  Rh16  1  0.167139  0.832861  0.125632  1
  Rh  Rh17  1  0.167139  0.334279  0.125632  1
  Rh  Rh18  1  0.665721  0.832861  0.125632  1
  Rh  Rh19  1  0.333333  0.666667  0.249709  1
  Rh  Rh20  1  0.666667  0.333333  0.750269  1
  Rh  Rh21  1  0.000000  0.000000  0.249705  1
  Rh  Rh22  1  0.000000  0.000000  0.750246  1
  Rh  Rh23  1  0.000000  0.000000  0.999989  1
