# generated using pymatgen
data_Tb24CuRu13
_symmetry_space_group_name_H-M   'P 1'
_cell_length_a   11.40459043
_cell_length_b   8.43224929
_cell_length_c   11.31627698
_cell_angle_alpha   56.36017295
_cell_angle_beta   89.85953927
_cell_angle_gamma   89.78328698
_symmetry_Int_Tables_number   1
_chemical_formula_structural   Tb24CuRu13
_chemical_formula_sum   'Tb24 Cu1 Ru13'
_cell_volume   905.99701695
_cell_formula_units_Z   1
loop_
 _symmetry_equiv_pos_site_id
 _symmetry_equiv_pos_as_xyz
  1  'x, y, z'
loop_
 _atom_site_type_symbol
 _atom_site_label
 _atom_site_symmetry_multiplicity
 _atom_site_fract_x
 _atom_site_fract_y
 _atom_site_fract_z
 _atom_site_occupancy
  Tb  Tb0  1  0.847318  0.508160  0.654772  1
  Tb  Tb1  1  0.496343  0.849267  0.861101  1
  Tb  Tb2  1  0.654691  0.508007  0.156334  1
  Tb  Tb3  1  0.801578  0.759507  0.823476  1
  Tb  Tb4  1  0.569627  0.778490  0.588459  1
  Tb  Tb5  1  0.925618  0.279799  0.293004  1
  Tb  Tb6  1  0.577008  0.279461  0.794854  1
  Tb  Tb7  1  0.293578  0.758364  0.467674  1
  Tb  Tb8  1  0.301268  0.246817  0.664692  1
  Tb  Tb9  1  0.422642  0.717492  0.209326  1
  Tb  Tb10  1  0.432700  0.220335  0.409835  1
  Tb  Tb11  1  0.509016  0.149545  0.142482  1
  Tb  Tb12  1  0.346661  0.507093  0.839213  1
  Tb  Tb13  1  0.006250  0.850817  0.359810  1
  Tb  Tb14  1  0.074111  0.720137  0.707419  1
  Tb  Tb15  1  0.928463  0.776739  0.089427  1
  Tb  Tb16  1  0.201990  0.750995  0.971443  1
  Tb  Tb17  1  0.794961  0.244309  0.031169  1
  Tb  Tb18  1  0.706010  0.243398  0.531418  1
  Tb  Tb19  1  0.993834  0.148085  0.639666  1
  Tb  Tb20  1  0.696651  0.757349  0.324747  1
  Tb  Tb21  1  0.199887  0.238591  0.176807  1
  Tb  Tb22  1  0.152115  0.492822  0.342799  1
  Tb  Tb23  1  0.068741  0.219836  0.911974  1
  Cu  Cu24  1  0.344568  0.086254  0.962269  1
  Ru  Ru25  1  0.498499  0.496390  0.502720  1
  Ru  Ru26  1  0.186251  0.899656  0.149634  1
  Ru  Ru27  1  0.854919  0.923874  0.535219  1
  Ru  Ru28  1  0.397226  0.487567  0.100898  1
  Ru  Ru29  1  0.106043  0.479824  0.606770  1
  Ru  Ru30  1  0.650127  0.918008  0.037133  1
  Ru  Ru31  1  0.600570  0.513450  0.897081  1
  Ru  Ru32  1  0.000030  0.498194  0.001077  1
  Ru  Ru33  1  0.682649  0.096719  0.350495  1
  Ru  Ru34  1  0.145577  0.073261  0.465401  1
  Ru  Ru35  1  0.317536  0.904940  0.652596  1
  Ru  Ru36  1  0.897650  0.515589  0.397710  1
  Ru  Ru37  1  0.817289  0.100857  0.849097  1
