# generated using pymatgen
data_Ta6Al3ZnN2
_symmetry_space_group_name_H-M   'P 1'
_cell_length_a   7.03163220
_cell_length_b   7.02898352
_cell_length_c   7.02860200
_cell_angle_alpha   90.00000000
_cell_angle_beta   90.00000000
_cell_angle_gamma   89.99756295
_symmetry_Int_Tables_number   1
_chemical_formula_structural   Ta6Al3ZnN2
_chemical_formula_sum   'Ta12 Al6 Zn2 N4'
_cell_volume   347.39024763
_cell_formula_units_Z   2
loop_
 _symmetry_equiv_pos_site_id
 _symmetry_equiv_pos_as_xyz
  1  'x, y, z'
loop_
 _atom_site_type_symbol
 _atom_site_label
 _atom_site_symmetry_multiplicity
 _atom_site_fract_x
 _atom_site_fract_y
 _atom_site_fract_z
 _atom_site_occupancy
  Ta  Ta0  1  0.792058  0.956353  0.375540  1
  Ta  Ta1  1  0.707942  0.043647  0.875540  1
  Ta  Ta2  1  0.203540  0.455363  0.126909  1
  Ta  Ta3  1  0.296460  0.544637  0.626909  1
  Ta  Ta4  1  0.954328  0.378216  0.793586  1
  Ta  Ta5  1  0.042773  0.870311  0.705787  1
  Ta  Ta6  1  0.457227  0.129689  0.205787  1
  Ta  Ta7  1  0.545672  0.621784  0.293586  1
  Ta  Ta8  1  0.377164  0.793135  0.954054  1
  Ta  Ta9  1  0.871980  0.704985  0.043016  1
  Ta  Ta10  1  0.122836  0.206865  0.454054  1
  Ta  Ta11  1  0.628020  0.295015  0.543016  1
  Al  Al12  1  0.822315  0.321410  0.177477  1
  Al  Al13  1  0.677685  0.678590  0.677477  1
  Al  Al14  1  0.567601  0.423953  0.927016  1
  Al  Al15  1  0.423891  0.930946  0.571719  1
  Al  Al16  1  0.932399  0.576047  0.427016  1
  Al  Al17  1  0.076109  0.069054  0.071719  1
  Zn  Zn18  1  0.181958  0.820857  0.318937  1
  Zn  Zn19  1  0.318042  0.179143  0.818937  1
  N  N20  1  0.878038  0.124275  0.627273  1
  N  N21  1  0.621962  0.875725  0.127273  1
  N  N22  1  0.126484  0.624341  0.878686  1
  N  N23  1  0.373516  0.375659  0.378686  1
