# generated using pymatgen
data_Cs6TbHoBi4
_symmetry_space_group_name_H-M   'P 1'
_cell_length_a   10.71643936
_cell_length_b   10.71644047
_cell_length_c   10.71644000
_cell_angle_alpha   127.13661285
_cell_angle_beta   70.96140503
_cell_angle_gamma   136.26024120
_symmetry_Int_Tables_number   1
_chemical_formula_structural   Cs6TbHoBi4
_chemical_formula_sum   'Cs6 Tb1 Ho1 Bi4'
_cell_volume   664.68456275
_cell_formula_units_Z   1
loop_
 _symmetry_equiv_pos_site_id
 _symmetry_equiv_pos_as_xyz
  1  'x, y, z'
loop_
 _atom_site_type_symbol
 _atom_site_label
 _atom_site_symmetry_multiplicity
 _atom_site_fract_x
 _atom_site_fract_y
 _atom_site_fract_z
 _atom_site_occupancy
  Cs  Cs0  1  0.250000  0.250000  0.000000  1
  Cs  Cs1  1  0.750000  0.750000  0.000000  1
  Cs  Cs2  1  0.315083  0.803048  0.118222  1
  Cs  Cs3  1  0.184917  0.303138  0.487965  1
  Cs  Cs4  1  0.815175  0.696953  0.512036  1
  Cs  Cs5  1  0.684825  0.196861  0.881777  1
  Tb  Tb6  1  0.750000  0.250000  0.500000  1
  Ho  Ho7  1  0.250000  0.749999  0.499999  1
  Bi  Bi8  1  0.906418  0.313033  0.218132  1
  Bi  Bi9  1  0.593582  0.811715  0.406617  1
  Bi  Bi10  1  0.405100  0.186967  0.593383  1
  Bi  Bi11  1  0.094900  0.688285  0.781867  1
