# generated using pymatgen
data_HoTmV3Ni9As7
_symmetry_space_group_name_H-M   'P 1'
_cell_length_a   9.46330100
_cell_length_b   9.46330032
_cell_length_c   3.77396900
_cell_angle_alpha   90.00000000
_cell_angle_beta   90.00000000
_cell_angle_gamma   120.00000586
_symmetry_Int_Tables_number   1
_chemical_formula_structural   HoTmV3Ni9As7
_chemical_formula_sum   'Ho1 Tm1 V3 Ni9 As7'
_cell_volume   292.69426390
_cell_formula_units_Z   1
loop_
 _symmetry_equiv_pos_site_id
 _symmetry_equiv_pos_as_xyz
  1  'x, y, z'
loop_
 _atom_site_type_symbol
 _atom_site_label
 _atom_site_symmetry_multiplicity
 _atom_site_fract_x
 _atom_site_fract_y
 _atom_site_fract_z
 _atom_site_occupancy
  Ho  Ho0  1  0.000000  0.000000  0.500000  1
  Tm  Tm1  1  0.333333  0.666667  0.000000  1
  V  V2  1  0.768713  0.550465  0.500000  1
  V  V3  1  0.449535  0.218247  0.500000  1
  V  V4  1  0.781753  0.231287  0.500000  1
  Ni  Ni5  1  0.288279  0.390004  0.500000  1
  Ni  Ni6  1  0.609996  0.898274  0.500000  1
  Ni  Ni7  1  0.101726  0.711721  0.500000  1
  Ni  Ni8  1  0.513553  0.461474  0.000000  1
  Ni  Ni9  1  0.538526  0.052078  0.000000  1
  Ni  Ni10  1  0.947922  0.486447  0.000000  1
  Ni  Ni11  1  0.727560  0.766953  0.000000  1
  Ni  Ni12  1  0.233047  0.960607  0.000000  1
  Ni  Ni13  1  0.039393  0.272440  0.000000  1
  As  As14  1  0.960626  0.742531  0.000000  1
  As  As15  1  0.257469  0.218095  0.000000  1
  As  As16  1  0.781905  0.039374  0.000000  1
  As  As17  1  0.666667  0.333333  0.000000  1
  As  As18  1  0.552722  0.627764  0.500000  1
  As  As19  1  0.372236  0.924958  0.500000  1
  As  As20  1  0.075042  0.447278  0.500000  1
