# generated using pymatgen
data_Nd8InHg3Au8
_symmetry_space_group_name_H-M   'P 1'
_cell_length_a   8.22771900
_cell_length_b   8.22771900
_cell_length_c   7.64200100
_cell_angle_alpha   90.00000000
_cell_angle_beta   90.00000000
_cell_angle_gamma   90.00000000
_symmetry_Int_Tables_number   1
_chemical_formula_structural   Nd8InHg3Au8
_chemical_formula_sum   'Nd8 In1 Hg3 Au8'
_cell_volume   517.32800838
_cell_formula_units_Z   1
loop_
 _symmetry_equiv_pos_site_id
 _symmetry_equiv_pos_as_xyz
  1  'x, y, z'
loop_
 _atom_site_type_symbol
 _atom_site_label
 _atom_site_symmetry_multiplicity
 _atom_site_fract_x
 _atom_site_fract_y
 _atom_site_fract_z
 _atom_site_occupancy
  Nd  Nd0  1  0.832596  0.163235  0.499708  1
  Nd  Nd1  1  0.167404  0.836765  0.499708  1
  Nd  Nd2  1  0.336765  0.332596  0.000292  1
  Nd  Nd3  1  0.663235  0.667404  0.000292  1
  Nd  Nd4  1  0.680989  0.686046  0.500979  1
  Nd  Nd5  1  0.319011  0.313954  0.500979  1
  Nd  Nd6  1  0.186046  0.819011  0.999021  1
  Nd  Nd7  1  0.813954  0.180989  0.999021  1
  In  In8  1  0.000000  0.500000  0.250000  1
  Hg  Hg9  1  0.500000  0.000000  0.250000  1
  Hg  Hg10  1  0.000000  0.500000  0.750000  1
  Hg  Hg11  1  0.500000  0.000000  0.750000  1
  Au  Au12  1  0.628767  0.377830  0.269297  1
  Au  Au13  1  0.371233  0.622170  0.269297  1
  Au  Au14  1  0.124521  0.125912  0.769333  1
  Au  Au15  1  0.875479  0.874088  0.769333  1
  Au  Au16  1  0.374088  0.624521  0.730667  1
  Au  Au17  1  0.625912  0.375479  0.730667  1
  Au  Au18  1  0.877830  0.871233  0.230703  1
  Au  Au19  1  0.122170  0.128767  0.230703  1
