# generated using pymatgen
data_Sm2NiP4Rh3
_symmetry_space_group_name_H-M   'P 1'
_cell_length_a   4.11294300
_cell_length_b   4.11294300
_cell_length_c   9.48814700
_cell_angle_alpha   90.00000000
_cell_angle_beta   90.00000000
_cell_angle_gamma   90.00000000
_symmetry_Int_Tables_number   1
_chemical_formula_structural   Sm2NiP4Rh3
_chemical_formula_sum   'Sm2 Ni1 P4 Rh3'
_cell_volume   160.50434225
_cell_formula_units_Z   1
loop_
 _symmetry_equiv_pos_site_id
 _symmetry_equiv_pos_as_xyz
  1  'x, y, z'
loop_
 _atom_site_type_symbol
 _atom_site_label
 _atom_site_symmetry_multiplicity
 _atom_site_fract_x
 _atom_site_fract_y
 _atom_site_fract_z
 _atom_site_occupancy
  Sm  Sm0  1  0.500000  0.000000  0.737264  1
  Sm  Sm1  1  0.000000  0.500000  0.257400  1
  Ni  Ni2  1  0.000000  0.500000  0.616403  1
  P  P3  1  0.500000  0.500000  0.507412  1
  P  P4  1  0.500000  0.000000  0.138369  1
  P  P5  1  0.000000  0.000000  0.507412  1
  P  P6  1  0.000000  0.500000  0.855810  1
  Rh  Rh7  1  0.500000  0.000000  0.389373  1
  Rh  Rh8  1  0.000000  0.000000  0.995278  1
  Rh  Rh9  1  0.500000  0.500000  0.995278  1
