# generated using pymatgen
data_Al6Pd3Pt7
_symmetry_space_group_name_H-M   'P 1'
_cell_length_a   4.08131800
_cell_length_b   5.44099017
_cell_length_c   10.72509177
_cell_angle_alpha   88.95869820
_cell_angle_beta   90.00000000
_cell_angle_gamma   90.00000000
_symmetry_Int_Tables_number   1
_chemical_formula_structural   Al6Pd3Pt7
_chemical_formula_sum   'Al6 Pd3 Pt7'
_cell_volume   238.12646521
_cell_formula_units_Z   1
loop_
 _symmetry_equiv_pos_site_id
 _symmetry_equiv_pos_as_xyz
  1  'x, y, z'
loop_
 _atom_site_type_symbol
 _atom_site_label
 _atom_site_symmetry_multiplicity
 _atom_site_fract_x
 _atom_site_fract_y
 _atom_site_fract_z
 _atom_site_occupancy
  Al  Al0  1  0.000000  0.998691  0.998936  1
  Al  Al1  1  0.000000  0.497154  0.500148  1
  Al  Al2  1  0.500000  0.166856  0.359015  1
  Al  Al3  1  0.500000  0.837560  0.642758  1
  Al  Al4  1  0.500000  0.666874  0.141675  1
  Al  Al5  1  0.500000  0.332720  0.857821  1
  Pd  Pd6  1  0.000000  0.994703  0.502038  1
  Pd  Pd7  1  0.000000  0.497769  0.998535  1
  Pd  Pd8  1  0.000000  0.592759  0.730899  1
  Pt  Pt9  1  0.500000  0.195134  0.104841  1
  Pt  Pt10  1  0.500000  0.804829  0.893962  1
  Pt  Pt11  1  0.500000  0.694173  0.394820  1
  Pt  Pt12  1  0.500000  0.310497  0.605522  1
  Pt  Pt13  1  0.000000  0.909948  0.231798  1
  Pt  Pt14  1  0.000000  0.091743  0.767417  1
  Pt  Pt15  1  0.000000  0.408591  0.269815  1
