# generated using pymatgen
data_Ho2Ir3W
_symmetry_space_group_name_H-M   'P 1'
_cell_length_a   5.57279015
_cell_length_b   5.57279023
_cell_length_c   5.22621462
_cell_angle_alpha   57.78095632
_cell_angle_beta   57.78094881
_cell_angle_gamma   59.99998907
_symmetry_Int_Tables_number   1
_chemical_formula_structural   Ho2Ir3W
_chemical_formula_sum   'Ho2 Ir3 W1'
_cell_volume   110.76582098
_cell_formula_units_Z   1
loop_
 _symmetry_equiv_pos_site_id
 _symmetry_equiv_pos_as_xyz
  1  'x, y, z'
loop_
 _atom_site_type_symbol
 _atom_site_label
 _atom_site_symmetry_multiplicity
 _atom_site_fract_x
 _atom_site_fract_y
 _atom_site_fract_z
 _atom_site_occupancy
  Ho  Ho0  1  0.499074  0.499074  0.502780  1
  Ho  Ho1  1  0.750926  0.750926  0.747220  1
  Ir  Ir2  1  0.625000  0.125000  0.125000  1
  Ir  Ir3  1  0.125000  0.125000  0.125000  1
  Ir  Ir4  1  0.125000  0.625000  0.125000  1
  W  W5  1  0.125000  0.125000  0.625000  1
