# generated using pymatgen
data_Zr4TeI11
_symmetry_space_group_name_H-M   'P 1'
_cell_length_a   6.68431100
_cell_length_b   8.00996813
_cell_length_c   13.96816703
_cell_angle_alpha   90.06137457
_cell_angle_beta   90.00000000
_cell_angle_gamma   90.00000000
_symmetry_Int_Tables_number   1
_chemical_formula_structural   Zr4TeI11
_chemical_formula_sum   'Zr4 Te1 I11'
_cell_volume   747.87085161
_cell_formula_units_Z   1
loop_
 _symmetry_equiv_pos_site_id
 _symmetry_equiv_pos_as_xyz
  1  'x, y, z'
loop_
 _atom_site_type_symbol
 _atom_site_label
 _atom_site_symmetry_multiplicity
 _atom_site_fract_x
 _atom_site_fract_y
 _atom_site_fract_z
 _atom_site_occupancy
  Zr  Zr0  1  0.239149  0.747224  0.505090  1
  Zr  Zr1  1  0.760851  0.747224  0.505090  1
  Zr  Zr2  1  0.254881  0.247823  0.999822  1
  Zr  Zr3  1  0.745119  0.247823  0.999822  1
  Te  Te4  1  0.000000  0.603897  0.647234  1
  I  I5  1  0.000000  0.052836  0.494112  1
  I  I6  1  0.000000  0.098923  0.851214  1
  I  I7  1  0.000000  0.099418  0.148355  1
  I  I8  1  0.500000  0.897737  0.354898  1
  I  I9  1  0.500000  0.398104  0.149937  1
  I  I10  1  0.500000  0.452536  0.498513  1
  I  I11  1  0.500000  0.904160  0.648468  1
  I  I12  1  0.500000  0.398083  0.850216  1
  I  I13  1  0.500000  0.946268  0.999978  1
  I  I14  1  0.000000  0.546583  0.999861  1
  I  I15  1  0.000000  0.611361  0.347392  1
