# generated using pymatgen
data_Cd3B2Rh5
_symmetry_space_group_name_H-M   'P 1'
_cell_length_a   9.88188500
_cell_length_b   9.88188500
_cell_length_c   2.94358500
_cell_angle_alpha   90.00000000
_cell_angle_beta   90.00000000
_cell_angle_gamma   90.00000000
_symmetry_Int_Tables_number   1
_chemical_formula_structural   Cd3B2Rh5
_chemical_formula_sum   'Cd6 B4 Rh10'
_cell_volume   287.44593556
_cell_formula_units_Z   2
loop_
 _symmetry_equiv_pos_site_id
 _symmetry_equiv_pos_as_xyz
  1  'x, y, z'
loop_
 _atom_site_type_symbol
 _atom_site_label
 _atom_site_symmetry_multiplicity
 _atom_site_fract_x
 _atom_site_fract_y
 _atom_site_fract_z
 _atom_site_occupancy
  Cd  Cd0  1  0.678675  0.178675  0.000000  1
  Cd  Cd1  1  0.321325  0.821325  0.000000  1
  Cd  Cd2  1  0.178675  0.321325  0.000000  1
  Cd  Cd3  1  0.821325  0.678675  0.000000  1
  Cd  Cd4  1  0.000000  0.000000  0.000000  1
  Cd  Cd5  1  0.500000  0.500000  0.000000  1
  B  B6  1  0.122876  0.622876  0.000000  1
  B  B7  1  0.877124  0.377124  0.000000  1
  B  B8  1  0.622876  0.877124  0.000000  1
  B  B9  1  0.377124  0.122876  0.000000  1
  Rh  Rh10  1  0.500000  0.000000  0.500000  1
  Rh  Rh11  1  0.000000  0.500000  0.500000  1
  Rh  Rh12  1  0.229081  0.069482  0.500000  1
  Rh  Rh13  1  0.770919  0.930518  0.500000  1
  Rh  Rh14  1  0.069482  0.770919  0.500000  1
  Rh  Rh15  1  0.729081  0.430518  0.500000  1
  Rh  Rh16  1  0.930518  0.229081  0.500000  1
  Rh  Rh17  1  0.270919  0.569482  0.500000  1
  Rh  Rh18  1  0.569482  0.729081  0.500000  1
  Rh  Rh19  1  0.430518  0.270919  0.500000  1
