# generated using pymatgen
data_KDy(NbCl3)6
_symmetry_space_group_name_H-M   'P 1'
_cell_length_a   10.21890857
_cell_length_b   10.21890799
_cell_length_c   10.21890762
_cell_angle_alpha   55.38626399
_cell_angle_beta   55.38626704
_cell_angle_gamma   55.38627101
_symmetry_Int_Tables_number   1
_chemical_formula_structural   KDy(NbCl3)6
_chemical_formula_sum   'K1 Dy1 Nb6 Cl18'
_cell_volume   673.69751891
_cell_formula_units_Z   1
loop_
 _symmetry_equiv_pos_site_id
 _symmetry_equiv_pos_as_xyz
  1  'x, y, z'
loop_
 _atom_site_type_symbol
 _atom_site_label
 _atom_site_symmetry_multiplicity
 _atom_site_fract_x
 _atom_site_fract_y
 _atom_site_fract_z
 _atom_site_occupancy
  K  K0  1  0.221269  0.221269  0.221269  1
  Dy  Dy1  1  0.498586  0.498586  0.498586  1
  Nb  Nb2  1  0.800507  0.149148  0.912250  1
  Nb  Nb3  1  0.912250  0.800507  0.149148  1
  Nb  Nb4  1  0.149148  0.912250  0.800507  1
  Nb  Nb5  1  0.200520  0.851138  0.086895  1
  Nb  Nb6  1  0.086895  0.200520  0.851138  1
  Nb  Nb7  1  0.851138  0.086895  0.200520  1
  Cl  Cl8  1  0.863688  0.412783  0.726391  1
  Cl  Cl9  1  0.726391  0.863688  0.412783  1
  Cl  Cl10  1  0.412783  0.726391  0.863688  1
  Cl  Cl11  1  0.136038  0.586533  0.274946  1
  Cl  Cl12  1  0.274946  0.136038  0.586533  1
  Cl  Cl13  1  0.586533  0.274946  0.136038  1
  Cl  Cl14  1  0.532038  0.342155  0.803805  1
  Cl  Cl15  1  0.803805  0.532038  0.342155  1
  Cl  Cl16  1  0.342155  0.803805  0.532038  1
  Cl  Cl17  1  0.462710  0.659430  0.200085  1
  Cl  Cl18  1  0.200085  0.462710  0.659430  1
  Cl  Cl19  1  0.659430  0.200085  0.462710  1
  Cl  Cl20  1  0.661348  0.939428  0.072016  1
  Cl  Cl21  1  0.072016  0.661348  0.939428  1
  Cl  Cl22  1  0.939428  0.072016  0.661348  1
  Cl  Cl23  1  0.339146  0.061031  0.927257  1
  Cl  Cl24  1  0.927257  0.339146  0.061031  1
  Cl  Cl25  1  0.061031  0.927257  0.339146  1
