# generated using pymatgen
data_Sm3Er2P12Pd3Ru16
_symmetry_space_group_name_H-M   'P 1'
_cell_length_a   12.64218600
_cell_length_b   12.64218580
_cell_length_c   3.99113700
_cell_angle_alpha   90.00000000
_cell_angle_beta   90.00000000
_cell_angle_gamma   120.00000053
_symmetry_Int_Tables_number   1
_chemical_formula_structural   Sm3Er2P12Pd3Ru16
_chemical_formula_sum   'Sm3 Er2 P12 Pd3 Ru16'
_cell_volume   552.42281849
_cell_formula_units_Z   1
loop_
 _symmetry_equiv_pos_site_id
 _symmetry_equiv_pos_as_xyz
  1  'x, y, z'
loop_
 _atom_site_type_symbol
 _atom_site_label
 _atom_site_symmetry_multiplicity
 _atom_site_fract_x
 _atom_site_fract_y
 _atom_site_fract_z
 _atom_site_occupancy
  Sm  Sm0  1  0.181981  0.181981  0.500000  1
  Sm  Sm1  1  0.818019  0.000000  0.500000  1
  Sm  Sm2  1  0.000000  0.818019  0.500000  1
  Er  Er3  1  0.333333  0.666667  0.000000  1
  Er  Er4  1  0.666667  0.333333  0.000000  1
  P  P5  1  0.811754  0.811754  0.000000  1
  P  P6  1  0.188246  0.000000  0.000000  1
  P  P7  1  0.000000  0.188246  0.000000  1
  P  P8  1  0.180607  0.481387  0.500000  1
  P  P9  1  0.518613  0.699220  0.500000  1
  P  P10  1  0.300780  0.819393  0.500000  1
  P  P11  1  0.699220  0.518613  0.500000  1
  P  P12  1  0.819393  0.300780  0.500000  1
  P  P13  1  0.481387  0.180607  0.500000  1
  P  P14  1  0.368091  0.368091  0.000000  1
  P  P15  1  0.631909  0.000000  0.000000  1
  P  P16  1  0.000000  0.631909  0.000000  1
  Pd  Pd17  1  0.553393  0.553393  0.000000  1
  Pd  Pd18  1  0.446607  0.000000  0.000000  1
  Pd  Pd19  1  0.000000  0.446607  0.000000  1
  Ru  Ru20  1  0.710325  0.710325  0.500000  1
  Ru  Ru21  1  0.289675  0.000000  0.500000  1
  Ru  Ru22  1  0.000000  0.289675  0.500000  1
  Ru  Ru23  1  0.186522  0.381684  0.000000  1
  Ru  Ru24  1  0.618316  0.804838  0.000000  1
  Ru  Ru25  1  0.195162  0.813478  0.000000  1
  Ru  Ru26  1  0.804838  0.618316  0.000000  1
  Ru  Ru27  1  0.813478  0.195162  0.000000  1
  Ru  Ru28  1  0.381684  0.186522  0.000000  1
  Ru  Ru29  1  0.369754  0.494228  0.500000  1
  Ru  Ru30  1  0.505772  0.875527  0.500000  1
  Ru  Ru31  1  0.124473  0.630246  0.500000  1
  Ru  Ru32  1  0.875527  0.505772  0.500000  1
  Ru  Ru33  1  0.630246  0.124473  0.500000  1
  Ru  Ru34  1  0.494228  0.369754  0.500000  1
  Ru  Ru35  1  0.000000  0.000000  0.000000  1
