# generated using pymatgen
data_NdZnGeH
_symmetry_space_group_name_H-M   'P 1'
_cell_length_a   4.22368700
_cell_length_b   4.22370296
_cell_length_c   8.75391000
_cell_angle_alpha   90.00001421
_cell_angle_beta   89.99961458
_cell_angle_gamma   60.00010683
_symmetry_Int_Tables_number   1
_chemical_formula_structural   NdZnGeH
_chemical_formula_sum   'Nd2 Zn2 Ge2 H2'
_cell_volume   135.24408237
_cell_formula_units_Z   2
loop_
 _symmetry_equiv_pos_site_id
 _symmetry_equiv_pos_as_xyz
  1  'x, y, z'
loop_
 _atom_site_type_symbol
 _atom_site_label
 _atom_site_symmetry_multiplicity
 _atom_site_fract_x
 _atom_site_fract_y
 _atom_site_fract_z
 _atom_site_occupancy
  Nd  Nd0  1  0.000000  0.000000  0.500000  1
  Nd  Nd1  1  0.000000  0.000000  0.000000  1
  Zn  Zn2  1  0.333330  0.333335  0.757387  1
  Zn  Zn3  1  0.666670  0.666665  0.242613  1
  Ge  Ge4  1  0.333336  0.333332  0.287042  1
  Ge  Ge5  1  0.666664  0.666668  0.712958  1
  H  H6  1  0.333339  0.333331  0.959712  1
  H  H7  1  0.666661  0.666669  0.040288  1
