# generated using pymatgen
data_Yb2Y6Cu3Si12Pt
_symmetry_space_group_name_H-M   'P 1'
_cell_length_a   8.09912400
_cell_length_b   8.02837376
_cell_length_c   8.19211401
_cell_angle_alpha   89.99762748
_cell_angle_beta   90.00000000
_cell_angle_gamma   120.29193839
_symmetry_Int_Tables_number   1
_chemical_formula_structural   Yb2Y6Cu3Si12Pt
_chemical_formula_sum   'Yb2 Y6 Cu3 Si12 Pt1'
_cell_volume   459.94629632
_cell_formula_units_Z   1
loop_
 _symmetry_equiv_pos_site_id
 _symmetry_equiv_pos_as_xyz
  1  'x, y, z'
loop_
 _atom_site_type_symbol
 _atom_site_label
 _atom_site_symmetry_multiplicity
 _atom_site_fract_x
 _atom_site_fract_y
 _atom_site_fract_z
 _atom_site_occupancy
  Yb  Yb0  1  0.500114  0.000228  0.250132  1
  Yb  Yb1  1  0.499892  0.999784  0.749888  1
  Y  Y2  1  0.999989  0.500040  0.250459  1
  Y  Y3  1  0.000307  0.500208  0.749559  1
  Y  Y4  1  0.500052  0.500040  0.250459  1
  Y  Y5  1  0.499902  0.500208  0.749559  1
  Y  Y6  1  0.000270  0.000541  0.248954  1
  Y  Y7  1  0.000266  0.000532  0.751044  1
  Cu  Cu8  1  0.335546  0.671092  0.000281  1
  Cu  Cu9  1  0.664212  0.328423  0.999484  1
  Cu  Cu10  1  0.665392  0.330782  0.500291  1
  Si  Si11  1  0.170438  0.340876  0.999990  1
  Si  Si12  1  0.829990  0.659978  0.000018  1
  Si  Si13  1  0.663874  0.829683  0.000043  1
  Si  Si14  1  0.830782  0.661563  0.500112  1
  Si  Si15  1  0.335101  0.169856  0.999966  1
  Si  Si16  1  0.165594  0.331187  0.499886  1
  Si  Si17  1  0.165810  0.829683  0.000043  1
  Si  Si18  1  0.336294  0.169709  0.500145  1
  Si  Si19  1  0.834756  0.169856  0.999966  1
  Si  Si20  1  0.669230  0.833497  0.499867  1
  Si  Si21  1  0.833417  0.169709  0.500145  1
  Si  Si22  1  0.164268  0.833497  0.499867  1
  Pt  Pt23  1  0.334510  0.669021  0.499840  1
