# generated using pymatgen
data_Dy5Hf2P12Ir9Rh8
_symmetry_space_group_name_H-M   'P 1'
_cell_length_a   12.69213205
_cell_length_b   12.87884330
_cell_length_c   3.94902900
_cell_angle_alpha   90.00000000
_cell_angle_beta   90.00000000
_cell_angle_gamma   119.51166831
_symmetry_Int_Tables_number   1
_chemical_formula_structural   Dy5Hf2P12Ir9Rh8
_chemical_formula_sum   'Dy5 Hf2 P12 Ir9 Rh8'
_cell_volume   561.75699456
_cell_formula_units_Z   1
loop_
 _symmetry_equiv_pos_site_id
 _symmetry_equiv_pos_as_xyz
  1  'x, y, z'
loop_
 _atom_site_type_symbol
 _atom_site_label
 _atom_site_symmetry_multiplicity
 _atom_site_fract_x
 _atom_site_fract_y
 _atom_site_fract_z
 _atom_site_occupancy
  Dy  Dy0  1  0.329885  0.661906  0.500000  1
  Dy  Dy1  1  0.667714  0.337825  0.500000  1
  Dy  Dy2  1  0.000076  0.813511  0.000000  1
  Dy  Dy3  1  0.186137  0.185946  0.000000  1
  Dy  Dy4  1  0.810487  0.000633  0.000000  1
  Hf  Hf5  1  0.998017  0.446082  0.500000  1
  Hf  Hf6  1  0.551890  0.554385  0.500000  1
  P  P7  1  0.004984  0.649833  0.500000  1
  P  P8  1  0.354999  0.349967  0.500000  1
  P  P9  1  0.640085  0.000015  0.500000  1
  P  P10  1  0.515745  0.686760  0.000000  1
  P  P11  1  0.312341  0.827617  0.000000  1
  P  P12  1  0.165026  0.481885  0.000000  1
  P  P13  1  0.484773  0.171650  0.000000  1
  P  P14  1  0.683282  0.518380  0.000000  1
  P  P15  1  0.829193  0.313741  0.000000  1
  P  P16  1  0.999136  0.173927  0.500000  1
  P  P17  1  0.825649  0.826029  0.500000  1
  P  P18  1  0.182269  0.998741  0.500000  1
  Ir  Ir19  1  0.126045  0.643782  0.000000  1
  Ir  Ir20  1  0.356442  0.494117  0.000000  1
  Ir  Ir21  1  0.482258  0.355647  0.000000  1
  Ir  Ir22  1  0.861543  0.505528  0.000000  1
  Ir  Ir23  1  0.643236  0.135434  0.000000  1
  Ir  Ir24  1  0.997028  0.277695  0.000000  1
  Ir  Ir25  1  0.719438  0.722189  0.000000  1
  Ir  Ir26  1  0.287729  0.000199  0.000000  1
  Ir  Ir27  1  0.004897  0.000375  0.500000  1
  Rh  Rh28  1  0.506234  0.863967  0.000000  1
  Rh  Rh29  1  0.461025  0.002791  0.500000  1
  Rh  Rh30  1  0.625123  0.807740  0.500000  1
  Rh  Rh31  1  0.203848  0.824592  0.500000  1
  Rh  Rh32  1  0.177881  0.368748  0.500000  1
  Rh  Rh33  1  0.378893  0.174825  0.500000  1
  Rh  Rh34  1  0.808742  0.631049  0.500000  1
  Rh  Rh35  1  0.817954  0.192490  0.500000  1
