# generated using pymatgen
data_Ho3ErGa18Co5Ni
_symmetry_space_group_name_H-M   'P 1'
_cell_length_a   7.38439850
_cell_length_b   7.38486910
_cell_length_c   9.39225703
_cell_angle_alpha   89.94761272
_cell_angle_beta   89.94619787
_cell_angle_gamma   119.87598912
_symmetry_Int_Tables_number   1
_chemical_formula_structural   Ho3ErGa18Co5Ni
_chemical_formula_sum   'Ho3 Er1 Ga18 Co5 Ni1'
_cell_volume   444.11877301
_cell_formula_units_Z   1
loop_
 _symmetry_equiv_pos_site_id
 _symmetry_equiv_pos_as_xyz
  1  'x, y, z'
loop_
 _atom_site_type_symbol
 _atom_site_label
 _atom_site_symmetry_multiplicity
 _atom_site_fract_x
 _atom_site_fract_y
 _atom_site_fract_z
 _atom_site_occupancy
  Ho  Ho0  1  0.502807  0.831573  0.750434  1
  Ho  Ho1  1  0.497215  0.168434  0.249564  1
  Ho  Ho2  1  0.168415  0.497203  0.249564  1
  Er  Er3  1  0.831583  0.502786  0.750500  1
  Ga  Ga4  1  0.163561  0.948427  0.750088  1
  Ga  Ga5  1  0.836302  0.051369  0.249918  1
  Ga  Ga6  1  0.051364  0.836293  0.249912  1
  Ga  Ga7  1  0.948567  0.163804  0.750080  1
  Ga  Ga8  1  0.620948  0.620939  0.248888  1
  Ga  Ga9  1  0.379252  0.379138  0.751109  1
  Ga  Ga10  1  0.167002  0.166995  0.058545  1
  Ga  Ga11  1  0.834838  0.834710  0.559345  1
  Ga  Ga12  1  0.833011  0.832871  0.941368  1
  Ga  Ga13  1  0.165173  0.165172  0.440728  1
  Ga  Ga14  1  0.499056  0.834147  0.072707  1
  Ga  Ga15  1  0.501109  0.164599  0.573700  1
  Ga  Ga16  1  0.165700  0.500938  0.927218  1
  Ga  Ga17  1  0.835550  0.499028  0.426475  1
  Ga  Ga18  1  0.501079  0.166001  0.927215  1
  Ga  Ga19  1  0.499038  0.835550  0.426363  1
  Ga  Ga20  1  0.834153  0.499066  0.072592  1
  Ga  Ga21  1  0.164293  0.500959  0.573706  1
  Co  Co22  1  0.171105  0.828852  0.999950  1
  Co  Co23  1  0.500029  0.500018  0.999952  1
  Co  Co24  1  0.828910  0.171082  0.500044  1
  Co  Co25  1  0.828863  0.171134  0.999952  1
  Co  Co26  1  0.171055  0.828897  0.500048  1
  Ni  Ni27  1  0.500023  0.500013  0.500033  1
