# generated using pymatgen
data_Ac5Nd3(As7Ir8)2
_symmetry_space_group_name_H-M   'P 1'
_cell_length_a   4.20582100
_cell_length_b   13.49897834
_cell_length_c   13.78154300
_cell_angle_alpha   98.29182782
_cell_angle_beta   90.00000000
_cell_angle_gamma   90.00000000
_symmetry_Int_Tables_number   1
_chemical_formula_structural   Ac5Nd3(As7Ir8)2
_chemical_formula_sum   'Ac5 Nd3 As14 Ir16'
_cell_volume   774.25796120
_cell_formula_units_Z   1
loop_
 _symmetry_equiv_pos_site_id
 _symmetry_equiv_pos_as_xyz
  1  'x, y, z'
loop_
 _atom_site_type_symbol
 _atom_site_label
 _atom_site_symmetry_multiplicity
 _atom_site_fract_x
 _atom_site_fract_y
 _atom_site_fract_z
 _atom_site_occupancy
  Ac  Ac0  1  0.250000  0.483596  0.292729  1
  Ac  Ac1  1  0.750000  0.285811  0.893189  1
  Ac  Ac2  1  0.250000  0.714812  0.105270  1
  Ac  Ac3  1  0.750000  0.100552  0.207233  1
  Ac  Ac4  1  0.250000  0.898873  0.792236  1
  Nd  Nd5  1  0.750000  0.206941  0.559660  1
  Nd  Nd6  1  0.250000  0.793641  0.441973  1
  Nd  Nd7  1  0.750000  0.518892  0.705295  1
  As  As8  1  0.750000  0.743035  0.915508  1
  As  As9  1  0.250000  0.256916  0.084028  1
  As  As10  1  0.750000  0.905709  0.586584  1
  As  As11  1  0.250000  0.093571  0.414714  1
  As  As12  1  0.750000  0.526382  0.123912  1
  As  As13  1  0.250000  0.473471  0.870034  1
  As  As14  1  0.750000  0.846698  0.282708  1
  As  As15  1  0.250000  0.154088  0.716947  1
  As  As16  1  0.750000  0.609222  0.437830  1
  As  As17  1  0.250000  0.392920  0.566734  1
  As  As18  1  0.750000  0.311926  0.316884  1
  As  As19  1  0.250000  0.684899  0.686530  1
  As  As20  1  0.750000  0.058277  0.902266  1
  As  As21  1  0.250000  0.941684  0.097372  1
  Ir  Ir22  1  0.750000  0.343891  0.138369  1
  Ir  Ir23  1  0.250000  0.655006  0.859760  1
  Ir  Ir24  1  0.750000  0.722378  0.598748  1
  Ir  Ir25  1  0.250000  0.277157  0.405154  1
  Ir  Ir26  1  0.750000  0.919259  0.000195  1
  Ir  Ir27  1  0.250000  0.080621  0.999504  1
  Ir  Ir28  1  0.750000  0.425316  0.477231  1
  Ir  Ir29  1  0.250000  0.574476  0.527651  1
  Ir  Ir30  1  0.750000  0.057021  0.719003  1
  Ir  Ir31  1  0.250000  0.943020  0.280959  1
  Ir  Ir32  1  0.750000  0.553101  0.949775  1
  Ir  Ir33  1  0.250000  0.446697  0.045209  1
  Ir  Ir34  1  0.750000  0.663750  0.266637  1
  Ir  Ir35  1  0.250000  0.337159  0.731676  1
  Ir  Ir36  1  0.750000  0.988150  0.426645  1
  Ir  Ir37  1  0.250000  0.011080  0.573848  1
