# generated using pymatgen
data_La9Nd3(PtBr3)4
_symmetry_space_group_name_H-M   'P 1'
_cell_length_a   10.67705021
_cell_length_b   10.66968334
_cell_length_c   10.70877965
_cell_angle_alpha   109.82549739
_cell_angle_beta   109.39170244
_cell_angle_gamma   109.24284364
_symmetry_Int_Tables_number   1
_chemical_formula_structural   La9Nd3(PtBr3)4
_chemical_formula_sum   'La9 Nd3 Pt4 Br12'
_cell_volume   938.56199165
_cell_formula_units_Z   1
loop_
 _symmetry_equiv_pos_site_id
 _symmetry_equiv_pos_as_xyz
  1  'x, y, z'
loop_
 _atom_site_type_symbol
 _atom_site_label
 _atom_site_symmetry_multiplicity
 _atom_site_fract_x
 _atom_site_fract_y
 _atom_site_fract_z
 _atom_site_occupancy
  La  La0  1  0.238746  0.474047  0.484500  1
  La  La1  1  0.264144  0.747941  0.235029  1
  La  La2  1  0.028714  0.264357  0.014357  1
  La  La3  1  0.010174  0.028414  0.267536  1
  La  La4  1  0.486954  0.750612  0.015677  1
  La  La5  1  0.486954  0.236343  0.471276  1
  La  La6  1  0.010174  0.481761  0.742638  1
  La  La7  1  0.264144  0.016203  0.029117  1
  La  La8  1  0.238746  0.264698  0.754246  1
  Nd  Nd9  1  0.471201  0.485601  0.235601  1
  Nd  Nd10  1  0.748829  0.233460  0.265923  1
  Nd  Nd11  1  0.748829  0.015371  0.482907  1
  Pt  Pt12  1  0.250392  0.250273  0.250893  1
  Pt  Pt13  1  0.498715  0.999358  0.249358  1
  Pt  Pt14  1  0.002376  0.251188  0.501188  1
  Pt  Pt15  1  0.250392  0.500119  0.999499  1
  Br  Br16  1  0.250540  0.754968  0.745501  1
  Br  Br17  1  0.510153  0.505076  0.755076  1
  Br  Br18  1  0.990799  0.745400  0.995400  1
  Br  Br19  1  0.744288  0.244730  0.751129  1
  Br  Br20  1  0.991716  0.990780  0.742334  1
  Br  Br21  1  0.250540  0.995571  0.505039  1
  Br  Br22  1  0.751919  0.506848  0.496161  1
  Br  Br23  1  0.511317  0.256149  0.004716  1
  Br  Br24  1  0.751919  0.745071  0.255756  1
  Br  Br25  1  0.744288  0.999558  0.993160  1
  Br  Br26  1  0.991716  0.500937  0.249382  1
  Br  Br27  1  0.511317  0.755169  0.506601  1
