# generated using pymatgen
data_MgTi4Pt15
_symmetry_space_group_name_H-M   'P 1'
_cell_length_a   3.91672600
_cell_length_b   3.91672600
_cell_length_c   19.62899400
_cell_angle_alpha   90.00000000
_cell_angle_beta   90.00000000
_cell_angle_gamma   90.00000000
_symmetry_Int_Tables_number   1
_chemical_formula_structural   MgTi4Pt15
_chemical_formula_sum   'Mg1 Ti4 Pt15'
_cell_volume   301.12334365
_cell_formula_units_Z   1
loop_
 _symmetry_equiv_pos_site_id
 _symmetry_equiv_pos_as_xyz
  1  'x, y, z'
loop_
 _atom_site_type_symbol
 _atom_site_label
 _atom_site_symmetry_multiplicity
 _atom_site_fract_x
 _atom_site_fract_y
 _atom_site_fract_z
 _atom_site_occupancy
  Mg  Mg0  1  0.000000  0.000000  0.000000  1
  Ti  Ti1  1  0.000000  0.000000  0.195111  1
  Ti  Ti2  1  0.000000  0.000000  0.398310  1
  Ti  Ti3  1  0.000000  0.000000  0.601690  1
  Ti  Ti4  1  0.000000  0.000000  0.804889  1
  Pt  Pt5  1  0.500000  0.500000  0.000000  1
  Pt  Pt6  1  0.500000  0.500000  0.201063  1
  Pt  Pt7  1  0.500000  0.500000  0.399992  1
  Pt  Pt8  1  0.500000  0.500000  0.600008  1
  Pt  Pt9  1  0.500000  0.500000  0.798937  1
  Pt  Pt10  1  0.500000  0.000000  0.102411  1
  Pt  Pt11  1  0.500000  0.000000  0.300385  1
  Pt  Pt12  1  0.500000  0.000000  0.500000  1
  Pt  Pt13  1  0.500000  0.000000  0.699615  1
  Pt  Pt14  1  0.500000  0.000000  0.897589  1
  Pt  Pt15  1  0.000000  0.500000  0.102411  1
  Pt  Pt16  1  0.000000  0.500000  0.300385  1
  Pt  Pt17  1  0.000000  0.500000  0.500000  1
  Pt  Pt18  1  0.000000  0.500000  0.699615  1
  Pt  Pt19  1  0.000000  0.500000  0.897589  1
