# generated using pymatgen
data_Li2LaPrSi2Sn
_symmetry_space_group_name_H-M   'P 1'
_cell_length_a   9.88637315
_cell_length_b   9.88637387
_cell_length_c   6.94610300
_cell_angle_alpha   90.00000000
_cell_angle_beta   90.00000000
_cell_angle_gamma   153.06464596
_symmetry_Int_Tables_number   1
_chemical_formula_structural   Li2LaPrSi2Sn
_chemical_formula_sum   'Li4 La2 Pr2 Si4 Sn2'
_cell_volume   307.53813378
_cell_formula_units_Z   2
loop_
 _symmetry_equiv_pos_site_id
 _symmetry_equiv_pos_as_xyz
  1  'x, y, z'
loop_
 _atom_site_type_symbol
 _atom_site_label
 _atom_site_symmetry_multiplicity
 _atom_site_fract_x
 _atom_site_fract_y
 _atom_site_fract_z
 _atom_site_occupancy
  Li  Li0  1  0.815725  0.184275  0.554867  1
  Li  Li1  1  0.184275  0.815725  0.445133  1
  Li  Li2  1  0.184275  0.815725  0.054867  1
  Li  Li3  1  0.815725  0.184275  0.945133  1
  La  La4  1  0.548459  0.451541  0.250000  1
  La  La5  1  0.451541  0.548459  0.750000  1
  Pr  Pr6  1  0.349474  0.650526  0.250000  1
  Pr  Pr7  1  0.650526  0.349474  0.750000  1
  Si  Si8  1  0.943533  0.056467  0.075563  1
  Si  Si9  1  0.056467  0.943533  0.924437  1
  Si  Si10  1  0.056467  0.943533  0.575563  1
  Si  Si11  1  0.943533  0.056467  0.424437  1
  Sn  Sn12  1  0.719419  0.280581  0.250000  1
  Sn  Sn13  1  0.280581  0.719419  0.750000  1
