# generated using pymatgen
data_Ho5In4CoNi
_symmetry_space_group_name_H-M   'P 1'
_cell_length_a   8.00186155
_cell_length_b   17.91077122
_cell_length_c   3.57189200
_cell_angle_alpha   90.00000000
_cell_angle_beta   90.00000000
_cell_angle_gamma   90.04226862
_symmetry_Int_Tables_number   1
_chemical_formula_structural   Ho5In4CoNi
_chemical_formula_sum   'Ho10 In8 Co2 Ni2'
_cell_volume   511.92167706
_cell_formula_units_Z   2
loop_
 _symmetry_equiv_pos_site_id
 _symmetry_equiv_pos_as_xyz
  1  'x, y, z'
loop_
 _atom_site_type_symbol
 _atom_site_label
 _atom_site_symmetry_multiplicity
 _atom_site_fract_x
 _atom_site_fract_y
 _atom_site_fract_z
 _atom_site_occupancy
  Ho  Ho0  1  0.500000  0.500000  0.000000  1
  Ho  Ho1  1  0.000000  0.000000  0.000000  1
  Ho  Ho2  1  0.742995  0.277375  0.000000  1
  Ho  Ho3  1  0.257005  0.722625  0.000000  1
  Ho  Ho4  1  0.744131  0.778721  0.000000  1
  Ho  Ho5  1  0.255869  0.221279  0.000000  1
  Ho  Ho6  1  0.616713  0.090277  0.000000  1
  Ho  Ho7  1  0.383287  0.909723  0.000000  1
  Ho  Ho8  1  0.881664  0.589675  0.000000  1
  Ho  Ho9  1  0.118336  0.410325  0.000000  1
  In  In10  1  0.703350  0.931126  0.500000  1
  In  In11  1  0.296650  0.068874  0.500000  1
  In  In12  1  0.796039  0.431661  0.500000  1
  In  In13  1  0.203961  0.568339  0.500000  1
  In  In14  1  0.567300  0.651534  0.500000  1
  In  In15  1  0.432700  0.348466  0.500000  1
  In  In16  1  0.931002  0.151966  0.500000  1
  In  In17  1  0.068998  0.848034  0.500000  1
  Co  Co18  1  0.522866  0.195523  0.500000  1
  Co  Co19  1  0.477134  0.804477  0.500000  1
  Ni  Ni20  1  0.975889  0.696396  0.500000  1
  Ni  Ni21  1  0.024111  0.303604  0.500000  1
