# generated using pymatgen
data_SmTc3Ge2Os
_symmetry_space_group_name_H-M   'P 1'
_cell_length_a   7.60479722
_cell_length_b   7.60479642
_cell_length_c   4.05477300
_cell_angle_alpha   90.00000000
_cell_angle_beta   90.00000000
_cell_angle_gamma   148.83483280
_symmetry_Int_Tables_number   1
_chemical_formula_structural   SmTc3Ge2Os
_chemical_formula_sum   'Sm1 Tc3 Ge2 Os1'
_cell_volume   121.35506837
_cell_formula_units_Z   1
loop_
 _symmetry_equiv_pos_site_id
 _symmetry_equiv_pos_as_xyz
  1  'x, y, z'
loop_
 _atom_site_type_symbol
 _atom_site_label
 _atom_site_symmetry_multiplicity
 _atom_site_fract_x
 _atom_site_fract_y
 _atom_site_fract_z
 _atom_site_occupancy
  Sm  Sm0  1  0.998984  0.001016  0.000000  1
  Tc  Tc1  1  0.696834  0.303168  0.000000  1
  Tc  Tc2  1  0.303504  0.696498  0.000000  1
  Tc  Tc3  1  0.191299  0.808702  0.499999  1
  Ge  Ge4  1  0.586484  0.413518  0.499999  1
  Ge  Ge5  1  0.412609  0.587393  0.499999  1
  Os  Os6  1  0.810290  0.189711  0.499999  1
