# generated using pymatgen
data_Zr6Co2CuOs3
_symmetry_space_group_name_H-M   'P 1'
_cell_length_a   4.63519100
_cell_length_b   6.46159600
_cell_length_c   13.93421700
_cell_angle_alpha   90.00000000
_cell_angle_beta   89.99967483
_cell_angle_gamma   90.00000000
_symmetry_Int_Tables_number   1
_chemical_formula_structural   Zr6Co2CuOs3
_chemical_formula_sum   'Zr12 Co4 Cu2 Os6'
_cell_volume   417.33999377
_cell_formula_units_Z   2
loop_
 _symmetry_equiv_pos_site_id
 _symmetry_equiv_pos_as_xyz
  1  'x, y, z'
loop_
 _atom_site_type_symbol
 _atom_site_label
 _atom_site_symmetry_multiplicity
 _atom_site_fract_x
 _atom_site_fract_y
 _atom_site_fract_z
 _atom_site_occupancy
  Zr  Zr0  1  0.499982  0.251358  0.001994  1
  Zr  Zr1  1  0.499982  0.748641  0.001994  1
  Zr  Zr2  1  0.999908  0.249529  0.167151  1
  Zr  Zr3  1  0.999908  0.750471  0.167151  1
  Zr  Zr4  1  0.499908  0.250505  0.332841  1
  Zr  Zr5  1  0.499908  0.749494  0.332841  1
  Zr  Zr6  1  0.999981  0.248586  0.497951  1
  Zr  Zr7  1  0.999981  0.751415  0.497951  1
  Zr  Zr8  1  0.500099  0.248885  0.664942  1
  Zr  Zr9  1  0.500099  0.751114  0.664942  1
  Zr  Zr10  1  0.000099  0.251199  0.835170  1
  Zr  Zr11  1  0.000099  0.748801  0.835170  1
  Co  Co12  1  0.999984  0.500000  0.000899  1
  Co  Co13  1  0.499872  0.000000  0.166663  1
  Co  Co14  1  0.999877  0.500000  0.333116  1
  Co  Co15  1  0.499986  0.000000  0.499532  1
  Cu  Cu16  1  0.000201  0.500000  0.666173  1
  Cu  Cu17  1  0.500211  0.000000  0.833359  1
  Os  Os18  1  0.999973  0.000000  0.000738  1
  Os  Os19  1  0.499896  0.500000  0.167245  1
  Os  Os20  1  0.999900  0.000000  0.332737  1
  Os  Os21  1  0.499974  0.500000  0.499284  1
  Os  Os22  1  0.000085  0.000000  0.666430  1
  Os  Os23  1  0.500093  0.500000  0.833724  1
