# generated using pymatgen
data_Dy3Er(InRh2)4
_symmetry_space_group_name_H-M   'P 1'
_cell_length_a   6.36194900
_cell_length_b   6.36192300
_cell_length_c   7.25121600
_cell_angle_alpha   89.99975684
_cell_angle_beta   89.99881121
_cell_angle_gamma   89.99776650
_symmetry_Int_Tables_number   1
_chemical_formula_structural   Dy3Er(InRh2)4
_chemical_formula_sum   'Dy3 Er1 In4 Rh8'
_cell_volume   293.48738176
_cell_formula_units_Z   1
loop_
 _symmetry_equiv_pos_site_id
 _symmetry_equiv_pos_as_xyz
  1  'x, y, z'
loop_
 _atom_site_type_symbol
 _atom_site_label
 _atom_site_symmetry_multiplicity
 _atom_site_fract_x
 _atom_site_fract_y
 _atom_site_fract_z
 _atom_site_occupancy
  Dy  Dy0  1  0.750029  0.249982  0.000004  1
  Dy  Dy1  1  0.249948  0.749996  0.000009  1
  Dy  Dy2  1  0.750033  0.249944  0.499949  1
  Er  Er3  1  0.250023  0.750058  0.500044  1
  In  In4  1  0.249913  0.249977  0.000158  1
  In  In5  1  0.750018  0.750015  0.000294  1
  In  In6  1  0.249986  0.250032  0.500439  1
  In  In7  1  0.750035  0.750136  0.500041  1
  Rh  Rh8  1  0.000461  0.999341  0.250449  1
  Rh  Rh9  1  0.000537  0.500631  0.250586  1
  Rh  Rh10  1  0.499486  0.999402  0.250471  1
  Rh  Rh11  1  0.499430  0.500565  0.250633  1
  Rh  Rh12  1  0.499401  0.999377  0.749270  1
  Rh  Rh13  1  0.499435  0.500584  0.749182  1
  Rh  Rh14  1  0.000619  0.999463  0.749273  1
  Rh  Rh15  1  0.000647  0.500499  0.749199  1
