# generated using pymatgen
data_Nd7Pt16
_symmetry_space_group_name_H-M   'P 1'
_cell_length_a   9.52694627
_cell_length_b   9.52694666
_cell_length_c   9.52694701
_cell_angle_alpha   131.66115903
_cell_angle_beta   131.66115681
_cell_angle_gamma   70.76472131
_symmetry_Int_Tables_number   1
_chemical_formula_structural   Nd7Pt16
_chemical_formula_sum   'Nd7 Pt16'
_cell_volume   472.73123729
_cell_formula_units_Z   1
loop_
 _symmetry_equiv_pos_site_id
 _symmetry_equiv_pos_as_xyz
  1  'x, y, z'
loop_
 _atom_site_type_symbol
 _atom_site_label
 _atom_site_symmetry_multiplicity
 _atom_site_fract_x
 _atom_site_fract_y
 _atom_site_fract_z
 _atom_site_occupancy
  Nd  Nd0  1  0.104311  0.104311  0.423440  1
  Nd  Nd1  1  0.680870  0.680870  0.576560  1
  Nd  Nd2  1  0.895689  0.319130  0.000000  1
  Nd  Nd3  1  0.750000  0.250000  0.500000  1
  Nd  Nd4  1  0.500000  0.500000  0.000000  1
  Nd  Nd5  1  0.319130  0.895689  0.000000  1
  Nd  Nd6  1  0.250000  0.750000  0.500000  1
  Pt  Pt7  1  0.434527  0.190548  0.000000  1
  Pt  Pt8  1  0.683700  0.934835  0.488685  1
  Pt  Pt9  1  0.934835  0.683700  0.488685  1
  Pt  Pt10  1  0.190548  0.434527  0.000000  1
  Pt  Pt11  1  0.316300  0.804984  0.251134  1
  Pt  Pt12  1  0.938816  0.675219  0.000000  1
  Pt  Pt13  1  0.809452  0.809452  0.243979  1
  Pt  Pt14  1  0.065165  0.553850  0.748866  1
  Pt  Pt15  1  0.061184  0.061184  0.736403  1
  Pt  Pt16  1  0.675219  0.938816  0.000000  1
  Pt  Pt17  1  0.565473  0.565473  0.756021  1
  Pt  Pt18  1  0.804984  0.316300  0.251134  1
  Pt  Pt19  1  0.553850  0.065165  0.748866  1
  Pt  Pt20  1  0.195016  0.446150  0.511315  1
  Pt  Pt21  1  0.324781  0.324781  0.263597  1
  Pt  Pt22  1  0.446150  0.195016  0.511315  1
