# generated using pymatgen
data_Y5Er3(CoAg)2
_symmetry_space_group_name_H-M   'P 1'
_cell_length_a   9.39335247
_cell_length_b   9.40481869
_cell_length_c   9.40481998
_cell_angle_alpha   59.91935578
_cell_angle_beta   60.04032383
_cell_angle_gamma   60.04032616
_symmetry_Int_Tables_number   1
_chemical_formula_structural   Y5Er3(CoAg)2
_chemical_formula_sum   'Y10 Er6 Co4 Ag4'
_cell_volume   587.49647465
_cell_formula_units_Z   2
loop_
 _symmetry_equiv_pos_site_id
 _symmetry_equiv_pos_as_xyz
  1  'x, y, z'
loop_
 _atom_site_type_symbol
 _atom_site_label
 _atom_site_symmetry_multiplicity
 _atom_site_fract_x
 _atom_site_fract_y
 _atom_site_fract_z
 _atom_site_occupancy
  Y  Y0  1  0.188027  0.811973  0.188027  1
  Y  Y1  1  0.811973  0.188027  0.811973  1
  Y  Y2  1  0.188027  0.188027  0.811973  1
  Y  Y3  1  0.811973  0.811973  0.188027  1
  Y  Y4  1  0.937808  0.562192  0.562192  1
  Y  Y5  1  0.562192  0.937808  0.937808  1
  Y  Y6  1  0.561582  0.938418  0.561582  1
  Y  Y7  1  0.938418  0.561582  0.938418  1
  Y  Y8  1  0.561582  0.561582  0.938418  1
  Y  Y9  1  0.938418  0.938418  0.561582  1
  Er  Er10  1  0.347482  0.347121  0.347121  1
  Er  Er11  1  0.347121  0.347482  0.958275  1
  Er  Er12  1  0.347121  0.958275  0.347482  1
  Er  Er13  1  0.958275  0.347121  0.347121  1
  Er  Er14  1  0.811380  0.188620  0.188620  1
  Er  Er15  1  0.188620  0.811380  0.811380  1
  Co  Co16  1  0.140237  0.143154  0.143154  1
  Co  Co17  1  0.143154  0.140237  0.573455  1
  Co  Co18  1  0.143154  0.573455  0.140237  1
  Co  Co19  1  0.573455  0.143154  0.143154  1
  Ag  Ag20  1  0.580498  0.580921  0.580921  1
  Ag  Ag21  1  0.580921  0.580498  0.257661  1
  Ag  Ag22  1  0.580921  0.257661  0.580498  1
  Ag  Ag23  1  0.257661  0.580921  0.580921  1
