# generated using pymatgen
data_AcTm6Sn23Ru6
_symmetry_space_group_name_H-M   'P 1'
_cell_length_a   9.83045100
_cell_length_b   9.83045013
_cell_length_c   10.03432800
_cell_angle_alpha   90.00000000
_cell_angle_beta   90.00000000
_cell_angle_gamma   120.00000630
_symmetry_Int_Tables_number   1
_chemical_formula_structural   AcTm6Sn23Ru6
_chemical_formula_sum   'Ac1 Tm6 Sn23 Ru6'
_cell_volume   839.78041923
_cell_formula_units_Z   1
loop_
 _symmetry_equiv_pos_site_id
 _symmetry_equiv_pos_as_xyz
  1  'x, y, z'
loop_
 _atom_site_type_symbol
 _atom_site_label
 _atom_site_symmetry_multiplicity
 _atom_site_fract_x
 _atom_site_fract_y
 _atom_site_fract_z
 _atom_site_occupancy
  Ac  Ac0  1  0.000000  0.000000  0.000000  1
  Tm  Tm1  1  0.486648  0.513352  0.302296  1
  Tm  Tm2  1  0.513352  0.486648  0.697704  1
  Tm  Tm3  1  0.486648  0.973296  0.302296  1
  Tm  Tm4  1  0.513352  0.026704  0.697704  1
  Tm  Tm5  1  0.026704  0.513352  0.302296  1
  Tm  Tm6  1  0.973296  0.486648  0.697704  1
  Sn  Sn7  1  0.352238  0.000000  0.000000  1
  Sn  Sn8  1  0.647762  0.000000  0.000000  1
  Sn  Sn9  1  0.000000  0.352238  0.000000  1
  Sn  Sn10  1  0.000000  0.647762  0.000000  1
  Sn  Sn11  1  0.647762  0.647762  0.000000  1
  Sn  Sn12  1  0.352238  0.352238  0.000000  1
  Sn  Sn13  1  0.333333  0.666667  0.823951  1
  Sn  Sn14  1  0.666667  0.333333  0.176049  1
  Sn  Sn15  1  0.000000  0.000000  0.500000  1
  Sn  Sn16  1  0.778798  0.221202  0.464328  1
  Sn  Sn17  1  0.221202  0.778798  0.535672  1
  Sn  Sn18  1  0.778798  0.557597  0.464328  1
  Sn  Sn19  1  0.221202  0.442403  0.535672  1
  Sn  Sn20  1  0.442403  0.221202  0.464328  1
  Sn  Sn21  1  0.557597  0.778798  0.535672  1
  Sn  Sn22  1  0.333333  0.666667  0.132727  1
  Sn  Sn23  1  0.666667  0.333333  0.867273  1
  Sn  Sn24  1  0.120679  0.879321  0.278285  1
  Sn  Sn25  1  0.879321  0.120679  0.721715  1
  Sn  Sn26  1  0.120679  0.241359  0.278285  1
  Sn  Sn27  1  0.879321  0.758641  0.721715  1
  Sn  Sn28  1  0.758641  0.879321  0.278285  1
  Sn  Sn29  1  0.241359  0.120679  0.721715  1
  Ru  Ru30  1  0.828502  0.171498  0.203966  1
  Ru  Ru31  1  0.171498  0.828502  0.796034  1
  Ru  Ru32  1  0.828502  0.657005  0.203966  1
  Ru  Ru33  1  0.171498  0.342995  0.796034  1
  Ru  Ru34  1  0.342995  0.171498  0.203966  1
  Ru  Ru35  1  0.657005  0.828502  0.796034  1
