# generated using pymatgen
data_Dy(VCo)6
_symmetry_space_group_name_H-M   'P 1'
_cell_length_a   6.36853660
_cell_length_b   6.36853716
_cell_length_c   6.36853703
_cell_angle_alpha   135.24369125
_cell_angle_beta   100.59386455
_cell_angle_gamma   96.08743121
_symmetry_Int_Tables_number   1
_chemical_formula_structural   Dy(VCo)6
_chemical_formula_sum   'Dy1 V6 Co6'
_cell_volume   167.99481154
_cell_formula_units_Z   1
loop_
 _symmetry_equiv_pos_site_id
 _symmetry_equiv_pos_as_xyz
  1  'x, y, z'
loop_
 _atom_site_type_symbol
 _atom_site_label
 _atom_site_symmetry_multiplicity
 _atom_site_fract_x
 _atom_site_fract_y
 _atom_site_fract_z
 _atom_site_occupancy
  Dy  Dy0  1  0.000000  0.000000  0.000000  1
  V  V1  1  0.641849  0.641849  0.000000  1
  V  V2  1  0.358151  0.358151  0.000000  1
  V  V3  1  0.359133  0.000000  0.359133  1
  V  V4  1  0.640867  0.000000  0.640867  1
  V  V5  1  0.208668  0.708668  0.500000  1
  V  V6  1  0.791332  0.291332  0.500000  1
  Co  Co7  1  0.500000  0.500000  0.500000  1
  Co  Co8  1  0.500000  0.000000  0.000000  1
  Co  Co9  1  0.000000  0.500000  0.000000  1
  Co  Co10  1  0.000000  0.000000  0.500000  1
  Co  Co11  1  0.771261  0.500000  0.271261  1
  Co  Co12  1  0.228739  0.500000  0.728739  1
