# generated using pymatgen
data_Tb11Nd5Cd4PdRu3
_symmetry_space_group_name_H-M   'P 1'
_cell_length_a   9.79845071
_cell_length_b   9.81742208
_cell_length_c   9.81742164
_cell_angle_alpha   59.49587545
_cell_angle_beta   59.46113262
_cell_angle_gamma   59.46113569
_symmetry_Int_Tables_number   1
_chemical_formula_structural   Tb11Nd5Cd4PdRu3
_chemical_formula_sum   'Tb11 Nd5 Cd4 Pd1 Ru3'
_cell_volume   659.77651607
_cell_formula_units_Z   1
loop_
 _symmetry_equiv_pos_site_id
 _symmetry_equiv_pos_as_xyz
  1  'x, y, z'
loop_
 _atom_site_type_symbol
 _atom_site_label
 _atom_site_symmetry_multiplicity
 _atom_site_fract_x
 _atom_site_fract_y
 _atom_site_fract_z
 _atom_site_occupancy
  Tb  Tb0  1  0.342983  0.350860  0.350860  1
  Tb  Tb1  1  0.342768  0.352208  0.956945  1
  Tb  Tb2  1  0.342768  0.956945  0.352208  1
  Tb  Tb3  1  0.964465  0.345632  0.345632  1
  Tb  Tb4  1  0.817540  0.187955  0.187955  1
  Tb  Tb5  1  0.185320  0.813024  0.813024  1
  Tb  Tb6  1  0.186341  0.811245  0.188622  1
  Tb  Tb7  1  0.818501  0.189128  0.804525  1
  Tb  Tb8  1  0.186341  0.188622  0.811245  1
  Tb  Tb9  1  0.818501  0.804525  0.189128  1
  Tb  Tb10  1  0.938932  0.558872  0.558872  1
  Nd  Nd11  1  0.555033  0.941356  0.941356  1
  Nd  Nd12  1  0.558052  0.936696  0.564472  1
  Nd  Nd13  1  0.939354  0.558887  0.939802  1
  Nd  Nd14  1  0.558052  0.564472  0.936696  1
  Nd  Nd15  1  0.939354  0.939802  0.558887  1
  Cd  Cd16  1  0.582240  0.578636  0.578636  1
  Cd  Cd17  1  0.579500  0.579190  0.261387  1
  Cd  Cd18  1  0.579500  0.261387  0.579190  1
  Cd  Cd19  1  0.258308  0.579423  0.579423  1
  Pd  Pd20  1  0.574945  0.142308  0.142308  1
  Ru  Ru21  1  0.144013  0.138417  0.138417  1
  Ru  Ru22  1  0.143597  0.142597  0.577813  1
  Ru  Ru23  1  0.143597  0.577813  0.142597  1
