# generated using pymatgen
data_U4F15
_symmetry_space_group_name_H-M   'P 1'
_cell_length_a   8.76139360
_cell_length_b   8.76139391
_cell_length_c   8.76139336
_cell_angle_alpha   100.18131293
_cell_angle_beta   100.18130947
_cell_angle_gamma   100.18131124
_symmetry_Int_Tables_number   1
_chemical_formula_structural   U4F15
_chemical_formula_sum   'U8 F30'
_cell_volume   636.33219923
_cell_formula_units_Z   2
loop_
 _symmetry_equiv_pos_site_id
 _symmetry_equiv_pos_as_xyz
  1  'x, y, z'
loop_
 _atom_site_type_symbol
 _atom_site_label
 _atom_site_symmetry_multiplicity
 _atom_site_fract_x
 _atom_site_fract_y
 _atom_site_fract_z
 _atom_site_occupancy
  U  U0  1  0.250000  0.250000  0.250000  1
  U  U1  1  0.177942  0.750000  0.322058  1
  U  U2  1  0.250000  0.677942  0.822058  1
  U  U3  1  0.677942  0.822058  0.250000  1
  U  U4  1  0.750000  0.750000  0.750000  1
  U  U5  1  0.322058  0.177942  0.750000  1
  U  U6  1  0.750000  0.322058  0.177942  1
  U  U7  1  0.822058  0.250000  0.677942  1
  F  F8  1  0.963708  0.536292  0.250000  1
  F  F9  1  0.813969  0.345854  0.448244  1
  F  F10  1  0.491382  0.725972  0.721683  1
  F  F11  1  0.345854  0.448244  0.813969  1
  F  F12  1  0.008618  0.778317  0.774028  1
  F  F13  1  0.750000  0.036292  0.463708  1
  F  F14  1  0.948244  0.845854  0.313969  1
  F  F15  1  0.221683  0.225972  0.991382  1
  F  F16  1  0.774028  0.008618  0.778317  1
  F  F17  1  0.313969  0.948244  0.845854  1
  F  F18  1  0.274028  0.278317  0.508618  1
  F  F19  1  0.448244  0.813969  0.345854  1
  F  F20  1  0.536292  0.250000  0.963708  1
  F  F21  1  0.278317  0.508618  0.274028  1
  F  F22  1  0.154146  0.686031  0.051756  1
  F  F23  1  0.845854  0.313969  0.948244  1
  F  F24  1  0.721683  0.491382  0.725972  1
  F  F25  1  0.463708  0.750000  0.036292  1
  F  F26  1  0.551756  0.186031  0.654146  1
  F  F27  1  0.725972  0.721683  0.491382  1
  F  F28  1  0.686031  0.051756  0.154146  1
  F  F29  1  0.225972  0.991382  0.221683  1
  F  F30  1  0.778317  0.774028  0.008618  1
  F  F31  1  0.051756  0.154146  0.686031  1
  F  F32  1  0.250000  0.963708  0.536292  1
  F  F33  1  0.991382  0.221683  0.225972  1
  F  F34  1  0.654146  0.551756  0.186031  1
  F  F35  1  0.508618  0.274028  0.278317  1
  F  F36  1  0.186031  0.654146  0.551756  1
  F  F37  1  0.036292  0.463708  0.750000  1
