# generated using pymatgen
data_Tb6Tm2Ti11Si16Au
_symmetry_space_group_name_H-M   'P 1'
_cell_length_a   7.07108087
_cell_length_b   7.07278039
_cell_length_c   12.90406244
_cell_angle_alpha   90.15031226
_cell_angle_beta   89.91684325
_cell_angle_gamma   89.58048233
_symmetry_Int_Tables_number   1
_chemical_formula_structural   Tb6Tm2Ti11Si16Au
_chemical_formula_sum   'Tb6 Tm2 Ti11 Si16 Au1'
_cell_volume   645.34036129
_cell_formula_units_Z   1
loop_
 _symmetry_equiv_pos_site_id
 _symmetry_equiv_pos_as_xyz
  1  'x, y, z'
loop_
 _atom_site_type_symbol
 _atom_site_label
 _atom_site_symmetry_multiplicity
 _atom_site_fract_x
 _atom_site_fract_y
 _atom_site_fract_z
 _atom_site_occupancy
  Tb  Tb0  1  0.500920  0.158147  0.214485  1
  Tb  Tb1  1  0.839829  0.496970  0.283255  1
  Tb  Tb2  1  0.158515  0.501183  0.785453  1
  Tb  Tb3  1  0.656228  0.000130  0.968331  1
  Tb  Tb4  1  0.003334  0.340118  0.533266  1
  Tb  Tb5  1  0.000347  0.656465  0.031423  1
  Tm  Tm6  1  0.341049  0.001451  0.466796  1
  Tm  Tm7  1  0.498089  0.840695  0.716690  1
  Ti  Ti8  1  0.174770  0.826641  0.249850  1
  Ti  Ti9  1  0.826225  0.174263  0.750168  1
  Ti  Ti10  1  0.672252  0.673478  0.500272  1
  Ti  Ti11  1  0.149013  0.007525  0.877150  1
  Ti  Ti12  1  0.494317  0.651680  0.123828  1
  Ti  Ti13  1  0.507336  0.350722  0.625922  1
  Ti  Ti14  1  0.650937  0.494297  0.875901  1
  Ti  Ti15  1  0.350215  0.508365  0.374361  1
  Ti  Ti16  1  0.849428  0.991834  0.375079  1
  Ti  Ti17  1  0.008368  0.148724  0.122557  1
  Ti  Ti18  1  0.991979  0.849659  0.625094  1
  Si  Si19  1  0.203083  0.129965  0.684607  1
  Si  Si20  1  0.374576  0.719271  0.929203  1
  Si  Si21  1  0.628977  0.293429  0.433544  1
  Si  Si22  1  0.718360  0.374504  0.069820  1
  Si  Si23  1  0.295831  0.632818  0.567087  1
  Si  Si24  1  0.798432  0.868885  0.183782  1
  Si  Si25  1  0.132176  0.200285  0.315565  1
  Si  Si26  1  0.867245  0.798579  0.816016  1
  Si  Si27  1  0.285483  0.937451  0.066166  1
  Si  Si28  1  0.545844  0.791820  0.315178  1
  Si  Si29  1  0.454970  0.206277  0.809163  1
  Si  Si30  1  0.790117  0.547853  0.685329  1
  Si  Si31  1  0.208115  0.454800  0.190626  1
  Si  Si32  1  0.707137  0.046546  0.564831  1
  Si  Si33  1  0.937759  0.285303  0.933817  1
  Si  Si34  1  0.049115  0.710303  0.435261  1
  Au  Au35  1  0.329629  0.329566  0.000124  1
