# generated using pymatgen
data_Nd8CdNi2Ag
_symmetry_space_group_name_H-M   'P 1'
_cell_length_a   9.88378335
_cell_length_b   9.88378243
_cell_length_c   9.88153500
_cell_angle_alpha   60.00751824
_cell_angle_beta   60.00752129
_cell_angle_gamma   60.03172160
_symmetry_Int_Tables_number   1
_chemical_formula_structural   Nd8CdNi2Ag
_chemical_formula_sum   'Nd16 Cd2 Ni4 Ag2'
_cell_volume   682.82465499
_cell_formula_units_Z   2
loop_
 _symmetry_equiv_pos_site_id
 _symmetry_equiv_pos_as_xyz
  1  'x, y, z'
loop_
 _atom_site_type_symbol
 _atom_site_label
 _atom_site_symmetry_multiplicity
 _atom_site_fract_x
 _atom_site_fract_y
 _atom_site_fract_z
 _atom_site_occupancy
  Nd  Nd0  1  0.347147  0.347147  0.347759  1
  Nd  Nd1  1  0.347147  0.347147  0.957948  1
  Nd  Nd2  1  0.349295  0.952576  0.349065  1
  Nd  Nd3  1  0.952576  0.349295  0.349065  1
  Nd  Nd4  1  0.810815  0.190044  0.190965  1
  Nd  Nd5  1  0.190044  0.810815  0.808175  1
  Nd  Nd6  1  0.190044  0.810815  0.190965  1
  Nd  Nd7  1  0.810815  0.190044  0.808175  1
  Nd  Nd8  1  0.190864  0.190864  0.809136  1
  Nd  Nd9  1  0.809299  0.809299  0.190701  1
  Nd  Nd10  1  0.934695  0.562418  0.564446  1
  Nd  Nd11  1  0.562418  0.934695  0.938440  1
  Nd  Nd12  1  0.562418  0.934695  0.564446  1
  Nd  Nd13  1  0.934695  0.562418  0.938440  1
  Nd  Nd14  1  0.561842  0.561842  0.938158  1
  Nd  Nd15  1  0.936045  0.936045  0.563955  1
  Cd  Cd16  1  0.579945  0.265349  0.577353  1
  Cd  Cd17  1  0.265349  0.579945  0.577353  1
  Ni  Ni18  1  0.142565  0.142565  0.143254  1
  Ni  Ni19  1  0.142565  0.142565  0.571616  1
  Ni  Ni20  1  0.141695  0.572981  0.142662  1
  Ni  Ni21  1  0.572981  0.141695  0.142662  1
  Ag  Ag22  1  0.582370  0.582370  0.580921  1
  Ag  Ag23  1  0.582370  0.582370  0.254338  1
