# generated using pymatgen
data_Dy3Sn3GeRh2
_symmetry_space_group_name_H-M   'P 1'
_cell_length_a   7.41242000
_cell_length_b   7.41242035
_cell_length_c   4.16657200
_cell_angle_alpha   90.00000000
_cell_angle_beta   90.00000000
_cell_angle_gamma   119.99999726
_symmetry_Int_Tables_number   1
_chemical_formula_structural   Dy3Sn3GeRh2
_chemical_formula_sum   'Dy3 Sn3 Ge1 Rh2'
_cell_volume   198.25748532
_cell_formula_units_Z   1
loop_
 _symmetry_equiv_pos_site_id
 _symmetry_equiv_pos_as_xyz
  1  'x, y, z'
loop_
 _atom_site_type_symbol
 _atom_site_label
 _atom_site_symmetry_multiplicity
 _atom_site_fract_x
 _atom_site_fract_y
 _atom_site_fract_z
 _atom_site_occupancy
  Dy  Dy0  1  0.402650  0.413015  0.500000  1
  Dy  Dy1  1  0.586985  0.989634  0.500000  1
  Dy  Dy2  1  0.010366  0.597350  0.500000  1
  Sn  Sn3  1  0.742207  0.755919  0.000000  1
  Sn  Sn4  1  0.244081  0.986288  0.000000  1
  Sn  Sn5  1  0.013712  0.257793  0.000000  1
  Ge  Ge6  1  0.666667  0.333333  0.000000  1
  Rh  Rh7  1  0.333333  0.666667  0.000000  1
  Rh  Rh8  1  0.000000  0.000000  0.500000  1
