# generated using pymatgen
data_Eu6TaSbO14
_symmetry_space_group_name_H-M   'P 1'
_cell_length_a   6.60790680
_cell_length_b   6.60790750
_cell_length_c   7.72140092
_cell_angle_alpha   89.78028468
_cell_angle_beta   90.21971696
_cell_angle_gamma   110.11908714
_symmetry_Int_Tables_number   1
_chemical_formula_structural   Eu6TaSbO14
_chemical_formula_sum   'Eu6 Ta1 Sb1 O14'
_cell_volume   316.57413269
_cell_formula_units_Z   1
loop_
 _symmetry_equiv_pos_site_id
 _symmetry_equiv_pos_as_xyz
  1  'x, y, z'
loop_
 _atom_site_type_symbol
 _atom_site_label
 _atom_site_symmetry_multiplicity
 _atom_site_fract_x
 _atom_site_fract_y
 _atom_site_fract_z
 _atom_site_occupancy
  Eu  Eu0  1  0.500000  0.500000  0.500000  1
  Eu  Eu1  1  0.500000  0.500000  0.000000  1
  Eu  Eu2  1  0.529421  0.997771  0.748599  1
  Eu  Eu3  1  0.997771  0.529421  0.251401  1
  Eu  Eu4  1  0.470579  0.002229  0.251401  1
  Eu  Eu5  1  0.002229  0.470579  0.748599  1
  Ta  Ta6  1  0.000000  0.000000  0.500000  1
  Sb  Sb7  1  0.000000  0.000000  0.000000  1
  O  O8  1  0.682753  0.928978  0.470470  1
  O  O9  1  0.928978  0.682753  0.529530  1
  O  O10  1  0.681048  0.928046  0.027824  1
  O  O11  1  0.928046  0.681048  0.972176  1
  O  O12  1  0.317247  0.071022  0.529530  1
  O  O13  1  0.071022  0.317247  0.470470  1
  O  O14  1  0.318952  0.071954  0.972176  1
  O  O15  1  0.071954  0.318952  0.027824  1
  O  O16  1  0.941448  0.058552  0.749232  1
  O  O17  1  0.058552  0.941448  0.250768  1
  O  O18  1  0.371207  0.628793  0.749674  1
  O  O19  1  0.628793  0.371207  0.250326  1
  O  O20  1  0.636830  0.363170  0.749904  1
  O  O21  1  0.363170  0.636830  0.250096  1
