# generated using pymatgen
data_NdCoNiAs2
_symmetry_space_group_name_H-M   'P 1'
_cell_length_a   4.18620300
_cell_length_b   4.18620300
_cell_length_c   9.45142000
_cell_angle_alpha   90.00000000
_cell_angle_beta   90.00000000
_cell_angle_gamma   90.00000000
_symmetry_Int_Tables_number   1
_chemical_formula_structural   NdCoNiAs2
_chemical_formula_sum   'Nd2 Co2 Ni2 As4'
_cell_volume   165.62947752
_cell_formula_units_Z   2
loop_
 _symmetry_equiv_pos_site_id
 _symmetry_equiv_pos_as_xyz
  1  'x, y, z'
loop_
 _atom_site_type_symbol
 _atom_site_label
 _atom_site_symmetry_multiplicity
 _atom_site_fract_x
 _atom_site_fract_y
 _atom_site_fract_z
 _atom_site_occupancy
  Nd  Nd0  1  0.500000  0.000000  0.749903  1
  Nd  Nd1  1  0.000000  0.500000  0.250097  1
  Co  Co2  1  0.500000  0.000000  0.386522  1
  Co  Co3  1  0.000000  0.500000  0.613478  1
  Ni  Ni4  1  0.500000  0.500000  0.000000  1
  Ni  Ni5  1  0.000000  0.000000  0.000000  1
  As  As6  1  0.500000  0.000000  0.134957  1
  As  As7  1  0.000000  0.500000  0.865043  1
  As  As8  1  0.500000  0.500000  0.500000  1
  As  As9  1  0.000000  0.000000  0.500000  1
