# generated using pymatgen
data_Ho4Ga20TcOs5
_symmetry_space_group_name_H-M   'P 1'
_cell_length_a   8.94425367
_cell_length_b   8.94425367
_cell_length_c   6.37458300
_cell_angle_alpha   90.00000000
_cell_angle_beta   90.00000000
_cell_angle_gamma   90.10373677
_symmetry_Int_Tables_number   1
_chemical_formula_structural   Ho4Ga20TcOs5
_chemical_formula_sum   'Ho4 Ga20 Tc1 Os5'
_cell_volume   509.96372364
_cell_formula_units_Z   1
loop_
 _symmetry_equiv_pos_site_id
 _symmetry_equiv_pos_as_xyz
  1  'x, y, z'
loop_
 _atom_site_type_symbol
 _atom_site_label
 _atom_site_symmetry_multiplicity
 _atom_site_fract_x
 _atom_site_fract_y
 _atom_site_fract_z
 _atom_site_occupancy
  Ho  Ho0  1  0.182574  0.317426  0.000000  1
  Ho  Ho1  1  0.683708  0.183065  0.000000  1
  Ho  Ho2  1  0.816951  0.683049  0.000000  1
  Ho  Ho3  1  0.316935  0.816292  0.000000  1
  Ga  Ga4  1  0.500230  0.999770  0.284637  1
  Ga  Ga5  1  0.500230  0.999770  0.715363  1
  Ga  Ga6  1  0.292728  0.560587  0.706420  1
  Ga  Ga7  1  0.000068  0.499932  0.285555  1
  Ga  Ga8  1  0.000068  0.499932  0.714445  1
  Ga  Ga9  1  0.061366  0.793021  0.707721  1
  Ga  Ga10  1  0.206326  0.061299  0.293188  1
  Ga  Ga11  1  0.061366  0.793021  0.292279  1
  Ga  Ga12  1  0.706979  0.438634  0.707721  1
  Ga  Ga13  1  0.206326  0.061299  0.706812  1
  Ga  Ga14  1  0.939413  0.207272  0.706420  1
  Ga  Ga15  1  0.706979  0.438634  0.292279  1
  Ga  Ga16  1  0.561084  0.706711  0.292644  1
  Ga  Ga17  1  0.939413  0.207272  0.293580  1
  Ga  Ga18  1  0.561084  0.706711  0.707356  1
  Ga  Ga19  1  0.793289  0.938916  0.292644  1
  Ga  Ga20  1  0.438701  0.293674  0.706812  1
  Ga  Ga21  1  0.793289  0.938916  0.707356  1
  Ga  Ga22  1  0.438701  0.293674  0.293188  1
  Ga  Ga23  1  0.292728  0.560587  0.293580  1
  Tc  Tc24  1  0.178896  0.321104  0.500000  1
  Os  Os25  1  0.322384  0.822241  0.500000  1
  Os  Os26  1  0.821083  0.678917  0.500000  1
  Os  Os27  1  0.998994  0.999651  0.000000  1
  Os  Os28  1  0.677759  0.177616  0.500000  1
  Os  Os29  1  0.500349  0.501006  0.000000  1
