# generated using pymatgen
data_Y10Tl6Se
_symmetry_space_group_name_H-M   'P 1'
_cell_length_a   9.11446500
_cell_length_b   9.11446592
_cell_length_c   6.76765900
_cell_angle_alpha   90.00000000
_cell_angle_beta   90.00000000
_cell_angle_gamma   120.00000031
_symmetry_Int_Tables_number   1
_chemical_formula_structural   Y10Tl6Se
_chemical_formula_sum   'Y10 Tl6 Se1'
_cell_volume   486.89072886
_cell_formula_units_Z   1
loop_
 _symmetry_equiv_pos_site_id
 _symmetry_equiv_pos_as_xyz
  1  'x, y, z'
loop_
 _atom_site_type_symbol
 _atom_site_label
 _atom_site_symmetry_multiplicity
 _atom_site_fract_x
 _atom_site_fract_y
 _atom_site_fract_z
 _atom_site_occupancy
  Y  Y0  1  0.333333  0.666667  0.500000  1
  Y  Y1  1  0.666667  0.333333  0.500000  1
  Y  Y2  1  0.666667  0.333333  0.000000  1
  Y  Y3  1  0.333333  0.666667  0.000000  1
  Y  Y4  1  0.000000  0.751017  0.244118  1
  Y  Y5  1  0.248983  0.248983  0.244118  1
  Y  Y6  1  0.751017  0.000000  0.244118  1
  Y  Y7  1  0.000000  0.248983  0.755882  1
  Y  Y8  1  0.751017  0.751017  0.755882  1
  Y  Y9  1  0.248983  0.000000  0.755882  1
  Tl  Tl10  1  0.000000  0.397683  0.246493  1
  Tl  Tl11  1  0.602317  0.602317  0.246493  1
  Tl  Tl12  1  0.397683  0.000000  0.246493  1
  Tl  Tl13  1  0.000000  0.602317  0.753507  1
  Tl  Tl14  1  0.397683  0.397683  0.753507  1
  Tl  Tl15  1  0.602317  0.000000  0.753507  1
  Se  Se16  1  0.000000  0.000000  0.500000  1
