# generated using pymatgen
data_Tb5ErZr4(Sn3O)2
_symmetry_space_group_name_H-M   'P 1'
_cell_length_a   8.77524600
_cell_length_b   8.77824525
_cell_length_c   6.04537800
_cell_angle_alpha   90.00000000
_cell_angle_beta   90.00000000
_cell_angle_gamma   119.98869834
_symmetry_Int_Tables_number   1
_chemical_formula_structural   Tb5ErZr4(Sn3O)2
_chemical_formula_sum   'Tb5 Er1 Zr4 Sn6 O2'
_cell_volume   403.33930973
_cell_formula_units_Z   1
loop_
 _symmetry_equiv_pos_site_id
 _symmetry_equiv_pos_as_xyz
  1  'x, y, z'
loop_
 _atom_site_type_symbol
 _atom_site_label
 _atom_site_symmetry_multiplicity
 _atom_site_fract_x
 _atom_site_fract_y
 _atom_site_fract_z
 _atom_site_occupancy
  Tb  Tb0  1  0.999999  0.772608  0.750000  1
  Tb  Tb1  1  0.999738  0.227154  0.250000  1
  Tb  Tb2  1  0.227391  0.227392  0.750000  1
  Tb  Tb3  1  0.227561  0.000000  0.250000  1
  Tb  Tb4  1  0.772584  0.772846  0.250000  1
  Er  Er5  1  0.775105  0.000000  0.750000  1
  Zr  Zr6  1  0.333395  0.666663  0.000167  1
  Zr  Zr7  1  0.333395  0.666663  0.499833  1
  Zr  Zr8  1  0.666732  0.333337  0.000167  1
  Zr  Zr9  1  0.666732  0.333337  0.499833  1
  Sn  Sn10  1  0.000076  0.593459  0.250000  1
  Sn  Sn11  1  0.999295  0.405187  0.750000  1
  Sn  Sn12  1  0.406617  0.406541  0.250000  1
  Sn  Sn13  1  0.594108  0.594813  0.750000  1
  Sn  Sn14  1  0.407745  0.000000  0.750000  1
  Sn  Sn15  1  0.593613  0.000000  0.250000  1
  O  O16  1  0.997957  0.000000  0.997742  1
  O  O17  1  0.997957  0.000000  0.502258  1
