# generated using pymatgen
data_Dy16Er3LuPb16
_symmetry_space_group_name_H-M   'P 1'
_cell_length_a   8.18563207
_cell_length_b   8.27072308
_cell_length_c   15.64037700
_cell_angle_alpha   90.00000000
_cell_angle_beta   90.00000000
_cell_angle_gamma   90.01548650
_symmetry_Int_Tables_number   1
_chemical_formula_structural   Dy16Er3LuPb16
_chemical_formula_sum   'Dy16 Er3 Lu1 Pb16'
_cell_volume   1058.87062746
_cell_formula_units_Z   1
loop_
 _symmetry_equiv_pos_site_id
 _symmetry_equiv_pos_as_xyz
  1  'x, y, z'
loop_
 _atom_site_type_symbol
 _atom_site_label
 _atom_site_symmetry_multiplicity
 _atom_site_fract_x
 _atom_site_fract_y
 _atom_site_fract_z
 _atom_site_occupancy
  Dy  Dy0  1  0.376576  0.841602  0.879166  1
  Dy  Dy1  1  0.876585  0.658384  0.620862  1
  Dy  Dy2  1  0.623209  0.158266  0.379123  1
  Dy  Dy3  1  0.123548  0.341509  0.120859  1
  Dy  Dy4  1  0.623209  0.158266  0.120877  1
  Dy  Dy5  1  0.123548  0.341509  0.379141  1
  Dy  Dy6  1  0.376576  0.841602  0.620834  1
  Dy  Dy7  1  0.876585  0.658384  0.879138  1
  Dy  Dy8  1  0.536013  0.323596  0.900110  1
  Dy  Dy9  1  0.035992  0.176405  0.599861  1
  Dy  Dy10  1  0.463937  0.676506  0.400127  1
  Dy  Dy11  1  0.964088  0.823661  0.099897  1
  Dy  Dy12  1  0.463937  0.676506  0.099873  1
  Dy  Dy13  1  0.964088  0.823661  0.400103  1
  Dy  Dy14  1  0.536013  0.323596  0.599890  1
  Dy  Dy15  1  0.035992  0.176405  0.900139  1
  Er  Er16  1  0.208408  0.504358  0.750000  1
  Er  Er17  1  0.708437  0.995712  0.750000  1
  Er  Er18  1  0.791522  0.495756  0.250000  1
  Lu  Lu19  1  0.291402  0.004388  0.250000  1
  Pb  Pb20  1  0.281118  0.032827  0.043639  1
  Pb  Pb21  1  0.781106  0.467151  0.456508  1
  Pb  Pb22  1  0.718908  0.967136  0.543435  1
  Pb  Pb23  1  0.218893  0.532854  0.956565  1
  Pb  Pb24  1  0.718908  0.967136  0.956565  1
  Pb  Pb25  1  0.218893  0.532854  0.543435  1
  Pb  Pb26  1  0.281118  0.032827  0.456361  1
  Pb  Pb27  1  0.781106  0.467151  0.043492  1
  Pb  Pb28  1  0.571309  0.626298  0.750000  1
  Pb  Pb29  1  0.071293  0.873710  0.750000  1
  Pb  Pb30  1  0.428636  0.373572  0.250000  1
  Pb  Pb31  1  0.929035  0.126067  0.250000  1
  Pb  Pb32  1  0.347847  0.154712  0.750000  1
  Pb  Pb33  1  0.847863  0.345179  0.750000  1
  Pb  Pb34  1  0.652111  0.845301  0.250000  1
  Pb  Pb35  1  0.152194  0.655155  0.250000  1
