# generated using pymatgen
data_Tm2Sc2Al13Ga5Ir6
_symmetry_space_group_name_H-M   'P 1'
_cell_length_a   7.48318059
_cell_length_b   7.48821974
_cell_length_c   9.46039100
_cell_angle_alpha   90.00000000
_cell_angle_beta   90.00000000
_cell_angle_gamma   119.62447550
_symmetry_Int_Tables_number   1
_chemical_formula_structural   Tm2Sc2Al13Ga5Ir6
_chemical_formula_sum   'Tm2 Sc2 Al13 Ga5 Ir6'
_cell_volume   460.82443970
_cell_formula_units_Z   1
loop_
 _symmetry_equiv_pos_site_id
 _symmetry_equiv_pos_as_xyz
  1  'x, y, z'
loop_
 _atom_site_type_symbol
 _atom_site_label
 _atom_site_symmetry_multiplicity
 _atom_site_fract_x
 _atom_site_fract_y
 _atom_site_fract_z
 _atom_site_occupancy
  Tm  Tm0  1  0.994966  0.670670  0.250000  1
  Tm  Tm1  1  0.671132  0.996214  0.250000  1
  Sc  Sc2  1  0.998692  0.324869  0.750000  1
  Sc  Sc3  1  0.329657  0.004633  0.750000  1
  Al  Al4  1  0.003339  0.334916  0.069227  1
  Al  Al5  1  0.002492  0.665516  0.921556  1
  Al  Al6  1  0.002492  0.665516  0.578444  1
  Al  Al7  1  0.335161  0.002825  0.430900  1
  Al  Al8  1  0.003339  0.334916  0.430773  1
  Al  Al9  1  0.665121  0.001142  0.578433  1
  Al  Al10  1  0.665121  0.001142  0.921567  1
  Al  Al11  1  0.335161  0.002825  0.069100  1
  Al  Al12  1  0.330573  0.330921  0.567246  1
  Al  Al13  1  0.665205  0.664993  0.448645  1
  Al  Al14  1  0.665205  0.664993  0.051355  1
  Al  Al15  1  0.330573  0.330921  0.932754  1
  Al  Al16  1  0.443493  0.662210  0.750000  1
  Ga  Ga17  1  0.130139  0.129967  0.250000  1
  Ga  Ga18  1  0.873749  0.873164  0.750000  1
  Ga  Ga19  1  0.339319  0.547643  0.250000  1
  Ga  Ga20  1  0.661342  0.449352  0.750000  1
  Ga  Ga21  1  0.547545  0.339519  0.250000  1
  Ir  Ir22  1  0.673561  0.328054  0.999288  1
  Ir  Ir23  1  0.329294  0.672728  0.997401  1
  Ir  Ir24  1  0.329294  0.672728  0.502599  1
  Ir  Ir25  1  0.673561  0.328054  0.500712  1
  Ir  Ir26  1  0.000239  0.999784  0.999145  1
  Ir  Ir27  1  0.000239  0.999784  0.500855  1
