# generated using pymatgen
data_Er4Al18RePd5
_symmetry_space_group_name_H-M   'P 1'
_cell_length_a   7.61602576
_cell_length_b   7.61602669
_cell_length_c   9.47281190
_cell_angle_alpha   89.76542944
_cell_angle_beta   89.76542949
_cell_angle_gamma   119.31569008
_symmetry_Int_Tables_number   1
_chemical_formula_structural   Er4Al18RePd5
_chemical_formula_sum   'Er4 Al18 Re1 Pd5'
_cell_volume   479.07745728
_cell_formula_units_Z   1
loop_
 _symmetry_equiv_pos_site_id
 _symmetry_equiv_pos_as_xyz
  1  'x, y, z'
loop_
 _atom_site_type_symbol
 _atom_site_label
 _atom_site_symmetry_multiplicity
 _atom_site_fract_x
 _atom_site_fract_y
 _atom_site_fract_z
 _atom_site_occupancy
  Er  Er0  1  0.995640  0.674471  0.247766  1
  Er  Er1  1  0.004360  0.325529  0.752234  1
  Er  Er2  1  0.674471  0.995640  0.247766  1
  Er  Er3  1  0.325529  0.004360  0.752234  1
  Al  Al4  1  0.131475  0.131475  0.247540  1
  Al  Al5  1  0.868525  0.868525  0.752460  1
  Al  Al6  1  0.999526  0.331237  0.075179  1
  Al  Al7  1  0.000474  0.668763  0.924821  1
  Al  Al8  1  0.999092  0.662755  0.578787  1
  Al  Al9  1  0.337245  0.000908  0.421213  1
  Al  Al10  1  0.000908  0.337245  0.421213  1
  Al  Al11  1  0.662755  0.999092  0.578787  1
  Al  Al12  1  0.668763  0.000474  0.924821  1
  Al  Al13  1  0.331237  0.999526  0.075179  1
  Al  Al14  1  0.333466  0.333466  0.557316  1
  Al  Al15  1  0.666534  0.666534  0.442684  1
  Al  Al16  1  0.670392  0.670392  0.053750  1
  Al  Al17  1  0.329608  0.329608  0.946250  1
  Al  Al18  1  0.342122  0.549903  0.249126  1
  Al  Al19  1  0.657878  0.450097  0.750874  1
  Al  Al20  1  0.549903  0.342122  0.249126  1
  Al  Al21  1  0.450097  0.657878  0.750874  1
  Re  Re22  1  0.000000  0.000000  0.000000  1
  Pd  Pd23  1  0.671859  0.328141  0.000000  1
  Pd  Pd24  1  0.328141  0.671859  0.000000  1
  Pd  Pd25  1  0.328015  0.671985  0.500000  1
  Pd  Pd26  1  0.671985  0.328015  0.500000  1
  Pd  Pd27  1  0.000000  0.000000  0.500000  1
