# generated using pymatgen
data_Y5RuRh2
_symmetry_space_group_name_H-M   'P 1'
_cell_length_a   10.89711800
_cell_length_b   10.89711800
_cell_length_c   6.44020600
_cell_angle_alpha   90.00000000
_cell_angle_beta   90.00000000
_cell_angle_gamma   90.00000000
_symmetry_Int_Tables_number   1
_chemical_formula_structural   Y5RuRh2
_chemical_formula_sum   'Y20 Ru4 Rh8'
_cell_volume   764.75630567
_cell_formula_units_Z   4
loop_
 _symmetry_equiv_pos_site_id
 _symmetry_equiv_pos_as_xyz
  1  'x, y, z'
loop_
 _atom_site_type_symbol
 _atom_site_label
 _atom_site_symmetry_multiplicity
 _atom_site_fract_x
 _atom_site_fract_y
 _atom_site_fract_z
 _atom_site_occupancy
  Y  Y0  1  0.294105  0.086713  0.377839  1
  Y  Y1  1  0.294105  0.913287  0.877839  1
  Y  Y2  1  0.705895  0.086713  0.877839  1
  Y  Y3  1  0.705895  0.913287  0.377839  1
  Y  Y4  1  0.586713  0.794105  0.877839  1
  Y  Y5  1  0.586713  0.205895  0.377839  1
  Y  Y6  1  0.413287  0.794105  0.377839  1
  Y  Y7  1  0.413287  0.205895  0.877839  1
  Y  Y8  1  0.205895  0.413287  0.622161  1
  Y  Y9  1  0.205895  0.586713  0.122161  1
  Y  Y10  1  0.794105  0.413287  0.122161  1
  Y  Y11  1  0.794105  0.586713  0.622161  1
  Y  Y12  1  0.913287  0.705895  0.122161  1
  Y  Y13  1  0.913287  0.294105  0.622161  1
  Y  Y14  1  0.086713  0.705895  0.622161  1
  Y  Y15  1  0.086713  0.294105  0.122161  1
  Y  Y16  1  0.000000  0.000000  0.500000  1
  Y  Y17  1  0.000000  0.000000  0.000000  1
  Y  Y18  1  0.500000  0.500000  0.000000  1
  Y  Y19  1  0.500000  0.500000  0.500000  1
  Ru  Ru20  1  0.500000  0.000000  0.123937  1
  Ru  Ru21  1  0.500000  0.000000  0.623937  1
  Ru  Ru22  1  0.000000  0.500000  0.876063  1
  Ru  Ru23  1  0.000000  0.500000  0.376063  1
  Rh  Rh24  1  0.847435  0.152565  0.250000  1
  Rh  Rh25  1  0.847435  0.847435  0.750000  1
  Rh  Rh26  1  0.152565  0.152565  0.750000  1
  Rh  Rh27  1  0.152565  0.847435  0.250000  1
  Rh  Rh28  1  0.652565  0.347435  0.750000  1
  Rh  Rh29  1  0.652565  0.652565  0.250000  1
  Rh  Rh30  1  0.347435  0.347435  0.250000  1
  Rh  Rh31  1  0.347435  0.652565  0.750000  1
