# generated using pymatgen
data_Rb6InTe4Cl
_symmetry_space_group_name_H-M   'P 1'
_cell_length_a   11.88291500
_cell_length_b   11.88291366
_cell_length_c   8.47924000
_cell_angle_alpha   90.00000000
_cell_angle_beta   90.00000000
_cell_angle_gamma   120.00000095
_symmetry_Int_Tables_number   1
_chemical_formula_structural   Rb6InTe4Cl
_chemical_formula_sum   'Rb12 In2 Te8 Cl2'
_cell_volume   1036.89191349
_cell_formula_units_Z   2
loop_
 _symmetry_equiv_pos_site_id
 _symmetry_equiv_pos_as_xyz
  1  'x, y, z'
loop_
 _atom_site_type_symbol
 _atom_site_label
 _atom_site_symmetry_multiplicity
 _atom_site_fract_x
 _atom_site_fract_y
 _atom_site_fract_z
 _atom_site_occupancy
  Rb  Rb0  1  0.125034  0.874966  0.517419  1
  Rb  Rb1  1  0.749931  0.874966  0.517419  1
  Rb  Rb2  1  0.957378  0.478689  0.319227  1
  Rb  Rb3  1  0.521311  0.478689  0.319227  1
  Rb  Rb4  1  0.874966  0.749931  0.017419  1
  Rb  Rb5  1  0.250069  0.125034  0.017419  1
  Rb  Rb6  1  0.521311  0.042622  0.319227  1
  Rb  Rb7  1  0.125034  0.250069  0.517419  1
  Rb  Rb8  1  0.874966  0.125034  0.017419  1
  Rb  Rb9  1  0.042622  0.521311  0.819227  1
  Rb  Rb10  1  0.478689  0.957378  0.819227  1
  Rb  Rb11  1  0.478689  0.521311  0.819227  1
  In  In12  1  0.666667  0.333333  0.706107  1
  In  In13  1  0.333333  0.666667  0.206107  1
  Te  Te14  1  0.404673  0.202337  0.601955  1
  Te  Te15  1  0.595327  0.797663  0.101955  1
  Te  Te16  1  0.666667  0.333333  0.042828  1
  Te  Te17  1  0.797663  0.595327  0.601955  1
  Te  Te18  1  0.202337  0.404673  0.101955  1
  Te  Te19  1  0.333333  0.666667  0.542828  1
  Te  Te20  1  0.202337  0.797663  0.101955  1
  Te  Te21  1  0.797663  0.202337  0.601955  1
  Cl  Cl22  1  0.000000  0.000000  0.275865  1
  Cl  Cl23  1  0.000000  0.000000  0.775865  1
