# generated using pymatgen
data_Li2In3(Sn3Ir2)3
_symmetry_space_group_name_H-M   'P 1'
_cell_length_a   8.19190554
_cell_length_b   8.23062213
_cell_length_c   8.19004200
_cell_angle_alpha   108.78714518
_cell_angle_beta   109.35252277
_cell_angle_gamma   110.41645881
_symmetry_Int_Tables_number   1
_chemical_formula_structural   Li2In3(Sn3Ir2)3
_chemical_formula_sum   'Li2 In3 Sn9 Ir6'
_cell_volume   424.27544484
_cell_formula_units_Z   1
loop_
 _symmetry_equiv_pos_site_id
 _symmetry_equiv_pos_as_xyz
  1  'x, y, z'
loop_
 _atom_site_type_symbol
 _atom_site_label
 _atom_site_symmetry_multiplicity
 _atom_site_fract_x
 _atom_site_fract_y
 _atom_site_fract_z
 _atom_site_occupancy
  Li  Li0  1  0.688478  0.997406  0.999012  1
  Li  Li1  1  0.311473  0.002007  0.000855  1
  In  In2  1  0.498411  0.755988  0.240696  1
  In  In3  1  0.498812  0.244126  0.755419  1
  In  In4  1  0.257672  0.513410  0.757854  1
  Sn  Sn5  1  0.741963  0.486135  0.241647  1
  Sn  Sn6  1  0.744019  0.242677  0.488477  1
  Sn  Sn7  1  0.258329  0.757396  0.514742  1
  Sn  Sn8  1  0.326563  0.314111  0.315037  1
  Sn  Sn9  1  0.672100  0.686203  0.687643  1
  Sn  Sn10  1  0.014178  0.002120  0.687511  1
  Sn  Sn11  1  0.014388  0.687026  0.999682  1
  Sn  Sn12  1  0.987212  0.000447  0.313916  1
  Sn  Sn13  1  0.987683  0.313395  0.998581  1
  Ir  Ir14  1  0.007413  0.349534  0.346721  1
  Ir  Ir15  1  0.984187  0.649578  0.645684  1
  Ir  Ir16  1  0.338582  0.000342  0.349965  1
  Ir  Ir17  1  0.661691  0.999208  0.650149  1
  Ir  Ir18  1  0.340672  0.348700  0.003207  1
  Ir  Ir19  1  0.666175  0.650195  0.003202  1
