# generated using pymatgen
data_YbPr2HoAl8
_symmetry_space_group_name_H-M   'P 1'
_cell_length_a   9.77547357
_cell_length_b   9.77547302
_cell_length_c   9.77547200
_cell_angle_alpha   33.81678300
_cell_angle_beta   33.81678787
_cell_angle_gamma   33.81678097
_symmetry_Int_Tables_number   1
_chemical_formula_structural   YbPr2HoAl8
_chemical_formula_sum   'Yb1 Pr2 Ho1 Al8'
_cell_volume   257.83000390
_cell_formula_units_Z   1
loop_
 _symmetry_equiv_pos_site_id
 _symmetry_equiv_pos_as_xyz
  1  'x, y, z'
loop_
 _atom_site_type_symbol
 _atom_site_label
 _atom_site_symmetry_multiplicity
 _atom_site_fract_x
 _atom_site_fract_y
 _atom_site_fract_z
 _atom_site_occupancy
  Yb  Yb0  1  0.937656  0.937656  0.937656  1
  Pr  Pr1  1  0.564776  0.564776  0.564776  1
  Pr  Pr2  1  0.436852  0.436852  0.436852  1
  Ho  Ho3  1  0.060524  0.060524  0.060524  1
  Al  Al4  1  0.749202  0.749202  0.749202  1
  Al  Al5  1  0.250846  0.250846  0.250846  1
  Al  Al6  1  0.003142  0.500551  0.500551  1
  Al  Al7  1  0.497439  0.999228  0.999228  1
  Al  Al8  1  0.500551  0.003142  0.500551  1
  Al  Al9  1  0.999228  0.497439  0.999228  1
  Al  Al10  1  0.500551  0.500551  0.003142  1
  Al  Al11  1  0.999228  0.999228  0.497439  1
