# generated using pymatgen
data_DyY2ZnCd3Au2
_symmetry_space_group_name_H-M   'P 1'
_cell_length_a   7.87474063
_cell_length_b   7.87474138
_cell_length_c   3.81901500
_cell_angle_alpha   90.00000000
_cell_angle_beta   90.00000000
_cell_angle_gamma   119.86294693
_symmetry_Int_Tables_number   1
_chemical_formula_structural   DyY2ZnCd3Au2
_chemical_formula_sum   'Dy1 Y2 Zn1 Cd3 Au2'
_cell_volume   205.37741151
_cell_formula_units_Z   1
loop_
 _symmetry_equiv_pos_site_id
 _symmetry_equiv_pos_as_xyz
  1  'x, y, z'
loop_
 _atom_site_type_symbol
 _atom_site_label
 _atom_site_symmetry_multiplicity
 _atom_site_fract_x
 _atom_site_fract_y
 _atom_site_fract_z
 _atom_site_occupancy
  Dy  Dy0  1  0.410071  0.410071  0.000000  1
  Y  Y1  1  0.590412  0.999936  0.000000  1
  Y  Y2  1  0.999936  0.590412  0.000000  1
  Zn  Zn3  1  0.000118  0.000118  0.000000  1
  Cd  Cd4  1  0.256149  0.000056  0.500000  1
  Cd  Cd5  1  0.000056  0.256149  0.500000  1
  Cd  Cd6  1  0.743710  0.743710  0.500000  1
  Au  Au7  1  0.333565  0.665983  0.500000  1
  Au  Au8  1  0.665983  0.333565  0.500000  1
