# generated using pymatgen
data_Na6CaYb5(AlSb4)2
_symmetry_space_group_name_H-M   'P 1'
_cell_length_a   10.08480915
_cell_length_b   10.08480860
_cell_length_c   7.58835906
_cell_angle_alpha   90.01203384
_cell_angle_beta   89.98796519
_cell_angle_gamma   120.01584929
_symmetry_Int_Tables_number   1
_chemical_formula_structural   Na6CaYb5(AlSb4)2
_chemical_formula_sum   'Na6 Ca1 Yb5 Al2 Sb8'
_cell_volume   668.25844018
_cell_formula_units_Z   1
loop_
 _symmetry_equiv_pos_site_id
 _symmetry_equiv_pos_as_xyz
  1  'x, y, z'
loop_
 _atom_site_type_symbol
 _atom_site_label
 _atom_site_symmetry_multiplicity
 _atom_site_fract_x
 _atom_site_fract_y
 _atom_site_fract_z
 _atom_site_occupancy
  Na  Na0  1  0.855509  0.144491  0.548692  1
  Na  Na1  1  0.288962  0.144452  0.548654  1
  Na  Na2  1  0.855548  0.711038  0.548654  1
  Na  Na3  1  0.144495  0.855505  0.048664  1
  Na  Na4  1  0.711023  0.855520  0.048688  1
  Na  Na5  1  0.144480  0.288977  0.048688  1
  Ca  Ca6  1  0.479611  0.520389  0.730399  1
  Yb  Yb7  1  0.040691  0.520335  0.730342  1
  Yb  Yb8  1  0.479665  0.959309  0.730342  1
  Yb  Yb9  1  0.520344  0.479656  0.230321  1
  Yb  Yb10  1  0.959336  0.479670  0.230339  1
  Yb  Yb11  1  0.520330  0.040664  0.230339  1
  Al  Al12  1  0.666711  0.333289  0.859510  1
  Al  Al13  1  0.333324  0.666676  0.359378  1
  Sb  Sb14  1  0.812601  0.187399  0.963986  1
  Sb  Sb15  1  0.374809  0.187324  0.964044  1
  Sb  Sb16  1  0.812676  0.625191  0.964044  1
  Sb  Sb17  1  0.187414  0.812586  0.463922  1
  Sb  Sb18  1  0.625224  0.812700  0.463880  1
  Sb  Sb19  1  0.187300  0.374776  0.463880  1
  Sb  Sb20  1  0.666715  0.333285  0.496917  1
  Sb  Sb21  1  0.333230  0.666770  0.997044  1
