# generated using pymatgen
data_Dy4Al18CuIr5
_symmetry_space_group_name_H-M   'P 1'
_cell_length_a   7.56751549
_cell_length_b   7.56751533
_cell_length_c   9.45553809
_cell_angle_alpha   90.09920137
_cell_angle_beta   90.09920419
_cell_angle_gamma   119.72439232
_symmetry_Int_Tables_number   1
_chemical_formula_structural   Dy4Al18CuIr5
_chemical_formula_sum   'Dy4 Al18 Cu1 Ir5'
_cell_volume   470.24086110
_cell_formula_units_Z   1
loop_
 _symmetry_equiv_pos_site_id
 _symmetry_equiv_pos_as_xyz
  1  'x, y, z'
loop_
 _atom_site_type_symbol
 _atom_site_label
 _atom_site_symmetry_multiplicity
 _atom_site_fract_x
 _atom_site_fract_y
 _atom_site_fract_z
 _atom_site_occupancy
  Dy  Dy0  1  0.995289  0.669999  0.750213  1
  Dy  Dy1  1  0.004711  0.330001  0.249787  1
  Dy  Dy2  1  0.669999  0.995289  0.750213  1
  Dy  Dy3  1  0.330001  0.004711  0.249787  1
  Al  Al4  1  0.127785  0.127785  0.750712  1
  Al  Al5  1  0.872215  0.872215  0.249288  1
  Al  Al6  1  0.000813  0.337434  0.576412  1
  Al  Al7  1  0.999187  0.662566  0.423588  1
  Al  Al8  1  0.999817  0.666142  0.073598  1
  Al  Al9  1  0.333858  0.000183  0.926402  1
  Al  Al10  1  0.000183  0.333858  0.926402  1
  Al  Al11  1  0.666142  0.999817  0.073598  1
  Al  Al12  1  0.662566  0.999187  0.423588  1
  Al  Al13  1  0.337434  0.000813  0.576412  1
  Al  Al14  1  0.333402  0.333402  0.052908  1
  Al  Al15  1  0.666598  0.666598  0.947092  1
  Al  Al16  1  0.663815  0.663815  0.555065  1
  Al  Al17  1  0.336185  0.336185  0.444935  1
  Al  Al18  1  0.338475  0.547552  0.750311  1
  Al  Al19  1  0.661525  0.452448  0.249689  1
  Al  Al20  1  0.547552  0.338475  0.750311  1
  Al  Al21  1  0.452448  0.661525  0.249689  1
  Cu  Cu22  1  0.000000  0.000000  0.500000  1
  Ir  Ir23  1  0.671844  0.328156  0.500000  1
  Ir  Ir24  1  0.328156  0.671844  0.500000  1
  Ir  Ir25  1  0.328135  0.671865  0.000000  1
  Ir  Ir26  1  0.671865  0.328135  0.000000  1
  Ir  Ir27  1  0.000000  0.000000  0.000000  1
