# generated using pymatgen
data_Ta12Al7IrN4
_symmetry_space_group_name_H-M   'P 1'
_cell_length_a   7.03785939
_cell_length_b   7.03785918
_cell_length_c   7.03785936
_cell_angle_alpha   89.79575378
_cell_angle_beta   90.20424670
_cell_angle_gamma   90.20424609
_symmetry_Int_Tables_number   1
_chemical_formula_structural   Ta12Al7IrN4
_chemical_formula_sum   'Ta12 Al7 Ir1 N4'
_cell_volume   348.58884374
_cell_formula_units_Z   1
loop_
 _symmetry_equiv_pos_site_id
 _symmetry_equiv_pos_as_xyz
  1  'x, y, z'
loop_
 _atom_site_type_symbol
 _atom_site_label
 _atom_site_symmetry_multiplicity
 _atom_site_fract_x
 _atom_site_fract_y
 _atom_site_fract_z
 _atom_site_occupancy
  Ta  Ta0  1  0.792620  0.955953  0.373806  1
  Ta  Ta1  1  0.708029  0.044790  0.877378  1
  Ta  Ta2  1  0.206229  0.455271  0.122049  1
  Ta  Ta3  1  0.294975  0.545123  0.628748  1
  Ta  Ta4  1  0.955210  0.377378  0.791971  1
  Ta  Ta5  1  0.044047  0.873806  0.707380  1
  Ta  Ta6  1  0.454877  0.128748  0.205025  1
  Ta  Ta7  1  0.544729  0.622049  0.293771  1
  Ta  Ta8  1  0.377951  0.793771  0.955271  1
  Ta  Ta9  1  0.871252  0.705025  0.045123  1
  Ta  Ta10  1  0.126194  0.207380  0.455953  1
  Ta  Ta11  1  0.622622  0.291971  0.544790  1
  Al  Al12  1  0.321117  0.175725  0.820497  1
  Al  Al13  1  0.824275  0.320497  0.178883  1
  Al  Al14  1  0.679503  0.678883  0.675725  1
  Al  Al15  1  0.570486  0.429514  0.929514  1
  Al  Al16  1  0.422315  0.926263  0.562750  1
  Al  Al17  1  0.937250  0.577685  0.426263  1
  Al  Al18  1  0.073737  0.062750  0.077685  1
  Ir  Ir19  1  0.180399  0.819601  0.319601  1
  N  N20  1  0.875835  0.124165  0.624165  1
  N  N21  1  0.622322  0.876912  0.129062  1
  N  N22  1  0.123088  0.629062  0.877678  1
  N  N23  1  0.370938  0.377678  0.376912  1
