# generated using pymatgen
data_Y4MoOs2Ru5
_symmetry_space_group_name_H-M   'P 1'
_cell_length_a   5.49976865
_cell_length_b   5.23131438
_cell_length_c   9.07197000
_cell_angle_alpha   90.00000000
_cell_angle_beta   90.00000000
_cell_angle_gamma   122.45283162
_symmetry_Int_Tables_number   1
_chemical_formula_structural   Y4MoOs2Ru5
_chemical_formula_sum   'Y4 Mo1 Os2 Ru5'
_cell_volume   220.24882658
_cell_formula_units_Z   1
loop_
 _symmetry_equiv_pos_site_id
 _symmetry_equiv_pos_as_xyz
  1  'x, y, z'
loop_
 _atom_site_type_symbol
 _atom_site_label
 _atom_site_symmetry_multiplicity
 _atom_site_fract_x
 _atom_site_fract_y
 _atom_site_fract_z
 _atom_site_occupancy
  Y  Y0  1  0.336322  0.669361  0.432267  1
  Y  Y1  1  0.671581  0.345107  0.563507  1
  Y  Y2  1  0.671581  0.345107  0.936493  1
  Y  Y3  1  0.336322  0.669361  0.067733  1
  Mo  Mo4  1  0.158187  0.318166  0.750000  1
  Os  Os5  1  0.329143  0.165365  0.250000  1
  Os  Os6  1  0.821476  0.648436  0.250000  1
  Ru  Ru7  1  0.171611  0.821792  0.750000  1
  Ru  Ru8  1  0.649559  0.820527  0.750000  1
  Ru  Ru9  1  0.012538  0.014465  0.001807  1
  Ru  Ru10  1  0.829143  0.167848  0.250000  1
  Ru  Ru11  1  0.012538  0.014465  0.498193  1
