# generated using pymatgen
data_La5ZnGaIr3
_symmetry_space_group_name_H-M   'P 1'
_cell_length_a   8.67215657
_cell_length_b   8.67215692
_cell_length_c   8.65089663
_cell_angle_alpha   109.45027139
_cell_angle_beta   109.46271408
_cell_angle_gamma   109.59998107
_symmetry_Int_Tables_number   1
_chemical_formula_structural   La5ZnGaIr3
_chemical_formula_sum   'La10 Zn2 Ga2 Ir6'
_cell_volume   500.21808706
_cell_formula_units_Z   2
loop_
 _symmetry_equiv_pos_site_id
 _symmetry_equiv_pos_as_xyz
  1  'x, y, z'
loop_
 _atom_site_type_symbol
 _atom_site_label
 _atom_site_symmetry_multiplicity
 _atom_site_fract_x
 _atom_site_fract_y
 _atom_site_fract_z
 _atom_site_occupancy
  La  La0  1  0.248888  0.684406  0.436412  1
  La  La1  1  0.747995  0.812477  0.063589  1
  La  La2  1  0.436845  0.251869  0.686819  1
  La  La3  1  0.687396  0.437397  0.250000  1
  La  La4  1  0.065049  0.750025  0.813181  1
  La  La5  1  0.814951  0.064951  0.750000  1
  La  La6  1  0.221762  0.220385  0.220554  1
  La  La7  1  0.499832  0.001208  0.279446  1
  La  La8  1  0.281025  0.500791  0.001195  1
  La  La9  1  0.999595  0.279829  0.498806  1
  Zn  Zn10  1  0.500237  0.000564  0.902451  1
  Zn  Zn11  1  0.598113  0.597785  0.597549  1
  Ga  Ga12  1  0.897636  0.500536  0.000699  1
  Ga  Ga13  1  0.999836  0.896937  0.499302  1
  Ir  Ir14  1  0.247736  0.126668  0.874010  1
  Ir  Ir15  1  0.752658  0.373724  0.625989  1
  Ir  Ir16  1  0.879587  0.251828  0.125322  1
  Ir  Ir17  1  0.123205  0.873205  0.250001  1
  Ir  Ir18  1  0.626504  0.754265  0.374677  1
  Ir  Ir19  1  0.371152  0.621152  0.750000  1
