# generated using pymatgen
data_Hf6Al6NiPdPt4
_symmetry_space_group_name_H-M   'P 1'
_cell_length_a   7.05059600
_cell_length_b   7.05059579
_cell_length_c   7.24445100
_cell_angle_alpha   90.00000000
_cell_angle_beta   90.00000000
_cell_angle_gamma   120.00000101
_symmetry_Int_Tables_number   1
_chemical_formula_structural   Hf6Al6NiPdPt4
_chemical_formula_sum   'Hf6 Al6 Ni1 Pd1 Pt4'
_cell_volume   311.88016398
_cell_formula_units_Z   1
loop_
 _symmetry_equiv_pos_site_id
 _symmetry_equiv_pos_as_xyz
  1  'x, y, z'
loop_
 _atom_site_type_symbol
 _atom_site_label
 _atom_site_symmetry_multiplicity
 _atom_site_fract_x
 _atom_site_fract_y
 _atom_site_fract_z
 _atom_site_occupancy
  Hf  Hf0  1  0.586884  0.975750  0.750000  1
  Hf  Hf1  1  0.024250  0.611134  0.750000  1
  Hf  Hf2  1  0.388866  0.413116  0.750000  1
  Hf  Hf3  1  0.975302  0.576905  0.250000  1
  Hf  Hf4  1  0.601602  0.024698  0.250000  1
  Hf  Hf5  1  0.423095  0.398398  0.250000  1
  Al  Al6  1  0.750187  0.749010  0.991516  1
  Al  Al7  1  0.250990  0.001178  0.991516  1
  Al  Al8  1  0.998822  0.249813  0.991516  1
  Al  Al9  1  0.750187  0.749010  0.508484  1
  Al  Al10  1  0.250990  0.001178  0.508484  1
  Al  Al11  1  0.998822  0.249813  0.508484  1
  Ni  Ni12  1  0.000000  0.000000  0.750000  1
  Pd  Pd13  1  0.000000  0.000000  0.250000  1
  Pt  Pt14  1  0.666667  0.333333  0.967512  1
  Pt  Pt15  1  0.666667  0.333333  0.532488  1
  Pt  Pt16  1  0.333333  0.666667  0.468935  1
  Pt  Pt17  1  0.333333  0.666667  0.031066  1
