# generated using pymatgen
data_Ca5Zr3(As3Rh4)4
_symmetry_space_group_name_H-M   'P 1'
_cell_length_a   13.43159500
_cell_length_b   13.43159570
_cell_length_c   4.03152700
_cell_angle_alpha   90.00000000
_cell_angle_beta   90.00000000
_cell_angle_gamma   120.00000075
_symmetry_Int_Tables_number   1
_chemical_formula_structural   Ca5Zr3(As3Rh4)4
_chemical_formula_sum   'Ca5 Zr3 As12 Rh16'
_cell_volume   629.87649183
_cell_formula_units_Z   1
loop_
 _symmetry_equiv_pos_site_id
 _symmetry_equiv_pos_as_xyz
  1  'x, y, z'
loop_
 _atom_site_type_symbol
 _atom_site_label
 _atom_site_symmetry_multiplicity
 _atom_site_fract_x
 _atom_site_fract_y
 _atom_site_fract_z
 _atom_site_occupancy
  Ca  Ca0  1  0.183871  0.183871  0.500000  1
  Ca  Ca1  1  0.816129  0.000000  0.500000  1
  Ca  Ca2  1  0.000000  0.816129  0.500000  1
  Ca  Ca3  1  0.333333  0.666667  0.000000  1
  Ca  Ca4  1  0.666667  0.333333  0.000000  1
  Zr  Zr5  1  0.556548  0.556548  0.000000  1
  Zr  Zr6  1  0.443452  0.000000  0.000000  1
  Zr  Zr7  1  0.000000  0.443452  0.000000  1
  As  As8  1  0.822504  0.822504  0.000000  1
  As  As9  1  0.177496  0.000000  0.000000  1
  As  As10  1  0.000000  0.177496  0.000000  1
  As  As11  1  0.171787  0.485484  0.500000  1
  As  As12  1  0.514516  0.686303  0.500000  1
  As  As13  1  0.313697  0.828213  0.500000  1
  As  As14  1  0.686303  0.514516  0.500000  1
  As  As15  1  0.828213  0.313697  0.500000  1
  As  As16  1  0.485484  0.171787  0.500000  1
  As  As17  1  0.353396  0.353396  0.000000  1
  As  As18  1  0.646604  0.000000  0.000000  1
  As  As19  1  0.000000  0.646604  0.000000  1
  Rh  Rh20  1  0.715669  0.715669  0.500000  1
  Rh  Rh21  1  0.284331  0.000000  0.500000  1
  Rh  Rh22  1  0.000000  0.284331  0.500000  1
  Rh  Rh23  1  0.176834  0.376540  0.000000  1
  Rh  Rh24  1  0.623460  0.800295  0.000000  1
  Rh  Rh25  1  0.199705  0.823166  0.000000  1
  Rh  Rh26  1  0.800295  0.623460  0.000000  1
  Rh  Rh27  1  0.823166  0.199705  0.000000  1
  Rh  Rh28  1  0.376540  0.176834  0.000000  1
  Rh  Rh29  1  0.357559  0.481320  0.500000  1
  Rh  Rh30  1  0.518680  0.876241  0.500000  1
  Rh  Rh31  1  0.123759  0.642441  0.500000  1
  Rh  Rh32  1  0.876241  0.518680  0.500000  1
  Rh  Rh33  1  0.642441  0.123759  0.500000  1
  Rh  Rh34  1  0.481320  0.357559  0.500000  1
  Rh  Rh35  1  0.000000  0.000000  0.000000  1
