# generated using pymatgen
data_ErTmNbB2Ru5
_symmetry_space_group_name_H-M   'P 1'
_cell_length_a   9.65074446
_cell_length_b   9.65074446
_cell_length_c   3.11840000
_cell_angle_alpha   90.00000000
_cell_angle_beta   90.00000000
_cell_angle_gamma   90.06308581
_symmetry_Int_Tables_number   1
_chemical_formula_structural   ErTmNbB2Ru5
_chemical_formula_sum   'Er2 Tm2 Nb2 B4 Ru10'
_cell_volume   290.43783524
_cell_formula_units_Z   2
loop_
 _symmetry_equiv_pos_site_id
 _symmetry_equiv_pos_as_xyz
  1  'x, y, z'
loop_
 _atom_site_type_symbol
 _atom_site_label
 _atom_site_symmetry_multiplicity
 _atom_site_fract_x
 _atom_site_fract_y
 _atom_site_fract_z
 _atom_site_occupancy
  Er  Er0  1  0.825363  0.674637  0.000000  1
  Er  Er1  1  0.174637  0.325363  0.000000  1
  Tm  Tm2  1  0.325518  0.825518  0.000000  1
  Tm  Tm3  1  0.674482  0.174482  0.000000  1
  Nb  Nb4  1  0.500000  0.500000  0.000000  1
  Nb  Nb5  1  0.000000  0.000000  0.000000  1
  B  B6  1  0.620074  0.879926  0.000000  1
  B  B7  1  0.379926  0.120074  0.000000  1
  B  B8  1  0.120406  0.620406  0.000000  1
  B  B9  1  0.879594  0.379594  0.000000  1
  Ru  Ru10  1  0.570773  0.718489  0.500000  1
  Ru  Ru11  1  0.429227  0.281511  0.500000  1
  Ru  Ru12  1  0.072168  0.782133  0.500000  1
  Ru  Ru13  1  0.927832  0.217867  0.500000  1
  Ru  Ru14  1  0.282133  0.572168  0.500000  1
  Ru  Ru15  1  0.717867  0.427832  0.500000  1
  Ru  Ru16  1  0.218489  0.070773  0.500000  1
  Ru  Ru17  1  0.781511  0.929227  0.500000  1
  Ru  Ru18  1  0.500000  0.000000  0.500000  1
  Ru  Ru19  1  0.000000  0.500000  0.500000  1
