# generated using pymatgen
data_Pr3Hg(Ir2O7)2
_symmetry_space_group_name_H-M   'P 1'
_cell_length_a   7.29869449
_cell_length_b   7.29869498
_cell_length_c   7.29869487
_cell_angle_alpha   61.93023289
_cell_angle_beta   61.93022956
_cell_angle_gamma   61.93023344
_symmetry_Int_Tables_number   1
_chemical_formula_structural   Pr3Hg(Ir2O7)2
_chemical_formula_sum   'Pr3 Hg1 Ir4 O14'
_cell_volume   286.80497724
_cell_formula_units_Z   1
loop_
 _symmetry_equiv_pos_site_id
 _symmetry_equiv_pos_as_xyz
  1  'x, y, z'
loop_
 _atom_site_type_symbol
 _atom_site_label
 _atom_site_symmetry_multiplicity
 _atom_site_fract_x
 _atom_site_fract_y
 _atom_site_fract_z
 _atom_site_occupancy
  Pr  Pr0  1  0.125000  0.125000  0.625000  1
  Pr  Pr1  1  0.625000  0.125000  0.125000  1
  Pr  Pr2  1  0.125000  0.625000  0.125000  1
  Hg  Hg3  1  0.125000  0.125000  0.125000  1
  Ir  Ir4  1  0.625000  0.625000  0.625000  1
  Ir  Ir5  1  0.125000  0.625000  0.625000  1
  Ir  Ir6  1  0.625000  0.125000  0.625000  1
  Ir  Ir7  1  0.625000  0.625000  0.125000  1
  O  O8  1  0.955671  0.541467  0.541467  1
  O  O9  1  0.303465  0.303465  0.691144  1
  O  O10  1  0.946535  0.558856  0.946535  1
  O  O11  1  0.691144  0.303465  0.303465  1
  O  O12  1  0.541467  0.541467  0.955671  1
  O  O13  1  0.541467  0.955671  0.541467  1
  O  O14  1  0.558856  0.946535  0.946535  1
  O  O15  1  0.245760  0.245760  0.245760  1
  O  O16  1  0.294329  0.708533  0.708533  1
  O  O17  1  0.708533  0.294329  0.708533  1
  O  O18  1  0.004240  0.004240  0.004240  1
  O  O19  1  0.946535  0.946535  0.558856  1
  O  O20  1  0.303465  0.691144  0.303465  1
  O  O21  1  0.708533  0.708533  0.294329  1
