# generated using pymatgen
data_Ba3Ca2In(ReN4)2
_symmetry_space_group_name_H-M   'P 1'
_cell_length_a   10.74651292
_cell_length_b   10.42418373
_cell_length_c   8.15490171
_cell_angle_alpha   69.45051199
_cell_angle_beta   65.26928944
_cell_angle_gamma   45.28018619
_symmetry_Int_Tables_number   1
_chemical_formula_structural   Ba3Ca2In(ReN4)2
_chemical_formula_sum   'Ba6 Ca4 In2 Re4 N16'
_cell_volume   587.31243471
_cell_formula_units_Z   2
loop_
 _symmetry_equiv_pos_site_id
 _symmetry_equiv_pos_as_xyz
  1  'x, y, z'
loop_
 _atom_site_type_symbol
 _atom_site_label
 _atom_site_symmetry_multiplicity
 _atom_site_fract_x
 _atom_site_fract_y
 _atom_site_fract_z
 _atom_site_occupancy
  Ba  Ba0  1  0.317973  0.682027  0.682027  1
  Ba  Ba1  1  0.115620  0.115620  0.884380  1
  Ba  Ba2  1  0.132511  0.132511  0.367489  1
  Ba  Ba3  1  0.367489  0.367489  0.132511  1
  Ba  Ba4  1  0.682027  0.317973  0.317973  1
  Ba  Ba5  1  0.884380  0.884380  0.115620  1
  Ca  Ca6  1  0.334361  0.334361  0.665639  1
  Ca  Ca7  1  0.885733  0.885733  0.614267  1
  Ca  Ca8  1  0.665639  0.665639  0.334361  1
  Ca  Ca9  1  0.614267  0.614267  0.885733  1
  In  In10  1  0.530667  0.969333  0.969333  1
  In  In11  1  0.969333  0.530667  0.530667  1
  Re  Re12  1  0.481446  0.018554  0.481446  1
  Re  Re13  1  0.018554  0.481446  0.018554  1
  Re  Re14  1  0.751839  0.248161  0.751839  1
  Re  Re15  1  0.248161  0.751839  0.248161  1
  N  N16  1  0.050518  0.628329  0.836942  1
  N  N17  1  0.708272  0.301094  0.974071  1
  N  N18  1  0.628329  0.050518  0.484212  1
  N  N19  1  0.484212  0.836942  0.628329  1
  N  N20  1  0.267898  0.566567  0.410102  1
  N  N21  1  0.755433  0.410102  0.566567  1
  N  N22  1  0.974071  0.016563  0.708272  1
  N  N23  1  0.540419  0.981574  0.242186  1
  N  N24  1  0.410102  0.755433  0.267898  1
  N  N25  1  0.981574  0.540419  0.235821  1
  N  N26  1  0.301094  0.708272  0.016563  1
  N  N27  1  0.836942  0.484212  0.050518  1
  N  N28  1  0.235821  0.242186  0.981574  1
  N  N29  1  0.566567  0.267898  0.755433  1
  N  N30  1  0.242186  0.235821  0.540419  1
  N  N31  1  0.016563  0.974071  0.301094  1
