# generated using pymatgen
data_Y4CoNi(B8Ir)2
_symmetry_space_group_name_H-M   'P 1'
_cell_length_a   6.91916706
_cell_length_b   6.91907212
_cell_length_c   6.91916950
_cell_angle_alpha   111.10992046
_cell_angle_beta   113.13807227
_cell_angle_gamma   104.29434368
_symmetry_Int_Tables_number   1
_chemical_formula_structural   Y4CoNi(B8Ir)2
_chemical_formula_sum   'Y4 Co1 Ni1 B16 Ir2'
_cell_volume   253.36412326
_cell_formula_units_Z   1
loop_
 _symmetry_equiv_pos_site_id
 _symmetry_equiv_pos_as_xyz
  1  'x, y, z'
loop_
 _atom_site_type_symbol
 _atom_site_label
 _atom_site_symmetry_multiplicity
 _atom_site_fract_x
 _atom_site_fract_y
 _atom_site_fract_z
 _atom_site_occupancy
  Y  Y0  1  0.791096  0.792762  0.001666  1
  Y  Y1  1  0.208902  0.210567  0.001665  1
  Y  Y2  1  0.750547  0.248532  0.497984  1
  Y  Y3  1  0.249453  0.747434  0.497981  1
  Co  Co4  1  0.499999  0.742943  0.242944  1
  Ni  Ni5  1  0.500005  0.255594  0.755590  1
  B  B6  1  0.272049  0.108343  0.380396  1
  B  B7  1  0.726302  0.891666  0.617968  1
  B  B8  1  0.273698  0.891666  0.165363  1
  B  B9  1  0.727947  0.108343  0.836294  1
  B  B10  1  0.110861  0.731674  0.842534  1
  B  B11  1  0.889764  0.267868  0.157634  1
  B  B12  1  0.110234  0.267868  0.378103  1
  B  B13  1  0.889140  0.731674  0.620813  1
  B  B14  1  0.116145  0.111275  0.530668  1
  B  B15  1  0.578153  0.586350  0.467538  1
  B  B16  1  0.118811  0.586350  0.008197  1
  B  B17  1  0.580607  0.111275  0.995130  1
  B  B18  1  0.881186  0.889391  0.467540  1
  B  B19  1  0.419391  0.414529  0.530673  1
  B  B20  1  0.883857  0.414529  0.995138  1
  B  B21  1  0.421851  0.889391  0.008205  1
  Ir  Ir22  1  0.275728  0.499989  0.775715  1
  Ir  Ir23  1  0.724273  0.499989  0.224261  1
