# generated using pymatgen
data_Tb12Dy8Co3TcBi8
_symmetry_space_group_name_H-M   'P 1'
_cell_length_a   8.02283210
_cell_length_b   8.94602300
_cell_length_c   12.44974517
_cell_angle_alpha   90.00001281
_cell_angle_beta   90.19510706
_cell_angle_gamma   89.99998715
_symmetry_Int_Tables_number   1
_chemical_formula_structural   Tb12Dy8Co3TcBi8
_chemical_formula_sum   'Tb12 Dy8 Co3 Tc1 Bi8'
_cell_volume   893.54341378
_cell_formula_units_Z   1
loop_
 _symmetry_equiv_pos_site_id
 _symmetry_equiv_pos_as_xyz
  1  'x, y, z'
loop_
 _atom_site_type_symbol
 _atom_site_label
 _atom_site_symmetry_multiplicity
 _atom_site_fract_x
 _atom_site_fract_y
 _atom_site_fract_z
 _atom_site_occupancy
  Tb  Tb0  1  0.847158  0.750001  0.798643  1
  Tb  Tb1  1  0.150631  0.250000  0.198688  1
  Tb  Tb2  1  0.348236  0.250000  0.699647  1
  Tb  Tb3  1  0.651402  0.750000  0.294623  1
  Tb  Tb4  1  0.381002  0.750000  0.693362  1
  Tb  Tb5  1  0.618375  0.249999  0.309131  1
  Tb  Tb6  1  0.881112  0.250000  0.810025  1
  Tb  Tb7  1  0.116890  0.749999  0.187685  1
  Tb  Tb8  1  0.948224  0.750000  0.503833  1
  Tb  Tb9  1  0.049526  0.250000  0.496358  1
  Tb  Tb10  1  0.451882  0.250000  0.997029  1
  Tb  Tb11  1  0.548945  0.750000  0.003210  1
  Dy  Dy12  1  0.678404  0.043585  0.565307  1
  Dy  Dy13  1  0.324860  0.967157  0.437862  1
  Dy  Dy14  1  0.175290  0.965727  0.937013  1
  Dy  Dy15  1  0.324860  0.532843  0.437862  1
  Dy  Dy16  1  0.823546  0.036600  0.062938  1
  Dy  Dy17  1  0.678403  0.456415  0.565307  1
  Dy  Dy18  1  0.823545  0.463401  0.062938  1
  Dy  Dy19  1  0.175290  0.534274  0.937013  1
  Co  Co20  1  0.429456  0.249999  0.489348  1
  Co  Co21  1  0.060298  0.250000  0.991670  1
  Co  Co22  1  0.937535  0.750000  0.006962  1
  Tc  Tc23  1  0.575521  0.750000  0.512157  1
  Bi  Bi24  1  0.572102  0.492300  0.827247  1
  Bi  Bi25  1  0.426082  0.507325  0.173154  1
  Bi  Bi26  1  0.073769  0.507803  0.673873  1
  Bi  Bi27  1  0.426081  0.992675  0.173154  1
  Bi  Bi28  1  0.927851  0.492602  0.326420  1
  Bi  Bi29  1  0.572102  0.007700  0.827248  1
  Bi  Bi30  1  0.927851  0.007398  0.326420  1
  Bi  Bi31  1  0.073768  0.992198  0.673873  1
