# generated using pymatgen
data_Dy13Y2Ho(In3Rh)2
_symmetry_space_group_name_H-M   'P 1'
_cell_length_a   10.39368400
_cell_length_b   10.39368377
_cell_length_c   7.03350700
_cell_angle_alpha   90.00002756
_cell_angle_beta   89.99996692
_cell_angle_gamma   119.99996892
_symmetry_Int_Tables_number   1
_chemical_formula_structural   Dy13Y2Ho(In3Rh)2
_chemical_formula_sum   'Dy13 Y2 Ho1 In6 Rh2'
_cell_volume   658.02394807
_cell_formula_units_Z   1
loop_
 _symmetry_equiv_pos_site_id
 _symmetry_equiv_pos_as_xyz
  1  'x, y, z'
loop_
 _atom_site_type_symbol
 _atom_site_label
 _atom_site_symmetry_multiplicity
 _atom_site_fract_x
 _atom_site_fract_y
 _atom_site_fract_z
 _atom_site_occupancy
  Dy  Dy0  1  0.466813  0.533187  0.480270  1
  Dy  Dy1  1  0.066374  0.533187  0.480270  1
  Dy  Dy2  1  0.466813  0.933626  0.480270  1
  Dy  Dy3  1  0.533326  0.466674  0.979902  1
  Dy  Dy4  1  0.933349  0.466674  0.979902  1
  Dy  Dy5  1  0.533326  0.066651  0.979902  1
  Dy  Dy6  1  0.823769  0.176231  0.275754  1
  Dy  Dy7  1  0.352462  0.176231  0.275754  1
  Dy  Dy8  1  0.823769  0.647539  0.275754  1
  Dy  Dy9  1  0.176043  0.823957  0.775350  1
  Dy  Dy10  1  0.647912  0.823957  0.775350  1
  Dy  Dy11  1  0.176043  0.352088  0.775350  1
  Dy  Dy12  1  0.333333  0.666667  0.101274  1
  Y  Y13  1  0.000000  0.000000  0.495106  1
  Y  Y14  1  0.000000  0.000000  0.995450  1
  Ho  Ho15  1  0.666667  0.333333  0.600140  1
  In  In16  1  0.162834  0.837166  0.234084  1
  In  In17  1  0.674332  0.837166  0.234084  1
  In  In18  1  0.162834  0.325668  0.234083  1
  In  In19  1  0.836881  0.163119  0.733851  1
  In  In20  1  0.326236  0.163119  0.733851  1
  In  In21  1  0.836881  0.673764  0.733851  1
  Rh  Rh22  1  0.333333  0.666667  0.707681  1
  Rh  Rh23  1  0.666667  0.333333  0.207271  1
