# generated using pymatgen
data_Tb5Ce(Si3Ru)8
_symmetry_space_group_name_H-M   'P 1'
_cell_length_a   10.12392552
_cell_length_b   10.12392495
_cell_length_c   8.17266228
_cell_angle_alpha   90.11948753
_cell_angle_beta   89.88051373
_cell_angle_gamma   132.44101956
_symmetry_Int_Tables_number   1
_chemical_formula_structural   Tb5Ce(Si3Ru)8
_chemical_formula_sum   'Tb5 Ce1 Si24 Ru8'
_cell_volume   618.15929422
_cell_formula_units_Z   1
loop_
 _symmetry_equiv_pos_site_id
 _symmetry_equiv_pos_as_xyz
  1  'x, y, z'
loop_
 _atom_site_type_symbol
 _atom_site_label
 _atom_site_symmetry_multiplicity
 _atom_site_fract_x
 _atom_site_fract_y
 _atom_site_fract_z
 _atom_site_occupancy
  Tb  Tb0  1  0.499974  0.499912  0.499564  1
  Tb  Tb1  1  0.999912  0.999974  0.000436  1
  Tb  Tb2  1  0.996856  0.496856  0.250000  1
  Tb  Tb3  1  0.497247  0.997247  0.250000  1
  Tb  Tb4  1  0.003225  0.503225  0.750000  1
  Ce  Ce5  1  0.503762  0.003762  0.750000  1
  Si  Si6  1  0.794523  0.205486  0.499592  1
  Si  Si7  1  0.294324  0.704886  0.000202  1
  Si  Si8  1  0.204886  0.794324  0.499798  1
  Si  Si9  1  0.705486  0.294523  0.000408  1
  Si  Si10  1  0.332320  0.333592  0.832841  1
  Si  Si11  1  0.667061  0.666816  0.166795  1
  Si  Si12  1  0.166816  0.167061  0.333205  1
  Si  Si13  1  0.833592  0.832320  0.667159  1
  Si  Si14  1  0.122076  0.887329  0.729041  1
  Si  Si15  1  0.111252  0.877261  0.272030  1
  Si  Si16  1  0.613287  0.378760  0.227804  1
  Si  Si17  1  0.622645  0.387815  0.771313  1
  Si  Si18  1  0.878760  0.113287  0.272196  1
  Si  Si19  1  0.887815  0.122645  0.728687  1
  Si  Si20  1  0.387329  0.622076  0.770959  1
  Si  Si21  1  0.377261  0.611252  0.227970  1
  Si  Si22  1  0.345934  0.111530  0.504880  1
  Si  Si23  1  0.888946  0.655155  0.493654  1
  Si  Si24  1  0.388573  0.153921  0.005447  1
  Si  Si25  1  0.844899  0.611103  0.995489  1
  Si  Si26  1  0.653921  0.888573  0.494553  1
  Si  Si27  1  0.111103  0.344899  0.504511  1
  Si  Si28  1  0.611530  0.845934  0.995120  1
  Si  Si29  1  0.155155  0.388946  0.006346  1
  Ru  Ru30  1  0.669692  0.333238  0.498762  1
  Ru  Ru31  1  0.167273  0.830394  0.001438  1
  Ru  Ru32  1  0.330394  0.667273  0.498562  1
  Ru  Ru33  1  0.833238  0.169692  0.001238  1
  Ru  Ru34  1  0.125933  0.126152  0.626701  1
  Ru  Ru35  1  0.872873  0.873976  0.373802  1
  Ru  Ru36  1  0.373976  0.372873  0.126198  1
  Ru  Ru37  1  0.626152  0.625933  0.873299  1
