# generated using pymatgen
data_LiAl(PSe3)2
_symmetry_space_group_name_H-M   'P 1'
_cell_length_a   6.34990800
_cell_length_b   6.34990781
_cell_length_c   14.76821400
_cell_angle_alpha   90.00000000
_cell_angle_beta   90.00000000
_cell_angle_gamma   119.99999056
_symmetry_Int_Tables_number   1
_chemical_formula_structural   LiAl(PSe3)2
_chemical_formula_sum   'Li2 Al2 P4 Se12'
_cell_volume   515.69569181
_cell_formula_units_Z   2
loop_
 _symmetry_equiv_pos_site_id
 _symmetry_equiv_pos_as_xyz
  1  'x, y, z'
loop_
 _atom_site_type_symbol
 _atom_site_label
 _atom_site_symmetry_multiplicity
 _atom_site_fract_x
 _atom_site_fract_y
 _atom_site_fract_z
 _atom_site_occupancy
  Li  Li0  1  0.333333  0.666667  0.750000  1
  Li  Li1  1  0.666667  0.333333  0.250000  1
  Al  Al2  1  0.000000  0.000000  0.250000  1
  Al  Al3  1  0.000000  0.000000  0.750000  1
  P  P4  1  0.666667  0.333333  0.674894  1
  P  P5  1  0.666667  0.333333  0.825106  1
  P  P6  1  0.333333  0.666667  0.325106  1
  P  P7  1  0.333333  0.666667  0.174894  1
  Se  Se8  1  0.684863  0.989310  0.135157  1
  Se  Se9  1  0.684863  0.695554  0.364843  1
  Se  Se10  1  0.304446  0.315137  0.135157  1
  Se  Se11  1  0.304446  0.989310  0.364843  1
  Se  Se12  1  0.695554  0.684863  0.864843  1
  Se  Se13  1  0.315137  0.010690  0.864843  1
  Se  Se14  1  0.989310  0.304446  0.864843  1
  Se  Se15  1  0.315137  0.304446  0.635157  1
  Se  Se16  1  0.989310  0.684863  0.635157  1
  Se  Se17  1  0.695554  0.010690  0.635157  1
  Se  Se18  1  0.010690  0.315137  0.364843  1
  Se  Se19  1  0.010690  0.695554  0.135157  1
