# generated using pymatgen
data_LuPa3(Ir2Pb)2
_symmetry_space_group_name_H-M   'P 1'
_cell_length_a   7.87046865
_cell_length_b   7.87046865
_cell_length_c   3.55189500
_cell_angle_alpha   90.00000000
_cell_angle_beta   90.00000000
_cell_angle_gamma   91.30279973
_symmetry_Int_Tables_number   1
_chemical_formula_structural   LuPa3(Ir2Pb)2
_chemical_formula_sum   'Lu1 Pa3 Ir4 Pb2'
_cell_volume   219.96269158
_cell_formula_units_Z   1
loop_
 _symmetry_equiv_pos_site_id
 _symmetry_equiv_pos_as_xyz
  1  'x, y, z'
loop_
 _atom_site_type_symbol
 _atom_site_label
 _atom_site_symmetry_multiplicity
 _atom_site_fract_x
 _atom_site_fract_y
 _atom_site_fract_z
 _atom_site_occupancy
  Lu  Lu0  1  0.332671  0.167329  0.500001  1
  Pa  Pa1  1  0.832993  0.330659  0.500001  1
  Pa  Pa2  1  0.169341  0.667008  0.500001  1
  Pa  Pa3  1  0.663408  0.836593  0.500001  1
  Ir  Ir4  1  0.641405  0.126360  0.000000  1
  Ir  Ir5  1  0.118399  0.381600  0.000000  1
  Ir  Ir6  1  0.863422  0.636579  0.000000  1
  Ir  Ir7  1  0.373639  0.858596  0.000000  1
  Pb  Pb8  1  0.009138  0.004416  0.000000  1
  Pb  Pb9  1  0.495583  0.490861  0.000000  1
