# generated using pymatgen
data_Ba3Sr(MgAs2)2
_symmetry_space_group_name_H-M   'P 1'
_cell_length_a   9.06438369
_cell_length_b   9.06438340
_cell_length_c   7.97657059
_cell_angle_alpha   90.54142221
_cell_angle_beta   89.45857646
_cell_angle_gamma   150.48417837
_symmetry_Int_Tables_number   1
_chemical_formula_structural   Ba3Sr(MgAs2)2
_chemical_formula_sum   'Ba3 Sr1 Mg2 As4'
_cell_volume   322.86632301
_cell_formula_units_Z   1
loop_
 _symmetry_equiv_pos_site_id
 _symmetry_equiv_pos_as_xyz
  1  'x, y, z'
loop_
 _atom_site_type_symbol
 _atom_site_label
 _atom_site_symmetry_multiplicity
 _atom_site_fract_x
 _atom_site_fract_y
 _atom_site_fract_z
 _atom_site_occupancy
  Ba  Ba0  1  0.535959  0.464041  0.229221  1
  Ba  Ba1  1  0.704449  0.295551  0.895051  1
  Ba  Ba2  1  0.296673  0.703327  0.399045  1
  Sr  Sr3  1  0.465518  0.534482  0.731267  1
  Mg  Mg4  1  0.092145  0.907855  0.581469  1
  Mg  Mg5  1  0.906339  0.093661  0.074501  1
  As  As6  1  0.055822  0.944178  0.922286  1
  As  As7  1  0.667648  0.332352  0.500914  1
  As  As8  1  0.334220  0.665780  0.995790  1
  As  As9  1  0.941225  0.058775  0.439173  1
