# generated using pymatgen
data_Tb6Al24FeOs6Ru
_symmetry_space_group_name_H-M   'P 1'
_cell_length_a   8.82826400
_cell_length_b   8.82826582
_cell_length_c   9.54184700
_cell_angle_alpha   90.00000000
_cell_angle_beta   90.00000000
_cell_angle_gamma   119.99999317
_symmetry_Int_Tables_number   1
_chemical_formula_structural   Tb6Al24FeOs6Ru
_chemical_formula_sum   'Tb6 Al24 Fe1 Os6 Ru1'
_cell_volume   644.04145635
_cell_formula_units_Z   1
loop_
 _symmetry_equiv_pos_site_id
 _symmetry_equiv_pos_as_xyz
  1  'x, y, z'
loop_
 _atom_site_type_symbol
 _atom_site_label
 _atom_site_symmetry_multiplicity
 _atom_site_fract_x
 _atom_site_fract_y
 _atom_site_fract_z
 _atom_site_occupancy
  Tb  Tb0  1  0.192852  0.385704  0.250245  1
  Tb  Tb1  1  0.807148  0.614296  0.749755  1
  Tb  Tb2  1  0.614296  0.807148  0.250245  1
  Tb  Tb3  1  0.385704  0.192852  0.749755  1
  Tb  Tb4  1  0.192852  0.807148  0.250245  1
  Tb  Tb5  1  0.807148  0.192852  0.749755  1
  Al  Al6  1  0.333333  0.666667  0.013278  1
  Al  Al7  1  0.666667  0.333333  0.986722  1
  Al  Al8  1  0.666667  0.333333  0.514110  1
  Al  Al9  1  0.333333  0.666667  0.485890  1
  Al  Al10  1  0.161823  0.323645  0.576672  1
  Al  Al11  1  0.838177  0.676355  0.423328  1
  Al  Al12  1  0.676355  0.838177  0.576672  1
  Al  Al13  1  0.840584  0.681169  0.075597  1
  Al  Al14  1  0.323645  0.161823  0.423328  1
  Al  Al15  1  0.159416  0.318831  0.924403  1
  Al  Al16  1  0.161823  0.838177  0.576672  1
  Al  Al17  1  0.318831  0.159416  0.075597  1
  Al  Al18  1  0.838177  0.161823  0.423328  1
  Al  Al19  1  0.681169  0.840584  0.924403  1
  Al  Al20  1  0.840584  0.159416  0.075597  1
  Al  Al21  1  0.159416  0.840584  0.924403  1
  Al  Al22  1  0.560566  0.121130  0.249696  1
  Al  Al23  1  0.439434  0.878870  0.750304  1
  Al  Al24  1  0.878870  0.439434  0.249696  1
  Al  Al25  1  0.121130  0.560566  0.750304  1
  Al  Al26  1  0.560566  0.439434  0.249696  1
  Al  Al27  1  0.439434  0.560566  0.750304  1
  Al  Al28  1  0.000000  0.000000  0.244234  1
  Al  Al29  1  0.000000  0.000000  0.755766  1
  Fe  Fe30  1  0.000000  0.000000  0.000000  1
  Os  Os31  1  0.500000  0.000000  0.000000  1
  Os  Os32  1  0.000000  0.500000  0.000000  1
  Os  Os33  1  0.500000  0.000000  0.500000  1
  Os  Os34  1  0.500000  0.500000  0.000000  1
  Os  Os35  1  0.000000  0.500000  0.500000  1
  Os  Os36  1  0.500000  0.500000  0.500000  1
  Ru  Ru37  1  0.000000  0.000000  0.500000  1
