# generated using pymatgen
data_Nd3MgCd2Sn2Au
_symmetry_space_group_name_H-M   'P 1'
_cell_length_a   7.61831515
_cell_length_b   7.61831571
_cell_length_c   4.68644600
_cell_angle_alpha   90.00000000
_cell_angle_beta   90.00000000
_cell_angle_gamma   120.63004592
_symmetry_Int_Tables_number   1
_chemical_formula_structural   Nd3MgCd2Sn2Au
_chemical_formula_sum   'Nd3 Mg1 Cd2 Sn2 Au1'
_cell_volume   234.04521067
_cell_formula_units_Z   1
loop_
 _symmetry_equiv_pos_site_id
 _symmetry_equiv_pos_as_xyz
  1  'x, y, z'
loop_
 _atom_site_type_symbol
 _atom_site_label
 _atom_site_symmetry_multiplicity
 _atom_site_fract_x
 _atom_site_fract_y
 _atom_site_fract_z
 _atom_site_occupancy
  Nd  Nd0  1  0.592286  0.002313  0.000000  1
  Nd  Nd1  1  0.002313  0.592286  0.000000  1
  Nd  Nd2  1  0.402391  0.402391  0.000000  1
  Mg  Mg3  1  0.774272  0.774272  0.500000  1
  Cd  Cd4  1  0.238190  0.998603  0.500000  1
  Cd  Cd5  1  0.998603  0.238190  0.500000  1
  Sn  Sn6  1  0.339124  0.667108  0.500000  1
  Sn  Sn7  1  0.667108  0.339124  0.500000  1
  Au  Au8  1  0.985713  0.985713  0.000000  1
