# generated using pymatgen
data_Dy2Y8Si6N
_symmetry_space_group_name_H-M   'P 1'
_cell_length_a   8.42437100
_cell_length_b   8.42436999
_cell_length_c   6.35424200
_cell_angle_alpha   90.00000000
_cell_angle_beta   90.00000000
_cell_angle_gamma   119.99999217
_symmetry_Int_Tables_number   1
_chemical_formula_structural   Dy2Y8Si6N
_chemical_formula_sum   'Dy2 Y8 Si6 N1'
_cell_volume   390.54342780
_cell_formula_units_Z   1
loop_
 _symmetry_equiv_pos_site_id
 _symmetry_equiv_pos_as_xyz
  1  'x, y, z'
loop_
 _atom_site_type_symbol
 _atom_site_label
 _atom_site_symmetry_multiplicity
 _atom_site_fract_x
 _atom_site_fract_y
 _atom_site_fract_z
 _atom_site_occupancy
  Dy  Dy0  1  0.333333  0.666667  0.500000  1
  Dy  Dy1  1  0.666667  0.333333  0.500000  1
  Y  Y2  1  0.666667  0.333333  0.000000  1
  Y  Y3  1  0.333333  0.666667  0.000000  1
  Y  Y4  1  0.000000  0.766766  0.266887  1
  Y  Y5  1  0.233234  0.233234  0.266887  1
  Y  Y6  1  0.766766  0.000000  0.266887  1
  Y  Y7  1  0.000000  0.233234  0.733113  1
  Y  Y8  1  0.766766  0.766766  0.733113  1
  Y  Y9  1  0.233234  0.000000  0.733113  1
  Si  Si10  1  0.000000  0.399684  0.252300  1
  Si  Si11  1  0.600316  0.600316  0.252300  1
  Si  Si12  1  0.399684  0.000000  0.252300  1
  Si  Si13  1  0.000000  0.600316  0.747700  1
  Si  Si14  1  0.399684  0.399684  0.747700  1
  Si  Si15  1  0.600316  0.000000  0.747700  1
  N  N16  1  0.000000  0.000000  0.500000  1
