# generated using pymatgen
data_Ho7Lu3(Bi2Ir)2
_symmetry_space_group_name_H-M   'P 1'
_cell_length_a   7.90377136
_cell_length_b   8.97290473
_cell_length_c   12.45952509
_cell_angle_alpha   89.95236167
_cell_angle_beta   90.17830975
_cell_angle_gamma   90.07599404
_symmetry_Int_Tables_number   1
_chemical_formula_structural   Ho7Lu3(Bi2Ir)2
_chemical_formula_sum   'Ho14 Lu6 Bi8 Ir4'
_cell_volume   883.62151186
_cell_formula_units_Z   2
loop_
 _symmetry_equiv_pos_site_id
 _symmetry_equiv_pos_as_xyz
  1  'x, y, z'
loop_
 _atom_site_type_symbol
 _atom_site_label
 _atom_site_symmetry_multiplicity
 _atom_site_fract_x
 _atom_site_fract_y
 _atom_site_fract_z
 _atom_site_occupancy
  Ho  Ho0  1  0.839531  0.750409  0.793385  1
  Ho  Ho1  1  0.160469  0.249591  0.206615  1
  Ho  Ho2  1  0.340459  0.249824  0.706081  1
  Ho  Ho3  1  0.659541  0.750176  0.293919  1
  Ho  Ho4  1  0.375508  0.750021  0.690400  1
  Ho  Ho5  1  0.624492  0.249979  0.309600  1
  Ho  Ho6  1  0.875041  0.249211  0.808844  1
  Ho  Ho7  1  0.124959  0.750789  0.191156  1
  Ho  Ho8  1  0.945727  0.750133  0.501887  1
  Ho  Ho9  1  0.054273  0.249867  0.498113  1
  Ho  Ho10  1  0.446844  0.248844  0.998275  1
  Ho  Ho11  1  0.553156  0.751156  0.001725  1
  Ho  Ho12  1  0.824099  0.458050  0.065994  1
  Ho  Ho13  1  0.175901  0.541950  0.934006  1
  Lu  Lu14  1  0.672372  0.041630  0.565306  1
  Lu  Lu15  1  0.327628  0.958370  0.434694  1
  Lu  Lu16  1  0.172518  0.957813  0.934523  1
  Lu  Lu17  1  0.327559  0.541585  0.434762  1
  Lu  Lu18  1  0.827482  0.042187  0.065477  1
  Lu  Lu19  1  0.672441  0.458415  0.565238  1
  Bi  Bi20  1  0.566720  0.491490  0.826733  1
  Bi  Bi21  1  0.433280  0.508510  0.173267  1
  Bi  Bi22  1  0.065061  0.508258  0.672756  1
  Bi  Bi23  1  0.434647  0.991626  0.173170  1
  Bi  Bi24  1  0.934939  0.491742  0.327244  1
  Bi  Bi25  1  0.565353  0.008374  0.826830  1
  Bi  Bi26  1  0.934687  0.008325  0.327099  1
  Bi  Bi27  1  0.065313  0.991675  0.672901  1
  Ir  Ir28  1  0.570277  0.750002  0.508210  1
  Ir  Ir29  1  0.429723  0.249998  0.491790  1
  Ir  Ir30  1  0.071364  0.247683  0.991362  1
  Ir  Ir31  1  0.928636  0.752317  0.008638  1
