# generated using pymatgen
data_Y2Zn5Si
_symmetry_space_group_name_H-M   'P 1'
_cell_length_a   8.15686517
_cell_length_b   8.15686454
_cell_length_c   8.75644600
_cell_angle_alpha   90.00000000
_cell_angle_beta   90.00000000
_cell_angle_gamma   149.45555906
_symmetry_Int_Tables_number   1
_chemical_formula_structural   Y2Zn5Si
_chemical_formula_sum   'Y4 Zn10 Si2'
_cell_volume   296.08379846
_cell_formula_units_Z   2
loop_
 _symmetry_equiv_pos_site_id
 _symmetry_equiv_pos_as_xyz
  1  'x, y, z'
loop_
 _atom_site_type_symbol
 _atom_site_label
 _atom_site_symmetry_multiplicity
 _atom_site_fract_x
 _atom_site_fract_y
 _atom_site_fract_z
 _atom_site_occupancy
  Y  Y0  1  0.198982  0.801018  0.250000  1
  Y  Y1  1  0.801018  0.198982  0.750000  1
  Y  Y2  1  0.000000  0.000000  0.500000  1
  Y  Y3  1  0.000000  0.000000  0.000000  1
  Zn  Zn4  1  0.813323  0.186677  0.392981  1
  Zn  Zn5  1  0.186677  0.813323  0.607019  1
  Zn  Zn6  1  0.813323  0.186677  0.107019  1
  Zn  Zn7  1  0.186677  0.813323  0.892981  1
  Zn  Zn8  1  0.648643  0.351357  0.475133  1
  Zn  Zn9  1  0.351357  0.648643  0.524867  1
  Zn  Zn10  1  0.648643  0.351357  0.024867  1
  Zn  Zn11  1  0.351357  0.648643  0.975133  1
  Zn  Zn12  1  0.402631  0.597369  0.250000  1
  Zn  Zn13  1  0.597369  0.402631  0.750000  1
  Si  Si14  1  0.555877  0.444123  0.250000  1
  Si  Si15  1  0.444123  0.555877  0.750000  1
