# generated using pymatgen
data_NaWF5
_symmetry_space_group_name_H-M   'P 1'
_cell_length_a   5.81339871
_cell_length_b   5.81339876
_cell_length_c   8.07034246
_cell_angle_alpha   69.33020848
_cell_angle_beta   69.33020742
_cell_angle_gamma   72.13698214
_symmetry_Int_Tables_number   1
_chemical_formula_structural   NaWF5
_chemical_formula_sum   'Na2 W2 F10'
_cell_volume   233.53396135
_cell_formula_units_Z   2
loop_
 _symmetry_equiv_pos_site_id
 _symmetry_equiv_pos_as_xyz
  1  'x, y, z'
loop_
 _atom_site_type_symbol
 _atom_site_label
 _atom_site_symmetry_multiplicity
 _atom_site_fract_x
 _atom_site_fract_y
 _atom_site_fract_z
 _atom_site_occupancy
  Na  Na0  1  0.518662  0.481338  0.250000  1
  Na  Na1  1  0.481338  0.518662  0.750000  1
  W  W2  1  0.000000  0.000000  0.000000  1
  W  W3  1  0.000000  0.000000  0.500000  1
  F  F4  1  0.795096  0.739852  0.124067  1
  F  F5  1  0.264065  0.695643  0.464547  1
  F  F6  1  0.739852  0.795096  0.624067  1
  F  F7  1  0.910157  0.089843  0.250000  1
  F  F8  1  0.304357  0.735935  0.035453  1
  F  F9  1  0.695643  0.264065  0.964547  1
  F  F10  1  0.089843  0.910157  0.750000  1
  F  F11  1  0.260148  0.204904  0.375933  1
  F  F12  1  0.735935  0.304357  0.535453  1
  F  F13  1  0.204904  0.260148  0.875933  1
