# generated using pymatgen
data_YGa2CoNi2
_symmetry_space_group_name_H-M   'P 1'
_cell_length_a   8.98912100
_cell_length_b   9.02176904
_cell_length_c   3.85821200
_cell_angle_alpha   90.00000000
_cell_angle_beta   90.00000000
_cell_angle_gamma   119.88035189
_symmetry_Int_Tables_number   1
_chemical_formula_structural   YGa2CoNi2
_chemical_formula_sum   'Y3 Ga6 Co3 Ni6'
_cell_volume   271.29887781
_cell_formula_units_Z   3
loop_
 _symmetry_equiv_pos_site_id
 _symmetry_equiv_pos_as_xyz
  1  'x, y, z'
loop_
 _atom_site_type_symbol
 _atom_site_label
 _atom_site_symmetry_multiplicity
 _atom_site_fract_x
 _atom_site_fract_y
 _atom_site_fract_z
 _atom_site_occupancy
  Y  Y0  1  0.995824  0.991648  0.000000  1
  Y  Y1  1  0.335491  0.670983  0.500000  1
  Y  Y2  1  0.669057  0.338114  0.500000  1
  Ga  Ga3  1  0.317419  0.999041  0.500000  1
  Ga  Ga4  1  0.319353  0.319409  0.500000  1
  Ga  Ga5  1  0.000085  0.683736  0.500000  1
  Ga  Ga6  1  0.000056  0.319409  0.500000  1
  Ga  Ga7  1  0.683651  0.683736  0.500000  1
  Ga  Ga8  1  0.681622  0.999041  0.500000  1
  Co  Co9  1  0.641487  0.820966  0.000000  1
  Co  Co10  1  0.179480  0.820966  0.000000  1
  Co  Co11  1  0.819822  0.639644  0.000000  1
  Ni  Ni12  1  0.498909  0.997818  0.000000  1
  Ni  Ni13  1  0.498893  0.499611  0.000000  1
  Ni  Ni14  1  0.000719  0.499611  0.000000  1
  Ni  Ni15  1  0.178304  0.356607  0.000000  1
  Ni  Ni16  1  0.820963  0.179831  0.000000  1
  Ni  Ni17  1  0.358866  0.179831  0.000000  1
