# generated using pymatgen
data_Tm3Pa(Al3Rh)6
_symmetry_space_group_name_H-M   'P 1'
_cell_length_a   7.56546794
_cell_length_b   7.56331925
_cell_length_c   9.42041000
_cell_angle_alpha   90.00000000
_cell_angle_beta   90.00000000
_cell_angle_gamma   119.49872397
_symmetry_Int_Tables_number   1
_chemical_formula_structural   Tm3Pa(Al3Rh)6
_chemical_formula_sum   'Tm3 Pa1 Al18 Rh6'
_cell_volume   469.15924693
_cell_formula_units_Z   1
loop_
 _symmetry_equiv_pos_site_id
 _symmetry_equiv_pos_as_xyz
  1  'x, y, z'
loop_
 _atom_site_type_symbol
 _atom_site_label
 _atom_site_symmetry_multiplicity
 _atom_site_fract_x
 _atom_site_fract_y
 _atom_site_fract_z
 _atom_site_occupancy
  Tm  Tm0  1  0.005256  0.328375  0.750000  1
  Tm  Tm1  1  0.673100  0.994489  0.250000  1
  Tm  Tm2  1  0.328314  0.004621  0.750000  1
  Pa  Pa3  1  0.995577  0.671922  0.250000  1
  Al  Al4  1  0.131113  0.129570  0.250000  1
  Al  Al5  1  0.873619  0.875084  0.750000  1
  Al  Al6  1  0.000328  0.332931  0.075141  1
  Al  Al7  1  0.999567  0.664194  0.920024  1
  Al  Al8  1  0.999567  0.664194  0.579976  1
  Al  Al9  1  0.338779  0.002972  0.424552  1
  Al  Al10  1  0.000328  0.332931  0.424859  1
  Al  Al11  1  0.664605  0.000751  0.577168  1
  Al  Al12  1  0.664605  0.000751  0.922832  1
  Al  Al13  1  0.338779  0.002972  0.075448  1
  Al  Al14  1  0.331966  0.332096  0.555895  1
  Al  Al15  1  0.664093  0.666223  0.450438  1
  Al  Al16  1  0.664093  0.666223  0.049562  1
  Al  Al17  1  0.331966  0.332096  0.944105  1
  Al  Al18  1  0.339155  0.548704  0.250000  1
  Al  Al19  1  0.659089  0.447841  0.750000  1
  Al  Al20  1  0.549036  0.342141  0.250000  1
  Al  Al21  1  0.449235  0.660696  0.750000  1
  Rh  Rh22  1  0.673507  0.328977  0.001519  1
  Rh  Rh23  1  0.326175  0.672332  0.001787  1
  Rh  Rh24  1  0.326175  0.672332  0.498213  1
  Rh  Rh25  1  0.673507  0.328977  0.498481  1
  Rh  Rh26  1  0.999235  0.997803  0.002163  1
  Rh  Rh27  1  0.999235  0.997803  0.497837  1
