# generated using pymatgen
data_K4Zr6RuBr18
_symmetry_space_group_name_H-M   'P 1'
_cell_length_a   10.66270592
_cell_length_b   10.78520228
_cell_length_c   10.88439797
_cell_angle_alpha   118.50388389
_cell_angle_beta   100.21493817
_cell_angle_gamma   103.67240671
_symmetry_Int_Tables_number   1
_chemical_formula_structural   K4Zr6RuBr18
_chemical_formula_sum   'K4 Zr6 Ru1 Br18'
_cell_volume   1005.21190888
_cell_formula_units_Z   1
loop_
 _symmetry_equiv_pos_site_id
 _symmetry_equiv_pos_as_xyz
  1  'x, y, z'
loop_
 _atom_site_type_symbol
 _atom_site_label
 _atom_site_symmetry_multiplicity
 _atom_site_fract_x
 _atom_site_fract_y
 _atom_site_fract_z
 _atom_site_occupancy
  K  K0  1  0.650556  0.536924  0.226070  1
  K  K1  1  0.349444  0.463076  0.773930  1
  K  K2  1  0.685435  0.225754  0.563739  1
  K  K3  1  0.314565  0.774246  0.436261  1
  Zr  Zr4  1  0.158817  0.058975  0.242968  1
  Zr  Zr5  1  0.841183  0.941025  0.757032  1
  Zr  Zr6  1  0.853802  0.133671  0.140087  1
  Zr  Zr7  1  0.146198  0.866329  0.859913  1
  Zr  Zr8  1  0.152515  0.251329  0.046824  1
  Zr  Zr9  1  0.847485  0.748671  0.953176  1
  Ru  Ru10  1  0.000000  0.000000  0.000000  1
  Br  Br11  1  0.008972  0.412787  0.198906  1
  Br  Br12  1  0.991028  0.587213  0.801094  1
  Br  Br13  1  0.329701  0.334728  0.312627  1
  Br  Br14  1  0.670299  0.665272  0.687373  1
  Br  Br15  1  0.329440  0.527097  0.102470  1
  Br  Br16  1  0.670560  0.472903  0.897530  1
  Br  Br17  1  0.005498  0.794653  0.211473  1
  Br  Br18  1  0.994502  0.205347  0.788527  1
  Br  Br19  1  0.700076  0.282688  0.295508  1
  Br  Br20  1  0.299924  0.717312  0.704492  1
  Br  Br21  1  0.317278  0.127066  0.901068  1
  Br  Br22  1  0.682722  0.872934  0.098932  1
  Br  Br23  1  0.015250  0.205492  0.410517  1
  Br  Br24  1  0.984750  0.794508  0.589483  1
  Br  Br25  1  0.322076  0.920356  0.110066  1
  Br  Br26  1  0.677924  0.079644  0.889934  1
  Br  Br27  1  0.340317  0.122486  0.508382  1
  Br  Br28  1  0.659683  0.877514  0.491618  1
