# generated using pymatgen
data_Ho3Sn3GeIrRu
_symmetry_space_group_name_H-M   'P 1'
_cell_length_a   7.39035900
_cell_length_b   7.39035856
_cell_length_c   4.13901600
_cell_angle_alpha   90.00000000
_cell_angle_beta   90.00000000
_cell_angle_gamma   119.99998852
_symmetry_Int_Tables_number   1
_chemical_formula_structural   Ho3Sn3GeIrRu
_chemical_formula_sum   'Ho3 Sn3 Ge1 Ir1 Ru1'
_cell_volume   195.77572127
_cell_formula_units_Z   1
loop_
 _symmetry_equiv_pos_site_id
 _symmetry_equiv_pos_as_xyz
  1  'x, y, z'
loop_
 _atom_site_type_symbol
 _atom_site_label
 _atom_site_symmetry_multiplicity
 _atom_site_fract_x
 _atom_site_fract_y
 _atom_site_fract_z
 _atom_site_occupancy
  Ho  Ho0  1  0.401862  0.411388  0.500000  1
  Ho  Ho1  1  0.588612  0.990474  0.500000  1
  Ho  Ho2  1  0.009526  0.598138  0.500000  1
  Sn  Sn3  1  0.744486  0.756818  0.000000  1
  Sn  Sn4  1  0.243182  0.987668  0.000000  1
  Sn  Sn5  1  0.012332  0.255514  0.000000  1
  Ge  Ge6  1  0.666667  0.333333  0.000000  1
  Ir  Ir7  1  0.333333  0.666667  0.000000  1
  Ru  Ru8  1  0.000000  0.000000  0.500000  1
