# generated using pymatgen
data_SrYbTc2F12
_symmetry_space_group_name_H-M   'P 1'
_cell_length_a   5.43312937
_cell_length_b   5.50334043
_cell_length_c   10.43045300
_cell_angle_alpha   75.20429616
_cell_angle_beta   75.24711367
_cell_angle_gamma   59.53809597
_symmetry_Int_Tables_number   1
_chemical_formula_structural   SrYbTc2F12
_chemical_formula_sum   'Sr1 Yb1 Tc2 F12'
_cell_volume   256.96258073
_cell_formula_units_Z   1
loop_
 _symmetry_equiv_pos_site_id
 _symmetry_equiv_pos_as_xyz
  1  'x, y, z'
loop_
 _atom_site_type_symbol
 _atom_site_label
 _atom_site_symmetry_multiplicity
 _atom_site_fract_x
 _atom_site_fract_y
 _atom_site_fract_z
 _atom_site_occupancy
  Sr  Sr0  1  0.000000  0.000000  0.000000  1
  Yb  Yb1  1  0.500000  0.500000  0.500000  1
  Tc  Tc2  1  0.753595  0.755640  0.736343  1
  Tc  Tc3  1  0.246405  0.244360  0.263657  1
  F  F4  1  0.503673  0.774932  0.623010  1
  F  F5  1  0.496327  0.225068  0.376990  1
  F  F6  1  0.771335  0.093910  0.623560  1
  F  F7  1  0.228665  0.906090  0.376440  1
  F  F8  1  0.721710  0.427433  0.852303  1
  F  F9  1  0.278290  0.572567  0.147697  1
  F  F10  1  0.005833  0.721249  0.852387  1
  F  F11  1  0.994167  0.278751  0.147613  1
  F  F12  1  0.578685  0.994099  0.147331  1
  F  F13  1  0.421315  0.005901  0.852669  1
  F  F14  1  0.904202  0.492034  0.377449  1
  F  F15  1  0.095798  0.507966  0.622551  1
