# generated using pymatgen
data_Th4Ag3Au10
_symmetry_space_group_name_H-M   'P 1'
_cell_length_a   8.76506799
_cell_length_b   8.76505605
_cell_length_c   10.23364300
_cell_angle_alpha   90.00006259
_cell_angle_beta   89.99986220
_cell_angle_gamma   109.45628445
_symmetry_Int_Tables_number   1
_chemical_formula_structural   Th4Ag3Au10
_chemical_formula_sum   'Th8 Ag6 Au20'
_cell_volume   741.31706743
_cell_formula_units_Z   2
loop_
 _symmetry_equiv_pos_site_id
 _symmetry_equiv_pos_as_xyz
  1  'x, y, z'
loop_
 _atom_site_type_symbol
 _atom_site_label
 _atom_site_symmetry_multiplicity
 _atom_site_fract_x
 _atom_site_fract_y
 _atom_site_fract_z
 _atom_site_occupancy
  Th  Th0  1  0.702450  0.297554  0.999998  1
  Th  Th1  1  0.202446  0.797551  0.500000  1
  Th  Th2  1  0.801165  0.801163  0.294656  1
  Th  Th3  1  0.301164  0.301164  0.205344  1
  Th  Th4  1  0.797552  0.202447  0.500000  1
  Th  Th5  1  0.297551  0.702448  0.000001  1
  Th  Th6  1  0.698835  0.698835  0.794655  1
  Th  Th7  1  0.198834  0.198838  0.705346  1
  Ag  Ag8  1  0.521109  0.021107  0.250001  1
  Ag  Ag9  1  0.978892  0.478894  0.750000  1
  Ag  Ag10  1  0.000000  0.000000  0.000000  1
  Ag  Ag11  1  0.021109  0.521107  0.250000  1
  Ag  Ag12  1  0.478891  0.978894  0.749999  1
  Ag  Ag13  1  0.500000  0.500000  0.500000  1
  Au  Au14  1  0.154863  0.429751  0.485433  1
  Au  Au15  1  0.903183  0.903182  0.594716  1
  Au  Au16  1  0.570250  0.845137  0.514568  1
  Au  Au17  1  0.884076  0.161865  0.209554  1
  Au  Au18  1  0.384077  0.661864  0.290446  1
  Au  Au19  1  0.661865  0.384077  0.290444  1
  Au  Au20  1  0.403183  0.403182  0.905284  1
  Au  Au21  1  0.929750  0.654863  0.014568  1
  Au  Au22  1  0.338134  0.615923  0.709555  1
  Au  Au23  1  0.345138  0.070249  0.985432  1
  Au  Au24  1  0.596817  0.596818  0.094716  1
  Au  Au25  1  0.654863  0.929751  0.014567  1
  Au  Au26  1  0.096818  0.096818  0.405284  1
  Au  Au27  1  0.615924  0.338136  0.709554  1
  Au  Au28  1  0.115924  0.838135  0.790446  1
  Au  Au29  1  0.070250  0.345138  0.985433  1
  Au  Au30  1  0.845137  0.570249  0.514567  1
  Au  Au31  1  0.161866  0.884077  0.209555  1
  Au  Au32  1  0.429750  0.154863  0.485432  1
  Au  Au33  1  0.838134  0.115923  0.790445  1
