# generated using pymatgen
data_TbY3Pd3PtO14
_symmetry_space_group_name_H-M   'P 1'
_cell_length_a   7.27027552
_cell_length_b   7.27027564
_cell_length_c   7.27027454
_cell_angle_alpha   60.03835509
_cell_angle_beta   60.03835284
_cell_angle_gamma   60.03836205
_symmetry_Int_Tables_number   1
_chemical_formula_structural   TbY3Pd3PtO14
_chemical_formula_sum   'Tb1 Y3 Pd3 Pt1 O14'
_cell_volume   271.96623200
_cell_formula_units_Z   1
loop_
 _symmetry_equiv_pos_site_id
 _symmetry_equiv_pos_as_xyz
  1  'x, y, z'
loop_
 _atom_site_type_symbol
 _atom_site_label
 _atom_site_symmetry_multiplicity
 _atom_site_fract_x
 _atom_site_fract_y
 _atom_site_fract_z
 _atom_site_occupancy
  Tb  Tb0  1  0.125000  0.125000  0.125000  1
  Y  Y1  1  0.125000  0.625000  0.125000  1
  Y  Y2  1  0.125000  0.125000  0.625000  1
  Y  Y3  1  0.625000  0.125000  0.125000  1
  Pd  Pd4  1  0.125000  0.625000  0.625000  1
  Pd  Pd5  1  0.625000  0.625000  0.125000  1
  Pd  Pd6  1  0.625000  0.125000  0.625000  1
  Pt  Pt7  1  0.625000  0.625000  0.625000  1
  O  O8  1  0.285733  0.715181  0.715181  1
  O  O9  1  0.535606  0.964661  0.964661  1
  O  O10  1  0.715181  0.715181  0.285733  1
  O  O11  1  0.285339  0.285339  0.714394  1
  O  O12  1  0.999364  0.999364  0.999364  1
  O  O13  1  0.285339  0.714394  0.285339  1
  O  O14  1  0.715181  0.285733  0.715181  1
  O  O15  1  0.964661  0.535606  0.964661  1
  O  O16  1  0.534819  0.534819  0.964267  1
  O  O17  1  0.964661  0.964661  0.535606  1
  O  O18  1  0.250636  0.250636  0.250636  1
  O  O19  1  0.534819  0.964267  0.534819  1
  O  O20  1  0.714394  0.285339  0.285339  1
  O  O21  1  0.964267  0.534819  0.534819  1
