# generated using pymatgen
data_Tm8Lu2Sn5Bi
_symmetry_space_group_name_H-M   'P 1'
_cell_length_a   8.85542005
_cell_length_b   8.85542075
_cell_length_c   6.39725101
_cell_angle_alpha   90.00319253
_cell_angle_beta   90.00320158
_cell_angle_gamma   119.84869676
_symmetry_Int_Tables_number   1
_chemical_formula_structural   Tm8Lu2Sn5Bi
_chemical_formula_sum   'Tm8 Lu2 Sn5 Bi1'
_cell_volume   435.11345182
_cell_formula_units_Z   1
loop_
 _symmetry_equiv_pos_site_id
 _symmetry_equiv_pos_as_xyz
  1  'x, y, z'
loop_
 _atom_site_type_symbol
 _atom_site_label
 _atom_site_symmetry_multiplicity
 _atom_site_fract_x
 _atom_site_fract_y
 _atom_site_fract_z
 _atom_site_occupancy
  Tm  Tm0  1  0.670833  0.332751  0.001728  1
  Tm  Tm1  1  0.332751  0.670833  0.001728  1
  Tm  Tm2  1  0.766457  0.766457  0.749848  1
  Tm  Tm3  1  0.234603  0.993367  0.749847  1
  Tm  Tm4  1  0.993367  0.234603  0.749847  1
  Tm  Tm5  1  0.236319  0.236319  0.250076  1
  Tm  Tm6  1  0.762645  0.000610  0.250098  1
  Tm  Tm7  1  0.000610  0.762645  0.250098  1
  Lu  Lu8  1  0.332765  0.670919  0.498121  1
  Lu  Lu9  1  0.670919  0.332765  0.498121  1
  Sn  Sn10  1  0.602042  0.999501  0.748985  1
  Sn  Sn11  1  0.999501  0.602042  0.748985  1
  Sn  Sn12  1  0.604797  0.604797  0.250882  1
  Sn  Sn13  1  0.396403  0.002235  0.251034  1
  Sn  Sn14  1  0.002235  0.396403  0.251034  1
  Bi  Bi15  1  0.393751  0.393751  0.749569  1
