# generated using pymatgen
data_Nb12CrGa9(CoN2)2
_symmetry_space_group_name_H-M   'P 1'
_cell_length_a   8.21645986
_cell_length_b   8.25624272
_cell_length_c   8.22817700
_cell_angle_alpha   60.11159263
_cell_angle_beta   59.94991382
_cell_angle_gamma   60.10848989
_symmetry_Int_Tables_number   1
_chemical_formula_structural   Nb12CrGa9(CoN2)2
_chemical_formula_sum   'Nb12 Cr1 Ga9 Co2 N4'
_cell_volume   395.19456471
_cell_formula_units_Z   1
loop_
 _symmetry_equiv_pos_site_id
 _symmetry_equiv_pos_as_xyz
  1  'x, y, z'
loop_
 _atom_site_type_symbol
 _atom_site_label
 _atom_site_symmetry_multiplicity
 _atom_site_fract_x
 _atom_site_fract_y
 _atom_site_fract_z
 _atom_site_occupancy
  Nb  Nb0  1  0.814351  0.811595  0.187069  1
  Nb  Nb1  1  0.198361  0.195987  0.802805  1
  Nb  Nb2  1  0.811426  0.185333  0.807377  1
  Nb  Nb3  1  0.188240  0.808993  0.196382  1
  Nb  Nb4  1  0.188268  0.809013  0.806368  1
  Nb  Nb5  1  0.811408  0.185312  0.195905  1
  Nb  Nb6  1  0.435649  0.438405  0.062931  1
  Nb  Nb7  1  0.051639  0.054013  0.447195  1
  Nb  Nb8  1  0.438574  0.064667  0.442623  1
  Nb  Nb9  1  0.061760  0.441007  0.053618  1
  Nb  Nb10  1  0.061732  0.440987  0.443632  1
  Nb  Nb11  1  0.438592  0.064688  0.054095  1
  Cr  Cr12  1  0.625000  0.125000  0.625000  1
  Ga  Ga13  1  0.125000  0.625000  0.625000  1
  Ga  Ga14  1  0.756633  0.420625  0.411335  1
  Ga  Ga15  1  0.430361  0.760021  0.404744  1
  Ga  Ga16  1  0.429057  0.414356  0.752453  1
  Ga  Ga17  1  0.429078  0.414402  0.404089  1
  Ga  Ga18  1  0.493367  0.829375  0.838665  1
  Ga  Ga19  1  0.819639  0.489979  0.845256  1
  Ga  Ga20  1  0.820943  0.835644  0.497547  1
  Ga  Ga21  1  0.820922  0.835598  0.845911  1
  Co  Co22  1  0.625000  0.625000  0.125000  1
  Co  Co23  1  0.625000  0.625000  0.625000  1
  N  N24  1  0.625000  0.125000  0.125000  1
  N  N25  1  0.125000  0.625000  0.125000  1
  N  N26  1  0.125000  0.125000  0.625000  1
  N  N27  1  0.125000  0.125000  0.125000  1
