# generated using pymatgen
data_Dy2ErLu13CdIn3Ir4
_symmetry_space_group_name_H-M   'P 1'
_cell_length_a   9.50926212
_cell_length_b   9.51053274
_cell_length_c   9.50092000
_cell_angle_alpha   60.02459055
_cell_angle_beta   59.97869467
_cell_angle_gamma   59.93754738
_symmetry_Int_Tables_number   1
_chemical_formula_structural   Dy2ErLu13CdIn3Ir4
_chemical_formula_sum   'Dy2 Er1 Lu13 Cd1 In3 Ir4'
_cell_volume   607.30598311
_cell_formula_units_Z   1
loop_
 _symmetry_equiv_pos_site_id
 _symmetry_equiv_pos_as_xyz
  1  'x, y, z'
loop_
 _atom_site_type_symbol
 _atom_site_label
 _atom_site_symmetry_multiplicity
 _atom_site_fract_x
 _atom_site_fract_y
 _atom_site_fract_z
 _atom_site_occupancy
  Dy  Dy0  1  0.814287  0.815069  0.182885  1
  Dy  Dy1  1  0.184977  0.185538  0.813066  1
  Er  Er2  1  0.190995  0.808124  0.191635  1
  Lu  Lu3  1  0.601503  0.598107  0.596275  1
  Lu  Lu4  1  0.600262  0.599809  0.204417  1
  Lu  Lu5  1  0.595286  0.205965  0.600618  1
  Lu  Lu6  1  0.204036  0.594817  0.600587  1
  Lu  Lu7  1  0.058467  0.441495  0.440674  1
  Lu  Lu8  1  0.439434  0.061075  0.059280  1
  Lu  Lu9  1  0.441580  0.059219  0.441085  1
  Lu  Lu10  1  0.059659  0.440113  0.059663  1
  Lu  Lu11  1  0.442638  0.442594  0.057143  1
  Lu  Lu12  1  0.057756  0.059081  0.441547  1
  Lu  Lu13  1  0.191823  0.806144  0.806783  1
  Lu  Lu14  1  0.805760  0.193243  0.193252  1
  Lu  Lu15  1  0.809360  0.188850  0.809549  1
  Cd  Cd16  1  0.832956  0.832901  0.831206  1
  In  In17  1  0.832965  0.833807  0.502073  1
  In  In18  1  0.833062  0.500393  0.833881  1
  In  In19  1  0.502796  0.832464  0.833198  1
  Ir  Ir20  1  0.392990  0.391587  0.388269  1
  Ir  Ir21  1  0.391752  0.393834  0.827542  1
  Ir  Ir22  1  0.388051  0.827768  0.393405  1
  Ir  Ir23  1  0.827608  0.388004  0.391967  1
