# generated using pymatgen
data_Dy9Lu(SnSb)4
_symmetry_space_group_name_H-M   'P 1'
_cell_length_a   8.70679531
_cell_length_b   8.70679536
_cell_length_c   8.12990727
_cell_angle_alpha   90.02970432
_cell_angle_beta   90.02970306
_cell_angle_gamma   124.74953513
_symmetry_Int_Tables_number   1
_chemical_formula_structural   Dy9Lu(SnSb)4
_chemical_formula_sum   'Dy9 Lu1 Sn4 Sb4'
_cell_volume   506.39531368
_cell_formula_units_Z   1
loop_
 _symmetry_equiv_pos_site_id
 _symmetry_equiv_pos_as_xyz
  1  'x, y, z'
loop_
 _atom_site_type_symbol
 _atom_site_label
 _atom_site_symmetry_multiplicity
 _atom_site_fract_x
 _atom_site_fract_y
 _atom_site_fract_z
 _atom_site_occupancy
  Dy  Dy0  1  0.030122  0.301792  0.335752  1
  Dy  Dy1  1  0.969878  0.698208  0.664248  1
  Dy  Dy2  1  0.469856  0.197666  0.835999  1
  Dy  Dy3  1  0.802334  0.530144  0.164001  1
  Dy  Dy4  1  0.530144  0.802334  0.164001  1
  Dy  Dy5  1  0.197666  0.469856  0.835999  1
  Dy  Dy6  1  0.698208  0.969878  0.664248  1
  Dy  Dy7  1  0.301792  0.030122  0.335752  1
  Dy  Dy8  1  0.500000  0.500000  0.500000  1
  Lu  Lu9  1  0.000000  0.000000  0.000000  1
  Sn  Sn10  1  0.363424  0.363424  0.135623  1
  Sn  Sn11  1  0.636576  0.636576  0.864377  1
  Sn  Sn12  1  0.135756  0.135756  0.636406  1
  Sn  Sn13  1  0.864244  0.864244  0.363594  1
  Sb  Sb14  1  0.799212  0.200788  0.000000  1
  Sb  Sb15  1  0.200788  0.799212  0.000000  1
  Sb  Sb16  1  0.702325  0.297675  0.500000  1
  Sb  Sb17  1  0.297675  0.702325  0.500000  1
