# generated using pymatgen
data_LuZr5Fe7Co16
_symmetry_space_group_name_H-M   'P 1'
_cell_length_a   8.20393525
_cell_length_b   8.19823480
_cell_length_c   8.19805842
_cell_angle_alpha   60.02916754
_cell_angle_beta   59.97557205
_cell_angle_gamma   59.98321302
_symmetry_Int_Tables_number   1
_chemical_formula_structural   LuZr5Fe7Co16
_chemical_formula_sum   'Lu1 Zr5 Fe7 Co16'
_cell_volume   389.85115112
_cell_formula_units_Z   1
loop_
 _symmetry_equiv_pos_site_id
 _symmetry_equiv_pos_as_xyz
  1  'x, y, z'
loop_
 _atom_site_type_symbol
 _atom_site_label
 _atom_site_symmetry_multiplicity
 _atom_site_fract_x
 _atom_site_fract_y
 _atom_site_fract_z
 _atom_site_occupancy
  Lu  Lu0  1  0.706491  0.293566  0.293288  1
  Zr  Zr1  1  0.286415  0.288108  0.713118  1
  Zr  Zr2  1  0.290008  0.709880  0.709898  1
  Zr  Zr3  1  0.712282  0.713356  0.287836  1
  Zr  Zr4  1  0.286454  0.713159  0.287974  1
  Zr  Zr5  1  0.712548  0.287785  0.713494  1
  Fe  Fe6  1  0.000231  0.500661  0.999551  1
  Fe  Fe7  1  0.000281  0.999559  0.500680  1
  Fe  Fe8  1  0.999232  0.000788  0.000881  1
  Fe  Fe9  1  0.499286  0.500652  0.999647  1
  Fe  Fe10  1  0.499260  0.999758  0.500577  1
  Fe  Fe11  1  0.499768  0.000330  0.000159  1
  Fe  Fe12  1  0.999755  0.500183  0.500199  1
  Co  Co13  1  0.121953  0.120881  0.635403  1
  Co  Co14  1  0.674871  0.973883  0.676299  1
  Co  Co15  1  0.364862  0.878009  0.878025  1
  Co  Co16  1  0.025911  0.325305  0.325203  1
  Co  Co17  1  0.976988  0.674158  0.674342  1
  Co  Co18  1  0.325815  0.325687  0.022783  1
  Co  Co19  1  0.674980  0.676194  0.973928  1
  Co  Co20  1  0.634172  0.120635  0.120587  1
  Co  Co21  1  0.674537  0.674157  0.674293  1
  Co  Co22  1  0.879242  0.875283  0.366028  1
  Co  Co23  1  0.124710  0.120649  0.120510  1
  Co  Co24  1  0.879443  0.366014  0.875296  1
  Co  Co25  1  0.879083  0.878063  0.878201  1
  Co  Co26  1  0.323686  0.325244  0.325251  1
  Co  Co27  1  0.121832  0.635241  0.120922  1
  Co  Co28  1  0.325904  0.022811  0.325627  1
