# generated using pymatgen
data_La3Y9Tc3Rh
_symmetry_space_group_name_H-M   'P 1'
_cell_length_a   6.48784330
_cell_length_b   7.40058488
_cell_length_c   9.41324200
_cell_angle_alpha   90.00000000
_cell_angle_beta   90.00000000
_cell_angle_gamma   90.05828884
_symmetry_Int_Tables_number   1
_chemical_formula_structural   La3Y9Tc3Rh
_chemical_formula_sum   'La3 Y9 Tc3 Rh1'
_cell_volume   451.96561468
_cell_formula_units_Z   1
loop_
 _symmetry_equiv_pos_site_id
 _symmetry_equiv_pos_as_xyz
  1  'x, y, z'
loop_
 _atom_site_type_symbol
 _atom_site_label
 _atom_site_symmetry_multiplicity
 _atom_site_fract_x
 _atom_site_fract_y
 _atom_site_fract_z
 _atom_site_occupancy
  La  La0  1  0.629094  0.054352  0.250000  1
  La  La1  1  0.372421  0.946895  0.750000  1
  La  La2  1  0.126486  0.448885  0.750000  1
  Y  Y3  1  0.870701  0.543064  0.250000  1
  Y  Y4  1  0.161418  0.177705  0.064426  1
  Y  Y5  1  0.831762  0.822613  0.933192  1
  Y  Y6  1  0.664901  0.327049  0.935157  1
  Y  Y7  1  0.831762  0.822613  0.566808  1
  Y  Y8  1  0.335608  0.671105  0.066800  1
  Y  Y9  1  0.161418  0.177705  0.435574  1
  Y  Y10  1  0.335608  0.671105  0.433200  1
  Y  Y11  1  0.664901  0.327049  0.564843  1
  Tc  Tc12  1  0.472523  0.372978  0.250000  1
  Tc  Tc13  1  0.521006  0.627604  0.750000  1
  Tc  Tc14  1  0.976451  0.126235  0.750000  1
  Rh  Rh15  1  0.043940  0.883043  0.250000  1
