# generated using pymatgen
data_Lu3Cd3C
_symmetry_space_group_name_H-M   'P 1'
_cell_length_a   9.41669244
_cell_length_b   9.41974381
_cell_length_c   9.41625659
_cell_angle_alpha   120.01424712
_cell_angle_beta   89.96258554
_cell_angle_gamma   120.01142827
_symmetry_Int_Tables_number   1
_chemical_formula_structural   Lu3Cd3C
_chemical_formula_sum   'Lu12 Cd12 C4'
_cell_volume   590.57345302
_cell_formula_units_Z   4
loop_
 _symmetry_equiv_pos_site_id
 _symmetry_equiv_pos_as_xyz
  1  'x, y, z'
loop_
 _atom_site_type_symbol
 _atom_site_label
 _atom_site_symmetry_multiplicity
 _atom_site_fract_x
 _atom_site_fract_y
 _atom_site_fract_z
 _atom_site_occupancy
  Lu  Lu0  1  0.937517  0.374978  0.187450  1
  Lu  Lu1  1  0.937536  0.749992  0.187470  1
  Lu  Lu2  1  0.312542  0.750002  0.187424  1
  Lu  Lu3  1  0.687455  0.250004  0.437500  1
  Lu  Lu4  1  0.687479  0.874960  0.437536  1
  Lu  Lu5  1  0.062535  0.250006  0.437497  1
  Lu  Lu6  1  0.312523  0.125061  0.562479  1
  Lu  Lu7  1  0.312519  0.749965  0.562489  1
  Lu  Lu8  1  0.937462  0.750001  0.562506  1
  Lu  Lu9  1  0.687493  0.250030  0.812585  1
  Lu  Lu10  1  0.062490  0.625007  0.812539  1
  Lu  Lu11  1  0.062452  0.249996  0.812517  1
  Cd  Cd12  1  0.999989  0.999992  0.999972  1
  Cd  Cd13  1  0.500020  0.000016  0.000008  1
  Cd  Cd14  1  0.499986  0.499979  0.999985  1
  Cd  Cd15  1  0.708950  0.917871  0.126827  1
  Cd  Cd16  1  0.291070  0.082115  0.209005  1
  Cd  Cd17  1  0.291029  0.417878  0.208921  1
  Cd  Cd18  1  0.626795  0.417857  0.208912  1
  Cd  Cd19  1  0.500008  0.500007  0.500006  1
  Cd  Cd20  1  0.373219  0.582163  0.791090  1
  Cd  Cd21  1  0.708964  0.582107  0.791068  1
  Cd  Cd22  1  0.708943  0.917892  0.791045  1
  Cd  Cd23  1  0.291037  0.082133  0.873164  1
  C  C24  1  0.000011  0.500012  0.000006  1
  C  C25  1  0.000001  0.000000  0.500000  1
  C  C26  1  0.499998  0.000002  0.500010  1
  C  C27  1  0.999984  0.499986  0.499995  1
