# generated using pymatgen
data_Mn6AsP2
_symmetry_space_group_name_H-M   'P 1'
_cell_length_a   6.19036300
_cell_length_b   6.19036445
_cell_length_c   3.27806800
_cell_angle_alpha   90.00000000
_cell_angle_beta   90.00000000
_cell_angle_gamma   119.99999761
_symmetry_Int_Tables_number   1
_chemical_formula_structural   Mn6AsP2
_chemical_formula_sum   'Mn6 As1 P2'
_cell_volume   108.78798564
_cell_formula_units_Z   1
loop_
 _symmetry_equiv_pos_site_id
 _symmetry_equiv_pos_as_xyz
  1  'x, y, z'
loop_
 _atom_site_type_symbol
 _atom_site_label
 _atom_site_symmetry_multiplicity
 _atom_site_fract_x
 _atom_site_fract_y
 _atom_site_fract_z
 _atom_site_occupancy
  Mn  Mn0  1  0.256118  0.248172  0.000000  1
  Mn  Mn1  1  0.751828  0.007947  0.000000  1
  Mn  Mn2  1  0.613233  0.594082  0.500000  1
  Mn  Mn3  1  0.992053  0.743882  0.000000  1
  Mn  Mn4  1  0.405918  0.019150  0.500000  1
  Mn  Mn5  1  0.980850  0.386767  0.500000  1
  As  As6  1  0.333333  0.666667  0.000000  1
  P  P7  1  0.000000  0.000000  0.500000  1
  P  P8  1  0.666667  0.333333  0.000000  1
