# generated using pymatgen
data_GdScV6O18
_symmetry_space_group_name_H-M   'P 1'
_cell_length_a   7.27873929
_cell_length_b   8.32224265
_cell_length_c   9.37370500
_cell_angle_alpha   105.79000985
_cell_angle_beta   112.79651684
_cell_angle_gamma   63.93789573
_symmetry_Int_Tables_number   1
_chemical_formula_structural   GdScV6O18
_chemical_formula_sum   'Gd1 Sc1 V6 O18'
_cell_volume   466.66356246
_cell_formula_units_Z   1
loop_
 _symmetry_equiv_pos_site_id
 _symmetry_equiv_pos_as_xyz
  1  'x, y, z'
loop_
 _atom_site_type_symbol
 _atom_site_label
 _atom_site_symmetry_multiplicity
 _atom_site_fract_x
 _atom_site_fract_y
 _atom_site_fract_z
 _atom_site_occupancy
  Gd  Gd0  1  0.683820  0.356123  0.241458  1
  Sc  Sc1  1  0.205114  0.859037  0.743022  1
  V  V2  1  0.737636  0.612437  0.001771  1
  V  V3  1  0.000562  0.904017  0.065639  1
  V  V4  1  0.414121  0.808114  0.424521  1
  V  V5  1  0.660921  0.102488  0.516059  1
  V  V6  1  0.179880  0.415646  0.577970  1
  V  V7  1  0.181164  0.301806  0.912426  1
  O  O8  1  0.356119  0.384464  0.056220  1
  O  O9  1  0.833844  0.122689  0.073532  1
  O  O10  1  0.868209  0.770378  0.074012  1
  O  O11  1  0.666446  0.587636  0.142788  1
  O  O12  1  0.226145  0.877573  0.239543  1
  O  O13  1  0.652183  0.165462  0.356102  1
  O  O14  1  0.015912  0.353472  0.407779  1
  O  O15  1  0.525569  0.581358  0.411972  1
  O  O16  1  0.617354  0.895713  0.465735  1
  O  O17  1  0.297582  0.892754  0.567599  1
  O  O18  1  0.135825  0.636665  0.596551  1
  O  O19  1  0.457418  0.276879  0.595871  1
  O  O20  1  0.906484  0.061753  0.649224  1
  O  O21  1  0.124979  0.377863  0.733456  1
  O  O22  1  0.518433  0.684274  0.846351  1
  O  O23  1  0.078304  0.838090  0.903706  1
  O  O24  1  0.285571  0.073950  0.896654  1
  O  O25  1  0.927198  0.395963  0.950238  1
