# generated using pymatgen
data_Ta5Be4Ru10W
_symmetry_space_group_name_H-M   'P 1'
_cell_length_a   9.40212700
_cell_length_b   9.40212700
_cell_length_c   3.13176100
_cell_angle_alpha   90.00000000
_cell_angle_beta   90.00000000
_cell_angle_gamma   90.00000000
_symmetry_Int_Tables_number   1
_chemical_formula_structural   Ta5Be4Ru10W
_chemical_formula_sum   'Ta5 Be4 Ru10 W1'
_cell_volume   276.84764773
_cell_formula_units_Z   1
loop_
 _symmetry_equiv_pos_site_id
 _symmetry_equiv_pos_as_xyz
  1  'x, y, z'
loop_
 _atom_site_type_symbol
 _atom_site_label
 _atom_site_symmetry_multiplicity
 _atom_site_fract_x
 _atom_site_fract_y
 _atom_site_fract_z
 _atom_site_occupancy
  Ta  Ta0  1  0.826185  0.675614  0.000000  1
  Ta  Ta1  1  0.173815  0.324386  0.000000  1
  Ta  Ta2  1  0.324386  0.826185  0.000000  1
  Ta  Ta3  1  0.675614  0.173815  0.000000  1
  Ta  Ta4  1  0.000000  0.000000  0.000000  1
  Be  Be5  1  0.621133  0.879643  0.000000  1
  Be  Be6  1  0.378867  0.120357  0.000000  1
  Be  Be7  1  0.120357  0.621133  0.000000  1
  Be  Be8  1  0.879643  0.378867  0.000000  1
  Ru  Ru9  1  0.571743  0.709407  0.500000  1
  Ru  Ru10  1  0.428257  0.290593  0.500000  1
  Ru  Ru11  1  0.073720  0.787882  0.500000  1
  Ru  Ru12  1  0.926280  0.212118  0.500000  1
  Ru  Ru13  1  0.290593  0.571743  0.500000  1
  Ru  Ru14  1  0.709407  0.428257  0.500000  1
  Ru  Ru15  1  0.212118  0.073720  0.500000  1
  Ru  Ru16  1  0.787882  0.926280  0.500000  1
  Ru  Ru17  1  0.500000  0.000000  0.500000  1
  Ru  Ru18  1  0.000000  0.500000  0.500000  1
  W  W19  1  0.500000  0.500000  0.000000  1
