# generated using pymatgen
data_Er12Fe4BiPt
_symmetry_space_group_name_H-M   'P 1'
_cell_length_a   8.27317801
_cell_length_b   8.27540808
_cell_length_c   8.27317900
_cell_angle_alpha   111.08196418
_cell_angle_beta   111.16555389
_cell_angle_gamma   106.20414468
_symmetry_Int_Tables_number   1
_chemical_formula_structural   Er12Fe4BiPt
_chemical_formula_sum   'Er12 Fe4 Bi1 Pt1'
_cell_volume   435.02875308
_cell_formula_units_Z   1
loop_
 _symmetry_equiv_pos_site_id
 _symmetry_equiv_pos_as_xyz
  1  'x, y, z'
loop_
 _atom_site_type_symbol
 _atom_site_label
 _atom_site_symmetry_multiplicity
 _atom_site_fract_x
 _atom_site_fract_y
 _atom_site_fract_z
 _atom_site_occupancy
  Er  Er0  1  0.286123  0.185008  0.471183  1
  Er  Er1  1  0.713877  0.814992  0.528817  1
  Er  Er2  1  0.286175  0.814992  0.101115  1
  Er  Er3  1  0.713825  0.185008  0.898885  1
  Er  Er4  1  0.616882  0.310986  0.305966  1
  Er  Er5  1  0.383118  0.689014  0.694034  1
  Er  Er6  1  0.005021  0.310986  0.694104  1
  Er  Er7  1  0.994979  0.689014  0.305896  1
  Er  Er8  1  0.212644  0.415664  0.203020  1
  Er  Er9  1  0.787356  0.584336  0.796980  1
  Er  Er10  1  0.212796  0.009764  0.796969  1
  Er  Er11  1  0.787204  0.990236  0.203031  1
  Fe  Fe12  1  0.000217  0.385158  0.384941  1
  Fe  Fe13  1  0.999783  0.614842  0.615059  1
  Fe  Fe14  1  0.392848  0.893497  0.500649  1
  Fe  Fe15  1  0.607152  0.106503  0.499351  1
  Bi  Bi16  1  0.500000  0.500000  0.000000  1
  Pt  Pt17  1  0.000000  0.000000  0.000000  1
