# generated using pymatgen
data_Th3Sc2Si12Ir19
_symmetry_space_group_name_H-M   'P 1'
_cell_length_a   12.89322300
_cell_length_b   12.89322268
_cell_length_c   3.98043200
_cell_angle_alpha   90.00000000
_cell_angle_beta   90.00000000
_cell_angle_gamma   120.00000338
_symmetry_Int_Tables_number   1
_chemical_formula_structural   Th3Sc2Si12Ir19
_chemical_formula_sum   'Th3 Sc2 Si12 Ir19'
_cell_volume   573.03850318
_cell_formula_units_Z   1
loop_
 _symmetry_equiv_pos_site_id
 _symmetry_equiv_pos_as_xyz
  1  'x, y, z'
loop_
 _atom_site_type_symbol
 _atom_site_label
 _atom_site_symmetry_multiplicity
 _atom_site_fract_x
 _atom_site_fract_y
 _atom_site_fract_z
 _atom_site_occupancy
  Th  Th0  1  0.812925  0.000000  0.500000  1
  Th  Th1  1  0.000000  0.812925  0.500000  1
  Th  Th2  1  0.187075  0.187075  0.500000  1
  Sc  Sc3  1  0.333333  0.666667  0.000000  1
  Sc  Sc4  1  0.666667  0.333333  0.000000  1
  Si  Si5  1  0.185241  0.000000  0.000000  1
  Si  Si6  1  0.000000  0.185241  0.000000  1
  Si  Si7  1  0.814759  0.814759  0.000000  1
  Si  Si8  1  0.173558  0.485540  0.500000  1
  Si  Si9  1  0.514460  0.688016  0.500000  1
  Si  Si10  1  0.311984  0.826442  0.500000  1
  Si  Si11  1  0.688016  0.514460  0.500000  1
  Si  Si12  1  0.826442  0.311984  0.500000  1
  Si  Si13  1  0.485540  0.173558  0.500000  1
  Si  Si14  1  0.627930  0.000000  0.000000  1
  Si  Si15  1  0.000000  0.627930  0.000000  1
  Si  Si16  1  0.372070  0.372070  0.000000  1
  Ir  Ir17  1  0.446087  0.000000  0.000000  1
  Ir  Ir18  1  0.000000  0.446087  0.000000  1
  Ir  Ir19  1  0.553913  0.553913  0.000000  1
  Ir  Ir20  1  0.361987  0.489961  0.500000  1
  Ir  Ir21  1  0.510039  0.872026  0.500000  1
  Ir  Ir22  1  0.127974  0.638013  0.500000  1
  Ir  Ir23  1  0.872026  0.510039  0.500000  1
  Ir  Ir24  1  0.638013  0.127974  0.500000  1
  Ir  Ir25  1  0.489961  0.361987  0.500000  1
  Ir  Ir26  1  0.182954  0.378827  0.000000  1
  Ir  Ir27  1  0.621173  0.804128  0.000000  1
  Ir  Ir28  1  0.195872  0.817046  0.000000  1
  Ir  Ir29  1  0.804128  0.621173  0.000000  1
  Ir  Ir30  1  0.817046  0.195872  0.000000  1
  Ir  Ir31  1  0.378827  0.182954  0.000000  1
  Ir  Ir32  1  0.287225  0.000000  0.500000  1
  Ir  Ir33  1  0.000000  0.287225  0.500000  1
  Ir  Ir34  1  0.712775  0.712775  0.500000  1
  Ir  Ir35  1  0.000000  0.000000  0.000000  1
