# generated using pymatgen
data_SmY2CoSn6
_symmetry_space_group_name_H-M   'P 1'
_cell_length_a   8.53560361
_cell_length_b   8.53560287
_cell_length_c   13.23180400
_cell_angle_alpha   90.00000000
_cell_angle_beta   90.00000000
_cell_angle_gamma   148.87704324
_symmetry_Int_Tables_number   1
_chemical_formula_structural   SmY2CoSn6
_chemical_formula_sum   'Sm2 Y4 Co2 Sn12'
_cell_volume   498.28082587
_cell_formula_units_Z   2
loop_
 _symmetry_equiv_pos_site_id
 _symmetry_equiv_pos_as_xyz
  1  'x, y, z'
loop_
 _atom_site_type_symbol
 _atom_site_label
 _atom_site_symmetry_multiplicity
 _atom_site_fract_x
 _atom_site_fract_y
 _atom_site_fract_z
 _atom_site_occupancy
  Sm  Sm0  1  0.899740  0.100260  0.093075  1
  Sm  Sm1  1  0.100260  0.899740  0.593075  1
  Y  Y2  1  0.900298  0.099702  0.750124  1
  Y  Y3  1  0.100701  0.899299  0.906947  1
  Y  Y4  1  0.099702  0.900298  0.250124  1
  Y  Y5  1  0.899299  0.100701  0.406947  1
  Co  Co6  1  0.298558  0.701442  0.250101  1
  Co  Co7  1  0.701442  0.298558  0.750101  1
  Sn  Sn8  1  0.755412  0.244588  0.571345  1
  Sn  Sn9  1  0.427898  0.572102  0.576300  1
  Sn  Sn10  1  0.571892  0.428108  0.422819  1
  Sn  Sn11  1  0.733758  0.266242  0.250140  1
  Sn  Sn12  1  0.266242  0.733758  0.750140  1
  Sn  Sn13  1  0.244588  0.755412  0.071345  1
  Sn  Sn14  1  0.245260  0.754740  0.428348  1
  Sn  Sn15  1  0.572102  0.427898  0.076300  1
  Sn  Sn16  1  0.453112  0.546888  0.250800  1
  Sn  Sn17  1  0.546888  0.453112  0.750800  1
  Sn  Sn18  1  0.754740  0.245260  0.928348  1
  Sn  Sn19  1  0.428108  0.571892  0.922819  1
