# generated using pymatgen
data_Tb2Er10InCo4Rh
_symmetry_space_group_name_H-M   'P 1'
_cell_length_a   8.25684849
_cell_length_b   8.25687566
_cell_length_c   8.25286893
_cell_angle_alpha   110.83361601
_cell_angle_beta   110.80759245
_cell_angle_gamma   106.82569955
_symmetry_Int_Tables_number   1
_chemical_formula_structural   Tb2Er10InCo4Rh
_chemical_formula_sum   'Tb2 Er10 In1 Co4 Rh1'
_cell_volume   432.31978024
_cell_formula_units_Z   1
loop_
 _symmetry_equiv_pos_site_id
 _symmetry_equiv_pos_as_xyz
  1  'x, y, z'
loop_
 _atom_site_type_symbol
 _atom_site_label
 _atom_site_symmetry_multiplicity
 _atom_site_fract_x
 _atom_site_fract_y
 _atom_site_fract_z
 _atom_site_occupancy
  Tb  Tb0  1  0.186748  0.291175  0.477926  1
  Tb  Tb1  1  0.813252  0.708825  0.522074  1
  Er  Er2  1  0.187179  0.709870  0.897048  1
  Er  Er3  1  0.812821  0.290130  0.102952  1
  Er  Er4  1  0.313554  0.620230  0.304935  1
  Er  Er5  1  0.686446  0.379770  0.695065  1
  Er  Er6  1  0.315296  0.008618  0.695066  1
  Er  Er7  1  0.684704  0.991382  0.304934  1
  Er  Er8  1  0.408225  0.212511  0.193365  1
  Er  Er9  1  0.591775  0.787489  0.806635  1
  Er  Er10  1  0.019147  0.214863  0.806636  1
  Er  Er11  1  0.980853  0.785137  0.193364  1
  In  In12  1  0.500000  0.500000  0.000000  1
  Co  Co13  1  0.112790  0.612790  0.499998  1
  Co  Co14  1  0.887210  0.387210  0.500002  1
  Co  Co15  1  0.378525  0.999127  0.377651  1
  Co  Co16  1  0.621475  0.000873  0.622349  1
  Rh  Rh17  1  0.000000  0.000000  0.000000  1
