# generated using pymatgen
data_Th2ZrNpN6
_symmetry_space_group_name_H-M   'P 1'
_cell_length_a   5.83967784
_cell_length_b   5.95469000
_cell_length_c   8.37429564
_cell_angle_alpha   90.00000000
_cell_angle_beta   90.26669031
_cell_angle_gamma   90.00000000
_symmetry_Int_Tables_number   1
_chemical_formula_structural   Th2ZrNpN6
_chemical_formula_sum   'Th4 Zr2 Np2 N12'
_cell_volume   291.20017415
_cell_formula_units_Z   2
loop_
 _symmetry_equiv_pos_site_id
 _symmetry_equiv_pos_as_xyz
  1  'x, y, z'
loop_
 _atom_site_type_symbol
 _atom_site_label
 _atom_site_symmetry_multiplicity
 _atom_site_fract_x
 _atom_site_fract_y
 _atom_site_fract_z
 _atom_site_occupancy
  Th  Th0  1  0.509275  0.547335  0.247978  1
  Th  Th1  1  0.990725  0.047335  0.252022  1
  Th  Th2  1  0.490725  0.452665  0.752022  1
  Th  Th3  1  0.009275  0.952665  0.747978  1
  Zr  Zr4  1  0.000000  0.500000  0.000000  1
  Zr  Zr5  1  0.500000  0.000000  0.500000  1
  Np  Np6  1  0.000000  0.500000  0.500000  1
  Np  Np7  1  0.500000  0.000000  0.000000  1
  N  N8  1  0.384896  0.955625  0.248006  1
  N  N9  1  0.115104  0.455625  0.251994  1
  N  N10  1  0.615104  0.044375  0.751994  1
  N  N11  1  0.884896  0.544375  0.748006  1
  N  N12  1  0.794093  0.810240  0.058593  1
  N  N13  1  0.705907  0.310240  0.441407  1
  N  N14  1  0.195435  0.198889  0.561231  1
  N  N15  1  0.304565  0.698889  0.938769  1
  N  N16  1  0.205907  0.189760  0.941407  1
  N  N17  1  0.294093  0.689760  0.558593  1
  N  N18  1  0.804565  0.801111  0.438769  1
  N  N19  1  0.695435  0.301111  0.061231  1
