# generated using pymatgen
data_Y4Er8TcRu3
_symmetry_space_group_name_H-M   'P 1'
_cell_length_a   6.27973537
_cell_length_b   7.33980611
_cell_length_c   9.08251148
_cell_angle_alpha   90.01796096
_cell_angle_beta   89.90172237
_cell_angle_gamma   89.96059035
_symmetry_Int_Tables_number   1
_chemical_formula_structural   Y4Er8TcRu3
_chemical_formula_sum   'Y4 Er8 Tc1 Ru3'
_cell_volume   418.63074717
_cell_formula_units_Z   1
loop_
 _symmetry_equiv_pos_site_id
 _symmetry_equiv_pos_as_xyz
  1  'x, y, z'
loop_
 _atom_site_type_symbol
 _atom_site_label
 _atom_site_symmetry_multiplicity
 _atom_site_fract_x
 _atom_site_fract_y
 _atom_site_fract_z
 _atom_site_occupancy
  Y  Y0  1  0.629353  0.040266  0.249239  1
  Y  Y1  1  0.132633  0.458287  0.750613  1
  Y  Y2  1  0.875068  0.541588  0.249313  1
  Y  Y3  1  0.664024  0.323615  0.562743  1
  Er  Er4  1  0.365570  0.955968  0.750315  1
  Er  Er5  1  0.166316  0.175010  0.063881  1
  Er  Er6  1  0.832056  0.824244  0.935415  1
  Er  Er7  1  0.664218  0.324619  0.937038  1
  Er  Er8  1  0.831999  0.824467  0.564497  1
  Er  Er9  1  0.333827  0.676765  0.063535  1
  Er  Er10  1  0.166934  0.174824  0.435674  1
  Er  Er11  1  0.332974  0.676940  0.435962  1
  Tc  Tc12  1  0.457363  0.385714  0.248835  1
  Ru  Ru13  1  0.541344  0.619670  0.751522  1
  Ru  Ru14  1  0.962550  0.112878  0.751117  1
  Ru  Ru15  1  0.043772  0.885148  0.250302  1
