# generated using pymatgen
data_K4Si(TeSe)2
_symmetry_space_group_name_H-M   'P 1'
_cell_length_a   8.44521200
_cell_length_b   10.53423100
_cell_length_c   15.04781900
_cell_angle_alpha   90.00000000
_cell_angle_beta   90.00000000
_cell_angle_gamma   90.00000000
_symmetry_Int_Tables_number   1
_chemical_formula_structural   K4Si(TeSe)2
_chemical_formula_sum   'K16 Si4 Te8 Se8'
_cell_volume   1338.71137140
_cell_formula_units_Z   4
loop_
 _symmetry_equiv_pos_site_id
 _symmetry_equiv_pos_as_xyz
  1  'x, y, z'
loop_
 _atom_site_type_symbol
 _atom_site_label
 _atom_site_symmetry_multiplicity
 _atom_site_fract_x
 _atom_site_fract_y
 _atom_site_fract_z
 _atom_site_occupancy
  K  K0  1  0.500000  0.500000  0.500000  1
  K  K1  1  0.146934  0.463772  0.271166  1
  K  K2  1  0.146934  0.036228  0.271166  1
  K  K3  1  0.980915  0.750000  0.433450  1
  K  K4  1  0.019085  0.250000  0.566550  1
  K  K5  1  0.646934  0.963772  0.228834  1
  K  K6  1  0.353066  0.036228  0.771166  1
  K  K7  1  0.853066  0.963772  0.728834  1
  K  K8  1  0.353066  0.463772  0.771166  1
  K  K9  1  0.000000  0.500000  0.000000  1
  K  K10  1  0.480915  0.250000  0.066550  1
  K  K11  1  0.646934  0.536228  0.228834  1
  K  K12  1  0.519085  0.750000  0.933450  1
  K  K13  1  0.000000  0.000000  0.000000  1
  K  K14  1  0.853066  0.536228  0.728834  1
  K  K15  1  0.500000  0.000000  0.500000  1
  Si  Si16  1  0.733932  0.250000  0.839420  1
  Si  Si17  1  0.766068  0.250000  0.339420  1
  Si  Si18  1  0.233932  0.750000  0.660580  1
  Si  Si19  1  0.266068  0.750000  0.160580  1
  Te  Te20  1  0.539301  0.750000  0.667049  1
  Te  Te21  1  0.460699  0.250000  0.332951  1
  Te  Te22  1  0.364544  0.750000  0.323210  1
  Te  Te23  1  0.135456  0.750000  0.823210  1
  Te  Te24  1  0.039301  0.250000  0.832951  1
  Te  Te25  1  0.960699  0.750000  0.167049  1
  Te  Te26  1  0.635456  0.250000  0.676790  1
  Te  Te27  1  0.864544  0.250000  0.176790  1
  Se  Se28  1  0.849782  0.429670  0.411047  1
  Se  Se29  1  0.650218  0.070330  0.911047  1
  Se  Se30  1  0.349782  0.929670  0.088953  1
  Se  Se31  1  0.349782  0.570330  0.088953  1
  Se  Se32  1  0.150218  0.570330  0.588953  1
  Se  Se33  1  0.849782  0.070330  0.411047  1
  Se  Se34  1  0.150218  0.929670  0.588953  1
  Se  Se35  1  0.650218  0.429670  0.911047  1
