# generated using pymatgen
data_Hf3Zr2Co16(CuP4)3
_symmetry_space_group_name_H-M   'P 1'
_cell_length_a   11.85060401
_cell_length_b   11.85060456
_cell_length_c   3.61591700
_cell_angle_alpha   90.00000000
_cell_angle_beta   90.00000000
_cell_angle_gamma   119.99657300
_symmetry_Int_Tables_number   1
_chemical_formula_structural   Hf3Zr2Co16(CuP4)3
_chemical_formula_sum   'Hf3 Zr2 Co16 Cu3 P12'
_cell_volume   439.78972014
_cell_formula_units_Z   1
loop_
 _symmetry_equiv_pos_site_id
 _symmetry_equiv_pos_as_xyz
  1  'x, y, z'
loop_
 _atom_site_type_symbol
 _atom_site_label
 _atom_site_symmetry_multiplicity
 _atom_site_fract_x
 _atom_site_fract_y
 _atom_site_fract_z
 _atom_site_occupancy
  Hf  Hf0  1  0.666635  0.333329  0.000000  1
  Hf  Hf1  1  0.333329  0.666635  0.000000  1
  Hf  Hf2  1  0.813410  0.813410  0.500000  1
  Zr  Zr3  1  0.186905  0.000078  0.500000  1
  Zr  Zr4  1  0.000078  0.186905  0.500000  1
  Co  Co5  1  0.197897  0.377226  0.000000  1
  Co  Co6  1  0.179249  0.802104  0.000000  1
  Co  Co7  1  0.820652  0.623647  0.000000  1
  Co  Co8  1  0.802104  0.179249  0.000000  1
  Co  Co9  1  0.377226  0.197897  0.000000  1
  Co  Co10  1  0.128761  0.485700  0.500000  1
  Co  Co11  1  0.356938  0.871222  0.500000  1
  Co  Co12  1  0.514461  0.643191  0.500000  1
  Co  Co13  1  0.643191  0.514461  0.500000  1
  Co  Co14  1  0.871222  0.356938  0.500000  1
  Co  Co15  1  0.485700  0.128761  0.500000  1
  Co  Co16  1  0.998988  0.998988  0.000000  1
  Co  Co17  1  0.713787  0.999597  0.500000  1
  Co  Co18  1  0.999597  0.713787  0.500000  1
  Co  Co19  1  0.623647  0.820652  0.000000  1
  Co  Co20  1  0.286347  0.286347  0.500000  1
  Cu  Cu21  1  0.449250  0.449250  0.000000  1
  Cu  Cu22  1  0.550803  0.999979  0.000000  1
  Cu  Cu23  1  0.999979  0.550803  0.000000  1
  P  P24  1  0.640898  0.640898  0.000000  1
  P  P25  1  0.359814  0.000006  0.000000  1
  P  P26  1  0.000006  0.359814  0.000000  1
  P  P27  1  0.484435  0.312650  0.500000  1
  P  P28  1  0.687383  0.171821  0.500000  1
  P  P29  1  0.828190  0.515411  0.500000  1
  P  P30  1  0.515411  0.828190  0.500000  1
  P  P31  1  0.171821  0.687383  0.500000  1
  P  P32  1  0.822225  0.999397  0.000000  1
  P  P33  1  0.999397  0.822225  0.000000  1
  P  P34  1  0.312650  0.484435  0.500000  1
  P  P35  1  0.177613  0.177613  0.000000  1
