# generated using pymatgen
data_TbScP7Ru11Pt
_symmetry_space_group_name_H-M   'P 1'
_cell_length_a   9.33780036
_cell_length_b   9.44910837
_cell_length_c   3.93519500
_cell_angle_alpha   90.00000000
_cell_angle_beta   90.00000000
_cell_angle_gamma   119.29067187
_symmetry_Int_Tables_number   1
_chemical_formula_structural   TbScP7Ru11Pt
_chemical_formula_sum   'Tb1 Sc1 P7 Ru11 Pt1'
_cell_volume   302.82541942
_cell_formula_units_Z   1
loop_
 _symmetry_equiv_pos_site_id
 _symmetry_equiv_pos_as_xyz
  1  'x, y, z'
loop_
 _atom_site_type_symbol
 _atom_site_label
 _atom_site_symmetry_multiplicity
 _atom_site_fract_x
 _atom_site_fract_y
 _atom_site_fract_z
 _atom_site_occupancy
  Tb  Tb0  1  0.329268  0.659246  0.000000  1
  Sc  Sc1  1  0.670808  0.338266  0.500000  1
  P  P2  1  0.599567  0.706294  0.500000  1
  P  P3  1  0.997880  0.001031  0.000000  1
  P  P4  1  0.269693  0.876056  0.500000  1
  P  P5  1  0.118354  0.399991  0.500000  1
  P  P6  1  0.885991  0.575893  0.000000  1
  P  P7  1  0.431524  0.311591  0.000000  1
  P  P8  1  0.701163  0.128449  0.000000  1
  Ru  Ru9  1  0.393502  0.437765  0.500000  1
  Ru  Ru10  1  0.911263  0.126668  0.500000  1
  Ru  Ru11  1  0.209740  0.085731  0.500000  1
  Ru  Ru12  1  0.877120  0.795828  0.500000  1
  Ru  Ru13  1  0.723095  0.894117  0.000000  1
  Ru  Ru14  1  0.111039  0.838290  0.000000  1
  Ru  Ru15  1  0.164611  0.270359  0.000000  1
  Ru  Ru16  1  0.433906  0.072446  0.000000  1
  Ru  Ru17  1  0.934871  0.362565  0.000000  1
  Ru  Ru18  1  0.643986  0.574538  0.000000  1
  Ru  Ru19  1  0.047664  0.605733  0.500000  1
  Pt  Pt20  1  0.544956  0.939143  0.500000  1
