# generated using pymatgen
data_DyHo5(Er2In3)2
_symmetry_space_group_name_H-M   'P 1'
_cell_length_a   9.11293799
_cell_length_b   9.11293648
_cell_length_c   9.11648008
_cell_angle_alpha   96.39753583
_cell_angle_beta   96.40401482
_cell_angle_gamma   140.98203756
_symmetry_Int_Tables_number   1
_chemical_formula_structural   DyHo5(Er2In3)2
_chemical_formula_sum   'Dy1 Ho5 Er4 In6'
_cell_volume   449.29070196
_cell_formula_units_Z   1
loop_
 _symmetry_equiv_pos_site_id
 _symmetry_equiv_pos_as_xyz
  1  'x, y, z'
loop_
 _atom_site_type_symbol
 _atom_site_label
 _atom_site_symmetry_multiplicity
 _atom_site_fract_x
 _atom_site_fract_y
 _atom_site_fract_z
 _atom_site_occupancy
  Dy  Dy0  1  0.082000  0.782049  0.864048  1
  Ho  Ho1  1  0.717609  0.418244  0.135853  1
  Ho  Ho2  1  0.282510  0.581573  0.864082  1
  Ho  Ho3  1  0.582021  0.717669  0.299689  1
  Ho  Ho4  1  0.217583  0.082002  0.299585  1
  Ho  Ho5  1  0.917789  0.217642  0.135431  1
  Er  Er6  1  0.750044  0.249882  0.499988  1
  Er  Er7  1  0.250106  0.749944  0.499988  1
  Er  Er8  1  0.782486  0.918238  0.700725  1
  Er  Er9  1  0.417861  0.282638  0.700500  1
  In  In10  1  0.838154  0.661605  0.499759  1
  In  In11  1  0.338835  0.838492  0.177327  1
  In  In12  1  0.749758  0.750199  0.999960  1
  In  In13  1  0.661670  0.161410  0.823081  1
  In  In14  1  0.161815  0.338211  0.500026  1
  In  In15  1  0.249759  0.250202  0.999960  1
