# generated using pymatgen
data_K4(SnS2)3
_symmetry_space_group_name_H-M   'P 1'
_cell_length_a   7.58977248
_cell_length_b   7.58977259
_cell_length_c   8.42284145
_cell_angle_alpha   83.00955514
_cell_angle_beta   83.00955459
_cell_angle_gamma   118.51424271
_symmetry_Int_Tables_number   1
_chemical_formula_structural   K4(SnS2)3
_chemical_formula_sum   'K4 Sn3 S6'
_cell_volume   414.08064476
_cell_formula_units_Z   1
loop_
 _symmetry_equiv_pos_site_id
 _symmetry_equiv_pos_as_xyz
  1  'x, y, z'
loop_
 _atom_site_type_symbol
 _atom_site_label
 _atom_site_symmetry_multiplicity
 _atom_site_fract_x
 _atom_site_fract_y
 _atom_site_fract_z
 _atom_site_occupancy
  K  K0  1  0.512581  0.487419  0.000000  1
  K  K1  1  0.676429  0.323571  0.500000  1
  K  K2  1  0.327683  0.672317  0.500000  1
  K  K3  1  0.187160  0.812840  0.000000  1
  Sn  Sn4  1  0.838217  0.161783  0.000000  1
  Sn  Sn5  1  0.065432  0.068607  0.329311  1
  Sn  Sn6  1  0.931393  0.934568  0.670689  1
  S  S7  1  0.083643  0.391613  0.230458  1
  S  S8  1  0.386901  0.079692  0.258117  1
  S  S9  1  0.920308  0.613099  0.741883  1
  S  S10  1  0.608387  0.916357  0.769542  1
  S  S11  1  0.793132  0.831266  0.203104  1
  S  S12  1  0.168734  0.206868  0.796896  1
