# generated using pymatgen
data_HgP4(RhO7)2
_symmetry_space_group_name_H-M   'P 1'
_cell_length_a   4.89007720
_cell_length_b   6.93068209
_cell_length_c   8.12860777
_cell_angle_alpha   91.17592604
_cell_angle_beta   92.69882013
_cell_angle_gamma   105.14391776
_symmetry_Int_Tables_number   1
_chemical_formula_structural   HgP4(RhO7)2
_chemical_formula_sum   'Hg1 P4 Rh2 O14'
_cell_volume   265.47529776
_cell_formula_units_Z   1
loop_
 _symmetry_equiv_pos_site_id
 _symmetry_equiv_pos_as_xyz
  1  'x, y, z'
loop_
 _atom_site_type_symbol
 _atom_site_label
 _atom_site_symmetry_multiplicity
 _atom_site_fract_x
 _atom_site_fract_y
 _atom_site_fract_z
 _atom_site_occupancy
  Hg  Hg0  1  0.000000  0.000000  0.500000  1
  P  P1  1  0.012946  0.630943  0.254517  1
  P  P2  1  0.987054  0.369057  0.745483  1
  P  P3  1  0.611897  0.239021  0.193234  1
  P  P4  1  0.388103  0.760979  0.806766  1
  Rh  Rh5  1  0.500000  0.500000  0.500000  1
  Rh  Rh6  1  0.000000  0.000000  0.000000  1
  O  O7  1  0.778689  0.467850  0.148235  1
  O  O8  1  0.221311  0.532150  0.851765  1
  O  O9  1  0.526317  0.244255  0.375856  1
  O  O10  1  0.473683  0.755745  0.624144  1
  O  O11  1  0.239297  0.531584  0.310062  1
  O  O12  1  0.760703  0.468416  0.689938  1
  O  O13  1  0.842904  0.693292  0.401487  1
  O  O14  1  0.175567  0.892015  0.803584  1
  O  O15  1  0.824433  0.107985  0.196416  1
  O  O16  1  0.867775  0.184786  0.842413  1
  O  O17  1  0.132225  0.815214  0.157587  1
  O  O18  1  0.619385  0.802694  0.942417  1
  O  O19  1  0.380615  0.197306  0.057583  1
  O  O20  1  0.157096  0.306708  0.598513  1
