# generated using pymatgen
data_CaTb8Sc(SiB4)4
_symmetry_space_group_name_H-M   'P 1'
_cell_length_a   7.22153800
_cell_length_b   7.22153800
_cell_length_c   8.07044800
_cell_angle_alpha   90.00000000
_cell_angle_beta   90.00000000
_cell_angle_gamma   90.00000000
_symmetry_Int_Tables_number   1
_chemical_formula_structural   CaTb8Sc(SiB4)4
_chemical_formula_sum   'Ca1 Tb8 Sc1 Si4 B16'
_cell_volume   420.87879493
_cell_formula_units_Z   1
loop_
 _symmetry_equiv_pos_site_id
 _symmetry_equiv_pos_as_xyz
  1  'x, y, z'
loop_
 _atom_site_type_symbol
 _atom_site_label
 _atom_site_symmetry_multiplicity
 _atom_site_fract_x
 _atom_site_fract_y
 _atom_site_fract_z
 _atom_site_occupancy
  Ca  Ca0  1  0.500000  0.500000  0.500000  1
  Tb  Tb1  1  0.681564  0.180886  0.228363  1
  Tb  Tb2  1  0.318436  0.819114  0.771637  1
  Tb  Tb3  1  0.318436  0.819114  0.228363  1
  Tb  Tb4  1  0.819114  0.681564  0.228363  1
  Tb  Tb5  1  0.819114  0.681564  0.771637  1
  Tb  Tb6  1  0.681564  0.180886  0.771637  1
  Tb  Tb7  1  0.180886  0.318436  0.771637  1
  Tb  Tb8  1  0.180886  0.318436  0.228363  1
  Sc  Sc9  1  0.000000  0.000000  0.500000  1
  Si  Si10  1  0.106376  0.624591  0.500000  1
  Si  Si11  1  0.893624  0.375409  0.500000  1
  Si  Si12  1  0.375409  0.106376  0.500000  1
  Si  Si13  1  0.624591  0.893624  0.500000  1
  B  B14  1  0.172446  0.039503  0.000000  1
  B  B15  1  0.827554  0.960497  0.000000  1
  B  B16  1  0.960497  0.172446  0.000000  1
  B  B17  1  0.327671  0.538958  0.000000  1
  B  B18  1  0.039503  0.827554  0.000000  1
  B  B19  1  0.672329  0.461042  0.000000  1
  B  B20  1  0.538958  0.672329  0.000000  1
  B  B21  1  0.461042  0.327671  0.000000  1
  B  B22  1  0.089844  0.589810  0.000000  1
  B  B23  1  0.910156  0.410190  0.000000  1
  B  B24  1  0.410190  0.089844  0.000000  1
  B  B25  1  0.589810  0.910156  0.000000  1
  B  B26  1  0.000000  0.000000  0.162330  1
  B  B27  1  0.000000  0.000000  0.837670  1
  B  B28  1  0.500000  0.500000  0.841231  1
  B  B29  1  0.500000  0.500000  0.158769  1
