# generated using pymatgen
data_TbAl10RuRh
_symmetry_space_group_name_H-M   'P 1'
_cell_length_a   6.84835536
_cell_length_b   6.84451253
_cell_length_c   9.15673000
_cell_angle_alpha   90.00000000
_cell_angle_beta   90.00000000
_cell_angle_gamma   97.13971894
_symmetry_Int_Tables_number   1
_chemical_formula_structural   TbAl10RuRh
_chemical_formula_sum   'Tb2 Al20 Ru2 Rh2'
_cell_volume   425.88131155
_cell_formula_units_Z   2
loop_
 _symmetry_equiv_pos_site_id
 _symmetry_equiv_pos_as_xyz
  1  'x, y, z'
loop_
 _atom_site_type_symbol
 _atom_site_label
 _atom_site_symmetry_multiplicity
 _atom_site_fract_x
 _atom_site_fract_y
 _atom_site_fract_z
 _atom_site_occupancy
  Tb  Tb0  1  0.870004  0.125324  0.750000  1
  Tb  Tb1  1  0.129996  0.874676  0.250000  1
  Al  Al2  1  0.621250  0.375549  0.549849  1
  Al  Al3  1  0.378750  0.624451  0.450151  1
  Al  Al4  1  0.378750  0.624451  0.049849  1
  Al  Al5  1  0.621250  0.375549  0.950151  1
  Al  Al6  1  0.225332  0.223556  0.499100  1
  Al  Al7  1  0.774668  0.776444  0.500900  1
  Al  Al8  1  0.774668  0.776444  0.999100  1
  Al  Al9  1  0.225332  0.223556  0.000900  1
  Al  Al10  1  0.844080  0.154726  0.101548  1
  Al  Al11  1  0.155920  0.845274  0.898452  1
  Al  Al12  1  0.155920  0.845274  0.601548  1
  Al  Al13  1  0.844080  0.154726  0.398452  1
  Al  Al14  1  0.857193  0.589035  0.750000  1
  Al  Al15  1  0.142807  0.410965  0.250000  1
  Al  Al16  1  0.412093  0.140954  0.750000  1
  Al  Al17  1  0.587907  0.859046  0.250000  1
  Al  Al18  1  0.224542  0.480773  0.750000  1
  Al  Al19  1  0.775458  0.519227  0.250000  1
  Al  Al20  1  0.518713  0.777621  0.750000  1
  Al  Al21  1  0.481287  0.222379  0.250000  1
  Ru  Ru22  1  0.500000  0.000000  0.000000  1
  Ru  Ru23  1  0.500000  0.000000  0.500000  1
  Rh  Rh24  1  0.000000  0.500000  0.500000  1
  Rh  Rh25  1  0.000000  0.500000  0.000000  1
