# generated using pymatgen
data_Ho2TmSi2Ag3Ge
_symmetry_space_group_name_H-M   'P 1'
_cell_length_a   7.04953910
_cell_length_b   7.06020889
_cell_length_c   4.20033300
_cell_angle_alpha   90.00000000
_cell_angle_beta   90.00000000
_cell_angle_gamma   120.05008197
_symmetry_Int_Tables_number   1
_chemical_formula_structural   Ho2TmSi2Ag3Ge
_chemical_formula_sum   'Ho2 Tm1 Si2 Ag3 Ge1'
_cell_volume   180.95610376
_cell_formula_units_Z   1
loop_
 _symmetry_equiv_pos_site_id
 _symmetry_equiv_pos_as_xyz
  1  'x, y, z'
loop_
 _atom_site_type_symbol
 _atom_site_label
 _atom_site_symmetry_multiplicity
 _atom_site_fract_x
 _atom_site_fract_y
 _atom_site_fract_z
 _atom_site_occupancy
  Ho  Ho0  1  0.419192  0.419453  0.500000  1
  Ho  Ho1  1  0.580808  0.000262  0.500000  1
  Tm  Tm2  1  0.000000  0.581114  0.500000  1
  Si  Si3  1  0.667949  0.334093  0.000000  1
  Si  Si4  1  0.332051  0.666145  0.000000  1
  Ag  Ag5  1  0.744468  0.743948  0.000000  1
  Ag  Ag6  1  0.255532  0.999481  0.000000  1
  Ag  Ag7  1  0.000000  0.256667  0.000000  1
  Ge  Ge8  1  0.000000  0.998837  0.500000  1
