# generated using pymatgen
data_Y6Ho2AlPd24
_symmetry_space_group_name_H-M   'P 1'
_cell_length_a   8.36035598
_cell_length_b   8.36035651
_cell_length_c   8.36035743
_cell_angle_alpha   89.97314241
_cell_angle_beta   90.02685409
_cell_angle_gamma   90.02684782
_symmetry_Int_Tables_number   1
_chemical_formula_structural   Y6Ho2AlPd24
_chemical_formula_sum   'Y6 Ho2 Al1 Pd24'
_cell_volume   584.35164309
_cell_formula_units_Z   1
loop_
 _symmetry_equiv_pos_site_id
 _symmetry_equiv_pos_as_xyz
  1  'x, y, z'
loop_
 _atom_site_type_symbol
 _atom_site_label
 _atom_site_symmetry_multiplicity
 _atom_site_fract_x
 _atom_site_fract_y
 _atom_site_fract_z
 _atom_site_occupancy
  Y  Y0  1  0.251354  0.251519  0.251519  1
  Y  Y1  1  0.748646  0.748481  0.748481  1
  Y  Y2  1  0.748481  0.748646  0.251519  1
  Y  Y3  1  0.748481  0.251519  0.748646  1
  Y  Y4  1  0.251519  0.251354  0.748481  1
  Y  Y5  1  0.251519  0.748481  0.251354  1
  Ho  Ho6  1  0.252139  0.747861  0.747861  1
  Ho  Ho7  1  0.747861  0.252139  0.252139  1
  Al  Al8  1  0.000000  0.000000  0.000000  1
  Pd  Pd9  1  0.259870  0.500466  0.999259  1
  Pd  Pd10  1  0.740130  0.499534  0.000741  1
  Pd  Pd11  1  0.999259  0.259870  0.499534  1
  Pd  Pd12  1  0.500466  0.259870  0.000741  1
  Pd  Pd13  1  0.000741  0.740130  0.500466  1
  Pd  Pd14  1  0.499534  0.740130  0.999259  1
  Pd  Pd15  1  0.500466  0.000741  0.259870  1
  Pd  Pd16  1  0.259870  0.999259  0.500466  1
  Pd  Pd17  1  0.499534  0.999259  0.740130  1
  Pd  Pd18  1  0.740130  0.000741  0.499534  1
  Pd  Pd19  1  0.999259  0.499534  0.259870  1
  Pd  Pd20  1  0.000741  0.500466  0.740130  1
  Pd  Pd21  1  0.252855  0.500423  0.500423  1
  Pd  Pd22  1  0.747145  0.499577  0.499577  1
  Pd  Pd23  1  0.500423  0.252855  0.499577  1
  Pd  Pd24  1  0.499577  0.747145  0.500423  1
  Pd  Pd25  1  0.500423  0.499577  0.252855  1
  Pd  Pd26  1  0.499577  0.500423  0.747145  1
  Pd  Pd27  1  0.289428  0.999553  0.999553  1
  Pd  Pd28  1  0.710572  0.000447  0.000447  1
  Pd  Pd29  1  0.999553  0.289428  0.000447  1
  Pd  Pd30  1  0.000447  0.710572  0.999553  1
  Pd  Pd31  1  0.999553  0.000447  0.289428  1
  Pd  Pd32  1  0.000447  0.999553  0.710572  1
