# generated using pymatgen
data_LaPr9GaSi5
_symmetry_space_group_name_H-M   'P 1'
_cell_length_a   7.84800100
_cell_length_b   7.84800100
_cell_length_c   14.46906500
_cell_angle_alpha   90.00000000
_cell_angle_beta   90.00000000
_cell_angle_gamma   90.00000000
_symmetry_Int_Tables_number   1
_chemical_formula_structural   LaPr9GaSi5
_chemical_formula_sum   'La2 Pr18 Ga2 Si10'
_cell_volume   891.16591430
_cell_formula_units_Z   2
loop_
 _symmetry_equiv_pos_site_id
 _symmetry_equiv_pos_as_xyz
  1  'x, y, z'
loop_
 _atom_site_type_symbol
 _atom_site_label
 _atom_site_symmetry_multiplicity
 _atom_site_fract_x
 _atom_site_fract_y
 _atom_site_fract_z
 _atom_site_occupancy
  La  La0  1  0.000000  0.500000  0.728810  1
  La  La1  1  0.000000  0.500000  0.226960  1
  Pr  Pr2  1  0.813920  0.827734  0.605280  1
  Pr  Pr3  1  0.185256  0.829978  0.109755  1
  Pr  Pr4  1  0.172336  0.813938  0.394895  1
  Pr  Pr5  1  0.827664  0.186062  0.394895  1
  Pr  Pr6  1  0.686062  0.672336  0.394895  1
  Pr  Pr7  1  0.672266  0.313920  0.605280  1
  Pr  Pr8  1  0.327734  0.686080  0.605280  1
  Pr  Pr9  1  0.670022  0.685256  0.109755  1
  Pr  Pr10  1  0.685303  0.329958  0.890374  1
  Pr  Pr11  1  0.829958  0.814697  0.890374  1
  Pr  Pr12  1  0.313938  0.327664  0.394895  1
  Pr  Pr13  1  0.186080  0.172266  0.605280  1
  Pr  Pr14  1  0.814744  0.170022  0.109755  1
  Pr  Pr15  1  0.314697  0.670042  0.890374  1
  Pr  Pr16  1  0.329978  0.314744  0.109755  1
  Pr  Pr17  1  0.500000  0.000000  0.270331  1
  Pr  Pr18  1  0.170042  0.185303  0.890374  1
  Pr  Pr19  1  0.500000  0.000000  0.771973  1
  Ga  Ga20  1  0.500000  0.000000  0.995978  1
  Ga  Ga21  1  0.000000  0.500000  0.003479  1
  Si  Si22  1  0.613133  0.386588  0.253297  1
  Si  Si23  1  0.113931  0.887452  0.747201  1
  Si  Si24  1  0.387452  0.386069  0.747201  1
  Si  Si25  1  0.386867  0.613412  0.253297  1
  Si  Si26  1  0.886588  0.886867  0.253297  1
  Si  Si27  1  0.612548  0.613931  0.747201  1
  Si  Si28  1  0.000000  0.500000  0.506893  1
  Si  Si29  1  0.886069  0.112548  0.747201  1
  Si  Si30  1  0.500000  0.000000  0.492373  1
  Si  Si31  1  0.113412  0.113133  0.253297  1
