# generated using pymatgen
data_La6In8HgGe
_symmetry_space_group_name_H-M   'P 1'
_cell_length_a   8.72770260
_cell_length_b   8.72770189
_cell_length_c   8.72770307
_cell_angle_alpha   119.71039420
_cell_angle_beta   119.71039614
_cell_angle_gamma   90.50234923
_symmetry_Int_Tables_number   1
_chemical_formula_structural   La6In8HgGe
_chemical_formula_sum   'La6 In8 Hg1 Ge1'
_cell_volume   472.13222370
_cell_formula_units_Z   1
loop_
 _symmetry_equiv_pos_site_id
 _symmetry_equiv_pos_as_xyz
  1  'x, y, z'
loop_
 _atom_site_type_symbol
 _atom_site_label
 _atom_site_symmetry_multiplicity
 _atom_site_fract_x
 _atom_site_fract_y
 _atom_site_fract_z
 _atom_site_occupancy
  La  La0  1  0.761558  0.761558  0.000000  1
  La  La1  1  0.238442  0.238442  0.000000  1
  La  La2  1  0.323318  0.853065  0.176382  1
  La  La3  1  0.676682  0.146935  0.823618  1
  La  La4  1  0.853065  0.676682  0.529747  1
  La  La5  1  0.146935  0.323318  0.470253  1
  In  In6  1  0.964305  0.451652  0.786558  1
  In  In7  1  0.665094  0.177747  0.213442  1
  In  In8  1  0.451652  0.665094  0.487348  1
  In  In9  1  0.177747  0.964305  0.512652  1
  In  In10  1  0.035695  0.548348  0.213442  1
  In  In11  1  0.334906  0.822253  0.786558  1
  In  In12  1  0.548348  0.334906  0.512652  1
  In  In13  1  0.822253  0.035695  0.487348  1
  Hg  Hg14  1  0.500000  0.500000  0.000000  1
  Ge  Ge15  1  0.000000  0.000000  0.000000  1
