# generated using pymatgen
data_Ca7Cd2SnN2
_symmetry_space_group_name_H-M   'P 1'
_cell_length_a   12.77592515
_cell_length_b   12.77592537
_cell_length_c   4.90570200
_cell_angle_alpha   90.00000000
_cell_angle_beta   90.00000000
_cell_angle_gamma   158.01436613
_symmetry_Int_Tables_number   1
_chemical_formula_structural   Ca7Cd2SnN2
_chemical_formula_sum   'Ca7 Cd2 Sn1 N2'
_cell_volume   299.77242930
_cell_formula_units_Z   1
loop_
 _symmetry_equiv_pos_site_id
 _symmetry_equiv_pos_as_xyz
  1  'x, y, z'
loop_
 _atom_site_type_symbol
 _atom_site_label
 _atom_site_symmetry_multiplicity
 _atom_site_fract_x
 _atom_site_fract_y
 _atom_site_fract_z
 _atom_site_occupancy
  Ca  Ca0  1  0.906986  0.093013  0.000000  1
  Ca  Ca1  1  0.692094  0.307905  0.000000  1
  Ca  Ca2  1  0.500000  0.500000  0.000000  1
  Ca  Ca3  1  0.307905  0.692094  0.000000  1
  Ca  Ca4  1  0.093013  0.906986  0.000000  1
  Ca  Ca5  1  0.594460  0.405540  0.500001  1
  Ca  Ca6  1  0.405540  0.594460  0.500001  1
  Cd  Cd7  1  0.795728  0.204271  0.500001  1
  Cd  Cd8  1  0.204271  0.795728  0.500001  1
  Sn  Sn9  1  0.000000  0.000000  0.500001  1
  N  N10  1  0.601536  0.398463  0.000000  1
  N  N11  1  0.398463  0.601536  0.000000  1
