# generated using pymatgen
data_Ac(FeP)2
_symmetry_space_group_name_H-M   'P 1'
_cell_length_a   6.32760364
_cell_length_b   6.32760355
_cell_length_c   6.32760280
_cell_angle_alpha   144.62911673
_cell_angle_beta   144.62911490
_cell_angle_gamma   50.88757070
_symmetry_Int_Tables_number   1
_chemical_formula_structural   Ac(FeP)2
_chemical_formula_sum   'Ac1 Fe2 P2'
_cell_volume   84.45371418
_cell_formula_units_Z   1
loop_
 _symmetry_equiv_pos_site_id
 _symmetry_equiv_pos_as_xyz
  1  'x, y, z'
loop_
 _atom_site_type_symbol
 _atom_site_label
 _atom_site_symmetry_multiplicity
 _atom_site_fract_x
 _atom_site_fract_y
 _atom_site_fract_z
 _atom_site_occupancy
  Ac  Ac0  1  0.000000  0.000000  0.000000  1
  Fe  Fe1  1  0.750000  0.250000  0.500000  1
  Fe  Fe2  1  0.250000  0.750000  0.500000  1
  P  P3  1  0.654822  0.654822  0.000000  1
  P  P4  1  0.345178  0.345178  0.000000  1
