# generated using pymatgen
data_Y8SiPBr12
_symmetry_space_group_name_H-M   'P 1'
_cell_length_a   4.04769100
_cell_length_b   13.19570263
_cell_length_c   13.96580825
_cell_angle_alpha   89.96682589
_cell_angle_beta   90.00000000
_cell_angle_gamma   90.00000000
_symmetry_Int_Tables_number   1
_chemical_formula_structural   Y8SiPBr12
_chemical_formula_sum   'Y8 Si1 P1 Br12'
_cell_volume   745.94339608
_cell_formula_units_Z   1
loop_
 _symmetry_equiv_pos_site_id
 _symmetry_equiv_pos_as_xyz
  1  'x, y, z'
loop_
 _atom_site_type_symbol
 _atom_site_label
 _atom_site_symmetry_multiplicity
 _atom_site_fract_x
 _atom_site_fract_y
 _atom_site_fract_z
 _atom_site_occupancy
  Y  Y0  1  0.500000  0.116017  0.344201  1
  Y  Y1  1  0.500000  0.883983  0.655799  1
  Y  Y2  1  0.500000  0.619234  0.160107  1
  Y  Y3  1  0.500000  0.380766  0.839893  1
  Y  Y4  1  0.000000  0.113481  0.575283  1
  Y  Y5  1  0.000000  0.886519  0.424717  1
  Y  Y6  1  0.000000  0.618974  0.920808  1
  Y  Y7  1  0.000000  0.381026  0.079192  1
  Si  Si8  1  0.500000  0.500000  0.000000  1
  P  P9  1  0.500000  0.000000  0.500000  1
  Br  Br10  1  0.500000  0.243385  0.163891  1
  Br  Br11  1  0.500000  0.756615  0.836109  1
  Br  Br12  1  0.500000  0.746298  0.338150  1
  Br  Br13  1  0.500000  0.253702  0.661850  1
  Br  Br14  1  0.000000  0.254751  0.412223  1
  Br  Br15  1  0.000000  0.745249  0.587777  1
  Br  Br16  1  0.000000  0.756846  0.088380  1
  Br  Br17  1  0.000000  0.243154  0.911620  1
  Br  Br18  1  0.000000  0.001168  0.244022  1
  Br  Br19  1  0.000000  0.998832  0.755978  1
  Br  Br20  1  0.000000  0.501401  0.258366  1
  Br  Br21  1  0.000000  0.498599  0.741634  1
