# generated using pymatgen
data_NdTmTh3Ge3C
_symmetry_space_group_name_H-M   'P 1'
_cell_length_a   8.86053500
_cell_length_b   8.86053304
_cell_length_c   6.43145600
_cell_angle_alpha   90.00000000
_cell_angle_beta   90.00000000
_cell_angle_gamma   119.99999613
_symmetry_Int_Tables_number   1
_chemical_formula_structural   NdTmTh3Ge3C
_chemical_formula_sum   'Nd2 Tm2 Th6 Ge6 C2'
_cell_volume   437.28013261
_cell_formula_units_Z   2
loop_
 _symmetry_equiv_pos_site_id
 _symmetry_equiv_pos_as_xyz
  1  'x, y, z'
loop_
 _atom_site_type_symbol
 _atom_site_label
 _atom_site_symmetry_multiplicity
 _atom_site_fract_x
 _atom_site_fract_y
 _atom_site_fract_z
 _atom_site_occupancy
  Nd  Nd0  1  0.666667  0.333333  0.000000  1
  Nd  Nd1  1  0.333333  0.666667  0.000000  1
  Tm  Tm2  1  0.333333  0.666667  0.500000  1
  Tm  Tm3  1  0.666667  0.333333  0.500000  1
  Th  Th4  1  0.769872  0.769872  0.748604  1
  Th  Th5  1  0.230128  0.000000  0.748604  1
  Th  Th6  1  0.000000  0.230128  0.748604  1
  Th  Th7  1  0.230128  0.230128  0.251396  1
  Th  Th8  1  0.769872  0.000000  0.251396  1
  Th  Th9  1  0.000000  0.769872  0.251396  1
  Ge  Ge10  1  0.401381  0.401381  0.737936  1
  Ge  Ge11  1  0.598619  0.000000  0.737936  1
  Ge  Ge12  1  0.000000  0.598619  0.737936  1
  Ge  Ge13  1  0.598619  0.598619  0.262064  1
  Ge  Ge14  1  0.401381  0.000000  0.262064  1
  Ge  Ge15  1  0.000000  0.401381  0.262064  1
  C  C16  1  0.000000  0.000000  0.000000  1
  C  C17  1  0.000000  0.000000  0.500000  1
