# generated using pymatgen
data_LiThGe2Rh
_symmetry_space_group_name_H-M   'P 1'
_cell_length_a   6.07031816
_cell_length_b   6.07031795
_cell_length_c   6.07031655
_cell_angle_alpha   139.73333918
_cell_angle_beta   139.73334120
_cell_angle_gamma   58.25841599
_symmetry_Int_Tables_number   1
_chemical_formula_structural   LiThGe2Rh
_chemical_formula_sum   'Li1 Th1 Ge2 Rh1'
_cell_volume   92.59890215
_cell_formula_units_Z   1
loop_
 _symmetry_equiv_pos_site_id
 _symmetry_equiv_pos_as_xyz
  1  'x, y, z'
loop_
 _atom_site_type_symbol
 _atom_site_label
 _atom_site_symmetry_multiplicity
 _atom_site_fract_x
 _atom_site_fract_y
 _atom_site_fract_z
 _atom_site_occupancy
  Li  Li0  1  0.250000  0.750000  0.500000  1
  Th  Th1  1  0.000000  0.000000  0.000000  1
  Ge  Ge2  1  0.619502  0.619502  0.000000  1
  Ge  Ge3  1  0.380498  0.380498  0.000000  1
  Rh  Rh4  1  0.750000  0.250000  0.500000  1
