# generated using pymatgen
data_Y4Ga4Ir3Rh
_symmetry_space_group_name_H-M   'P 1'
_cell_length_a   4.36306400
_cell_length_b   6.83332367
_cell_length_c   7.77929316
_cell_angle_alpha   90.14587515
_cell_angle_beta   90.00000000
_cell_angle_gamma   90.00000000
_symmetry_Int_Tables_number   1
_chemical_formula_structural   Y4Ga4Ir3Rh
_chemical_formula_sum   'Y4 Ga4 Ir3 Rh1'
_cell_volume   231.93287197
_cell_formula_units_Z   1
loop_
 _symmetry_equiv_pos_site_id
 _symmetry_equiv_pos_as_xyz
  1  'x, y, z'
loop_
 _atom_site_type_symbol
 _atom_site_label
 _atom_site_symmetry_multiplicity
 _atom_site_fract_x
 _atom_site_fract_y
 _atom_site_fract_z
 _atom_site_occupancy
  Y  Y0  1  0.250000  0.976974  0.308731  1
  Y  Y1  1  0.250000  0.480447  0.189891  1
  Y  Y2  1  0.750000  0.019747  0.692409  1
  Y  Y3  1  0.750000  0.520945  0.809226  1
  Ga  Ga4  1  0.250000  0.339441  0.571450  1
  Ga  Ga5  1  0.250000  0.840727  0.926837  1
  Ga  Ga6  1  0.750000  0.660065  0.427528  1
  Ga  Ga7  1  0.750000  0.160330  0.072626  1
  Ir  Ir8  1  0.250000  0.228820  0.893665  1
  Ir  Ir9  1  0.250000  0.726679  0.604917  1
  Ir  Ir10  1  0.750000  0.773484  0.106798  1
  Rh  Rh11  1  0.750000  0.272343  0.395921  1
