# generated using pymatgen
data_Ti4V4GaP3
_symmetry_space_group_name_H-M   'P 1'
_cell_length_a   3.31986400
_cell_length_b   6.48668288
_cell_length_c   7.81897149
_cell_angle_alpha   89.37275693
_cell_angle_beta   90.00000000
_cell_angle_gamma   90.00000000
_symmetry_Int_Tables_number   1
_chemical_formula_structural   Ti4V4GaP3
_chemical_formula_sum   'Ti4 V4 Ga1 P3'
_cell_volume   168.37071821
_cell_formula_units_Z   1
loop_
 _symmetry_equiv_pos_site_id
 _symmetry_equiv_pos_as_xyz
  1  'x, y, z'
loop_
 _atom_site_type_symbol
 _atom_site_label
 _atom_site_symmetry_multiplicity
 _atom_site_fract_x
 _atom_site_fract_y
 _atom_site_fract_z
 _atom_site_occupancy
  Ti  Ti0  1  0.250000  0.543914  0.172740  1
  Ti  Ti1  1  0.750000  0.439792  0.831071  1
  Ti  Ti2  1  0.750000  0.963209  0.655891  1
  Ti  Ti3  1  0.250000  0.043418  0.330915  1
  V  V4  1  0.250000  0.626331  0.552901  1
  V  V5  1  0.750000  0.366075  0.439264  1
  V  V6  1  0.750000  0.880561  0.070256  1
  V  V7  1  0.250000  0.137105  0.943899  1
  Ga  Ga8  1  0.250000  0.750078  0.859382  1
  P  P9  1  0.750000  0.250971  0.142593  1
  P  P10  1  0.750000  0.744773  0.360495  1
  P  P11  1  0.250000  0.253773  0.640595  1
