# generated using pymatgen
data_TbYCd3Ga5Ni2
_symmetry_space_group_name_H-M   'P 1'
_cell_length_a   4.13943057
_cell_length_b   6.61186100
_cell_length_c   8.32586063
_cell_angle_alpha   90.00000000
_cell_angle_beta   104.39401615
_cell_angle_gamma   90.00000000
_symmetry_Int_Tables_number   1
_chemical_formula_structural   TbYCd3Ga5Ni2
_chemical_formula_sum   'Tb1 Y1 Cd3 Ga5 Ni2'
_cell_volume   220.72016493
_cell_formula_units_Z   1
loop_
 _symmetry_equiv_pos_site_id
 _symmetry_equiv_pos_as_xyz
  1  'x, y, z'
loop_
 _atom_site_type_symbol
 _atom_site_label
 _atom_site_symmetry_multiplicity
 _atom_site_fract_x
 _atom_site_fract_y
 _atom_site_fract_z
 _atom_site_occupancy
  Tb  Tb0  1  0.869596  0.750000  0.739191  1
  Y  Y1  1  0.127390  0.250000  0.254779  1
  Cd  Cd2  1  0.497764  0.491817  0.995528  1
  Cd  Cd3  1  0.497764  0.008183  0.995528  1
  Cd  Cd4  1  0.070613  0.750000  0.141224  1
  Ga  Ga5  1  0.926292  0.250000  0.852582  1
  Ga  Ga6  1  0.688893  0.548693  0.377787  1
  Ga  Ga7  1  0.312391  0.448335  0.624780  1
  Ga  Ga8  1  0.688893  0.951307  0.377787  1
  Ga  Ga9  1  0.312391  0.051665  0.624780  1
  Ni  Ni10  1  0.229352  0.750000  0.458703  1
  Ni  Ni11  1  0.778665  0.250000  0.557330  1
