# generated using pymatgen
data_Dy4As3Se
_symmetry_space_group_name_H-M   'P 1'
_cell_length_a   4.11626200
_cell_length_b   5.79568800
_cell_length_c   8.22892100
_cell_angle_alpha   90.00000000
_cell_angle_beta   90.00000000
_cell_angle_gamma   90.00000000
_symmetry_Int_Tables_number   1
_chemical_formula_structural   Dy4As3Se
_chemical_formula_sum   'Dy4 As3 Se1'
_cell_volume   196.31383215
_cell_formula_units_Z   1
loop_
 _symmetry_equiv_pos_site_id
 _symmetry_equiv_pos_as_xyz
  1  'x, y, z'
loop_
 _atom_site_type_symbol
 _atom_site_label
 _atom_site_symmetry_multiplicity
 _atom_site_fract_x
 _atom_site_fract_y
 _atom_site_fract_z
 _atom_site_occupancy
  Dy  Dy0  1  0.500000  0.500000  0.241456  1
  Dy  Dy1  1  0.000000  0.000000  0.500000  1
  Dy  Dy2  1  0.500000  0.500000  0.758544  1
  Dy  Dy3  1  0.000000  0.000000  0.000000  1
  As  As4  1  0.500000  0.000000  0.747423  1
  As  As5  1  0.000000  0.500000  0.000000  1
  As  As6  1  0.500000  0.000000  0.252577  1
  Se  Se7  1  0.000000  0.500000  0.500000  1
