# generated using pymatgen
data_Ba12DyHo3(Fe4O15)2
_symmetry_space_group_name_H-M   'P 1'
_cell_length_a   6.06056120
_cell_length_b   8.14183301
_cell_length_c   18.66377818
_cell_angle_alpha   88.84301844
_cell_angle_beta   89.98535745
_cell_angle_gamma   89.99406661
_symmetry_Int_Tables_number   1
_chemical_formula_structural   Ba12DyHo3(Fe4O15)2
_chemical_formula_sum   'Ba12 Dy1 Ho3 Fe8 O30'
_cell_volume   920.75912085
_cell_formula_units_Z   1
loop_
 _symmetry_equiv_pos_site_id
 _symmetry_equiv_pos_as_xyz
  1  'x, y, z'
loop_
 _atom_site_type_symbol
 _atom_site_label
 _atom_site_symmetry_multiplicity
 _atom_site_fract_x
 _atom_site_fract_y
 _atom_site_fract_z
 _atom_site_occupancy
  Ba  Ba0  1  0.275486  0.000060  0.250071  1
  Ba  Ba1  1  0.724477  0.000341  0.749707  1
  Ba  Ba2  1  0.331774  0.499928  0.250043  1
  Ba  Ba3  1  0.667992  0.499730  0.749810  1
  Ba  Ba4  1  0.748844  0.974494  0.089076  1
  Ba  Ba5  1  0.748803  0.025609  0.411271  1
  Ba  Ba6  1  0.251259  0.026137  0.911253  1
  Ba  Ba7  1  0.251211  0.974421  0.588690  1
  Ba  Ba8  1  0.248689  0.500145  0.577133  1
  Ba  Ba9  1  0.248861  0.499431  0.922880  1
  Ba  Ba10  1  0.751260  0.499814  0.422816  1
  Ba  Ba11  1  0.751266  0.499998  0.077438  1
  Dy  Dy12  1  0.748582  0.753169  0.909211  1
  Ho  Ho13  1  0.251723  0.752970  0.409315  1
  Ho  Ho14  1  0.251676  0.246919  0.090818  1
  Ho  Ho15  1  0.748290  0.247096  0.590642  1
  Fe  Fe16  1  0.253602  0.754461  0.059957  1
  Fe  Fe17  1  0.253404  0.245576  0.440554  1
  Fe  Fe18  1  0.746786  0.245375  0.940719  1
  Fe  Fe19  1  0.746510  0.754409  0.559455  1
  Fe  Fe20  1  0.775638  0.768960  0.266194  1
  Fe  Fe21  1  0.775621  0.230992  0.233919  1
  Fe  Fe22  1  0.224306  0.231146  0.733826  1
  Fe  Fe23  1  0.224165  0.769047  0.765708  1
  O  O24  1  0.800330  0.999957  0.249998  1
  O  O25  1  0.199559  0.000173  0.749923  1
  O  O26  1  0.765645  0.959349  0.608146  1
  O  O27  1  0.766186  0.041726  0.891287  1
  O  O28  1  0.234366  0.040695  0.391818  1
  O  O29  1  0.234293  0.959615  0.108549  1
  O  O30  1  0.243002  0.527402  0.088920  1
  O  O31  1  0.243032  0.472310  0.411289  1
  O  O32  1  0.757444  0.471419  0.910995  1
  O  O33  1  0.756986  0.527655  0.588683  1
  O  O34  1  0.055222  0.723701  0.307252  1
  O  O35  1  0.055119  0.276353  0.192845  1
  O  O36  1  0.944761  0.276271  0.692682  1
  O  O37  1  0.944237  0.723134  0.806221  1
  O  O38  1  0.553242  0.747607  0.338549  1
  O  O39  1  0.553392  0.252414  0.161516  1
  O  O40  1  0.446820  0.252363  0.661456  1
  O  O41  1  0.445114  0.747372  0.838446  1
  O  O42  1  0.486607  0.766377  0.501676  1
  O  O43  1  0.486380  0.233485  0.998346  1
  O  O44  1  0.513406  0.233631  0.498284  1
  O  O45  1  0.513455  0.766602  0.002310  1
  O  O46  1  0.015198  0.768103  0.992038  1
  O  O47  1  0.014361  0.232198  0.508427  1
  O  O48  1  0.985746  0.231996  0.008582  1
  O  O49  1  0.985584  0.767785  0.491550  1
  O  O50  1  0.337689  0.691518  0.680253  1
  O  O51  1  0.336820  0.308542  0.819362  1
  O  O52  1  0.662871  0.308624  0.319391  1
  O  O53  1  0.662904  0.691402  0.180703  1
