# generated using pymatgen
data_Dy4Ho5Tm11Bi12
_symmetry_space_group_name_H-M   'P 1'
_cell_length_a   8.20256918
_cell_length_b   9.44699102
_cell_length_c   11.95828624
_cell_angle_alpha   89.99965095
_cell_angle_beta   89.97710319
_cell_angle_gamma   89.99323492
_symmetry_Int_Tables_number   1
_chemical_formula_structural   Dy4Ho5Tm11Bi12
_chemical_formula_sum   'Dy4 Ho5 Tm11 Bi12'
_cell_volume   926.64270502
_cell_formula_units_Z   1
loop_
 _symmetry_equiv_pos_site_id
 _symmetry_equiv_pos_as_xyz
  1  'x, y, z'
loop_
 _atom_site_type_symbol
 _atom_site_label
 _atom_site_symmetry_multiplicity
 _atom_site_fract_x
 _atom_site_fract_y
 _atom_site_fract_z
 _atom_site_occupancy
  Dy  Dy0  1  0.312417  0.249991  0.218355  1
  Dy  Dy1  1  0.812339  0.250004  0.281639  1
  Dy  Dy2  1  0.687653  0.750111  0.781554  1
  Dy  Dy3  1  0.187643  0.750012  0.718340  1
  Ho  Ho4  1  0.352345  0.750123  0.216846  1
  Ho  Ho5  1  0.852674  0.750175  0.283278  1
  Ho  Ho6  1  0.647587  0.250067  0.783236  1
  Ho  Ho7  1  0.147521  0.250022  0.716833  1
  Ho  Ho8  1  0.692576  0.565042  0.058989  1
  Tm  Tm9  1  0.192644  0.934379  0.441011  1
  Tm  Tm10  1  0.307306  0.065575  0.940979  1
  Tm  Tm11  1  0.807373  0.434372  0.559014  1
  Tm  Tm12  1  0.307426  0.434373  0.941014  1
  Tm  Tm13  1  0.807344  0.065610  0.558983  1
  Tm  Tm14  1  0.692571  0.934577  0.059021  1
  Tm  Tm15  1  0.192635  0.565614  0.441015  1
  Tm  Tm16  1  0.476226  0.250049  0.488849  1
  Tm  Tm17  1  0.976312  0.249976  0.011169  1
  Tm  Tm18  1  0.523786  0.750004  0.511186  1
  Tm  Tm19  1  0.024054  0.750134  0.988773  1
  Bi  Bi20  1  0.405096  0.750239  0.957834  1
  Bi  Bi21  1  0.905315  0.749996  0.542077  1
  Bi  Bi22  1  0.594490  0.249288  0.041981  1
  Bi  Bi23  1  0.094703  0.250004  0.457939  1
  Bi  Bi24  1  0.565182  0.995166  0.326171  1
  Bi  Bi25  1  0.065348  0.504891  0.173936  1
  Bi  Bi26  1  0.434726  0.495147  0.673830  1
  Bi  Bi27  1  0.934825  0.004908  0.826106  1
  Bi  Bi28  1  0.434767  0.004893  0.673859  1
  Bi  Bi29  1  0.934768  0.495179  0.826046  1
  Bi  Bi30  1  0.565129  0.504899  0.326230  1
  Bi  Bi31  1  0.065222  0.995179  0.173905  1
