# generated using pymatgen
data_Ac3Sb4Pt3
_symmetry_space_group_name_H-M   'P 1'
_cell_length_a   8.90772986
_cell_length_b   8.90773006
_cell_length_c   8.90773000
_cell_angle_alpha   109.47122505
_cell_angle_beta   109.47122550
_cell_angle_gamma   109.47121532
_symmetry_Int_Tables_number   1
_chemical_formula_structural   Ac3Sb4Pt3
_chemical_formula_sum   'Ac6 Sb8 Pt6'
_cell_volume   544.10061701
_cell_formula_units_Z   2
loop_
 _symmetry_equiv_pos_site_id
 _symmetry_equiv_pos_as_xyz
  1  'x, y, z'
loop_
 _atom_site_type_symbol
 _atom_site_label
 _atom_site_symmetry_multiplicity
 _atom_site_fract_x
 _atom_site_fract_y
 _atom_site_fract_z
 _atom_site_occupancy
  Ac  Ac0  1  0.875000  0.250000  0.125000  1
  Ac  Ac1  1  0.625000  0.750000  0.375000  1
  Ac  Ac2  1  0.250000  0.125000  0.875000  1
  Ac  Ac3  1  0.750000  0.375000  0.625000  1
  Ac  Ac4  1  0.125000  0.875000  0.250000  1
  Ac  Ac5  1  0.375000  0.625000  0.750000  1
  Sb  Sb6  1  0.664687  0.500000  0.000000  1
  Sb  Sb7  1  0.500000  0.000000  0.664687  1
  Sb  Sb8  1  0.000000  0.664687  0.500000  1
  Sb  Sb9  1  0.835313  0.835313  0.835313  1
  Sb  Sb10  1  0.500000  0.000000  0.164687  1
  Sb  Sb11  1  0.164687  0.500000  0.000000  1
  Sb  Sb12  1  0.000000  0.164687  0.500000  1
  Sb  Sb13  1  0.335313  0.335313  0.335313  1
  Pt  Pt14  1  0.375000  0.250000  0.625000  1
  Pt  Pt15  1  0.125000  0.750000  0.875000  1
  Pt  Pt16  1  0.250000  0.625000  0.375000  1
  Pt  Pt17  1  0.750000  0.875000  0.125000  1
  Pt  Pt18  1  0.625000  0.375000  0.250000  1
  Pt  Pt19  1  0.875000  0.125000  0.750000  1
