# generated using pymatgen
data_CeSmTlSe6
_symmetry_space_group_name_H-M   'P 1'
_cell_length_a   11.70245676
_cell_length_b   11.70245693
_cell_length_c   11.70245700
_cell_angle_alpha   159.03036813
_cell_angle_beta   152.01611658
_cell_angle_gamma   35.22931555
_symmetry_Int_Tables_number   1
_chemical_formula_structural   CeSmTlSe6
_chemical_formula_sum   'Ce1 Sm1 Tl1 Se6'
_cell_volume   268.82978303
_cell_formula_units_Z   1
loop_
 _symmetry_equiv_pos_site_id
 _symmetry_equiv_pos_as_xyz
  1  'x, y, z'
loop_
 _atom_site_type_symbol
 _atom_site_label
 _atom_site_symmetry_multiplicity
 _atom_site_fract_x
 _atom_site_fract_y
 _atom_site_fract_z
 _atom_site_occupancy
  Ce  Ce0  1  0.686570  0.186570  0.500000  1
  Sm  Sm1  1  0.316370  0.816370  0.500000  1
  Tl  Tl2  1  0.995463  0.995463  0.000000  1
  Se  Se3  1  0.182076  0.396310  0.785766  1
  Se  Se4  1  0.222592  0.222592  0.000000  1
  Se  Se5  1  0.395804  0.606329  0.789476  1
  Se  Se6  1  0.610545  0.396310  0.214234  1
  Se  Se7  1  0.816853  0.606329  0.210524  1
  Se  Se8  1  0.773729  0.773729  0.000000  1
