# generated using pymatgen
data_Yb2ErNiSn3Pt2
_symmetry_space_group_name_H-M   'P 1'
_cell_length_a   7.52699319
_cell_length_b   7.57407307
_cell_length_c   3.83681000
_cell_angle_alpha   90.00000000
_cell_angle_beta   90.00000000
_cell_angle_gamma   120.20712701
_symmetry_Int_Tables_number   1
_chemical_formula_structural   Yb2ErNiSn3Pt2
_chemical_formula_sum   'Yb2 Er1 Ni1 Sn3 Pt2'
_cell_volume   189.03477828
_cell_formula_units_Z   1
loop_
 _symmetry_equiv_pos_site_id
 _symmetry_equiv_pos_as_xyz
  1  'x, y, z'
loop_
 _atom_site_type_symbol
 _atom_site_label
 _atom_site_symmetry_multiplicity
 _atom_site_fract_x
 _atom_site_fract_y
 _atom_site_fract_z
 _atom_site_occupancy
  Yb  Yb0  1  0.407398  0.407301  0.500000  1
  Yb  Yb1  1  0.592602  0.999904  0.500000  1
  Er  Er2  1  0.000000  0.591957  0.500000  1
  Ni  Ni3  1  0.000000  0.996580  0.500000  1
  Sn  Sn4  1  0.745672  0.748380  0.000000  1
  Sn  Sn5  1  0.254328  0.002707  0.000000  1
  Sn  Sn6  1  0.000000  0.248448  0.000000  1
  Pt  Pt7  1  0.674145  0.339434  0.000000  1
  Pt  Pt8  1  0.325855  0.665290  0.000000  1
