# generated using pymatgen
data_LuPa7(SnPt2)4
_symmetry_space_group_name_H-M   'P 1'
_cell_length_a   7.73709572
_cell_length_b   7.73709463
_cell_length_c   7.39395000
_cell_angle_alpha   90.00000000
_cell_angle_beta   90.00000000
_cell_angle_gamma   89.83876317
_symmetry_Int_Tables_number   1
_chemical_formula_structural   LuPa7(SnPt2)4
_chemical_formula_sum   'Lu1 Pa7 Sn4 Pt8'
_cell_volume   442.61962721
_cell_formula_units_Z   1
loop_
 _symmetry_equiv_pos_site_id
 _symmetry_equiv_pos_as_xyz
  1  'x, y, z'
loop_
 _atom_site_type_symbol
 _atom_site_label
 _atom_site_symmetry_multiplicity
 _atom_site_fract_x
 _atom_site_fract_y
 _atom_site_fract_z
 _atom_site_occupancy
  Lu  Lu0  1  0.682652  0.317348  0.500000  1
  Pa  Pa1  1  0.317417  0.682583  0.500000  1
  Pa  Pa2  1  0.187238  0.183500  0.000000  1
  Pa  Pa3  1  0.816500  0.812762  0.000000  1
  Pa  Pa4  1  0.852688  0.855395  0.500000  1
  Pa  Pa5  1  0.144605  0.147312  0.500000  1
  Pa  Pa6  1  0.355833  0.644167  0.000000  1
  Pa  Pa7  1  0.647499  0.352501  0.000000  1
  Sn  Sn8  1  0.502685  0.005250  0.254531  1
  Sn  Sn9  1  0.994750  0.497315  0.745469  1
  Sn  Sn10  1  0.502685  0.005250  0.745469  1
  Sn  Sn11  1  0.994750  0.497315  0.254531  1
  Pt  Pt12  1  0.868418  0.131582  0.212153  1
  Pt  Pt13  1  0.135114  0.864886  0.214759  1
  Pt  Pt14  1  0.364032  0.367215  0.716175  1
  Pt  Pt15  1  0.632785  0.635968  0.716175  1
  Pt  Pt16  1  0.135114  0.864886  0.785241  1
  Pt  Pt17  1  0.868418  0.131582  0.787847  1
  Pt  Pt18  1  0.632785  0.635968  0.283825  1
  Pt  Pt19  1  0.364032  0.367215  0.283825  1
