# generated using pymatgen
data_NaCa2Si4(PPd10)2
_symmetry_space_group_name_H-M   'P 1'
_cell_length_a   8.69325266
_cell_length_b   8.69325317
_cell_length_c   8.69914700
_cell_angle_alpha   59.97756634
_cell_angle_beta   59.97756438
_cell_angle_gamma   60.04486256
_symmetry_Int_Tables_number   1
_chemical_formula_structural   NaCa2Si4(PPd10)2
_chemical_formula_sum   'Na1 Ca2 Si4 P2 Pd20'
_cell_volume   464.86396223
_cell_formula_units_Z   1
loop_
 _symmetry_equiv_pos_site_id
 _symmetry_equiv_pos_as_xyz
  1  'x, y, z'
loop_
 _atom_site_type_symbol
 _atom_site_label
 _atom_site_symmetry_multiplicity
 _atom_site_fract_x
 _atom_site_fract_y
 _atom_site_fract_z
 _atom_site_occupancy
  Na  Na0  1  0.000000  0.000000  0.000000  1
  Ca  Ca1  1  0.250000  0.250000  0.250000  1
  Ca  Ca2  1  0.750000  0.750000  0.750000  1
  Si  Si3  1  0.734156  0.265844  0.265844  1
  Si  Si4  1  0.265844  0.734156  0.734156  1
  Si  Si5  1  0.265844  0.734156  0.265844  1
  Si  Si6  1  0.734156  0.265844  0.734156  1
  P  P7  1  0.264473  0.264473  0.735527  1
  P  P8  1  0.735527  0.735527  0.264473  1
  Pd  Pd9  1  0.384735  0.384735  0.387133  1
  Pd  Pd10  1  0.615265  0.615265  0.612867  1
  Pd  Pd11  1  0.384735  0.384735  0.843398  1
  Pd  Pd12  1  0.387133  0.843398  0.384735  1
  Pd  Pd13  1  0.615265  0.615265  0.156602  1
  Pd  Pd14  1  0.612867  0.156602  0.615265  1
  Pd  Pd15  1  0.843398  0.387133  0.384735  1
  Pd  Pd16  1  0.156602  0.612867  0.615265  1
  Pd  Pd17  1  0.344485  0.001284  0.998716  1
  Pd  Pd18  1  0.655515  0.998716  0.001284  1
  Pd  Pd19  1  0.001284  0.344485  0.655515  1
  Pd  Pd20  1  0.998716  0.655515  0.344485  1
  Pd  Pd21  1  0.001284  0.344485  0.998716  1
  Pd  Pd22  1  0.655515  0.998716  0.344485  1
  Pd  Pd23  1  0.998716  0.655515  0.001284  1
  Pd  Pd24  1  0.344485  0.001284  0.655515  1
  Pd  Pd25  1  0.000000  0.000000  0.345726  1
  Pd  Pd26  1  0.000000  0.000000  0.654274  1
  Pd  Pd27  1  0.654274  0.345726  0.000000  1
  Pd  Pd28  1  0.345726  0.654274  0.000000  1
