# generated using pymatgen
data_SrCoNi11B6
_symmetry_space_group_name_H-M   'P 1'
_cell_length_a   6.04253476
_cell_length_b   6.04845925
_cell_length_c   6.04846088
_cell_angle_alpha   104.47953258
_cell_angle_beta   104.50354519
_cell_angle_gamma   104.50354322
_symmetry_Int_Tables_number   1
_chemical_formula_structural   SrCoNi11B6
_chemical_formula_sum   'Sr1 Co1 Ni11 B6'
_cell_volume   195.31915896
_cell_formula_units_Z   1
loop_
 _symmetry_equiv_pos_site_id
 _symmetry_equiv_pos_as_xyz
  1  'x, y, z'
loop_
 _atom_site_type_symbol
 _atom_site_label
 _atom_site_symmetry_multiplicity
 _atom_site_fract_x
 _atom_site_fract_y
 _atom_site_fract_z
 _atom_site_occupancy
  Sr  Sr0  1  0.000000  0.000020  0.999980  1
  Co  Co1  1  0.500000  0.866182  0.133818  1
  Ni  Ni2  1  0.457236  0.457901  0.187870  1
  Ni  Ni3  1  0.189004  0.461412  0.459852  1
  Ni  Ni4  1  0.542764  0.812130  0.542099  1
  Ni  Ni5  1  0.810996  0.540148  0.538588  1
  Ni  Ni6  1  0.541808  0.540194  0.814599  1
  Ni  Ni7  1  0.131079  0.499710  0.866965  1
  Ni  Ni8  1  0.868921  0.133035  0.500290  1
  Ni  Ni9  1  0.500000  0.131748  0.868252  1
  Ni  Ni10  1  0.869380  0.499136  0.132701  1
  Ni  Ni11  1  0.130620  0.867299  0.500864  1
  Ni  Ni12  1  0.458192  0.185401  0.459806  1
  B  B13  1  0.762247  0.766050  0.331354  1
  B  B14  1  0.345781  0.768203  0.771921  1
  B  B15  1  0.766000  0.340122  0.765415  1
  B  B16  1  0.654219  0.228079  0.231797  1
  B  B17  1  0.234000  0.234585  0.659878  1
  B  B18  1  0.237753  0.668646  0.233950  1
