# generated using pymatgen
data_Hf6Zr12CoRe8Ni
_symmetry_space_group_name_H-M   'P 1'
_cell_length_a   8.65598300
_cell_length_b   8.65598210
_cell_length_c   8.52220100
_cell_angle_alpha   90.00000000
_cell_angle_beta   90.00000000
_cell_angle_gamma   119.99999197
_symmetry_Int_Tables_number   1
_chemical_formula_structural   Hf6Zr12CoRe8Ni
_chemical_formula_sum   'Hf6 Zr12 Co1 Re8 Ni1'
_cell_volume   552.98733441
_cell_formula_units_Z   1
loop_
 _symmetry_equiv_pos_site_id
 _symmetry_equiv_pos_as_xyz
  1  'x, y, z'
loop_
 _atom_site_type_symbol
 _atom_site_label
 _atom_site_symmetry_multiplicity
 _atom_site_fract_x
 _atom_site_fract_y
 _atom_site_fract_z
 _atom_site_occupancy
  Hf  Hf0  1  0.801695  0.198305  0.941266  1
  Hf  Hf1  1  0.801695  0.603389  0.941266  1
  Hf  Hf2  1  0.396611  0.198305  0.941266  1
  Hf  Hf3  1  0.196419  0.803581  0.057565  1
  Hf  Hf4  1  0.196419  0.392840  0.057565  1
  Hf  Hf5  1  0.607160  0.803581  0.057565  1
  Zr  Zr6  1  0.197393  0.802607  0.442235  1
  Zr  Zr7  1  0.197393  0.394789  0.442235  1
  Zr  Zr8  1  0.605211  0.802607  0.442235  1
  Zr  Zr9  1  0.800369  0.199631  0.559061  1
  Zr  Zr10  1  0.800369  0.600736  0.559061  1
  Zr  Zr11  1  0.399264  0.199631  0.559061  1
  Zr  Zr12  1  0.542095  0.457905  0.246336  1
  Zr  Zr13  1  0.542095  0.084188  0.246336  1
  Zr  Zr14  1  0.915812  0.457905  0.246336  1
  Zr  Zr15  1  0.458039  0.541961  0.753753  1
  Zr  Zr16  1  0.458039  0.916079  0.753753  1
  Zr  Zr17  1  0.083921  0.541961  0.753753  1
  Co  Co18  1  0.666667  0.333333  0.753765  1
  Re  Re19  1  0.890916  0.109084  0.248453  1
  Re  Re20  1  0.890916  0.781834  0.248453  1
  Re  Re21  1  0.218166  0.109084  0.248453  1
  Re  Re22  1  0.108743  0.891257  0.751680  1
  Re  Re23  1  0.108743  0.217485  0.751680  1
  Re  Re24  1  0.782515  0.891257  0.751680  1
  Re  Re25  1  0.000000  0.000000  0.500093  1
  Re  Re26  1  0.000000  0.000000  0.999948  1
  Ni  Ni27  1  0.333333  0.666667  0.245143  1
