# generated using pymatgen
data_Hf8TiMnBi4
_symmetry_space_group_name_H-M   'P 1'
_cell_length_a   8.28972225
_cell_length_b   8.28971468
_cell_length_c   8.28972387
_cell_angle_alpha   96.13297600
_cell_angle_beta   96.13288942
_cell_angle_gamma   141.84382916
_symmetry_Int_Tables_number   1
_chemical_formula_structural   Hf8TiMnBi4
_chemical_formula_sum   'Hf8 Ti1 Mn1 Bi4'
_cell_volume   332.61213838
_cell_formula_units_Z   1
loop_
 _symmetry_equiv_pos_site_id
 _symmetry_equiv_pos_as_xyz
  1  'x, y, z'
loop_
 _atom_site_type_symbol
 _atom_site_label
 _atom_site_symmetry_multiplicity
 _atom_site_fract_x
 _atom_site_fract_y
 _atom_site_fract_z
 _atom_site_occupancy
  Hf  Hf0  1  0.699349  0.585172  0.277480  1
  Hf  Hf1  1  0.307708  0.421872  0.722528  1
  Hf  Hf2  1  0.585184  0.307703  0.885841  1
  Hf  Hf3  1  0.078138  0.192297  0.277481  1
  Hf  Hf4  1  0.800656  0.078128  0.885836  1
  Hf  Hf5  1  0.421881  0.699351  0.114179  1
  Hf  Hf6  1  0.914829  0.800649  0.722530  1
  Hf  Hf7  1  0.192307  0.914828  0.114177  1
  Ti  Ti8  1  0.250006  0.250000  0.000006  1
  Mn  Mn9  1  0.749907  0.750000  0.999907  1
  Bi  Bi10  1  0.138365  0.638362  0.776739  1
  Bi  Bi11  1  0.361641  0.138351  0.500003  1
  Bi  Bi12  1  0.861652  0.361649  0.223290  1
  Bi  Bi13  1  0.638376  0.861638  0.500003  1
