# generated using pymatgen
data_Ho9ErIrRu3
_symmetry_space_group_name_H-M   'P 1'
_cell_length_a   6.31836324
_cell_length_b   7.27848187
_cell_length_c   8.42064846
_cell_angle_alpha   96.76082111
_cell_angle_beta   111.93395676
_cell_angle_gamma   90.11846759
_symmetry_Int_Tables_number   1
_chemical_formula_structural   Ho9ErIrRu3
_chemical_formula_sum   'Ho9 Er1 Ir1 Ru3'
_cell_volume   356.27472252
_cell_formula_units_Z   1
loop_
 _symmetry_equiv_pos_site_id
 _symmetry_equiv_pos_as_xyz
  1  'x, y, z'
loop_
 _atom_site_type_symbol
 _atom_site_label
 _atom_site_symmetry_multiplicity
 _atom_site_fract_x
 _atom_site_fract_y
 _atom_site_fract_z
 _atom_site_occupancy
  Ho  Ho0  1  0.792821  0.582291  0.814836  1
  Ho  Ho1  1  0.978752  0.914883  0.186940  1
  Ho  Ho2  1  0.207716  0.415005  0.185931  1
  Ho  Ho3  1  0.023996  0.085957  0.815081  1
  Ho  Ho4  1  0.205493  0.683963  0.564587  1
  Ho  Ho5  1  0.642629  0.816052  0.434380  1
  Ho  Ho6  1  0.793074  0.314732  0.434380  1
  Ho  Ho7  1  0.356439  0.185726  0.563945  1
  Ho  Ho8  1  0.420456  0.749821  0.000303  1
  Er  Er9  1  0.579137  0.251345  0.000749  1
  Ir  Ir10  1  0.601594  0.923654  0.778736  1
  Ru  Ru11  1  0.824455  0.576352  0.219963  1
  Ru  Ru12  1  0.395595  0.076190  0.220626  1
  Ru  Ru13  1  0.177843  0.424027  0.779541  1
