# generated using pymatgen
data_Tb3Dy(ScPt)4
_symmetry_space_group_name_H-M   'P 1'
_cell_length_a   4.62528200
_cell_length_b   7.01124011
_cell_length_c   8.44206325
_cell_angle_alpha   90.43070604
_cell_angle_beta   90.00000000
_cell_angle_gamma   90.00000000
_symmetry_Int_Tables_number   1
_chemical_formula_structural   Tb3Dy(ScPt)4
_chemical_formula_sum   'Tb3 Dy1 Sc4 Pt4'
_cell_volume   273.75961890
_cell_formula_units_Z   1
loop_
 _symmetry_equiv_pos_site_id
 _symmetry_equiv_pos_as_xyz
  1  'x, y, z'
loop_
 _atom_site_type_symbol
 _atom_site_label
 _atom_site_symmetry_multiplicity
 _atom_site_fract_x
 _atom_site_fract_y
 _atom_site_fract_z
 _atom_site_occupancy
  Tb  Tb0  1  0.250000  0.985485  0.322273  1
  Tb  Tb1  1  0.750000  0.016542  0.677720  1
  Tb  Tb2  1  0.250000  0.483892  0.176989  1
  Dy  Dy3  1  0.750000  0.515255  0.823670  1
  Sc  Sc4  1  0.750000  0.640604  0.427741  1
  Sc  Sc5  1  0.250000  0.360665  0.574875  1
  Sc  Sc6  1  0.750000  0.140070  0.072440  1
  Sc  Sc7  1  0.250000  0.857449  0.925945  1
  Pt  Pt8  1  0.250000  0.244324  0.902856  1
  Pt  Pt9  1  0.750000  0.754685  0.095856  1
  Pt  Pt10  1  0.250000  0.745572  0.595598  1
  Pt  Pt11  1  0.750000  0.255458  0.404036  1
