# generated using pymatgen
data_Y2CoSi5Rh2
_symmetry_space_group_name_H-M   'P 1'
_cell_length_a   8.07930444
_cell_length_b   8.05522012
_cell_length_c   8.05190178
_cell_angle_alpha   138.58901441
_cell_angle_beta   105.35272102
_cell_angle_gamma   89.19016712
_symmetry_Int_Tables_number   1
_chemical_formula_structural   Y2CoSi5Rh2
_chemical_formula_sum   'Y4 Co2 Si10 Rh4'
_cell_volume   319.97080707
_cell_formula_units_Z   2
loop_
 _symmetry_equiv_pos_site_id
 _symmetry_equiv_pos_as_xyz
  1  'x, y, z'
loop_
 _atom_site_type_symbol
 _atom_site_label
 _atom_site_symmetry_multiplicity
 _atom_site_fract_x
 _atom_site_fract_y
 _atom_site_fract_z
 _atom_site_occupancy
  Y  Y0  1  0.865670  0.626041  0.225369  1
  Y  Y1  1  0.135611  0.362790  0.763530  1
  Y  Y2  1  0.601561  0.871714  0.738734  1
  Y  Y3  1  0.399728  0.140357  0.273668  1
  Co  Co4  1  0.005446  0.752754  0.753058  1
  Co  Co5  1  0.239956  0.854832  0.379864  1
  Si  Si6  1  0.057723  0.885410  0.147682  1
  Si  Si7  1  0.951312  0.090757  0.833197  1
  Si  Si8  1  0.262004  0.618338  0.670801  1
  Si  Si9  1  0.748089  0.413265  0.360902  1
  Si  Si10  1  0.224454  0.967424  0.735114  1
  Si  Si11  1  0.782555  0.531241  0.751085  1
  Si  Si12  1  0.783393  0.033455  0.250880  1
  Si  Si13  1  0.482010  0.222475  0.728912  1
  Si  Si14  1  0.480292  0.752899  0.259645  1
  Si  Si15  1  0.224528  0.488872  0.257259  1
  Rh  Rh16  1  0.005813  0.252900  0.252276  1
  Rh  Rh17  1  0.742765  0.130873  0.599001  1
  Rh  Rh18  1  0.533776  0.641174  0.903684  1
  Rh  Rh19  1  0.473316  0.362429  0.115339  1
