# generated using pymatgen
data_Sc5Nb3P12IrRh15
_symmetry_space_group_name_H-M   'P 1'
_cell_length_a   12.69112400
_cell_length_b   12.69112505
_cell_length_c   3.86957400
_cell_angle_alpha   90.00000000
_cell_angle_beta   90.00000000
_cell_angle_gamma   119.99999726
_symmetry_Int_Tables_number   1
_chemical_formula_structural   Sc5Nb3P12IrRh15
_chemical_formula_sum   'Sc5 Nb3 P12 Ir1 Rh15'
_cell_volume   539.75169008
_cell_formula_units_Z   1
loop_
 _symmetry_equiv_pos_site_id
 _symmetry_equiv_pos_as_xyz
  1  'x, y, z'
loop_
 _atom_site_type_symbol
 _atom_site_label
 _atom_site_symmetry_multiplicity
 _atom_site_fract_x
 _atom_site_fract_y
 _atom_site_fract_z
 _atom_site_occupancy
  Sc  Sc0  1  0.333333  0.666667  0.000000  1
  Sc  Sc1  1  0.666667  0.333333  0.000000  1
  Sc  Sc2  1  0.815792  0.000000  0.500000  1
  Sc  Sc3  1  0.000000  0.815792  0.500000  1
  Sc  Sc4  1  0.184208  0.184208  0.500000  1
  Nb  Nb5  1  0.450461  0.000000  0.000000  1
  Nb  Nb6  1  0.000000  0.450461  0.000000  1
  Nb  Nb7  1  0.549539  0.549539  0.000000  1
  P  P8  1  0.175001  0.000000  0.000000  1
  P  P9  1  0.000000  0.175001  0.000000  1
  P  P10  1  0.824999  0.824999  0.000000  1
  P  P11  1  0.167065  0.483949  0.500000  1
  P  P12  1  0.516051  0.683115  0.500000  1
  P  P13  1  0.316885  0.832935  0.500000  1
  P  P14  1  0.683115  0.516051  0.500000  1
  P  P15  1  0.832935  0.316885  0.500000  1
  P  P16  1  0.483949  0.167065  0.500000  1
  P  P17  1  0.644669  0.000000  0.000000  1
  P  P18  1  0.000000  0.644669  0.000000  1
  P  P19  1  0.355331  0.355331  0.000000  1
  Ir  Ir20  1  0.000000  0.000000  0.000000  1
  Rh  Rh21  1  0.353994  0.489357  0.500000  1
  Rh  Rh22  1  0.510643  0.864637  0.500000  1
  Rh  Rh23  1  0.135363  0.646006  0.500000  1
  Rh  Rh24  1  0.864637  0.510643  0.500000  1
  Rh  Rh25  1  0.646006  0.135363  0.500000  1
  Rh  Rh26  1  0.489357  0.353994  0.500000  1
  Rh  Rh27  1  0.177745  0.371510  0.000000  1
  Rh  Rh28  1  0.628490  0.806236  0.000000  1
  Rh  Rh29  1  0.193764  0.822255  0.000000  1
  Rh  Rh30  1  0.806236  0.628490  0.000000  1
  Rh  Rh31  1  0.822255  0.193764  0.000000  1
  Rh  Rh32  1  0.371510  0.177745  0.000000  1
  Rh  Rh33  1  0.278528  0.000000  0.500000  1
  Rh  Rh34  1  0.000000  0.278528  0.500000  1
  Rh  Rh35  1  0.721472  0.721472  0.500000  1
