# generated using pymatgen
data_HoThTc3Ge4
_symmetry_space_group_name_H-M   'P 1'
_cell_length_a   8.34474800
_cell_length_b   5.79285924
_cell_length_c   7.05536846
_cell_angle_alpha   76.32876159
_cell_angle_beta   90.00000000
_cell_angle_gamma   90.00000000
_symmetry_Int_Tables_number   1
_chemical_formula_structural   HoThTc3Ge4
_chemical_formula_sum   'Ho2 Th2 Tc6 Ge8'
_cell_volume   331.39332061
_cell_formula_units_Z   2
loop_
 _symmetry_equiv_pos_site_id
 _symmetry_equiv_pos_as_xyz
  1  'x, y, z'
loop_
 _atom_site_type_symbol
 _atom_site_label
 _atom_site_symmetry_multiplicity
 _atom_site_fract_x
 _atom_site_fract_y
 _atom_site_fract_z
 _atom_site_occupancy
  Ho  Ho0  1  0.434648  0.925692  0.754285  1
  Ho  Ho1  1  0.934648  0.574308  0.245715  1
  Th  Th2  1  0.556064  0.077174  0.247308  1
  Th  Th3  1  0.056064  0.422826  0.752692  1
  Tc  Tc4  1  0.215853  0.118971  0.109276  1
  Tc  Tc5  1  0.715853  0.381029  0.890724  1
  Tc  Tc6  1  0.796958  0.892982  0.888068  1
  Tc  Tc7  1  0.296958  0.607018  0.111932  1
  Tc  Tc8  1  0.999704  0.996528  0.499028  1
  Tc  Tc9  1  0.499704  0.503472  0.500972  1
  Ge  Ge10  1  0.908694  0.112883  0.134248  1
  Ge  Ge11  1  0.408694  0.387117  0.865752  1
  Ge  Ge12  1  0.097896  0.872490  0.884318  1
  Ge  Ge13  1  0.597896  0.627510  0.115682  1
  Ge  Ge14  1  0.742743  0.217207  0.584754  1
  Ge  Ge15  1  0.242743  0.282793  0.415246  1
  Ge  Ge16  1  0.247439  0.773926  0.412935  1
  Ge  Ge17  1  0.747439  0.726074  0.587065  1
