# generated using pymatgen
data_La16Al4CoRu3
_symmetry_space_group_name_H-M   'P 1'
_cell_length_a   9.94724400
_cell_length_b   9.94724423
_cell_length_c   9.89888620
_cell_angle_alpha   59.83827042
_cell_angle_beta   59.83827097
_cell_angle_gamma   60.00000077
_symmetry_Int_Tables_number   1
_chemical_formula_structural   La16Al4CoRu3
_chemical_formula_sum   'La16 Al4 Co1 Ru3'
_cell_volume   690.89317510
_cell_formula_units_Z   1
loop_
 _symmetry_equiv_pos_site_id
 _symmetry_equiv_pos_as_xyz
  1  'x, y, z'
loop_
 _atom_site_type_symbol
 _atom_site_label
 _atom_site_symmetry_multiplicity
 _atom_site_fract_x
 _atom_site_fract_y
 _atom_site_fract_z
 _atom_site_occupancy
  La  La0  1  0.904153  0.904153  0.898919  1
  La  La1  1  0.442670  0.442670  0.057244  1
  La  La2  1  0.057376  0.057376  0.445922  1
  La  La3  1  0.442670  0.057416  0.057244  1
  La  La4  1  0.309931  0.689643  0.310783  1
  La  La5  1  0.689643  0.689643  0.310783  1
  La  La6  1  0.689643  0.309931  0.310783  1
  La  La7  1  0.292775  0.904153  0.898919  1
  La  La8  1  0.904153  0.292775  0.898919  1
  La  La9  1  0.310797  0.687655  0.690750  1
  La  La10  1  0.902180  0.902180  0.293459  1
  La  La11  1  0.057416  0.442670  0.057244  1
  La  La12  1  0.310797  0.310797  0.690750  1
  La  La13  1  0.057376  0.439327  0.445922  1
  La  La14  1  0.439327  0.057376  0.445922  1
  La  La15  1  0.687655  0.310797  0.690750  1
  Al  Al16  1  0.677124  0.677124  0.968626  1
  Al  Al17  1  0.969105  0.677147  0.676599  1
  Al  Al18  1  0.677147  0.969105  0.676599  1
  Al  Al19  1  0.677147  0.677147  0.676599  1
  Co  Co20  1  0.112076  0.112076  0.663772  1
  Ru  Ru21  1  0.112662  0.112662  0.111163  1
  Ru  Ru22  1  0.112662  0.663513  0.111163  1
  Ru  Ru23  1  0.663513  0.112662  0.111163  1
