# generated using pymatgen
data_Ac(CdAu)2
_symmetry_space_group_name_H-M   'P 1'
_cell_length_a   4.38960870
_cell_length_b   4.38960874
_cell_length_c   7.26807815
_cell_angle_alpha   107.57649432
_cell_angle_beta   107.57649447
_cell_angle_gamma   89.99999692
_symmetry_Int_Tables_number   1
_chemical_formula_structural   Ac(CdAu)2
_chemical_formula_sum   'Ac1 Cd2 Au2'
_cell_volume   126.63283295
_cell_formula_units_Z   1
loop_
 _symmetry_equiv_pos_site_id
 _symmetry_equiv_pos_as_xyz
  1  'x, y, z'
loop_
 _atom_site_type_symbol
 _atom_site_label
 _atom_site_symmetry_multiplicity
 _atom_site_fract_x
 _atom_site_fract_y
 _atom_site_fract_z
 _atom_site_occupancy
  Ac  Ac0  1  0.000000  0.000000  0.000000  1
  Cd  Cd1  1  0.750001  0.249998  0.500000  1
  Cd  Cd2  1  0.249998  0.750001  0.500000  1
  Au  Au3  1  0.606107  0.606107  0.212212  1
  Au  Au4  1  0.393895  0.393895  0.787790  1
