# generated using pymatgen
data_Er4ScCu2Bi
_symmetry_space_group_name_H-M   'P 1'
_cell_length_a   8.40198136
_cell_length_b   8.40198121
_cell_length_c   8.40198055
_cell_angle_alpha   124.38079811
_cell_angle_beta   124.38079957
_cell_angle_gamma   82.56618076
_symmetry_Int_Tables_number   1
_chemical_formula_structural   Er4ScCu2Bi
_chemical_formula_sum   'Er8 Sc2 Cu4 Bi2'
_cell_volume   388.04179059
_cell_formula_units_Z   2
loop_
 _symmetry_equiv_pos_site_id
 _symmetry_equiv_pos_as_xyz
  1  'x, y, z'
loop_
 _atom_site_type_symbol
 _atom_site_label
 _atom_site_symmetry_multiplicity
 _atom_site_fract_x
 _atom_site_fract_y
 _atom_site_fract_z
 _atom_site_occupancy
  Er  Er0  1  0.792526  0.292526  0.810649  1
  Er  Er1  1  0.292526  0.481877  0.500000  1
  Er  Er2  1  0.981877  0.792526  0.500000  1
  Er  Er3  1  0.707474  0.518123  0.500000  1
  Er  Er4  1  0.018123  0.207474  0.500000  1
  Er  Er5  1  0.518123  0.018123  0.810649  1
  Er  Er6  1  0.207474  0.707474  0.189351  1
  Er  Er7  1  0.481877  0.981877  0.189351  1
  Sc  Sc8  1  0.000000  0.000000  0.000000  1
  Sc  Sc9  1  0.500000  0.500000  0.000000  1
  Cu  Cu10  1  0.866090  0.366090  0.232179  1
  Cu  Cu11  1  0.366090  0.133910  0.500000  1
  Cu  Cu12  1  0.633910  0.866090  0.500000  1
  Cu  Cu13  1  0.133910  0.633910  0.767821  1
  Bi  Bi14  1  0.250000  0.250000  0.000000  1
  Bi  Bi15  1  0.750000  0.750000  0.000000  1
