# generated using pymatgen
data_Co6Sn4N
_symmetry_space_group_name_H-M   'P 1'
_cell_length_a   5.30614900
_cell_length_b   5.30615076
_cell_length_c   13.16629900
_cell_angle_alpha   90.00000000
_cell_angle_beta   90.00000000
_cell_angle_gamma   120.00000771
_symmetry_Int_Tables_number   1
_chemical_formula_structural   Co6Sn4N
_chemical_formula_sum   'Co12 Sn8 N2'
_cell_volume   321.03570600
_cell_formula_units_Z   2
loop_
 _symmetry_equiv_pos_site_id
 _symmetry_equiv_pos_as_xyz
  1  'x, y, z'
loop_
 _atom_site_type_symbol
 _atom_site_label
 _atom_site_symmetry_multiplicity
 _atom_site_fract_x
 _atom_site_fract_y
 _atom_site_fract_z
 _atom_site_occupancy
  Co  Co0  1  0.327245  0.163623  0.413226  1
  Co  Co1  1  0.836377  0.163623  0.413226  1
  Co  Co2  1  0.836377  0.672755  0.413226  1
  Co  Co3  1  0.163623  0.327245  0.913226  1
  Co  Co4  1  0.672755  0.836377  0.586774  1
  Co  Co5  1  0.672755  0.836377  0.913226  1
  Co  Co6  1  0.327245  0.163623  0.086774  1
  Co  Co7  1  0.163623  0.327245  0.586774  1
  Co  Co8  1  0.163623  0.836377  0.586774  1
  Co  Co9  1  0.836377  0.163623  0.086774  1
  Co  Co10  1  0.836377  0.672755  0.086774  1
  Co  Co11  1  0.163623  0.836377  0.913226  1
  Sn  Sn12  1  0.000000  0.000000  0.750000  1
  Sn  Sn13  1  0.000000  0.000000  0.250000  1
  Sn  Sn14  1  0.333333  0.666667  0.750000  1
  Sn  Sn15  1  0.666667  0.333333  0.250000  1
  Sn  Sn16  1  0.333333  0.666667  0.417380  1
  Sn  Sn17  1  0.666667  0.333333  0.917380  1
  Sn  Sn18  1  0.666667  0.333333  0.582620  1
  Sn  Sn19  1  0.333333  0.666667  0.082620  1
  N  N20  1  0.000000  0.000000  0.500000  1
  N  N21  1  0.000000  0.000000  0.000000  1
