# generated using pymatgen
data_Lu4Tc3B8Mo
_symmetry_space_group_name_H-M   'P 1'
_cell_length_a   5.25062100
_cell_length_b   5.88948499
_cell_length_c   6.40601351
_cell_angle_alpha   89.70467732
_cell_angle_beta   90.00000000
_cell_angle_gamma   90.00000000
_symmetry_Int_Tables_number   1
_chemical_formula_structural   Lu4Tc3B8Mo
_chemical_formula_sum   'Lu4 Tc3 B8 Mo1'
_cell_volume   198.09343005
_cell_formula_units_Z   1
loop_
 _symmetry_equiv_pos_site_id
 _symmetry_equiv_pos_as_xyz
  1  'x, y, z'
loop_
 _atom_site_type_symbol
 _atom_site_label
 _atom_site_symmetry_multiplicity
 _atom_site_fract_x
 _atom_site_fract_y
 _atom_site_fract_z
 _atom_site_occupancy
  Lu  Lu0  1  0.250000  0.515625  0.662171  1
  Lu  Lu1  1  0.750000  0.483561  0.337421  1
  Lu  Lu2  1  0.250000  0.017232  0.836908  1
  Lu  Lu3  1  0.750000  0.984850  0.162095  1
  Tc  Tc4  1  0.750000  0.819008  0.686156  1
  Tc  Tc5  1  0.750000  0.318483  0.811566  1
  Tc  Tc6  1  0.250000  0.184755  0.314879  1
  B  B7  1  0.921909  0.132176  0.533570  1
  B  B8  1  0.422415  0.869183  0.468632  1
  B  B9  1  0.578869  0.630735  0.967354  1
  B  B10  1  0.076547  0.366006  0.031039  1
  B  B11  1  0.077585  0.869183  0.468632  1
  B  B12  1  0.921131  0.630735  0.967354  1
  B  B13  1  0.423453  0.366006  0.031039  1
  B  B14  1  0.578091  0.132176  0.533570  1
  Mo  Mo15  1  0.250000  0.680285  0.187612  1
