# generated using pymatgen
data_Hf8Zn3In4Pt5
_symmetry_space_group_name_H-M   'P 1'
_cell_length_a   7.45450788
_cell_length_b   7.43124364
_cell_length_c   6.93828214
_cell_angle_alpha   89.97399249
_cell_angle_beta   90.09765768
_cell_angle_gamma   89.75342911
_symmetry_Int_Tables_number   1
_chemical_formula_structural   Hf8Zn3In4Pt5
_chemical_formula_sum   'Hf8 Zn3 In4 Pt5'
_cell_volume   384.35075246
_cell_formula_units_Z   1
loop_
 _symmetry_equiv_pos_site_id
 _symmetry_equiv_pos_as_xyz
  1  'x, y, z'
loop_
 _atom_site_type_symbol
 _atom_site_label
 _atom_site_symmetry_multiplicity
 _atom_site_fract_x
 _atom_site_fract_y
 _atom_site_fract_z
 _atom_site_occupancy
  Hf  Hf0  1  0.138585  0.152005  0.004096  1
  Hf  Hf1  1  0.841709  0.855630  0.997517  1
  Hf  Hf2  1  0.657025  0.352111  0.494413  1
  Hf  Hf3  1  0.359368  0.649715  0.495925  1
  Hf  Hf4  1  0.700288  0.307208  0.005507  1
  Hf  Hf5  1  0.313178  0.691481  0.007979  1
  Hf  Hf6  1  0.792811  0.808657  0.500905  1
  Hf  Hf7  1  0.189526  0.200578  0.495910  1
  Zn  Zn8  1  0.372789  0.370654  0.795981  1
  Zn  Zn9  1  0.126378  0.869190  0.294826  1
  Zn  Zn10  1  0.129263  0.870471  0.707834  1
  In  In11  1  0.495604  0.001157  0.249094  1
  In  In12  1  0.492994  0.000996  0.750412  1
  In  In13  1  0.003533  0.506859  0.250208  1
  In  In14  1  0.003634  0.504533  0.748682  1
  Pt  Pt15  1  0.370246  0.366822  0.204442  1
  Pt  Pt16  1  0.623230  0.620055  0.786742  1
  Pt  Pt17  1  0.632841  0.628981  0.206642  1
  Pt  Pt18  1  0.877982  0.122097  0.711302  1
  Pt  Pt19  1  0.879013  0.120802  0.291587  1
