# generated using pymatgen
data_Zn2Ni3AsO8
_symmetry_space_group_name_H-M   'P 1'
_cell_length_a   6.00597008
_cell_length_b   6.00505134
_cell_length_c   5.87290600
_cell_angle_alpha   60.72738097
_cell_angle_beta   89.99669124
_cell_angle_gamma   121.29304309
_symmetry_Int_Tables_number   1
_chemical_formula_structural   Zn2Ni3AsO8
_chemical_formula_sum   'Zn2 Ni3 As1 O8'
_cell_volume   148.43417505
_cell_formula_units_Z   1
loop_
 _symmetry_equiv_pos_site_id
 _symmetry_equiv_pos_as_xyz
  1  'x, y, z'
loop_
 _atom_site_type_symbol
 _atom_site_label
 _atom_site_symmetry_multiplicity
 _atom_site_fract_x
 _atom_site_fract_y
 _atom_site_fract_z
 _atom_site_occupancy
  Zn  Zn0  1  0.635909  0.726253  0.636844  1
  Zn  Zn1  1  0.364100  0.273757  0.363156  1
  Ni  Ni2  1  0.500118  0.000053  0.000137  1
  Ni  Ni3  1  0.000003  0.500019  0.500028  1
  Ni  Ni4  1  0.999817  0.499855  0.999829  1
  As  As5  1  0.000008  0.000010  0.999997  1
  O  O6  1  0.781658  0.550040  0.224995  1
  O  O7  1  0.224762  0.992773  0.781617  1
  O  O8  1  0.224772  0.992773  0.225632  1
  O  O9  1  0.218353  0.449973  0.775007  1
  O  O10  1  0.765312  0.465119  0.767383  1
  O  O11  1  0.775250  0.007241  0.218383  1
  O  O12  1  0.234704  0.534896  0.232625  1
  O  O13  1  0.775235  0.007237  0.774368  1
