# generated using pymatgen
data_Ca5Tb3(OsC2)4
_symmetry_space_group_name_H-M   'P 1'
_cell_length_a   5.16384800
_cell_length_b   6.48055586
_cell_length_c   10.26170703
_cell_angle_alpha   90.20121122
_cell_angle_beta   90.00000000
_cell_angle_gamma   90.00000000
_symmetry_Int_Tables_number   1
_chemical_formula_structural   Ca5Tb3(OsC2)4
_chemical_formula_sum   'Ca5 Tb3 Os4 C8'
_cell_volume   343.40185901
_cell_formula_units_Z   1
loop_
 _symmetry_equiv_pos_site_id
 _symmetry_equiv_pos_as_xyz
  1  'x, y, z'
loop_
 _atom_site_type_symbol
 _atom_site_label
 _atom_site_symmetry_multiplicity
 _atom_site_fract_x
 _atom_site_fract_y
 _atom_site_fract_z
 _atom_site_occupancy
  Ca  Ca0  1  0.250000  0.195326  0.946829  1
  Ca  Ca1  1  0.250000  0.533095  0.222084  1
  Ca  Ca2  1  0.750000  0.465564  0.779181  1
  Ca  Ca3  1  0.750000  0.967464  0.724276  1
  Ca  Ca4  1  0.250000  0.033080  0.277551  1
  Tb  Tb5  1  0.250000  0.686646  0.553059  1
  Tb  Tb6  1  0.750000  0.313972  0.442546  1
  Tb  Tb7  1  0.750000  0.813490  0.057798  1
  Os  Os8  1  0.250000  0.729152  0.853635  1
  Os  Os9  1  0.750000  0.272312  0.144166  1
  Os  Os10  1  0.750000  0.773594  0.357796  1
  Os  Os11  1  0.250000  0.228419  0.644808  1
  C  C12  1  0.250000  0.469035  0.754404  1
  C  C13  1  0.750000  0.536535  0.242530  1
  C  C14  1  0.750000  0.035559  0.258775  1
  C  C15  1  0.250000  0.962918  0.737005  1
  C  C16  1  0.250000  0.795861  0.031766  1
  C  C17  1  0.750000  0.187752  0.970644  1
  C  C18  1  0.750000  0.687059  0.533296  1
  C  C19  1  0.250000  0.313168  0.467849  1
