# generated using pymatgen
data_SmDy2Rh9
_symmetry_space_group_name_H-M   'P 1'
_cell_length_a   5.28292308
_cell_length_b   5.28473136
_cell_length_c   17.55462800
_cell_angle_alpha   90.00000000
_cell_angle_beta   90.00000000
_cell_angle_gamma   120.06194413
_symmetry_Int_Tables_number   1
_chemical_formula_structural   SmDy2Rh9
_chemical_formula_sum   'Sm2 Dy4 Rh18'
_cell_volume   424.17790637
_cell_formula_units_Z   2
loop_
 _symmetry_equiv_pos_site_id
 _symmetry_equiv_pos_as_xyz
  1  'x, y, z'
loop_
 _atom_site_type_symbol
 _atom_site_label
 _atom_site_symmetry_multiplicity
 _atom_site_fract_x
 _atom_site_fract_y
 _atom_site_fract_z
 _atom_site_occupancy
  Sm  Sm0  1  0.333340  0.666665  0.750000  1
  Sm  Sm1  1  0.666660  0.333335  0.250000  1
  Dy  Dy2  1  0.333316  0.666670  0.957808  1
  Dy  Dy3  1  0.666684  0.333330  0.042192  1
  Dy  Dy4  1  0.666684  0.333330  0.457808  1
  Dy  Dy5  1  0.333316  0.666670  0.542192  1
  Rh  Rh6  1  0.167356  0.832639  0.374315  1
  Rh  Rh7  1  0.167344  0.334708  0.374324  1
  Rh  Rh8  1  0.665296  0.832655  0.374330  1
  Rh  Rh9  1  0.832644  0.167361  0.625685  1
  Rh  Rh10  1  0.832656  0.665292  0.625676  1
  Rh  Rh11  1  0.334704  0.167345  0.625670  1
  Rh  Rh12  1  0.832644  0.167361  0.874315  1
  Rh  Rh13  1  0.832656  0.665292  0.874324  1
  Rh  Rh14  1  0.334704  0.167345  0.874330  1
  Rh  Rh15  1  0.167356  0.832639  0.125685  1
  Rh  Rh16  1  0.167344  0.334708  0.125676  1
  Rh  Rh17  1  0.665296  0.832655  0.125670  1
  Rh  Rh18  1  0.333375  0.666660  0.250000  1
  Rh  Rh19  1  0.666625  0.333340  0.750000  1
  Rh  Rh20  1  0.000021  0.999990  0.250000  1
  Rh  Rh21  1  0.999979  0.000010  0.750000  1
  Rh  Rh22  1  0.000000  0.000000  0.500000  1
  Rh  Rh23  1  0.000000  0.000000  0.000000  1
