# generated using pymatgen
data_Zn12CoPt
_symmetry_space_group_name_H-M   'P 1'
_cell_length_a   6.64539444
_cell_length_b   6.64539412
_cell_length_c   5.01692432
_cell_angle_alpha   80.52907763
_cell_angle_beta   80.52908476
_cell_angle_gamma   70.45228813
_symmetry_Int_Tables_number   1
_chemical_formula_structural   Zn12CoPt
_chemical_formula_sum   'Zn12 Co1 Pt1'
_cell_volume   204.50447976
_cell_formula_units_Z   1
loop_
 _symmetry_equiv_pos_site_id
 _symmetry_equiv_pos_as_xyz
  1  'x, y, z'
loop_
 _atom_site_type_symbol
 _atom_site_label
 _atom_site_symmetry_multiplicity
 _atom_site_fract_x
 _atom_site_fract_y
 _atom_site_fract_z
 _atom_site_occupancy
  Zn  Zn0  1  0.999083  0.999083  0.999231  1
  Zn  Zn1  1  0.617396  0.617396  0.066497  1
  Zn  Zn2  1  0.776102  0.776102  0.378770  1
  Zn  Zn3  1  0.220108  0.220108  0.633529  1
  Zn  Zn4  1  0.217732  0.633485  0.314323  1
  Zn  Zn5  1  0.368053  0.776069  0.681536  1
  Zn  Zn6  1  0.776069  0.368053  0.681536  1
  Zn  Zn7  1  0.633485  0.217732  0.314323  1
  Zn  Zn8  1  0.003578  0.645540  0.799881  1
  Zn  Zn9  1  0.353633  0.002542  0.198475  1
  Zn  Zn10  1  0.002542  0.353633  0.198475  1
  Zn  Zn11  1  0.645540  0.003578  0.799881  1
  Co  Co12  1  0.000262  0.000262  0.497147  1
  Pt  Pt13  1  0.386419  0.386419  0.936398  1
