# generated using pymatgen
data_Rb8GdY3F20
_symmetry_space_group_name_H-M   'P 1'
_cell_length_a   6.95977349
_cell_length_b   7.51573100
_cell_length_c   11.50425647
_cell_angle_alpha   90.00000000
_cell_angle_beta   89.92497229
_cell_angle_gamma   90.00000000
_symmetry_Int_Tables_number   1
_chemical_formula_structural   Rb8GdY3F20
_chemical_formula_sum   'Rb8 Gd1 Y3 F20'
_cell_volume   601.76166230
_cell_formula_units_Z   1
loop_
 _symmetry_equiv_pos_site_id
 _symmetry_equiv_pos_as_xyz
  1  'x, y, z'
loop_
 _atom_site_type_symbol
 _atom_site_label
 _atom_site_symmetry_multiplicity
 _atom_site_fract_x
 _atom_site_fract_y
 _atom_site_fract_z
 _atom_site_occupancy
  Rb  Rb0  1  0.536503  0.998161  0.828704  1
  Rb  Rb1  1  0.464055  0.496570  0.171212  1
  Rb  Rb2  1  0.963565  0.997789  0.329810  1
  Rb  Rb3  1  0.036218  0.496852  0.670275  1
  Rb  Rb4  1  0.536503  0.501839  0.828704  1
  Rb  Rb5  1  0.464055  0.003430  0.171212  1
  Rb  Rb6  1  0.963565  0.502211  0.329810  1
  Rb  Rb7  1  0.036218  0.003148  0.670275  1
  Gd  Gd8  1  0.060220  0.750000  0.997866  1
  Y  Y9  1  0.559247  0.250000  0.501548  1
  Y  Y10  1  0.440601  0.750000  0.498495  1
  Y  Y11  1  0.939509  0.250000  0.001784  1
  F  F12  1  0.877849  0.750000  0.836661  1
  F  F13  1  0.118910  0.250000  0.160554  1
  F  F14  1  0.618935  0.750000  0.339346  1
  F  F15  1  0.381112  0.250000  0.660602  1
  F  F16  1  0.848694  0.250000  0.816920  1
  F  F17  1  0.152295  0.750000  0.185203  1
  F  F18  1  0.650820  0.250000  0.316975  1
  F  F19  1  0.348791  0.750000  0.683271  1
  F  F20  1  0.641869  0.965414  0.569483  1
  F  F21  1  0.358005  0.465297  0.430493  1
  F  F22  1  0.856393  0.968278  0.070855  1
  F  F23  1  0.143100  0.462516  0.929414  1
  F  F24  1  0.381345  0.750000  0.985341  1
  F  F25  1  0.622300  0.250000  0.014766  1
  F  F26  1  0.124041  0.750000  0.484915  1
  F  F27  1  0.875913  0.250000  0.515261  1
  F  F28  1  0.143100  0.037484  0.929414  1
  F  F29  1  0.856393  0.531722  0.070855  1
  F  F30  1  0.358005  0.034703  0.430493  1
  F  F31  1  0.641869  0.534586  0.569483  1
