# generated using pymatgen
data_CaSm6MnBr12
_symmetry_space_group_name_H-M   'P 1'
_cell_length_a   9.39106621
_cell_length_b   9.42542358
_cell_length_c   9.41364939
_cell_angle_alpha   107.29377882
_cell_angle_beta   106.96704602
_cell_angle_gamma   106.47558423
_symmetry_Int_Tables_number   1
_chemical_formula_structural   CaSm6MnBr12
_chemical_formula_sum   'Ca1 Sm6 Mn1 Br12'
_cell_volume   695.56485605
_cell_formula_units_Z   1
loop_
 _symmetry_equiv_pos_site_id
 _symmetry_equiv_pos_as_xyz
  1  'x, y, z'
loop_
 _atom_site_type_symbol
 _atom_site_label
 _atom_site_symmetry_multiplicity
 _atom_site_fract_x
 _atom_site_fract_y
 _atom_site_fract_z
 _atom_site_occupancy
  Ca  Ca0  1  0.500000  0.500000  0.500000  1
  Sm  Sm1  1  0.306274  0.102877  0.024668  1
  Sm  Sm2  1  0.022986  0.306030  0.104656  1
  Sm  Sm3  1  0.104595  0.025685  0.307065  1
  Sm  Sm4  1  0.895404  0.974315  0.692935  1
  Sm  Sm5  1  0.977014  0.693970  0.895343  1
  Sm  Sm6  1  0.693726  0.897123  0.975331  1
  Mn  Mn7  1  0.000000  0.000000  0.000000  1
  Br  Br8  1  0.682504  0.217948  0.071323  1
  Br  Br9  1  0.373628  0.454389  0.161183  1
  Br  Br10  1  0.072653  0.685066  0.217051  1
  Br  Br11  1  0.783122  0.928719  0.315308  1
  Br  Br12  1  0.457312  0.161781  0.376448  1
  Br  Br13  1  0.159984  0.376377  0.458078  1
  Br  Br14  1  0.840017  0.623623  0.541923  1
  Br  Br15  1  0.542688  0.838220  0.623552  1
  Br  Br16  1  0.216877  0.071281  0.684692  1
  Br  Br17  1  0.927347  0.314934  0.782948  1
  Br  Br18  1  0.626373  0.545612  0.838817  1
  Br  Br19  1  0.317496  0.782051  0.928677  1
