# generated using pymatgen
data_KNb2TcSe6
_symmetry_space_group_name_H-M   'P 1'
_cell_length_a   5.93213700
_cell_length_b   5.93213869
_cell_length_c   17.68978200
_cell_angle_alpha   90.00000000
_cell_angle_beta   90.00000000
_cell_angle_gamma   119.99999617
_symmetry_Int_Tables_number   1
_chemical_formula_structural   KNb2TcSe6
_chemical_formula_sum   'K2 Nb4 Tc2 Se12'
_cell_volume   539.10777777
_cell_formula_units_Z   2
loop_
 _symmetry_equiv_pos_site_id
 _symmetry_equiv_pos_as_xyz
  1  'x, y, z'
loop_
 _atom_site_type_symbol
 _atom_site_label
 _atom_site_symmetry_multiplicity
 _atom_site_fract_x
 _atom_site_fract_y
 _atom_site_fract_z
 _atom_site_occupancy
  K  K0  1  0.000000  0.000000  0.000000  1
  K  K1  1  0.000000  0.000000  0.500000  1
  Nb  Nb2  1  0.333333  0.666667  0.250000  1
  Nb  Nb3  1  0.666667  0.333333  0.750000  1
  Nb  Nb4  1  0.666667  0.333333  0.250000  1
  Nb  Nb5  1  0.333333  0.666667  0.750000  1
  Tc  Tc6  1  0.000000  0.000000  0.750000  1
  Tc  Tc7  1  0.000000  0.000000  0.250000  1
  Se  Se8  1  0.326233  0.000000  0.156092  1
  Se  Se9  1  0.000000  0.326233  0.156092  1
  Se  Se10  1  0.673767  0.673767  0.156092  1
  Se  Se11  1  0.326233  0.326233  0.656092  1
  Se  Se12  1  0.673767  0.673767  0.343908  1
  Se  Se13  1  0.673767  0.000000  0.656092  1
  Se  Se14  1  0.000000  0.673767  0.656092  1
  Se  Se15  1  0.000000  0.673767  0.843908  1
  Se  Se16  1  0.326233  0.326233  0.843908  1
  Se  Se17  1  0.000000  0.326233  0.343908  1
  Se  Se18  1  0.326233  0.000000  0.343908  1
  Se  Se19  1  0.673767  0.000000  0.843908  1
