# generated using pymatgen
data_NaSr3FeO6
_symmetry_space_group_name_H-M   'P 1'
_cell_length_a   6.76246564
_cell_length_b   6.76246556
_cell_length_c   6.76246463
_cell_angle_alpha   90.53745036
_cell_angle_beta   90.53745319
_cell_angle_gamma   90.53745262
_symmetry_Int_Tables_number   1
_chemical_formula_structural   NaSr3FeO6
_chemical_formula_sum   'Na2 Sr6 Fe2 O12'
_cell_volume   309.21279711
_cell_formula_units_Z   2
loop_
 _symmetry_equiv_pos_site_id
 _symmetry_equiv_pos_as_xyz
  1  'x, y, z'
loop_
 _atom_site_type_symbol
 _atom_site_label
 _atom_site_symmetry_multiplicity
 _atom_site_fract_x
 _atom_site_fract_y
 _atom_site_fract_z
 _atom_site_occupancy
  Na  Na0  1  0.250000  0.250000  0.250000  1
  Na  Na1  1  0.750000  0.750000  0.750000  1
  Sr  Sr2  1  0.250000  0.609892  0.890108  1
  Sr  Sr3  1  0.890108  0.250000  0.609892  1
  Sr  Sr4  1  0.609892  0.890108  0.250000  1
  Sr  Sr5  1  0.390108  0.109892  0.750000  1
  Sr  Sr6  1  0.750000  0.390108  0.109892  1
  Sr  Sr7  1  0.109892  0.750000  0.390108  1
  Fe  Fe8  1  0.000000  0.000000  0.000000  1
  Fe  Fe9  1  0.500000  0.500000  0.500000  1
  O  O10  1  0.943424  0.076547  0.270610  1
  O  O11  1  0.270610  0.943424  0.076547  1
  O  O12  1  0.076547  0.270610  0.943424  1
  O  O13  1  0.770610  0.576547  0.443424  1
  O  O14  1  0.443424  0.770610  0.576547  1
  O  O15  1  0.576547  0.443424  0.770610  1
  O  O16  1  0.056576  0.923453  0.729390  1
  O  O17  1  0.729390  0.056576  0.923453  1
  O  O18  1  0.923453  0.729390  0.056576  1
  O  O19  1  0.229390  0.423453  0.556576  1
  O  O20  1  0.556576  0.229390  0.423453  1
  O  O21  1  0.423453  0.556576  0.229390  1
