# generated using pymatgen
data_Zr6MnCo17P12
_symmetry_space_group_name_H-M   'P 1'
_cell_length_a   3.62789100
_cell_length_b   10.32688500
_cell_length_c   11.94691500
_cell_angle_alpha   90.00000000
_cell_angle_beta   90.00000000
_cell_angle_gamma   90.00000000
_symmetry_Int_Tables_number   1
_chemical_formula_structural   Zr6MnCo17P12
_chemical_formula_sum   'Zr6 Mn1 Co17 P12'
_cell_volume   447.58893819
_cell_formula_units_Z   1
loop_
 _symmetry_equiv_pos_site_id
 _symmetry_equiv_pos_as_xyz
  1  'x, y, z'
loop_
 _atom_site_type_symbol
 _atom_site_label
 _atom_site_symmetry_multiplicity
 _atom_site_fract_x
 _atom_site_fract_y
 _atom_site_fract_z
 _atom_site_occupancy
  Zr  Zr0  1  0.000000  0.500000  0.526728  1
  Zr  Zr1  1  0.500000  0.000000  0.473913  1
  Zr  Zr2  1  0.500000  0.820714  0.207741  1
  Zr  Zr3  1  0.500000  0.179286  0.207741  1
  Zr  Zr4  1  0.000000  0.679150  0.793479  1
  Zr  Zr5  1  0.000000  0.320850  0.793479  1
  Mn  Mn6  1  0.500000  0.500000  0.158283  1
  Co  Co7  1  0.000000  0.000000  0.836277  1
  Co  Co8  1  0.500000  0.500000  0.703040  1
  Co  Co9  1  0.000000  0.000000  0.297119  1
  Co  Co10  1  0.000000  0.500000  0.987945  1
  Co  Co11  1  0.500000  0.000000  0.013468  1
  Co  Co12  1  0.500000  0.331377  0.993022  1
  Co  Co13  1  0.500000  0.668623  0.993022  1
  Co  Co14  1  0.000000  0.166378  0.005151  1
  Co  Co15  1  0.000000  0.833622  0.005151  1
  Co  Co16  1  0.500000  0.298858  0.432990  1
  Co  Co17  1  0.500000  0.701142  0.432990  1
  Co  Co18  1  0.000000  0.200513  0.567970  1
  Co  Co19  1  0.000000  0.799487  0.567970  1
  Co  Co20  1  0.500000  0.876894  0.707235  1
  Co  Co21  1  0.500000  0.123106  0.707235  1
  Co  Co22  1  0.000000  0.624223  0.293062  1
  Co  Co23  1  0.000000  0.375777  0.293062  1
  P  P24  1  0.500000  0.500000  0.879786  1
  P  P25  1  0.000000  0.000000  0.120527  1
  P  P26  1  0.500000  0.500000  0.353125  1
  P  P27  1  0.000000  0.000000  0.649163  1
  P  P28  1  0.500000  0.316057  0.617648  1
  P  P29  1  0.500000  0.683943  0.617648  1
  P  P30  1  0.000000  0.183749  0.383221  1
  P  P31  1  0.000000  0.816251  0.383221  1
  P  P32  1  0.500000  0.846237  0.889063  1
  P  P33  1  0.500000  0.153763  0.889063  1
  P  P34  1  0.000000  0.657584  0.109731  1
  P  P35  1  0.000000  0.342416  0.109731  1
