# generated using pymatgen
data_Tb11Y9Cd3Ag3Ru2
_symmetry_space_group_name_H-M   'P 1'
_cell_length_a   9.66474200
_cell_length_b   9.66474055
_cell_length_c   9.70861300
_cell_angle_alpha   90.00000000
_cell_angle_beta   90.00000000
_cell_angle_gamma   119.99999811
_symmetry_Int_Tables_number   1
_chemical_formula_structural   Tb11Y9Cd3Ag3Ru2
_chemical_formula_sum   'Tb11 Y9 Cd3 Ag3 Ru2'
_cell_volume   785.35912634
_cell_formula_units_Z   1
loop_
 _symmetry_equiv_pos_site_id
 _symmetry_equiv_pos_as_xyz
  1  'x, y, z'
loop_
 _atom_site_type_symbol
 _atom_site_label
 _atom_site_symmetry_multiplicity
 _atom_site_fract_x
 _atom_site_fract_y
 _atom_site_fract_z
 _atom_site_occupancy
  Tb  Tb0  1  0.000000  0.000000  0.476222  1
  Tb  Tb1  1  0.000000  0.000000  0.023447  1
  Tb  Tb2  1  0.210310  0.789690  0.440423  1
  Tb  Tb3  1  0.210310  0.420620  0.440423  1
  Tb  Tb4  1  0.579380  0.789690  0.440423  1
  Tb  Tb5  1  0.790978  0.209022  0.559917  1
  Tb  Tb6  1  0.790978  0.581956  0.559917  1
  Tb  Tb7  1  0.418044  0.209022  0.559917  1
  Tb  Tb8  1  0.791053  0.208947  0.940020  1
  Tb  Tb9  1  0.791053  0.582106  0.940020  1
  Tb  Tb10  1  0.417894  0.208947  0.940020  1
  Y  Y11  1  0.210127  0.789873  0.058826  1
  Y  Y12  1  0.210127  0.420255  0.058826  1
  Y  Y13  1  0.579745  0.789873  0.058826  1
  Y  Y14  1  0.540711  0.459289  0.249977  1
  Y  Y15  1  0.540711  0.081423  0.249977  1
  Y  Y16  1  0.918577  0.459289  0.249977  1
  Y  Y17  1  0.458644  0.541356  0.750038  1
  Y  Y18  1  0.458644  0.917287  0.750038  1
  Y  Y19  1  0.082713  0.541356  0.750038  1
  Cd  Cd20  1  0.111694  0.888306  0.750412  1
  Cd  Cd21  1  0.111694  0.223387  0.750412  1
  Cd  Cd22  1  0.776613  0.888306  0.750412  1
  Ag  Ag23  1  0.876330  0.123670  0.249905  1
  Ag  Ag24  1  0.876330  0.752662  0.249905  1
  Ag  Ag25  1  0.247338  0.123670  0.249905  1
  Ru  Ru26  1  0.333333  0.666667  0.252032  1
  Ru  Ru27  1  0.666667  0.333333  0.749750  1
