# generated using pymatgen
data_La3Pr2Pb3Se
_symmetry_space_group_name_H-M   'P 1'
_cell_length_a   9.72083600
_cell_length_b   9.72083657
_cell_length_c   7.12704200
_cell_angle_alpha   90.00000000
_cell_angle_beta   90.00000000
_cell_angle_gamma   120.00000487
_symmetry_Int_Tables_number   1
_chemical_formula_structural   La3Pr2Pb3Se
_chemical_formula_sum   'La6 Pr4 Pb6 Se2'
_cell_volume   583.23984555
_cell_formula_units_Z   2
loop_
 _symmetry_equiv_pos_site_id
 _symmetry_equiv_pos_as_xyz
  1  'x, y, z'
loop_
 _atom_site_type_symbol
 _atom_site_label
 _atom_site_symmetry_multiplicity
 _atom_site_fract_x
 _atom_site_fract_y
 _atom_site_fract_z
 _atom_site_occupancy
  La  La0  1  0.749026  0.749026  0.750000  1
  La  La1  1  0.250974  0.000000  0.750000  1
  La  La2  1  0.000000  0.250974  0.750000  1
  La  La3  1  0.250974  0.250974  0.250000  1
  La  La4  1  0.749026  0.000000  0.250000  1
  La  La5  1  0.000000  0.749026  0.250000  1
  Pr  Pr6  1  0.666667  0.333333  0.000000  1
  Pr  Pr7  1  0.333333  0.666667  0.000000  1
  Pr  Pr8  1  0.333333  0.666667  0.500000  1
  Pr  Pr9  1  0.666667  0.333333  0.500000  1
  Pb  Pb10  1  0.395958  0.395958  0.750000  1
  Pb  Pb11  1  0.604042  0.000000  0.750000  1
  Pb  Pb12  1  0.000000  0.604042  0.750000  1
  Pb  Pb13  1  0.604042  0.604042  0.250000  1
  Pb  Pb14  1  0.395958  0.000000  0.250000  1
  Pb  Pb15  1  0.000000  0.395958  0.250000  1
  Se  Se16  1  0.000000  0.000000  0.000000  1
  Se  Se17  1  0.000000  0.000000  0.500000  1
