# generated using pymatgen
data_Tm(ThPt4)3
_symmetry_space_group_name_H-M   'P 1'
_cell_length_a   5.94134300
_cell_length_b   5.94134191
_cell_length_c   9.75652100
_cell_angle_alpha   90.00000000
_cell_angle_beta   90.00000000
_cell_angle_gamma   120.00000050
_symmetry_Int_Tables_number   1
_chemical_formula_structural   Tm(ThPt4)3
_chemical_formula_sum   'Tm1 Th3 Pt12'
_cell_volume   298.25984251
_cell_formula_units_Z   1
loop_
 _symmetry_equiv_pos_site_id
 _symmetry_equiv_pos_as_xyz
  1  'x, y, z'
loop_
 _atom_site_type_symbol
 _atom_site_label
 _atom_site_symmetry_multiplicity
 _atom_site_fract_x
 _atom_site_fract_y
 _atom_site_fract_z
 _atom_site_occupancy
  Tm  Tm0  1  0.333333  0.666667  0.250000  1
  Th  Th1  1  0.000000  0.000000  0.495244  1
  Th  Th2  1  0.000000  0.000000  0.004756  1
  Th  Th3  1  0.666667  0.333333  0.750000  1
  Pt  Pt4  1  0.498907  0.501093  0.497463  1
  Pt  Pt5  1  0.498907  0.997815  0.497463  1
  Pt  Pt6  1  0.002185  0.501093  0.497463  1
  Pt  Pt7  1  0.498907  0.501093  0.002537  1
  Pt  Pt8  1  0.498907  0.997815  0.002537  1
  Pt  Pt9  1  0.002185  0.501093  0.002537  1
  Pt  Pt10  1  0.824101  0.648204  0.250000  1
  Pt  Pt11  1  0.351796  0.175899  0.250000  1
  Pt  Pt12  1  0.824101  0.175899  0.250000  1
  Pt  Pt13  1  0.174502  0.349004  0.750000  1
  Pt  Pt14  1  0.650996  0.825498  0.750000  1
  Pt  Pt15  1  0.174502  0.825498  0.750000  1
