# generated using pymatgen
data_V10BP2C3
_symmetry_space_group_name_H-M   'P 1'
_cell_length_a   5.68523992
_cell_length_b   5.68524007
_cell_length_c   6.62271646
_cell_angle_alpha   116.02461236
_cell_angle_beta   116.02461083
_cell_angle_gamma   88.72715016
_symmetry_Int_Tables_number   1
_chemical_formula_structural   V10BP2C3
_chemical_formula_sum   'V10 B1 P2 C3'
_cell_volume   168.96350805
_cell_formula_units_Z   1
loop_
 _symmetry_equiv_pos_site_id
 _symmetry_equiv_pos_as_xyz
  1  'x, y, z'
loop_
 _atom_site_type_symbol
 _atom_site_label
 _atom_site_symmetry_multiplicity
 _atom_site_fract_x
 _atom_site_fract_y
 _atom_site_fract_z
 _atom_site_occupancy
  V  V0  1  0.502220  0.501271  0.000000  1
  V  V1  1  0.998729  0.997780  0.000000  1
  V  V2  1  0.025661  0.528527  0.722724  1
  V  V3  1  0.694195  0.197061  0.722724  1
  V  V4  1  0.204872  0.023372  0.728246  1
  V  V5  1  0.526575  0.703307  0.729884  1
  V  V6  1  0.971473  0.474339  0.277276  1
  V  V7  1  0.302939  0.805805  0.277276  1
  V  V8  1  0.796693  0.973425  0.270116  1
  V  V9  1  0.476628  0.295128  0.271754  1
  B  B10  1  0.118078  0.381922  0.000000  1
  P  P11  1  0.248567  0.251433  0.500000  1
  P  P12  1  0.748567  0.751433  0.500000  1
  C  C13  1  0.642706  0.143159  0.000000  1
  C  C14  1  0.356841  0.857294  0.000000  1
  C  C15  1  0.885255  0.614745  0.000000  1
