# generated using pymatgen
data_Eu2Ni2SbAs3Pd2
_symmetry_space_group_name_H-M   'P 1'
_cell_length_a   4.34695600
_cell_length_b   4.34695600
_cell_length_c   9.97663500
_cell_angle_alpha   90.00000000
_cell_angle_beta   90.00000000
_cell_angle_gamma   90.00000000
_symmetry_Int_Tables_number   1
_chemical_formula_structural   Eu2Ni2SbAs3Pd2
_chemical_formula_sum   'Eu2 Ni2 Sb1 As3 Pd2'
_cell_volume   188.51875900
_cell_formula_units_Z   1
loop_
 _symmetry_equiv_pos_site_id
 _symmetry_equiv_pos_as_xyz
  1  'x, y, z'
loop_
 _atom_site_type_symbol
 _atom_site_label
 _atom_site_symmetry_multiplicity
 _atom_site_fract_x
 _atom_site_fract_y
 _atom_site_fract_z
 _atom_site_occupancy
  Eu  Eu0  1  0.500000  0.000000  0.268922  1
  Eu  Eu1  1  0.000000  0.500000  0.739092  1
  Ni  Ni2  1  0.500000  0.000000  0.609722  1
  Ni  Ni3  1  0.000000  0.500000  0.402032  1
  Sb  Sb4  1  0.000000  0.500000  0.148506  1
  As  As5  1  0.000000  0.000000  0.504635  1
  As  As6  1  0.500000  0.500000  0.504635  1
  As  As7  1  0.500000  0.000000  0.845490  1
  Pd  Pd8  1  0.000000  0.000000  0.988483  1
  Pd  Pd9  1  0.500000  0.500000  0.988483  1
