# generated using pymatgen
data_Er7TmRe3B24Ir
_symmetry_space_group_name_H-M   'P 1'
_cell_length_a   3.65005200
_cell_length_b   9.11973677
_cell_length_c   11.49448400
_cell_angle_alpha   90.13175878
_cell_angle_beta   90.00000000
_cell_angle_gamma   90.00000000
_symmetry_Int_Tables_number   1
_chemical_formula_structural   Er7TmRe3B24Ir
_chemical_formula_sum   'Er7 Tm1 Re3 B24 Ir1'
_cell_volume   382.62177895
_cell_formula_units_Z   1
loop_
 _symmetry_equiv_pos_site_id
 _symmetry_equiv_pos_as_xyz
  1  'x, y, z'
loop_
 _atom_site_type_symbol
 _atom_site_label
 _atom_site_symmetry_multiplicity
 _atom_site_fract_x
 _atom_site_fract_y
 _atom_site_fract_z
 _atom_site_occupancy
  Er  Er0  1  0.000000  0.317637  0.415587  1
  Er  Er1  1  0.000000  0.678930  0.591516  1
  Er  Er2  1  0.000000  0.826924  0.081074  1
  Er  Er3  1  0.000000  0.177507  0.912559  1
  Er  Er4  1  0.000000  0.944226  0.370607  1
  Er  Er5  1  0.000000  0.055819  0.628896  1
  Er  Er6  1  0.000000  0.441200  0.128045  1
  Tm  Tm7  1  0.000000  0.556611  0.871568  1
  Re  Re8  1  0.000000  0.362761  0.677685  1
  Re  Re9  1  0.000000  0.138359  0.179990  1
  Re  Re10  1  0.000000  0.861391  0.820985  1
  B  B11  1  0.500000  0.553902  0.433967  1
  B  B12  1  0.500000  0.446829  0.566388  1
  B  B13  1  0.500000  0.053222  0.066420  1
  B  B14  1  0.500000  0.947031  0.932979  1
  B  B15  1  0.500000  0.749498  0.420408  1
  B  B16  1  0.500000  0.250154  0.580770  1
  B  B17  1  0.500000  0.249382  0.080904  1
  B  B18  1  0.500000  0.750933  0.919159  1
  B  B19  1  0.500000  0.791553  0.264909  1
  B  B20  1  0.500000  0.208102  0.734431  1
  B  B21  1  0.500000  0.292168  0.235307  1
  B  B22  1  0.500000  0.707565  0.765739  1
  B  B23  1  0.500000  0.631767  0.183971  1
  B  B24  1  0.500000  0.369570  0.814620  1
  B  B25  1  0.500000  0.130942  0.315215  1
  B  B26  1  0.500000  0.868468  0.685195  1
  B  B27  1  0.500000  0.982410  0.212084  1
  B  B28  1  0.500000  0.017787  0.787102  1
  B  B29  1  0.500000  0.482550  0.287877  1
  B  B30  1  0.500000  0.518605  0.712560  1
  B  B31  1  0.500000  0.603370  0.028957  1
  B  B32  1  0.500000  0.397745  0.971780  1
  B  B33  1  0.500000  0.101800  0.471276  1
  B  B34  1  0.500000  0.895516  0.528241  1
  Ir  Ir35  1  0.000000  0.637767  0.321231  1
