# generated using pymatgen
data_Sc12Zn9Ga3C4
_symmetry_space_group_name_H-M   'P 1'
_cell_length_a   8.65148314
_cell_length_b   8.63964530
_cell_length_c   8.62496600
_cell_angle_alpha   59.81728550
_cell_angle_beta   59.89824463
_cell_angle_gamma   59.95466349
_symmetry_Int_Tables_number   1
_chemical_formula_structural   Sc12Zn9Ga3C4
_chemical_formula_sum   'Sc12 Zn9 Ga3 C4'
_cell_volume   454.71891883
_cell_formula_units_Z   1
loop_
 _symmetry_equiv_pos_site_id
 _symmetry_equiv_pos_as_xyz
  1  'x, y, z'
loop_
 _atom_site_type_symbol
 _atom_site_label
 _atom_site_symmetry_multiplicity
 _atom_site_fract_x
 _atom_site_fract_y
 _atom_site_fract_z
 _atom_site_occupancy
  Sc  Sc0  1  0.442405  0.443471  0.057050  1
  Sc  Sc1  1  0.057073  0.443471  0.057050  1
  Sc  Sc2  1  0.442785  0.057538  0.056891  1
  Sc  Sc3  1  0.057637  0.057456  0.443004  1
  Sc  Sc4  1  0.441903  0.057456  0.443004  1
  Sc  Sc5  1  0.058000  0.442375  0.441627  1
  Sc  Sc6  1  0.806836  0.806992  0.193082  1
  Sc  Sc7  1  0.193090  0.806992  0.193082  1
  Sc  Sc8  1  0.807282  0.192611  0.192825  1
  Sc  Sc9  1  0.192408  0.192468  0.807724  1
  Sc  Sc10  1  0.807400  0.192468  0.807724  1
  Sc  Sc11  1  0.192525  0.807316  0.807635  1
  Zn  Zn12  1  0.507445  0.832626  0.827922  1
  Zn  Zn13  1  0.832004  0.832626  0.827922  1
  Zn  Zn14  1  0.420333  0.419569  0.739766  1
  Zn  Zn15  1  0.417549  0.741235  0.423668  1
  Zn  Zn16  1  0.741856  0.417383  0.422627  1
  Zn  Zn17  1  0.418135  0.417383  0.422627  1
  Zn  Zn18  1  0.624221  0.125692  0.625864  1
  Zn  Zn19  1  0.127113  0.625039  0.624722  1
  Zn  Zn20  1  0.623126  0.625039  0.624722  1
  Ga  Ga21  1  0.831142  0.832446  0.505269  1
  Ga  Ga22  1  0.833420  0.504778  0.828380  1
  Ga  Ga23  1  0.623402  0.626300  0.126894  1
  C  C24  1  0.125329  0.124863  0.624481  1
  C  C25  1  0.125520  0.624431  0.124530  1
  C  C26  1  0.624543  0.124987  0.124953  1
  C  C27  1  0.125519  0.124987  0.124953  1
