# generated using pymatgen
data_Li4Er8Sc8Si15P
_symmetry_space_group_name_H-M   'P 1'
_cell_length_a   6.83996858
_cell_length_b   7.36420716
_cell_length_c   13.95534500
_cell_angle_alpha   90.00000000
_cell_angle_beta   90.00000000
_cell_angle_gamma   89.82942035
_symmetry_Int_Tables_number   1
_chemical_formula_structural   Li4Er8Sc8Si15P
_chemical_formula_sum   'Li4 Er8 Sc8 Si15 P1'
_cell_volume   702.94080815
_cell_formula_units_Z   1
loop_
 _symmetry_equiv_pos_site_id
 _symmetry_equiv_pos_as_xyz
  1  'x, y, z'
loop_
 _atom_site_type_symbol
 _atom_site_label
 _atom_site_symmetry_multiplicity
 _atom_site_fract_x
 _atom_site_fract_y
 _atom_site_fract_z
 _atom_site_occupancy
  Li  Li0  1  0.161710  0.517914  0.750000  1
  Li  Li1  1  0.840274  0.490754  0.250000  1
  Li  Li2  1  0.340293  0.009944  0.250000  1
  Li  Li3  1  0.660743  0.991711  0.750000  1
  Er  Er4  1  0.011833  0.182684  0.098032  1
  Er  Er5  1  0.986884  0.819626  0.900360  1
  Er  Er6  1  0.488181  0.681328  0.901854  1
  Er  Er7  1  0.986884  0.819626  0.599640  1
  Er  Er8  1  0.511727  0.318754  0.097198  1
  Er  Er9  1  0.011833  0.182684  0.401968  1
  Er  Er10  1  0.511727  0.318754  0.402802  1
  Er  Er11  1  0.488181  0.681328  0.598146  1
  Sc  Sc12  1  0.328825  0.179042  0.628738  1
  Sc  Sc13  1  0.669161  0.820121  0.373602  1
  Sc  Sc14  1  0.168857  0.679703  0.373705  1
  Sc  Sc15  1  0.669161  0.820121  0.126398  1
  Sc  Sc16  1  0.834461  0.317189  0.628832  1
  Sc  Sc17  1  0.328825  0.179042  0.871262  1
  Sc  Sc18  1  0.834461  0.317189  0.871168  1
  Sc  Sc19  1  0.168857  0.679703  0.126295  1
  Si  Si20  1  0.969715  0.899952  0.250000  1
  Si  Si21  1  0.469499  0.600702  0.250000  1
  Si  Si22  1  0.530569  0.398607  0.750000  1
  Si  Si23  1  0.284941  0.875241  0.750000  1
  Si  Si24  1  0.715554  0.121574  0.250000  1
  Si  Si25  1  0.216414  0.378704  0.250000  1
  Si  Si26  1  0.784240  0.619135  0.750000  1
  Si  Si27  1  0.160087  0.463165  0.535894  1
  Si  Si28  1  0.839061  0.536175  0.466735  1
  Si  Si29  1  0.337850  0.964332  0.466524  1
  Si  Si30  1  0.839061  0.536175  0.033265  1
  Si  Si31  1  0.659880  0.036894  0.535137  1
  Si  Si32  1  0.160087  0.463165  0.964106  1
  Si  Si33  1  0.659880  0.036894  0.964863  1
  Si  Si34  1  0.337850  0.964332  0.033476  1
  P  P35  1  0.032430  0.097737  0.750000  1
