# generated using pymatgen
data_Ce3AlHg2Pd3
_symmetry_space_group_name_H-M   'P 1'
_cell_length_a   7.59552900
_cell_length_b   7.73597917
_cell_length_c   3.94644800
_cell_angle_alpha   90.00000000
_cell_angle_beta   90.00000000
_cell_angle_gamma   119.40120538
_symmetry_Int_Tables_number   1
_chemical_formula_structural   Ce3AlHg2Pd3
_chemical_formula_sum   'Ce3 Al1 Hg2 Pd3'
_cell_volume   202.02229752
_cell_formula_units_Z   1
loop_
 _symmetry_equiv_pos_site_id
 _symmetry_equiv_pos_as_xyz
  1  'x, y, z'
loop_
 _atom_site_type_symbol
 _atom_site_label
 _atom_site_symmetry_multiplicity
 _atom_site_fract_x
 _atom_site_fract_y
 _atom_site_fract_z
 _atom_site_occupancy
  Ce  Ce0  1  0.001476  0.593808  0.500000  1
  Ce  Ce1  1  0.407667  0.406192  0.500000  1
  Ce  Ce2  1  0.587209  0.000000  0.500000  1
  Al  Al3  1  0.252955  0.000000  0.000000  1
  Hg  Hg4  1  0.999288  0.256722  0.000000  1
  Hg  Hg5  1  0.742566  0.743278  0.000000  1
  Pd  Pd6  1  0.043743  0.000000  0.500000  1
  Pd  Pd7  1  0.326373  0.687651  0.000000  1
  Pd  Pd8  1  0.638723  0.312349  0.000000  1
