# generated using pymatgen
data_Er4Lu2Th2MgCdCo2
_symmetry_space_group_name_H-M   'P 1'
_cell_length_a   9.54654313
_cell_length_b   9.54654341
_cell_length_c   9.54827900
_cell_angle_alpha   59.99398929
_cell_angle_beta   59.99398834
_cell_angle_gamma   60.01202586
_symmetry_Int_Tables_number   1
_chemical_formula_structural   Er4Lu2Th2MgCdCo2
_chemical_formula_sum   'Er8 Lu4 Th4 Mg2 Cd2 Co4'
_cell_volume   615.32190564
_cell_formula_units_Z   2
loop_
 _symmetry_equiv_pos_site_id
 _symmetry_equiv_pos_as_xyz
  1  'x, y, z'
loop_
 _atom_site_type_symbol
 _atom_site_label
 _atom_site_symmetry_multiplicity
 _atom_site_fract_x
 _atom_site_fract_y
 _atom_site_fract_z
 _atom_site_occupancy
  Er  Er0  1  0.434645  0.434645  0.065355  1
  Er  Er1  1  0.064331  0.064331  0.435669  1
  Er  Er2  1  0.183969  0.814860  0.814871  1
  Er  Er3  1  0.814860  0.183969  0.186301  1
  Er  Er4  1  0.814860  0.183969  0.814871  1
  Er  Er5  1  0.183969  0.814860  0.186301  1
  Er  Er6  1  0.814542  0.814542  0.185458  1
  Er  Er7  1  0.184677  0.184677  0.815323  1
  Lu  Lu8  1  0.064076  0.435754  0.435988  1
  Lu  Lu9  1  0.435754  0.064076  0.064182  1
  Lu  Lu10  1  0.435754  0.064076  0.435988  1
  Lu  Lu11  1  0.064076  0.435754  0.064182  1
  Th  Th12  1  0.596286  0.596286  0.594071  1
  Th  Th13  1  0.596286  0.596286  0.213357  1
  Th  Th14  1  0.595329  0.212171  0.596251  1
  Th  Th15  1  0.212171  0.595329  0.596251  1
  Mg  Mg16  1  0.830860  0.510964  0.829088  1
  Mg  Mg17  1  0.510964  0.830860  0.829088  1
  Cd  Cd18  1  0.830969  0.830969  0.831620  1
  Cd  Cd19  1  0.830969  0.830969  0.506443  1
  Co  Co20  1  0.393313  0.393313  0.394381  1
  Co  Co21  1  0.393313  0.393313  0.818993  1
  Co  Co22  1  0.395647  0.818381  0.392986  1
  Co  Co23  1  0.818381  0.395647  0.392986  1
