# generated using pymatgen
data_PrScCu2SiGe
_symmetry_space_group_name_H-M   'P 1'
_cell_length_a   4.21410100
_cell_length_b   4.21410130
_cell_length_c   7.19459900
_cell_angle_alpha   90.00000000
_cell_angle_beta   90.00000000
_cell_angle_gamma   120.00002120
_symmetry_Int_Tables_number   1
_chemical_formula_structural   PrScCu2SiGe
_chemical_formula_sum   'Pr1 Sc1 Cu2 Si1 Ge1'
_cell_volume   110.64888532
_cell_formula_units_Z   1
loop_
 _symmetry_equiv_pos_site_id
 _symmetry_equiv_pos_as_xyz
  1  'x, y, z'
loop_
 _atom_site_type_symbol
 _atom_site_label
 _atom_site_symmetry_multiplicity
 _atom_site_fract_x
 _atom_site_fract_y
 _atom_site_fract_z
 _atom_site_occupancy
  Pr  Pr0  1  0.000000  0.000000  0.999178  1
  Sc  Sc1  1  0.000000  0.000000  0.500074  1
  Cu  Cu2  1  0.333333  0.666667  0.327185  1
  Cu  Cu3  1  0.666667  0.333333  0.710068  1
  Si  Si4  1  0.333333  0.666667  0.703036  1
  Ge  Ge5  1  0.666667  0.333333  0.260460  1
