# generated using pymatgen
data_Zr6Ti16Ir3Os4
_symmetry_space_group_name_H-M   'P 1'
_cell_length_a   8.97390460
_cell_length_b   8.96499582
_cell_length_c   8.96855943
_cell_angle_alpha   60.05258777
_cell_angle_beta   59.95400885
_cell_angle_gamma   60.00937485
_symmetry_Int_Tables_number   1
_chemical_formula_structural   Zr6Ti16Ir3Os4
_chemical_formula_sum   'Zr6 Ti16 Ir3 Os4'
_cell_volume   510.25938668
_cell_formula_units_Z   1
loop_
 _symmetry_equiv_pos_site_id
 _symmetry_equiv_pos_as_xyz
  1  'x, y, z'
loop_
 _atom_site_type_symbol
 _atom_site_label
 _atom_site_symmetry_multiplicity
 _atom_site_fract_x
 _atom_site_fract_y
 _atom_site_fract_z
 _atom_site_occupancy
  Zr  Zr0  1  0.686044  0.686044  0.313956  1
  Zr  Zr1  1  0.314411  0.685589  0.313859  1
  Zr  Zr2  1  0.685900  0.314100  0.313474  1
  Zr  Zr3  1  0.313956  0.313956  0.686044  1
  Zr  Zr4  1  0.685589  0.314411  0.686141  1
  Zr  Zr5  1  0.314100  0.685900  0.686526  1
  Ti  Ti6  1  0.883284  0.880824  0.352300  1
  Ti  Ti7  1  0.881685  0.351769  0.882082  1
  Ti  Ti8  1  0.351769  0.881685  0.884465  1
  Ti  Ti9  1  0.880824  0.883284  0.883593  1
  Ti  Ti10  1  0.116716  0.119176  0.647700  1
  Ti  Ti11  1  0.118315  0.648231  0.117918  1
  Ti  Ti12  1  0.648231  0.118315  0.115535  1
  Ti  Ti13  1  0.119176  0.116716  0.116407  1
  Ti  Ti14  1  0.667926  0.669374  0.993256  1
  Ti  Ti15  1  0.668711  0.992332  0.670169  1
  Ti  Ti16  1  0.992332  0.668711  0.668786  1
  Ti  Ti17  1  0.669374  0.667926  0.669442  1
  Ti  Ti18  1  0.332074  0.330626  0.006744  1
  Ti  Ti19  1  0.331289  0.007668  0.329831  1
  Ti  Ti20  1  0.007668  0.331289  0.331214  1
  Ti  Ti21  1  0.330626  0.332074  0.330558  1
  Ir  Ir22  1  0.000000  0.000000  0.500000  1
  Ir  Ir23  1  0.500000  0.000000  0.500000  1
  Ir  Ir24  1  0.000000  0.500000  0.000000  1
  Os  Os25  1  0.000000  0.000000  0.000000  1
  Os  Os26  1  0.000000  0.500000  0.500000  1
  Os  Os27  1  0.500000  0.500000  0.000000  1
  Os  Os28  1  0.500000  0.000000  0.000000  1
