# generated using pymatgen
data_Ba10As6O25
_symmetry_space_group_name_H-M   'P 1'
_cell_length_a   10.65236500
_cell_length_b   10.65236464
_cell_length_c   7.89354300
_cell_angle_alpha   90.00000000
_cell_angle_beta   90.00000000
_cell_angle_gamma   120.00000421
_symmetry_Int_Tables_number   1
_chemical_formula_structural   Ba10As6O25
_chemical_formula_sum   'Ba10 As6 O25'
_cell_volume   775.70154389
_cell_formula_units_Z   1
loop_
 _symmetry_equiv_pos_site_id
 _symmetry_equiv_pos_as_xyz
  1  'x, y, z'
loop_
 _atom_site_type_symbol
 _atom_site_label
 _atom_site_symmetry_multiplicity
 _atom_site_fract_x
 _atom_site_fract_y
 _atom_site_fract_z
 _atom_site_occupancy
  Ba  Ba0  1  0.000000  0.000000  0.510176  1
  Ba  Ba1  1  0.666667  0.333333  0.991913  1
  Ba  Ba2  1  0.666667  0.333333  0.499831  1
  Ba  Ba3  1  0.000000  0.000000  0.000983  1
  Ba  Ba4  1  0.108490  0.430436  0.754441  1
  Ba  Ba5  1  0.569564  0.678055  0.754441  1
  Ba  Ba6  1  0.321945  0.891510  0.754441  1
  Ba  Ba7  1  0.594378  0.941677  0.248880  1
  Ba  Ba8  1  0.058323  0.652700  0.248880  1
  Ba  Ba9  1  0.347300  0.405622  0.248880  1
  As  As10  1  0.365621  0.290352  0.749704  1
  As  As11  1  0.709648  0.075270  0.749704  1
  As  As12  1  0.924730  0.634379  0.749704  1
  As  As13  1  0.301959  0.025434  0.252170  1
  As  As14  1  0.974566  0.276525  0.252170  1
  As  As15  1  0.723475  0.698041  0.252170  1
  O  O16  1  0.416168  0.402570  0.574974  1
  O  O17  1  0.597430  0.013598  0.574974  1
  O  O18  1  0.986402  0.583832  0.574974  1
  O  O19  1  0.242497  0.914075  0.077251  1
  O  O20  1  0.085925  0.328422  0.077251  1
  O  O21  1  0.671578  0.757503  0.077251  1
  O  O22  1  0.251077  0.907916  0.421174  1
  O  O23  1  0.092084  0.343161  0.421174  1
  O  O24  1  0.656839  0.748923  0.421174  1
  O  O25  1  0.425094  0.395023  0.930851  1
  O  O26  1  0.604977  0.030072  0.930851  1
  O  O27  1  0.969928  0.574906  0.930851  1
  O  O28  1  0.456633  0.194578  0.740808  1
  O  O29  1  0.805422  0.262056  0.740808  1
  O  O30  1  0.737944  0.543367  0.740808  1
  O  O31  1  0.210015  0.121588  0.259086  1
  O  O32  1  0.878412  0.088426  0.259086  1
  O  O33  1  0.911574  0.789985  0.259086  1
  O  O34  1  0.179807  0.179940  0.753908  1
  O  O35  1  0.820060  0.999868  0.753908  1
  O  O36  1  0.000132  0.820193  0.753908  1
  O  O37  1  0.485849  0.146127  0.248769  1
  O  O38  1  0.853873  0.339724  0.248769  1
  O  O39  1  0.660276  0.514151  0.248769  1
  O  O40  1  0.333333  0.666667  0.787083  1
