# generated using pymatgen
data_Li2TlSiPd4
_symmetry_space_group_name_H-M   'P 1'
_cell_length_a   7.67093510
_cell_length_b   7.67093528
_cell_length_c   7.67093600
_cell_angle_alpha   32.85424469
_cell_angle_beta   32.85424262
_cell_angle_gamma   32.85425856
_symmetry_Int_Tables_number   1
_chemical_formula_structural   Li2TlSiPd4
_chemical_formula_sum   'Li2 Tl1 Si1 Pd4'
_cell_volume   118.19421837
_cell_formula_units_Z   1
loop_
 _symmetry_equiv_pos_site_id
 _symmetry_equiv_pos_as_xyz
  1  'x, y, z'
loop_
 _atom_site_type_symbol
 _atom_site_label
 _atom_site_symmetry_multiplicity
 _atom_site_fract_x
 _atom_site_fract_y
 _atom_site_fract_z
 _atom_site_occupancy
  Li  Li0  1  0.252230  0.252230  0.252230  1
  Li  Li1  1  0.747770  0.747770  0.747770  1
  Tl  Tl2  1  0.000000  0.000000  0.000000  1
  Si  Si3  1  0.500000  0.500000  0.500000  1
  Pd  Pd4  1  0.610236  0.610236  0.610236  1
  Pd  Pd5  1  0.133691  0.133691  0.133691  1
  Pd  Pd6  1  0.866309  0.866309  0.866309  1
  Pd  Pd7  1  0.389764  0.389764  0.389764  1
