# generated using pymatgen
data_Dy10Y2Tc3Rh
_symmetry_space_group_name_H-M   'P 1'
_cell_length_a   6.28115994
_cell_length_b   7.41785954
_cell_length_c   9.15806300
_cell_angle_alpha   90.00000000
_cell_angle_beta   90.00000000
_cell_angle_gamma   89.99451022
_symmetry_Int_Tables_number   1
_chemical_formula_structural   Dy10Y2Tc3Rh
_chemical_formula_sum   'Dy10 Y2 Tc3 Rh1'
_cell_volume   426.69944967
_cell_formula_units_Z   1
loop_
 _symmetry_equiv_pos_site_id
 _symmetry_equiv_pos_as_xyz
  1  'x, y, z'
loop_
 _atom_site_type_symbol
 _atom_site_label
 _atom_site_symmetry_multiplicity
 _atom_site_fract_x
 _atom_site_fract_y
 _atom_site_fract_z
 _atom_site_occupancy
  Dy  Dy0  1  0.332865  0.676461  0.066352  1
  Dy  Dy1  1  0.162665  0.176667  0.436048  1
  Dy  Dy2  1  0.663890  0.321458  0.561245  1
  Dy  Dy3  1  0.837674  0.826172  0.938669  1
  Dy  Dy4  1  0.663890  0.321458  0.938755  1
  Dy  Dy5  1  0.837674  0.826172  0.561331  1
  Dy  Dy6  1  0.332865  0.676461  0.433648  1
  Dy  Dy7  1  0.162665  0.176667  0.063952  1
  Dy  Dy8  1  0.873059  0.541805  0.250000  1
  Dy  Dy9  1  0.624393  0.039090  0.250000  1
  Y  Y10  1  0.130792  0.458061  0.750000  1
  Y  Y11  1  0.371719  0.960043  0.750000  1
  Tc  Tc12  1  0.039439  0.884255  0.250000  1
  Tc  Tc13  1  0.462421  0.386500  0.250000  1
  Tc  Tc14  1  0.956217  0.114890  0.750000  1
  Rh  Rh15  1  0.547772  0.613836  0.750000  1
