# generated using pymatgen
data_Sr2Yb2NbRuO9
_symmetry_space_group_name_H-M   'P 1'
_cell_length_a   5.75266895
_cell_length_b   5.75277969
_cell_length_c   14.87376669
_cell_angle_alpha   90.00081493
_cell_angle_beta   89.98503860
_cell_angle_gamma   120.04777438
_symmetry_Int_Tables_number   1
_chemical_formula_structural   Sr2Yb2NbRuO9
_chemical_formula_sum   'Sr4 Yb4 Nb2 Ru2 O18'
_cell_volume   426.07831312
_cell_formula_units_Z   2
loop_
 _symmetry_equiv_pos_site_id
 _symmetry_equiv_pos_as_xyz
  1  'x, y, z'
loop_
 _atom_site_type_symbol
 _atom_site_label
 _atom_site_symmetry_multiplicity
 _atom_site_fract_x
 _atom_site_fract_y
 _atom_site_fract_z
 _atom_site_occupancy
  Sr  Sr0  1  0.999924  0.997361  0.259836  1
  Sr  Sr1  1  0.000076  0.002639  0.740164  1
  Sr  Sr2  1  0.666490  0.335167  0.609425  1
  Sr  Sr3  1  0.333510  0.664833  0.390575  1
  Yb  Yb4  1  0.333339  0.663549  0.150478  1
  Yb  Yb5  1  0.666661  0.336451  0.849522  1
  Yb  Yb6  1  0.000000  0.000000  0.000000  1
  Yb  Yb7  1  0.000000  0.000000  0.500000  1
  Nb  Nb8  1  0.334127  0.670151  0.855270  1
  Nb  Nb9  1  0.665873  0.329849  0.144730  1
  Ru  Ru10  1  0.666719  0.331045  0.340941  1
  Ru  Ru11  1  0.333281  0.668955  0.659059  1
  O  O12  1  0.654112  0.896667  0.593447  1
  O  O13  1  0.345888  0.103333  0.406553  1
  O  O14  1  0.105425  0.761612  0.593767  1
  O  O15  1  0.894575  0.238388  0.406233  1
  O  O16  1  0.240757  0.348938  0.593055  1
  O  O17  1  0.759243  0.651062  0.406945  1
  O  O18  1  0.975609  0.548810  0.251234  1
  O  O19  1  0.024391  0.451190  0.748766  1
  O  O20  1  0.449183  0.421727  0.250903  1
  O  O21  1  0.550817  0.578273  0.749097  1
  O  O22  1  0.574882  0.021103  0.251338  1
  O  O23  1  0.425118  0.978897  0.748662  1
  O  O24  1  0.343934  0.047085  0.095006  1
  O  O25  1  0.656066  0.952915  0.904994  1
  O  O26  1  0.948958  0.289261  0.096103  1
  O  O27  1  0.051042  0.710739  0.903897  1
  O  O28  1  0.706222  0.651386  0.094459  1
  O  O29  1  0.293778  0.348614  0.905541  1
