# generated using pymatgen
data_K2AuICl6
_symmetry_space_group_name_H-M   'P 1'
_cell_length_a   6.95679906
_cell_length_b   6.95679969
_cell_length_c   8.70529600
_cell_angle_alpha   66.10788987
_cell_angle_beta   66.10788758
_cell_angle_gamma   59.13440743
_symmetry_Int_Tables_number   1
_chemical_formula_structural   K2AuICl6
_chemical_formula_sum   'K2 Au1 I1 Cl6'
_cell_volume   320.04093929
_cell_formula_units_Z   1
loop_
 _symmetry_equiv_pos_site_id
 _symmetry_equiv_pos_as_xyz
  1  'x, y, z'
loop_
 _atom_site_type_symbol
 _atom_site_label
 _atom_site_symmetry_multiplicity
 _atom_site_fract_x
 _atom_site_fract_y
 _atom_site_fract_z
 _atom_site_occupancy
  K  K0  1  0.716911  0.716911  0.776380  1
  K  K1  1  0.283089  0.283089  0.223620  1
  Au  Au2  1  0.000000  0.000000  0.000000  1
  I  I3  1  0.500000  0.500000  0.500000  1
  Cl  Cl4  1  0.299772  0.817647  0.136803  1
  Cl  Cl5  1  0.182353  0.700228  0.863197  1
  Cl  Cl6  1  0.700228  0.182353  0.863197  1
  Cl  Cl7  1  0.817647  0.299772  0.136803  1
  Cl  Cl8  1  0.263982  0.263982  0.608658  1
  Cl  Cl9  1  0.736018  0.736018  0.391342  1
