# generated using pymatgen
data_TbHo9(InGa2)2
_symmetry_space_group_name_H-M   'P 1'
_cell_length_a   7.72596907
_cell_length_b   7.72519700
_cell_length_c   14.32340313
_cell_angle_alpha   90.00000000
_cell_angle_beta   90.01532502
_cell_angle_gamma   90.00000000
_symmetry_Int_Tables_number   1
_chemical_formula_structural   TbHo9(InGa2)2
_chemical_formula_sum   'Tb2 Ho18 In4 Ga8'
_cell_volume   854.88702950
_cell_formula_units_Z   2
loop_
 _symmetry_equiv_pos_site_id
 _symmetry_equiv_pos_as_xyz
  1  'x, y, z'
loop_
 _atom_site_type_symbol
 _atom_site_label
 _atom_site_symmetry_multiplicity
 _atom_site_fract_x
 _atom_site_fract_y
 _atom_site_fract_z
 _atom_site_occupancy
  Tb  Tb0  1  0.673366  0.661131  0.605776  1
  Tb  Tb1  1  0.673366  0.338869  0.105776  1
  Ho  Ho2  1  0.000193  0.499877  0.759962  1
  Ho  Ho3  1  0.000193  0.500123  0.259962  1
  Ho  Ho4  1  0.499898  0.999819  0.240240  1
  Ho  Ho5  1  0.499898  0.000181  0.740240  1
  Ho  Ho6  1  0.826680  0.839179  0.393840  1
  Ho  Ho7  1  0.173411  0.839160  0.893840  1
  Ho  Ho8  1  0.326484  0.339145  0.606173  1
  Ho  Ho9  1  0.326484  0.660855  0.106173  1
  Ho  Ho10  1  0.173411  0.160840  0.393840  1
  Ho  Ho11  1  0.826680  0.160821  0.893840  1
  Ho  Ho12  1  0.660872  0.326467  0.393865  1
  Ho  Ho13  1  0.338941  0.326642  0.893837  1
  Ho  Ho14  1  0.160832  0.826891  0.606165  1
  Ho  Ho15  1  0.839367  0.826862  0.106128  1
  Ho  Ho16  1  0.338941  0.673358  0.393837  1
  Ho  Ho17  1  0.660872  0.673533  0.893865  1
  Ho  Ho18  1  0.839367  0.173138  0.606128  1
  Ho  Ho19  1  0.160832  0.173109  0.106165  1
  In  In20  1  0.000661  0.499463  0.496154  1
  In  In21  1  0.000661  0.500537  0.996154  1
  In  In22  1  0.499479  0.000531  0.503427  1
  In  In23  1  0.499479  0.999469  0.003427  1
  Ga  Ga24  1  0.875784  0.875788  0.750090  1
  Ga  Ga25  1  0.875784  0.124212  0.250090  1
  Ga  Ga26  1  0.624229  0.624774  0.250265  1
  Ga  Ga27  1  0.375313  0.624220  0.750204  1
  Ga  Ga28  1  0.124491  0.124475  0.750033  1
  Ga  Ga29  1  0.124491  0.875525  0.250033  1
  Ga  Ga30  1  0.375313  0.375780  0.250204  1
  Ga  Ga31  1  0.624229  0.375226  0.750265  1
