# generated using pymatgen
data_Pr9Nd3Rh3AuBr12
_symmetry_space_group_name_H-M   'P 1'
_cell_length_a   10.60795889
_cell_length_b   10.62349103
_cell_length_c   10.62786841
_cell_angle_alpha   110.12747142
_cell_angle_beta   109.63428593
_cell_angle_gamma   109.78360469
_symmetry_Int_Tables_number   1
_chemical_formula_structural   Pr9Nd3Rh3AuBr12
_chemical_formula_sum   'Pr9 Nd3 Rh3 Au1 Br12'
_cell_volume   908.86569767
_cell_formula_units_Z   1
loop_
 _symmetry_equiv_pos_site_id
 _symmetry_equiv_pos_as_xyz
  1  'x, y, z'
loop_
 _atom_site_type_symbol
 _atom_site_label
 _atom_site_symmetry_multiplicity
 _atom_site_fract_x
 _atom_site_fract_y
 _atom_site_fract_z
 _atom_site_occupancy
  Pr  Pr0  1  0.231663  0.473048  0.492878  1
  Pr  Pr1  1  0.266563  0.749522  0.233538  1
  Pr  Pr2  1  0.027350  0.268764  0.007424  1
  Pr  Pr3  1  0.006615  0.027450  0.268581  1
  Pr  Pr4  1  0.487145  0.750830  0.014851  1
  Pr  Pr5  1  0.493391  0.231632  0.472751  1
  Pr  Pr6  1  0.012508  0.485034  0.748358  1
  Pr  Pr7  1  0.268719  0.007410  0.027086  1
  Pr  Pr8  1  0.233994  0.266752  0.750653  1
  Nd  Nd9  1  0.472012  0.492218  0.230821  1
  Nd  Nd10  1  0.749934  0.232734  0.267072  1
  Nd  Nd11  1  0.749972  0.014388  0.485589  1
  Rh  Rh12  1  0.503129  0.999082  0.250716  1
  Rh  Rh13  1  0.996785  0.249304  0.501056  1
  Rh  Rh14  1  0.250827  0.501641  0.999183  1
  Au  Au15  1  0.250846  0.250807  0.250114  1
  Br  Br16  1  0.249868  0.756570  0.743392  1
  Br  Br17  1  0.508374  0.502761  0.752843  1
  Br  Br18  1  0.991825  0.747339  0.997312  1
  Br  Br19  1  0.743397  0.248506  0.755262  1
  Br  Br20  1  0.996453  0.991697  0.746173  1
  Br  Br21  1  0.249992  0.997136  0.502784  1
  Br  Br22  1  0.751937  0.507286  0.500370  1
  Br  Br23  1  0.503997  0.251517  0.999678  1
  Br  Br24  1  0.755303  0.743437  0.251715  1
  Br  Br25  1  0.747164  0.998664  0.992714  1
  Br  Br26  1  0.996273  0.501900  0.249996  1
  Br  Br27  1  0.503960  0.752568  0.507093  1
