# generated using pymatgen
data_PrDy(Si7Ir3)2
_symmetry_space_group_name_H-M   'P 1'
_cell_length_a   8.09104911
_cell_length_b   8.09104982
_cell_length_c   8.09105009
_cell_angle_alpha   56.51606268
_cell_angle_beta   56.51605866
_cell_angle_gamma   56.51606320
_symmetry_Int_Tables_number   1
_chemical_formula_structural   PrDy(Si7Ir3)2
_chemical_formula_sum   'Pr1 Dy1 Si14 Ir6'
_cell_volume   344.38310213
_cell_formula_units_Z   1
loop_
 _symmetry_equiv_pos_site_id
 _symmetry_equiv_pos_as_xyz
  1  'x, y, z'
loop_
 _atom_site_type_symbol
 _atom_site_label
 _atom_site_symmetry_multiplicity
 _atom_site_fract_x
 _atom_site_fract_y
 _atom_site_fract_z
 _atom_site_occupancy
  Pr  Pr0  1  0.500000  0.500000  0.500000  1
  Dy  Dy1  1  0.000000  0.000000  0.000000  1
  Si  Si2  1  0.749365  0.749365  0.749365  1
  Si  Si3  1  0.250635  0.250635  0.250635  1
  Si  Si4  1  0.851955  0.061903  0.673586  1
  Si  Si5  1  0.673586  0.851955  0.061903  1
  Si  Si6  1  0.061903  0.673586  0.851955  1
  Si  Si7  1  0.651118  0.828119  0.434648  1
  Si  Si8  1  0.434648  0.651118  0.828119  1
  Si  Si9  1  0.828119  0.434648  0.651118  1
  Si  Si10  1  0.171881  0.565352  0.348882  1
  Si  Si11  1  0.565352  0.348882  0.171881  1
  Si  Si12  1  0.348882  0.171881  0.565352  1
  Si  Si13  1  0.938097  0.326414  0.148045  1
  Si  Si14  1  0.326414  0.148045  0.938097  1
  Si  Si15  1  0.148045  0.938097  0.326414  1
  Ir  Ir16  1  0.067298  0.429162  0.752370  1
  Ir  Ir17  1  0.247630  0.932702  0.570838  1
  Ir  Ir18  1  0.570838  0.247630  0.932702  1
  Ir  Ir19  1  0.932702  0.570838  0.247630  1
  Ir  Ir20  1  0.429162  0.752370  0.067298  1
  Ir  Ir21  1  0.752370  0.067298  0.429162  1
