# generated using pymatgen
data_Hf17Nb3Si15P
_symmetry_space_group_name_H-M   'P 1'
_cell_length_a   7.00404272
_cell_length_b   7.00369553
_cell_length_c   12.81648772
_cell_angle_alpha   90.10618192
_cell_angle_beta   89.97439576
_cell_angle_gamma   89.79793625
_symmetry_Int_Tables_number   1
_chemical_formula_structural   Hf17Nb3Si15P
_chemical_formula_sum   'Hf17 Nb3 Si15 P1'
_cell_volume   628.69727625
_cell_formula_units_Z   1
loop_
 _symmetry_equiv_pos_site_id
 _symmetry_equiv_pos_as_xyz
  1  'x, y, z'
loop_
 _atom_site_type_symbol
 _atom_site_label
 _atom_site_symmetry_multiplicity
 _atom_site_fract_x
 _atom_site_fract_y
 _atom_site_fract_z
 _atom_site_occupancy
  Hf  Hf0  1  0.174394  0.176313  0.000572  1
  Hf  Hf1  1  0.498570  0.152354  0.531819  1
  Hf  Hf2  1  0.504253  0.848223  0.031889  1
  Hf  Hf3  1  0.652997  0.000780  0.283612  1
  Hf  Hf4  1  0.345509  0.996548  0.781008  1
  Hf  Hf5  1  0.847160  0.502048  0.969284  1
  Hf  Hf6  1  0.152935  0.497337  0.468011  1
  Hf  Hf7  1  0.000797  0.653380  0.717716  1
  Hf  Hf8  1  0.997593  0.346547  0.217458  1
  Hf  Hf9  1  0.502579  0.350774  0.126168  1
  Hf  Hf10  1  0.503021  0.645285  0.626454  1
  Hf  Hf11  1  0.851412  0.003829  0.877039  1
  Hf  Hf12  1  0.145055  0.997484  0.376442  1
  Hf  Hf13  1  0.646109  0.501762  0.373248  1
  Hf  Hf14  1  0.354911  0.499938  0.873306  1
  Hf  Hf15  1  0.998601  0.856598  0.124715  1
  Hf  Hf16  1  0.996817  0.144905  0.623366  1
  Nb  Nb17  1  0.675696  0.324940  0.749828  1
  Nb  Nb18  1  0.325239  0.674670  0.250471  1
  Nb  Nb19  1  0.824615  0.824784  0.499874  1
  Si  Si20  1  0.202915  0.852609  0.572197  1
  Si  Si21  1  0.647602  0.703074  0.822825  1
  Si  Si22  1  0.353356  0.296802  0.322220  1
  Si  Si23  1  0.852695  0.202723  0.428038  1
  Si  Si24  1  0.145478  0.797032  0.928002  1
  Si  Si25  1  0.702575  0.646583  0.177495  1
  Si  Si26  1  0.296575  0.353487  0.677009  1
  Si  Si27  1  0.544855  0.198046  0.932643  1
  Si  Si28  1  0.451888  0.800946  0.435755  1
  Si  Si29  1  0.698248  0.951710  0.685844  1
  Si  Si30  1  0.303404  0.045394  0.186441  1
  Si  Si31  1  0.801651  0.451802  0.564176  1
  Si  Si32  1  0.199781  0.550770  0.065493  1
  Si  Si33  1  0.952288  0.697692  0.314487  1
  Si  Si34  1  0.046858  0.303037  0.813361  1
  P  P35  1  0.801569  0.149791  0.071729  1
