# generated using pymatgen
data_RbBeVO4
_symmetry_space_group_name_H-M   'P 1'
_cell_length_a   5.46281286
_cell_length_b   5.46281201
_cell_length_c   5.42940272
_cell_angle_alpha   60.20804538
_cell_angle_beta   60.20805486
_cell_angle_gamma   60.46051276
_symmetry_Int_Tables_number   1
_chemical_formula_structural   RbBeVO4
_chemical_formula_sum   'Rb1 Be1 V1 O4'
_cell_volume   115.32579454
_cell_formula_units_Z   1
loop_
 _symmetry_equiv_pos_site_id
 _symmetry_equiv_pos_as_xyz
  1  'x, y, z'
loop_
 _atom_site_type_symbol
 _atom_site_label
 _atom_site_symmetry_multiplicity
 _atom_site_fract_x
 _atom_site_fract_y
 _atom_site_fract_z
 _atom_site_occupancy
  Rb  Rb0  1  0.003025  0.003025  0.982122  1
  Be  Be1  1  0.749937  0.749937  0.734176  1
  V  V2  1  0.499696  0.499696  0.484536  1
  O  O3  1  0.628460  0.113130  0.586389  1
  O  O4  1  0.655118  0.655118  0.097825  1
  O  O5  1  0.113130  0.628460  0.586389  1
  O  O6  1  0.601635  0.601635  0.667860  1
