# generated using pymatgen
data_Zn11CoCu2
_symmetry_space_group_name_H-M   'P 1'
_cell_length_a   6.55965719
_cell_length_b   6.55965763
_cell_length_c   4.95525836
_cell_angle_alpha   80.52529287
_cell_angle_beta   80.52529415
_cell_angle_gamma   69.51967759
_symmetry_Int_Tables_number   1
_chemical_formula_structural   Zn11CoCu2
_chemical_formula_sum   'Zn11 Co1 Cu2'
_cell_volume   195.69253715
_cell_formula_units_Z   1
loop_
 _symmetry_equiv_pos_site_id
 _symmetry_equiv_pos_as_xyz
  1  'x, y, z'
loop_
 _atom_site_type_symbol
 _atom_site_label
 _atom_site_symmetry_multiplicity
 _atom_site_fract_x
 _atom_site_fract_y
 _atom_site_fract_z
 _atom_site_occupancy
  Zn  Zn0  1  0.000000  0.000000  0.000000  1
  Zn  Zn1  1  0.776229  0.776229  0.367176  1
  Zn  Zn2  1  0.223771  0.223771  0.632824  1
  Zn  Zn3  1  0.230638  0.625747  0.310790  1
  Zn  Zn4  1  0.374253  0.769362  0.689210  1
  Zn  Zn5  1  0.769362  0.374253  0.689210  1
  Zn  Zn6  1  0.625747  0.230638  0.310790  1
  Zn  Zn7  1  0.003129  0.643947  0.800892  1
  Zn  Zn8  1  0.356053  0.996871  0.199108  1
  Zn  Zn9  1  0.996871  0.356053  0.199108  1
  Zn  Zn10  1  0.643947  0.003129  0.800892  1
  Co  Co11  1  0.000000  0.000000  0.500000  1
  Cu  Cu12  1  0.384532  0.384532  0.933766  1
  Cu  Cu13  1  0.615468  0.615468  0.066234  1
