# generated using pymatgen
data_TbY9(ZnB4)4
_symmetry_space_group_name_H-M   'P 1'
_cell_length_a   7.21405103
_cell_length_b   7.21405103
_cell_length_c   8.43350101
_cell_angle_alpha   89.99568508
_cell_angle_beta   89.99568508
_cell_angle_gamma   90.00865697
_symmetry_Int_Tables_number   1
_chemical_formula_structural   TbY9(ZnB4)4
_chemical_formula_sum   'Tb1 Y9 Zn4 B16'
_cell_volume   438.90074049
_cell_formula_units_Z   1
loop_
 _symmetry_equiv_pos_site_id
 _symmetry_equiv_pos_as_xyz
  1  'x, y, z'
loop_
 _atom_site_type_symbol
 _atom_site_label
 _atom_site_symmetry_multiplicity
 _atom_site_fract_x
 _atom_site_fract_y
 _atom_site_fract_z
 _atom_site_occupancy
  Tb  Tb0  1  0.681883  0.181883  0.213296  1
  Y  Y1  1  0.317971  0.817971  0.787843  1
  Y  Y2  1  0.317938  0.817938  0.211947  1
  Y  Y3  1  0.818116  0.681886  0.212022  1
  Y  Y4  1  0.818072  0.681974  0.787897  1
  Y  Y5  1  0.681903  0.181903  0.787755  1
  Y  Y6  1  0.181974  0.318072  0.787897  1
  Y  Y7  1  0.181886  0.318116  0.212022  1
  Y  Y8  1  0.000264  0.999878  0.500099  1
  Y  Y9  1  0.499878  0.500264  0.500099  1
  Zn  Zn10  1  0.117487  0.617487  0.500008  1
  Zn  Zn11  1  0.882748  0.382748  0.500225  1
  Zn  Zn12  1  0.382477  0.117394  0.500147  1
  Zn  Zn13  1  0.617394  0.882477  0.500147  1
  B  B14  1  0.171976  0.040398  0.999863  1
  B  B15  1  0.828096  0.959598  0.999949  1
  B  B16  1  0.959572  0.171793  0.999961  1
  B  B17  1  0.328071  0.540459  0.999823  1
  B  B18  1  0.040459  0.828071  0.999823  1
  B  B19  1  0.671793  0.459572  0.999961  1
  B  B20  1  0.540398  0.671976  0.999863  1
  B  B21  1  0.459598  0.328096  0.999949  1
  B  B22  1  0.090667  0.590667  0.999942  1
  B  B23  1  0.909182  0.409182  0.000222  1
  B  B24  1  0.409422  0.090693  0.999971  1
  B  B25  1  0.590693  0.909422  0.999971  1
  B  B26  1  0.000199  0.999868  0.156519  1
  B  B27  1  0.000047  0.999967  0.843129  1
  B  B28  1  0.499967  0.500047  0.843129  1
  B  B29  1  0.499868  0.500199  0.156519  1
