# generated using pymatgen
data_Bi6Te2Pd5Se2
_symmetry_space_group_name_H-M   'P 1'
_cell_length_a   20.41340229
_cell_length_b   20.41340166
_cell_length_c   6.58499312
_cell_angle_alpha   72.35029355
_cell_angle_beta   72.35029414
_cell_angle_gamma   8.31562008
_symmetry_Int_Tables_number   1
_chemical_formula_structural   Bi6Te2Pd5Se2
_chemical_formula_sum   'Bi6 Te2 Pd5 Se2'
_cell_volume   378.07350669
_cell_formula_units_Z   1
loop_
 _symmetry_equiv_pos_site_id
 _symmetry_equiv_pos_as_xyz
  1  'x, y, z'
loop_
 _atom_site_type_symbol
 _atom_site_label
 _atom_site_symmetry_multiplicity
 _atom_site_fract_x
 _atom_site_fract_y
 _atom_site_fract_z
 _atom_site_occupancy
  Bi  Bi0  1  0.674663  0.674663  0.719744  1
  Bi  Bi1  1  0.276752  0.276752  0.728593  1
  Bi  Bi2  1  0.879496  0.879496  0.721888  1
  Bi  Bi3  1  0.532714  0.532714  0.292700  1
  Bi  Bi4  1  0.131600  0.131600  0.265958  1
  Bi  Bi5  1  0.734637  0.734637  0.267837  1
  Te  Te6  1  0.337660  0.337660  0.267032  1
  Te  Te7  1  0.937636  0.937636  0.265900  1
  Pd  Pd8  1  0.005972  0.005972  0.984650  1
  Pd  Pd9  1  0.601734  0.601734  0.978623  1
  Pd  Pd10  1  0.203567  0.203567  0.998627  1
  Pd  Pd11  1  0.807623  0.807623  0.008452  1
  Pd  Pd12  1  0.408760  0.408760  0.005876  1
  Se  Se13  1  0.073677  0.073677  0.751356  1
  Se  Se14  1  0.479230  0.479230  0.742762  1
