# generated using pymatgen
data_Er12GaNi4Bi
_symmetry_space_group_name_H-M   'P 1'
_cell_length_a   8.31607371
_cell_length_b   8.31607368
_cell_length_c   8.31607413
_cell_angle_alpha   112.34401933
_cell_angle_beta   109.96345142
_cell_angle_gamma   106.16547723
_symmetry_Int_Tables_number   1
_chemical_formula_structural   Er12GaNi4Bi
_chemical_formula_sum   'Er12 Ga1 Ni4 Bi1'
_cell_volume   441.42403215
_cell_formula_units_Z   1
loop_
 _symmetry_equiv_pos_site_id
 _symmetry_equiv_pos_as_xyz
  1  'x, y, z'
loop_
 _atom_site_type_symbol
 _atom_site_label
 _atom_site_symmetry_multiplicity
 _atom_site_fract_x
 _atom_site_fract_y
 _atom_site_fract_z
 _atom_site_occupancy
  Er  Er0  1  0.426820  0.226193  0.200627  1
  Er  Er1  1  0.573180  0.773807  0.799373  1
  Er  Er2  1  0.025566  0.226193  0.799373  1
  Er  Er3  1  0.974434  0.773807  0.200627  1
  Er  Er4  1  0.178855  0.284923  0.463777  1
  Er  Er5  1  0.821145  0.715077  0.536223  1
  Er  Er6  1  0.178855  0.715077  0.893931  1
  Er  Er7  1  0.821145  0.284923  0.106069  1
  Er  Er8  1  0.321689  0.633178  0.311490  1
  Er  Er9  1  0.678311  0.366822  0.688510  1
  Er  Er10  1  0.321689  0.010198  0.688510  1
  Er  Er11  1  0.678311  0.989802  0.311490  1
  Ga  Ga12  1  0.000000  0.000000  0.000000  1
  Ni  Ni13  1  0.351284  0.000000  0.351284  1
  Ni  Ni14  1  0.648716  0.000000  0.648716  1
  Ni  Ni15  1  0.121524  0.621524  0.500000  1
  Ni  Ni16  1  0.878476  0.378476  0.500000  1
  Bi  Bi17  1  0.500000  0.500000  0.000000  1
