# generated using pymatgen
data_Tb2Zn2Ga7Pd3
_symmetry_space_group_name_H-M   'P 1'
_cell_length_a   7.63226605
_cell_length_b   7.66784295
_cell_length_c   9.54227300
_cell_angle_alpha   90.00000000
_cell_angle_beta   90.00000000
_cell_angle_gamma   119.34917086
_symmetry_Int_Tables_number   1
_chemical_formula_structural   Tb2Zn2Ga7Pd3
_chemical_formula_sum   'Tb4 Zn4 Ga14 Pd6'
_cell_volume   486.76592306
_cell_formula_units_Z   2
loop_
 _symmetry_equiv_pos_site_id
 _symmetry_equiv_pos_as_xyz
  1  'x, y, z'
loop_
 _atom_site_type_symbol
 _atom_site_label
 _atom_site_symmetry_multiplicity
 _atom_site_fract_x
 _atom_site_fract_y
 _atom_site_fract_z
 _atom_site_occupancy
  Tb  Tb0  1  0.995559  0.670624  0.250000  1
  Tb  Tb1  1  0.004441  0.329376  0.750000  1
  Tb  Tb2  1  0.672901  0.997864  0.250000  1
  Tb  Tb3  1  0.327099  0.002136  0.750000  1
  Zn  Zn4  1  0.138125  0.137407  0.250000  1
  Zn  Zn5  1  0.861875  0.862593  0.750000  1
  Zn  Zn6  1  0.342134  0.544458  0.250000  1
  Zn  Zn7  1  0.657866  0.455542  0.750000  1
  Ga  Ga8  1  0.008857  0.336723  0.085158  1
  Ga  Ga9  1  0.991143  0.663277  0.914842  1
  Ga  Ga10  1  0.991143  0.663277  0.585158  1
  Ga  Ga11  1  0.333110  0.001161  0.415866  1
  Ga  Ga12  1  0.008857  0.336723  0.414842  1
  Ga  Ga13  1  0.666890  0.998839  0.584134  1
  Ga  Ga14  1  0.666890  0.998839  0.915866  1
  Ga  Ga15  1  0.333110  0.001161  0.084134  1
  Ga  Ga16  1  0.336075  0.333107  0.563763  1
  Ga  Ga17  1  0.663925  0.666893  0.436237  1
  Ga  Ga18  1  0.663925  0.666893  0.063763  1
  Ga  Ga19  1  0.336075  0.333107  0.936237  1
  Ga  Ga20  1  0.539247  0.341920  0.250000  1
  Ga  Ga21  1  0.460753  0.658080  0.750000  1
  Pd  Pd22  1  0.675134  0.325588  0.003524  1
  Pd  Pd23  1  0.324866  0.674412  0.996476  1
  Pd  Pd24  1  0.324866  0.674412  0.503524  1
  Pd  Pd25  1  0.675134  0.325588  0.496476  1
  Pd  Pd26  1  0.000000  0.000000  0.000000  1
  Pd  Pd27  1  0.000000  0.000000  0.500000  1
