# generated using pymatgen
data_Tb13Th3Mg3Ir4Pb
_symmetry_space_group_name_H-M   'P 1'
_cell_length_a   9.79903522
_cell_length_b   9.81345395
_cell_length_c   9.81345400
_cell_angle_alpha   59.99999984
_cell_angle_beta   59.95131290
_cell_angle_gamma   59.95131395
_symmetry_Int_Tables_number   1
_chemical_formula_structural   Tb13Th3Mg3Ir4Pb
_chemical_formula_sum   'Tb13 Th3 Mg3 Ir4 Pb1'
_cell_volume   666.79465794
_cell_formula_units_Z   1
loop_
 _symmetry_equiv_pos_site_id
 _symmetry_equiv_pos_as_xyz
  1  'x, y, z'
loop_
 _atom_site_type_symbol
 _atom_site_label
 _atom_site_symmetry_multiplicity
 _atom_site_fract_x
 _atom_site_fract_y
 _atom_site_fract_z
 _atom_site_occupancy
  Tb  Tb0  1  0.204679  0.598441  0.598441  1
  Tb  Tb1  1  0.063660  0.437415  0.437415  1
  Tb  Tb2  1  0.439361  0.062553  0.062553  1
  Tb  Tb3  1  0.439361  0.062553  0.435533  1
  Tb  Tb4  1  0.063660  0.437415  0.061510  1
  Tb  Tb5  1  0.439361  0.435533  0.062553  1
  Tb  Tb6  1  0.063660  0.061510  0.437415  1
  Tb  Tb7  1  0.184934  0.814111  0.814111  1
  Tb  Tb8  1  0.815306  0.184583  0.184583  1
  Tb  Tb9  1  0.815306  0.184583  0.815528  1
  Tb  Tb10  1  0.184934  0.814111  0.186846  1
  Tb  Tb11  1  0.815306  0.815528  0.184583  1
  Tb  Tb12  1  0.184934  0.186846  0.814111  1
  Th  Th13  1  0.595290  0.597469  0.597469  1
  Th  Th14  1  0.595290  0.597469  0.209774  1
  Th  Th15  1  0.595290  0.209774  0.597469  1
  Mg  Mg16  1  0.831407  0.829977  0.829977  1
  Mg  Mg17  1  0.831407  0.829977  0.508641  1
  Mg  Mg18  1  0.831407  0.508641  0.829977  1
  Ir  Ir19  1  0.393908  0.391865  0.391865  1
  Ir  Ir20  1  0.393908  0.391865  0.822363  1
  Ir  Ir21  1  0.393908  0.822363  0.391865  1
  Ir  Ir22  1  0.820836  0.393055  0.393055  1
  Pb  Pb23  1  0.502892  0.832369  0.832369  1
