# generated using pymatgen
data_Yb2Y2MgAl17Pd6
_symmetry_space_group_name_H-M   'P 1'
_cell_length_a   7.68664501
_cell_length_b   7.68636485
_cell_length_c   9.48612803
_cell_angle_alpha   90.16180541
_cell_angle_beta   89.86388172
_cell_angle_gamma   119.50153883
_symmetry_Int_Tables_number   1
_chemical_formula_structural   Yb2Y2MgAl17Pd6
_chemical_formula_sum   'Yb2 Y2 Mg1 Al17 Pd6'
_cell_volume   487.79233105
_cell_formula_units_Z   1
loop_
 _symmetry_equiv_pos_site_id
 _symmetry_equiv_pos_as_xyz
  1  'x, y, z'
loop_
 _atom_site_type_symbol
 _atom_site_label
 _atom_site_symmetry_multiplicity
 _atom_site_fract_x
 _atom_site_fract_y
 _atom_site_fract_z
 _atom_site_occupancy
  Yb  Yb0  1  0.995536  0.672937  0.251183  1
  Yb  Yb1  1  0.005108  0.330717  0.748716  1
  Y  Y2  1  0.668381  0.991997  0.252258  1
  Y  Y3  1  0.328156  0.002620  0.749342  1
  Mg  Mg4  1  0.997217  0.336936  0.076804  1
  Al  Al5  1  0.129356  0.131094  0.250296  1
  Al  Al6  1  0.870738  0.868257  0.751330  1
  Al  Al7  1  0.999037  0.662749  0.923523  1
  Al  Al8  1  0.998350  0.663741  0.577193  1
  Al  Al9  1  0.334701  0.000511  0.421291  1
  Al  Al10  1  0.001715  0.334878  0.421324  1
  Al  Al11  1  0.666890  0.000847  0.578056  1
  Al  Al12  1  0.667724  0.002566  0.923875  1
  Al  Al13  1  0.334946  0.000500  0.077729  1
  Al  Al14  1  0.332955  0.333331  0.555206  1
  Al  Al15  1  0.666510  0.666110  0.444080  1
  Al  Al16  1  0.667245  0.666780  0.054178  1
  Al  Al17  1  0.330890  0.332955  0.944290  1
  Al  Al18  1  0.344380  0.548567  0.250178  1
  Al  Al19  1  0.656794  0.451833  0.749310  1
  Al  Al20  1  0.546457  0.337070  0.249376  1
  Al  Al21  1  0.456840  0.663832  0.750956  1
  Pd  Pd22  1  0.660998  0.325751  0.996552  1
  Pd  Pd23  1  0.335927  0.680514  0.999466  1
  Pd  Pd24  1  0.329034  0.673339  0.501829  1
  Pd  Pd25  1  0.671778  0.327352  0.500020  1
  Pd  Pd26  1  0.001578  0.993465  0.000079  1
  Pd  Pd27  1  0.000760  0.998753  0.501560  1
