# generated using pymatgen
data_K3MnS3
_symmetry_space_group_name_H-M   'P 1'
_cell_length_a   12.81861400
_cell_length_b   7.81900195
_cell_length_c   10.16274611
_cell_angle_alpha   52.22255524
_cell_angle_beta   90.00000000
_cell_angle_gamma   90.00000000
_symmetry_Int_Tables_number   1
_chemical_formula_structural   K3MnS3
_chemical_formula_sum   'K12 Mn4 S12'
_cell_volume   805.09722048
_cell_formula_units_Z   4
loop_
 _symmetry_equiv_pos_site_id
 _symmetry_equiv_pos_as_xyz
  1  'x, y, z'
loop_
 _atom_site_type_symbol
 _atom_site_label
 _atom_site_symmetry_multiplicity
 _atom_site_fract_x
 _atom_site_fract_y
 _atom_site_fract_z
 _atom_site_occupancy
  K  K0  1  0.311974  0.153804  0.073155  1
  K  K1  1  0.688026  0.846196  0.926845  1
  K  K2  1  0.811974  0.846196  0.426845  1
  K  K3  1  0.898697  0.324684  0.397700  1
  K  K4  1  0.619452  0.378657  0.469433  1
  K  K5  1  0.119452  0.621343  0.030567  1
  K  K6  1  0.380548  0.621343  0.530567  1
  K  K7  1  0.880548  0.378657  0.969433  1
  K  K8  1  0.601303  0.324684  0.897700  1
  K  K9  1  0.101303  0.675316  0.602300  1
  K  K10  1  0.398697  0.675316  0.102300  1
  K  K11  1  0.188026  0.153804  0.573155  1
  Mn  Mn12  1  0.061876  0.941436  0.158504  1
  Mn  Mn13  1  0.561876  0.058564  0.341496  1
  Mn  Mn14  1  0.438124  0.941436  0.658504  1
  Mn  Mn15  1  0.938124  0.058564  0.841496  1
  S  S16  1  0.401831  0.161501  0.376182  1
  S  S17  1  0.901831  0.838499  0.123818  1
  S  S18  1  0.598169  0.838499  0.623818  1
  S  S19  1  0.098169  0.161501  0.876182  1
  S  S20  1  0.686629  0.321661  0.199000  1
  S  S21  1  0.186629  0.678339  0.301000  1
  S  S22  1  0.313371  0.678339  0.801000  1
  S  S23  1  0.813371  0.321661  0.699000  1
  S  S24  1  0.546991  0.874213  0.237024  1
  S  S25  1  0.046991  0.125787  0.262976  1
  S  S26  1  0.453009  0.125787  0.762976  1
  S  S27  1  0.953009  0.874213  0.737024  1
