# generated using pymatgen
data_Ni2Te3Mo
_symmetry_space_group_name_H-M   'P 1'
_cell_length_a   3.63178500
_cell_length_b   7.81049515
_cell_length_c   10.41110451
_cell_angle_alpha   69.89134356
_cell_angle_beta   90.00000000
_cell_angle_gamma   90.00000000
_symmetry_Int_Tables_number   1
_chemical_formula_structural   Ni2Te3Mo
_chemical_formula_sum   'Ni4 Te6 Mo2'
_cell_volume   277.31966641
_cell_formula_units_Z   2
loop_
 _symmetry_equiv_pos_site_id
 _symmetry_equiv_pos_as_xyz
  1  'x, y, z'
loop_
 _atom_site_type_symbol
 _atom_site_label
 _atom_site_symmetry_multiplicity
 _atom_site_fract_x
 _atom_site_fract_y
 _atom_site_fract_z
 _atom_site_occupancy
  Ni  Ni0  1  0.250000  0.406153  0.088682  1
  Ni  Ni1  1  0.750000  0.593847  0.911318  1
  Ni  Ni2  1  0.750000  0.041962  0.564167  1
  Ni  Ni3  1  0.250000  0.958038  0.435833  1
  Te  Te4  1  0.750000  0.937472  0.824572  1
  Te  Te5  1  0.250000  0.062528  0.175428  1
  Te  Te6  1  0.750000  0.577328  0.162945  1
  Te  Te7  1  0.250000  0.422672  0.837055  1
  Te  Te8  1  0.250000  0.281685  0.490992  1
  Te  Te9  1  0.750000  0.718315  0.509008  1
  Mo  Mo10  1  0.250000  0.779337  0.699682  1
  Mo  Mo11  1  0.750000  0.220663  0.300318  1
