# generated using pymatgen
data_Pa6Fe3Sb8Pt3
_symmetry_space_group_name_H-M   'P 1'
_cell_length_a   8.28431790
_cell_length_b   8.28018392
_cell_length_c   8.28018399
_cell_angle_alpha   109.20865719
_cell_angle_beta   109.46709459
_cell_angle_gamma   109.71796826
_symmetry_Int_Tables_number   1
_chemical_formula_structural   Pa6Fe3Sb8Pt3
_chemical_formula_sum   'Pa6 Fe3 Sb8 Pt3'
_cell_volume   437.33601041
_cell_formula_units_Z   1
loop_
 _symmetry_equiv_pos_site_id
 _symmetry_equiv_pos_as_xyz
  1  'x, y, z'
loop_
 _atom_site_type_symbol
 _atom_site_label
 _atom_site_symmetry_multiplicity
 _atom_site_fract_x
 _atom_site_fract_y
 _atom_site_fract_z
 _atom_site_occupancy
  Pa  Pa0  1  0.890849  0.266309  0.136532  1
  Pa  Pa1  1  0.609151  0.745683  0.375461  1
  Pa  Pa2  1  0.250000  0.116704  0.866704  1
  Pa  Pa3  1  0.750000  0.382146  0.632146  1
  Pa  Pa4  1  0.132860  0.874348  0.253303  1
  Pa  Pa5  1  0.367140  0.620443  0.741489  1
  Fe  Fe6  1  0.378056  0.247479  0.626165  1
  Fe  Fe7  1  0.121944  0.748110  0.869423  1
  Fe  Fe8  1  0.250000  0.619270  0.369270  1
  Sb  Sb9  1  0.661325  0.492244  0.986556  1
  Sb  Sb10  1  0.486496  0.993863  0.662389  1
  Sb  Sb11  1  0.013504  0.675892  0.507367  1
  Sb  Sb12  1  0.838675  0.825231  0.830920  1
  Sb  Sb13  1  0.484675  0.990435  0.160385  1
  Sb  Sb14  1  0.174838  0.513841  0.005176  1
  Sb  Sb15  1  0.015325  0.175711  0.505760  1
  Sb  Sb16  1  0.325162  0.330338  0.339002  1
  Pt  Pt17  1  0.750000  0.877738  0.127738  1
  Pt  Pt18  1  0.626081  0.377788  0.252506  1
  Pt  Pt19  1  0.873919  0.126424  0.751706  1
