# generated using pymatgen
data_Dy9Ho3(InSi2)2
_symmetry_space_group_name_H-M   'P 1'
_cell_length_a   8.51961211
_cell_length_b   8.52065280
_cell_length_c   8.52065354
_cell_angle_alpha   112.40503216
_cell_angle_beta   110.95093355
_cell_angle_gamma   105.15052234
_symmetry_Int_Tables_number   1
_chemical_formula_structural   Dy9Ho3(InSi2)2
_chemical_formula_sum   'Dy9 Ho3 In2 Si4'
_cell_volume   474.02786680
_cell_formula_units_Z   1
loop_
 _symmetry_equiv_pos_site_id
 _symmetry_equiv_pos_as_xyz
  1  'x, y, z'
loop_
 _atom_site_type_symbol
 _atom_site_label
 _atom_site_symmetry_multiplicity
 _atom_site_fract_x
 _atom_site_fract_y
 _atom_site_fract_z
 _atom_site_occupancy
  Dy  Dy0  1  0.319576  0.615911  0.296295  1
  Dy  Dy1  1  0.680459  0.384159  0.703796  1
  Dy  Dy2  1  0.319576  0.023280  0.703666  1
  Dy  Dy3  1  0.680459  0.976664  0.296299  1
  Dy  Dy4  1  0.186437  0.278387  0.464861  1
  Dy  Dy5  1  0.813620  0.721681  0.535246  1
  Dy  Dy6  1  0.186437  0.721575  0.908051  1
  Dy  Dy7  1  0.813620  0.278375  0.091939  1
  Dy  Dy8  1  0.442696  0.238012  0.204686  1
  Ho  Ho9  1  0.557317  0.762098  0.795218  1
  Ho  Ho10  1  0.033074  0.237912  0.795162  1
  Ho  Ho11  1  0.966891  0.762100  0.204792  1
  In  In12  1  0.499994  0.500043  0.999951  1
  In  In13  1  0.999854  0.999914  0.999940  1
  Si  Si14  1  0.115545  0.615544  0.500001  1
  Si  Si15  1  0.884486  0.384465  0.500021  1
  Si  Si16  1  0.369192  0.999890  0.369302  1
  Si  Si17  1  0.630765  0.999990  0.630774  1
