# generated using pymatgen
data_Tb3ZrInSnIr3
_symmetry_space_group_name_H-M   'P 1'
_cell_length_a   7.41478257
_cell_length_b   7.39830760
_cell_length_c   4.24245500
_cell_angle_alpha   90.00000000
_cell_angle_beta   90.00000000
_cell_angle_gamma   121.73855478
_symmetry_Int_Tables_number   1
_chemical_formula_structural   Tb3ZrInSnIr3
_chemical_formula_sum   'Tb3 Zr1 In1 Sn1 Ir3'
_cell_volume   197.92496365
_cell_formula_units_Z   1
loop_
 _symmetry_equiv_pos_site_id
 _symmetry_equiv_pos_as_xyz
  1  'x, y, z'
loop_
 _atom_site_type_symbol
 _atom_site_label
 _atom_site_symmetry_multiplicity
 _atom_site_fract_x
 _atom_site_fract_y
 _atom_site_fract_z
 _atom_site_occupancy
  Tb  Tb0  1  0.396709  0.396281  0.000000  1
  Tb  Tb1  1  0.586842  0.003762  0.000000  1
  Tb  Tb2  1  0.003843  0.588189  0.000000  1
  Zr  Zr3  1  0.753014  0.752091  0.500000  1
  In  In4  1  0.251632  0.999347  0.500000  1
  Sn  Sn5  1  0.000605  0.253016  0.500000  1
  Ir  Ir6  1  0.979324  0.984908  0.000000  1
  Ir  Ir7  1  0.350895  0.671090  0.500000  1
  Ir  Ir8  1  0.677137  0.351317  0.500000  1
