# generated using pymatgen
data_NaYbH6PtRh
_symmetry_space_group_name_H-M   'P 1'
_cell_length_a   5.12622985
_cell_length_b   5.12624793
_cell_length_c   5.12630000
_cell_angle_alpha   120.00158581
_cell_angle_beta   119.99989448
_cell_angle_gamma   90.00038693
_symmetry_Int_Tables_number   1
_chemical_formula_structural   NaYbH6PtRh
_chemical_formula_sum   'Na1 Yb1 H6 Pt1 Rh1'
_cell_volume   95.25231040
_cell_formula_units_Z   1
loop_
 _symmetry_equiv_pos_site_id
 _symmetry_equiv_pos_as_xyz
  1  'x, y, z'
loop_
 _atom_site_type_symbol
 _atom_site_label
 _atom_site_symmetry_multiplicity
 _atom_site_fract_x
 _atom_site_fract_y
 _atom_site_fract_z
 _atom_site_occupancy
  Na  Na0  1  0.250014  0.750008  0.500004  1
  Yb  Yb1  1  0.749910  0.249953  0.499900  1
  H  H2  1  0.246561  0.246555  0.000012  1
  H  H3  1  0.753468  0.246563  0.000025  1
  H  H4  1  0.753462  0.753453  0.000016  1
  H  H5  1  0.246564  0.753454  0.000023  1
  H  H6  1  0.246553  0.246554  0.493113  1
  H  H7  1  0.753462  0.753456  0.506912  1
  Pt  Pt8  1  0.499995  0.499996  0.999998  1
  Rh  Rh9  1  0.000006  0.000003  0.999991  1
