# generated using pymatgen
data_RbGaTe3O8
_symmetry_space_group_name_H-M   'P 1'
_cell_length_a   5.57123259
_cell_length_b   7.69832180
_cell_length_c   10.99773431
_cell_angle_alpha   99.61315478
_cell_angle_beta   89.69114999
_cell_angle_gamma   108.25539485
_symmetry_Int_Tables_number   1
_chemical_formula_structural   RbGaTe3O8
_chemical_formula_sum   'Rb2 Ga2 Te6 O16'
_cell_volume   441.09835328
_cell_formula_units_Z   2
loop_
 _symmetry_equiv_pos_site_id
 _symmetry_equiv_pos_as_xyz
  1  'x, y, z'
loop_
 _atom_site_type_symbol
 _atom_site_label
 _atom_site_symmetry_multiplicity
 _atom_site_fract_x
 _atom_site_fract_y
 _atom_site_fract_z
 _atom_site_occupancy
  Rb  Rb0  1  0.829068  0.112155  0.164260  1
  Rb  Rb1  1  0.170932  0.887845  0.835740  1
  Ga  Ga2  1  0.500000  0.500000  0.000000  1
  Ga  Ga3  1  0.000000  0.500000  0.500000  1
  Te  Te4  1  0.221515  0.976303  0.412957  1
  Te  Te5  1  0.778485  0.023697  0.587043  1
  Te  Te6  1  0.051999  0.655625  0.143909  1
  Te  Te7  1  0.948001  0.344375  0.856091  1
  Te  Te8  1  0.521888  0.532696  0.339477  1
  Te  Te9  1  0.478112  0.467304  0.660523  1
  O  O10  1  0.169178  0.721373  0.415538  1
  O  O11  1  0.830822  0.278627  0.584462  1
  O  O12  1  0.231504  0.913342  0.220045  1
  O  O13  1  0.768496  0.086658  0.779955  1
  O  O14  1  0.876216  0.970785  0.395037  1
  O  O15  1  0.123784  0.029215  0.604963  1
  O  O16  1  0.261392  0.655103  0.005603  1
  O  O17  1  0.738608  0.344897  0.994397  1
  O  O18  1  0.793697  0.721456  0.068475  1
  O  O19  1  0.206303  0.278544  0.931525  1
  O  O20  1  0.393932  0.437306  0.172241  1
  O  O21  1  0.606068  0.562694  0.827759  1
  O  O22  1  0.242093  0.377153  0.415093  1
  O  O23  1  0.757907  0.622847  0.584907  1
  O  O24  1  0.744872  0.391734  0.353594  1
  O  O25  1  0.255128  0.608266  0.646406  1
