# generated using pymatgen
data_Rb4Ba2TiAs4
_symmetry_space_group_name_H-M   'P 1'
_cell_length_a   10.72797169
_cell_length_b   10.72797280
_cell_length_c   8.17980471
_cell_angle_alpha   88.19512314
_cell_angle_beta   88.19511587
_cell_angle_gamma   119.49746870
_symmetry_Int_Tables_number   1
_chemical_formula_structural   Rb4Ba2TiAs4
_chemical_formula_sum   'Rb8 Ba4 Ti2 As8'
_cell_volume   817.77810379
_cell_formula_units_Z   2
loop_
 _symmetry_equiv_pos_site_id
 _symmetry_equiv_pos_as_xyz
  1  'x, y, z'
loop_
 _atom_site_type_symbol
 _atom_site_label
 _atom_site_symmetry_multiplicity
 _atom_site_fract_x
 _atom_site_fract_y
 _atom_site_fract_z
 _atom_site_occupancy
  Rb  Rb0  1  0.475343  0.944688  0.386940  1
  Rb  Rb1  1  0.944688  0.475343  0.886940  1
  Rb  Rb2  1  0.866534  0.721216  0.165224  1
  Rb  Rb3  1  0.262362  0.124154  0.239489  1
  Rb  Rb4  1  0.854460  0.143200  0.197722  1
  Rb  Rb5  1  0.124154  0.262362  0.739489  1
  Rb  Rb6  1  0.721216  0.866534  0.665224  1
  Rb  Rb7  1  0.143200  0.854460  0.697722  1
  Ba  Ba8  1  0.066110  0.532582  0.395865  1
  Ba  Ba9  1  0.476992  0.530303  0.377413  1
  Ba  Ba10  1  0.532582  0.066110  0.895865  1
  Ba  Ba11  1  0.530303  0.476992  0.877413  1
  Ti  Ti12  1  0.664665  0.335503  0.490992  1
  Ti  Ti13  1  0.335503  0.664665  0.990992  1
  As  As14  1  0.642474  0.330991  0.181826  1
  As  As15  1  0.330991  0.642474  0.681826  1
  As  As16  1  0.214637  0.413710  0.121573  1
  As  As17  1  0.594205  0.793845  0.069452  1
  As  As18  1  0.214318  0.797517  0.091171  1
  As  As19  1  0.793845  0.594205  0.569452  1
  As  As20  1  0.413710  0.214637  0.621573  1
  As  As21  1  0.797517  0.214318  0.591171  1
