# generated using pymatgen
data_TbDy5Ho6Co5Bi
_symmetry_space_group_name_H-M   'P 1'
_cell_length_a   8.30602783
_cell_length_b   8.30320404
_cell_length_c   8.30004997
_cell_angle_alpha   110.85265524
_cell_angle_beta   110.72157574
_cell_angle_gamma   106.91371453
_symmetry_Int_Tables_number   1
_chemical_formula_structural   TbDy5Ho6Co5Bi
_chemical_formula_sum   'Tb1 Dy5 Ho6 Co5 Bi1'
_cell_volume   439.75176346
_cell_formula_units_Z   1
loop_
 _symmetry_equiv_pos_site_id
 _symmetry_equiv_pos_as_xyz
  1  'x, y, z'
loop_
 _atom_site_type_symbol
 _atom_site_label
 _atom_site_symmetry_multiplicity
 _atom_site_fract_x
 _atom_site_fract_y
 _atom_site_fract_z
 _atom_site_occupancy
  Tb  Tb0  1  0.815900  0.709127  0.525601  1
  Dy  Dy1  1  0.311854  0.002759  0.690858  1
  Dy  Dy2  1  0.599201  0.794181  0.805671  1
  Dy  Dy3  1  0.399089  0.204863  0.193867  1
  Dy  Dy4  1  0.988756  0.794571  0.193352  1
  Dy  Dy5  1  0.011247  0.206745  0.805606  1
  Ho  Ho6  1  0.183402  0.290624  0.473543  1
  Ho  Ho7  1  0.184288  0.708679  0.893519  1
  Ho  Ho8  1  0.816977  0.290435  0.106903  1
  Ho  Ho9  1  0.687809  0.378401  0.690547  1
  Ho  Ho10  1  0.311249  0.621183  0.309114  1
  Ho  Ho11  1  0.688014  0.997971  0.309105  1
  Co  Co12  1  0.623696  0.000958  0.624212  1
  Co  Co13  1  0.376936  0.999564  0.376070  1
  Co  Co14  1  0.112488  0.610516  0.500434  1
  Co  Co15  1  0.889509  0.387931  0.500820  1
  Co  Co16  1  0.999253  0.001190  0.000375  1
  Bi  Bi17  1  0.500328  0.500304  0.000405  1
