# generated using pymatgen
data_TmThB6Mo
_symmetry_space_group_name_H-M   'P 1'
_cell_length_a   3.78824200
_cell_length_b   9.24015900
_cell_length_c   11.68439800
_cell_angle_alpha   90.00000000
_cell_angle_beta   90.00000000
_cell_angle_gamma   90.00000000
_symmetry_Int_Tables_number   1
_chemical_formula_structural   TmThB6Mo
_chemical_formula_sum   'Tm4 Th4 B24 Mo4'
_cell_volume   409.00018164
_cell_formula_units_Z   4
loop_
 _symmetry_equiv_pos_site_id
 _symmetry_equiv_pos_as_xyz
  1  'x, y, z'
loop_
 _atom_site_type_symbol
 _atom_site_label
 _atom_site_symmetry_multiplicity
 _atom_site_fract_x
 _atom_site_fract_y
 _atom_site_fract_z
 _atom_site_occupancy
  Tm  Tm0  1  0.000000  0.943382  0.370190  1
  Tm  Tm1  1  0.000000  0.056618  0.629810  1
  Tm  Tm2  1  0.000000  0.443382  0.129810  1
  Tm  Tm3  1  0.000000  0.556618  0.870190  1
  Th  Th4  1  0.000000  0.321524  0.414792  1
  Th  Th5  1  0.000000  0.678476  0.585208  1
  Th  Th6  1  0.000000  0.821524  0.085208  1
  Th  Th7  1  0.000000  0.178476  0.914792  1
  B  B8  1  0.500000  0.554881  0.430921  1
  B  B9  1  0.500000  0.445119  0.569079  1
  B  B10  1  0.500000  0.054881  0.069079  1
  B  B11  1  0.500000  0.945119  0.930921  1
  B  B12  1  0.500000  0.751912  0.416202  1
  B  B13  1  0.500000  0.248088  0.583798  1
  B  B14  1  0.500000  0.251912  0.083798  1
  B  B15  1  0.500000  0.748088  0.916202  1
  B  B16  1  0.500000  0.792995  0.265422  1
  B  B17  1  0.500000  0.207005  0.734578  1
  B  B18  1  0.500000  0.292995  0.234578  1
  B  B19  1  0.500000  0.707005  0.765422  1
  B  B20  1  0.500000  0.629075  0.184863  1
  B  B21  1  0.500000  0.370925  0.815137  1
  B  B22  1  0.500000  0.129075  0.315137  1
  B  B23  1  0.500000  0.870925  0.684863  1
  B  B24  1  0.500000  0.982771  0.214013  1
  B  B25  1  0.500000  0.017229  0.785987  1
  B  B26  1  0.500000  0.482771  0.285987  1
  B  B27  1  0.500000  0.517229  0.714013  1
  B  B28  1  0.500000  0.596664  0.026842  1
  B  B29  1  0.500000  0.403336  0.973158  1
  B  B30  1  0.500000  0.096664  0.473158  1
  B  B31  1  0.500000  0.903336  0.526842  1
  Mo  Mo32  1  0.000000  0.639640  0.319324  1
  Mo  Mo33  1  0.000000  0.360360  0.680676  1
  Mo  Mo34  1  0.000000  0.139640  0.180676  1
  Mo  Mo35  1  0.000000  0.860360  0.819324  1
