# generated using pymatgen
data_Tb4As5Ir7Pt
_symmetry_space_group_name_H-M   'P 1'
_cell_length_a   7.31983388
_cell_length_b   7.31983375
_cell_length_c   7.31983495
_cell_angle_alpha   107.16963164
_cell_angle_beta   110.63413257
_cell_angle_gamma   110.63412646
_symmetry_Int_Tables_number   1
_chemical_formula_structural   Tb4As5Ir7Pt
_chemical_formula_sum   'Tb4 As5 Ir7 Pt1'
_cell_volume   301.54945890
_cell_formula_units_Z   1
loop_
 _symmetry_equiv_pos_site_id
 _symmetry_equiv_pos_as_xyz
  1  'x, y, z'
loop_
 _atom_site_type_symbol
 _atom_site_label
 _atom_site_symmetry_multiplicity
 _atom_site_fract_x
 _atom_site_fract_y
 _atom_site_fract_z
 _atom_site_occupancy
  Tb  Tb0  1  0.000000  0.986747  0.499606  1
  Tb  Tb1  1  0.000000  0.499606  0.986747  1
  Tb  Tb2  1  0.487142  0.986747  0.986747  1
  Tb  Tb3  1  0.512858  0.499606  0.499606  1
  As  As4  1  0.683850  0.683745  0.999895  1
  As  As5  1  0.316150  0.999895  0.316045  1
  As  As6  1  0.000000  0.328922  0.328922  1
  As  As7  1  0.316150  0.316045  0.999895  1
  As  As8  1  0.683850  0.999895  0.683745  1
  Ir  Ir9  1  0.748725  0.239628  0.490903  1
  Ir  Ir10  1  0.748725  0.490903  0.239628  1
  Ir  Ir11  1  0.500000  0.245339  0.745339  1
  Ir  Ir12  1  0.251275  0.490903  0.742178  1
  Ir  Ir13  1  0.251275  0.742178  0.490903  1
  Ir  Ir14  1  0.500000  0.745339  0.245339  1
  Ir  Ir15  1  0.000000  0.032615  0.032615  1
  Pt  Pt16  1  0.000000  0.711889  0.711889  1
