# generated using pymatgen
data_Tb11Nd5Cd4Ir3Pd
_symmetry_space_group_name_H-M   'P 1'
_cell_length_a   9.76364398
_cell_length_b   9.75948659
_cell_length_c   9.75948744
_cell_angle_alpha   60.20815589
_cell_angle_beta   60.19060711
_cell_angle_gamma   60.19061716
_symmetry_Int_Tables_number   1
_chemical_formula_structural   Tb11Nd5Cd4Ir3Pd
_chemical_formula_sum   'Tb11 Nd5 Cd4 Ir3 Pd1'
_cell_volume   660.50886210
_cell_formula_units_Z   1
loop_
 _symmetry_equiv_pos_site_id
 _symmetry_equiv_pos_as_xyz
  1  'x, y, z'
loop_
 _atom_site_type_symbol
 _atom_site_label
 _atom_site_symmetry_multiplicity
 _atom_site_fract_x
 _atom_site_fract_y
 _atom_site_fract_z
 _atom_site_occupancy
  Tb  Tb0  1  0.347145  0.346743  0.346743  1
  Tb  Tb1  1  0.352721  0.354529  0.949943  1
  Tb  Tb2  1  0.352721  0.949943  0.354529  1
  Tb  Tb3  1  0.948629  0.353472  0.353472  1
  Tb  Tb4  1  0.805360  0.189073  0.189073  1
  Tb  Tb5  1  0.186114  0.811966  0.811966  1
  Tb  Tb6  1  0.188505  0.805140  0.190568  1
  Tb  Tb7  1  0.811898  0.187143  0.810911  1
  Tb  Tb8  1  0.188505  0.190568  0.805140  1
  Tb  Tb9  1  0.811898  0.810911  0.187143  1
  Tb  Tb10  1  0.942924  0.558328  0.558328  1
  Nd  Nd11  1  0.560307  0.940854  0.940854  1
  Nd  Nd12  1  0.562901  0.939298  0.560786  1
  Nd  Nd13  1  0.940515  0.561307  0.937711  1
  Nd  Nd14  1  0.562901  0.560786  0.939298  1
  Nd  Nd15  1  0.940515  0.937711  0.561307  1
  Cd  Cd16  1  0.582393  0.579753  0.579753  1
  Cd  Cd17  1  0.578970  0.579528  0.260551  1
  Cd  Cd18  1  0.578970  0.260551  0.579528  1
  Cd  Cd19  1  0.258134  0.579320  0.579320  1
  Ir  Ir20  1  0.140211  0.144423  0.574220  1
  Ir  Ir21  1  0.140211  0.574220  0.144423  1
  Ir  Ir22  1  0.574328  0.141575  0.141575  1
  Pd  Pd23  1  0.143222  0.142856  0.142856  1
