# generated using pymatgen
data_TbDyFe8(MoP3)2
_symmetry_space_group_name_H-M   'P 1'
_cell_length_a   3.71382100
_cell_length_b   10.43060700
_cell_length_c   12.04308800
_cell_angle_alpha   90.00000000
_cell_angle_beta   90.00000000
_cell_angle_gamma   90.00000000
_symmetry_Int_Tables_number   1
_chemical_formula_structural   TbDyFe8(MoP3)2
_chemical_formula_sum   'Tb2 Dy2 Fe16 Mo4 P12'
_cell_volume   466.51800524
_cell_formula_units_Z   2
loop_
 _symmetry_equiv_pos_site_id
 _symmetry_equiv_pos_as_xyz
  1  'x, y, z'
loop_
 _atom_site_type_symbol
 _atom_site_label
 _atom_site_symmetry_multiplicity
 _atom_site_fract_x
 _atom_site_fract_y
 _atom_site_fract_z
 _atom_site_occupancy
  Tb  Tb0  1  0.750000  0.416586  0.291339  1
  Tb  Tb1  1  0.750000  0.083414  0.791339  1
  Dy  Dy2  1  0.250000  0.583065  0.708656  1
  Dy  Dy3  1  0.250000  0.916935  0.208656  1
  Fe  Fe4  1  0.250000  0.410842  0.493205  1
  Fe  Fe5  1  0.250000  0.089158  0.993205  1
  Fe  Fe6  1  0.750000  0.589224  0.507205  1
  Fe  Fe7  1  0.750000  0.910776  0.007205  1
  Fe  Fe8  1  0.250000  0.216910  0.176766  1
  Fe  Fe9  1  0.250000  0.283090  0.676766  1
  Fe  Fe10  1  0.750000  0.782759  0.823161  1
  Fe  Fe11  1  0.750000  0.717241  0.323161  1
  Fe  Fe12  1  0.250000  0.877286  0.700380  1
  Fe  Fe13  1  0.250000  0.622714  0.200380  1
  Fe  Fe14  1  0.750000  0.122274  0.299402  1
  Fe  Fe15  1  0.750000  0.377726  0.799402  1
  Fe  Fe16  1  0.250000  0.463809  0.933346  1
  Fe  Fe17  1  0.250000  0.036191  0.433346  1
  Fe  Fe18  1  0.750000  0.536483  0.066457  1
  Fe  Fe19  1  0.750000  0.963517  0.566457  1
  Mo  Mo20  1  0.250000  0.706612  0.988344  1
  Mo  Mo21  1  0.250000  0.793388  0.488344  1
  Mo  Mo22  1  0.750000  0.293338  0.011765  1
  Mo  Mo23  1  0.750000  0.206662  0.511765  1
  P  P24  1  0.250000  0.425052  0.112791  1
  P  P25  1  0.250000  0.074948  0.612791  1
  P  P26  1  0.750000  0.574907  0.886948  1
  P  P27  1  0.750000  0.925093  0.386948  1
  P  P28  1  0.250000  0.267918  0.865989  1
  P  P29  1  0.250000  0.232082  0.365989  1
  P  P30  1  0.750000  0.732555  0.133902  1
  P  P31  1  0.750000  0.767445  0.633902  1
  P  P32  1  0.250000  0.595713  0.387814  1
  P  P33  1  0.250000  0.904287  0.887814  1
  P  P34  1  0.750000  0.404537  0.612531  1
  P  P35  1  0.750000  0.095463  0.112531  1
