# generated using pymatgen
data_Zr4MnFe(P2Pd)2
_symmetry_space_group_name_H-M   'P 1'
_cell_length_a   3.78316800
_cell_length_b   6.49637002
_cell_length_c   7.42348785
_cell_angle_alpha   88.30962640
_cell_angle_beta   90.00000000
_cell_angle_gamma   90.00000000
_symmetry_Int_Tables_number   1
_chemical_formula_structural   Zr4MnFe(P2Pd)2
_chemical_formula_sum   'Zr4 Mn1 Fe1 P4 Pd2'
_cell_volume   182.36662049
_cell_formula_units_Z   1
loop_
 _symmetry_equiv_pos_site_id
 _symmetry_equiv_pos_as_xyz
  1  'x, y, z'
loop_
 _atom_site_type_symbol
 _atom_site_label
 _atom_site_symmetry_multiplicity
 _atom_site_fract_x
 _atom_site_fract_y
 _atom_site_fract_z
 _atom_site_occupancy
  Zr  Zr0  1  0.250000  0.526754  0.689127  1
  Zr  Zr1  1  0.750000  0.473903  0.310876  1
  Zr  Zr2  1  0.250000  0.021731  0.828121  1
  Zr  Zr3  1  0.750000  0.978010  0.172932  1
  Mn  Mn4  1  0.750000  0.361860  0.943081  1
  Fe  Fe5  1  0.250000  0.637829  0.056049  1
  P  P6  1  0.250000  0.282312  0.097018  1
  P  P7  1  0.750000  0.717163  0.903346  1
  P  P8  1  0.250000  0.750758  0.354493  1
  P  P9  1  0.750000  0.248758  0.644602  1
  Pd  Pd10  1  0.750000  0.850742  0.564327  1
  Pd  Pd11  1  0.250000  0.150179  0.436028  1
