# generated using pymatgen
data_Ac7OsPd2
_symmetry_space_group_name_H-M   'P 1'
_cell_length_a   10.77638729
_cell_length_b   10.77946754
_cell_length_c   6.90005381
_cell_angle_alpha   90.00000214
_cell_angle_beta   90.05789062
_cell_angle_gamma   120.00945448
_symmetry_Int_Tables_number   1
_chemical_formula_structural   Ac7OsPd2
_chemical_formula_sum   'Ac14 Os2 Pd4'
_cell_volume   694.08383684
_cell_formula_units_Z   2
loop_
 _symmetry_equiv_pos_site_id
 _symmetry_equiv_pos_as_xyz
  1  'x, y, z'
loop_
 _atom_site_type_symbol
 _atom_site_label
 _atom_site_symmetry_multiplicity
 _atom_site_fract_x
 _atom_site_fract_y
 _atom_site_fract_z
 _atom_site_occupancy
  Ac  Ac0  1  0.451395  0.533947  0.304795  1
  Ac  Ac1  1  0.090135  0.545068  0.320959  1
  Ac  Ac2  1  0.920153  0.460076  0.807235  1
  Ac  Ac3  1  0.244399  0.122200  0.494882  1
  Ac  Ac4  1  0.531814  0.075835  0.795460  1
  Ac  Ac5  1  0.745463  0.872732  0.997887  1
  Ac  Ac6  1  0.667975  0.333987  0.282148  1
  Ac  Ac7  1  0.126822  0.871787  0.978768  1
  Ac  Ac8  1  0.451395  0.917449  0.304795  1
  Ac  Ac9  1  0.531814  0.455979  0.795460  1
  Ac  Ac10  1  0.884714  0.134370  0.497933  1
  Ac  Ac11  1  0.126822  0.255034  0.978768  1
  Ac  Ac12  1  0.884714  0.750345  0.497933  1
  Ac  Ac13  1  0.330001  0.665001  0.771831  1
  Os  Os14  1  0.194175  0.378111  0.568556  1
  Os  Os15  1  0.194175  0.816064  0.568556  1
  Pd  Pd16  1  0.806952  0.622304  0.054106  1
  Pd  Pd17  1  0.806952  0.184648  0.054106  1
  Pd  Pd18  1  0.629959  0.814980  0.550584  1
  Pd  Pd19  1  0.380167  0.190083  0.059238  1
