# generated using pymatgen
data_TbPr6CoBr12
_symmetry_space_group_name_H-M   'P 1'
_cell_length_a   9.60914119
_cell_length_b   9.60914046
_cell_length_c   9.60914094
_cell_angle_alpha   107.04305321
_cell_angle_beta   107.04304534
_cell_angle_gamma   107.04304203
_symmetry_Int_Tables_number   1
_chemical_formula_structural   TbPr6CoBr12
_chemical_formula_sum   'Tb1 Pr6 Co1 Br12'
_cell_volume   738.05393109
_cell_formula_units_Z   1
loop_
 _symmetry_equiv_pos_site_id
 _symmetry_equiv_pos_as_xyz
  1  'x, y, z'
loop_
 _atom_site_type_symbol
 _atom_site_label
 _atom_site_symmetry_multiplicity
 _atom_site_fract_x
 _atom_site_fract_y
 _atom_site_fract_z
 _atom_site_occupancy
  Tb  Tb0  1  0.500000  0.500000  0.500000  1
  Pr  Pr1  1  0.976885  0.899224  0.692548  1
  Pr  Pr2  1  0.023115  0.100776  0.307452  1
  Pr  Pr3  1  0.100776  0.307452  0.023115  1
  Pr  Pr4  1  0.307452  0.023115  0.100776  1
  Pr  Pr5  1  0.899224  0.692548  0.976885  1
  Pr  Pr6  1  0.692548  0.976885  0.899224  1
  Co  Co7  1  0.000000  0.000000  0.000000  1
  Br  Br8  1  0.536615  0.611441  0.820891  1
  Br  Br9  1  0.463385  0.388559  0.179109  1
  Br  Br10  1  0.316343  0.929340  0.777709  1
  Br  Br11  1  0.388559  0.179109  0.463385  1
  Br  Br12  1  0.929340  0.777709  0.316343  1
  Br  Br13  1  0.683657  0.070660  0.222291  1
  Br  Br14  1  0.070660  0.222291  0.683657  1
  Br  Br15  1  0.777709  0.316343  0.929340  1
  Br  Br16  1  0.222291  0.683657  0.070660  1
  Br  Br17  1  0.820891  0.536615  0.611441  1
  Br  Br18  1  0.179109  0.463385  0.388559  1
  Br  Br19  1  0.611441  0.820891  0.536615  1
