# generated using pymatgen
data_Tb5Dy7In20
_symmetry_space_group_name_H-M   'P 1'
_cell_length_a   6.53839395
_cell_length_b   10.44195234
_cell_length_c   12.30003317
_cell_angle_alpha   89.89259013
_cell_angle_beta   89.96509685
_cell_angle_gamma   89.99696274
_symmetry_Int_Tables_number   1
_chemical_formula_structural   Tb5Dy7In20
_chemical_formula_sum   'Tb5 Dy7 In20'
_cell_volume   839.76588721
_cell_formula_units_Z   1
loop_
 _symmetry_equiv_pos_site_id
 _symmetry_equiv_pos_as_xyz
  1  'x, y, z'
loop_
 _atom_site_type_symbol
 _atom_site_label
 _atom_site_symmetry_multiplicity
 _atom_site_fract_x
 _atom_site_fract_y
 _atom_site_fract_z
 _atom_site_occupancy
  Tb  Tb0  1  0.390354  0.507229  0.358139  1
  Tb  Tb1  1  0.109685  0.507795  0.858090  1
  Tb  Tb2  1  0.390431  0.992674  0.358608  1
  Tb  Tb3  1  0.889976  0.007794  0.141365  1
  Tb  Tb4  1  0.610113  0.492295  0.642506  1
  Dy  Dy5  1  0.350219  0.750840  0.054364  1
  Dy  Dy6  1  0.149686  0.748904  0.554586  1
  Dy  Dy7  1  0.650056  0.251290  0.945530  1
  Dy  Dy8  1  0.851235  0.249273  0.445607  1
  Dy  Dy9  1  0.890752  0.492480  0.141043  1
  Dy  Dy10  1  0.609122  0.007380  0.641062  1
  Dy  Dy11  1  0.108950  0.992105  0.859174  1
  In  In12  1  0.616606  0.750153  0.505533  1
  In  In13  1  0.883671  0.749996  0.005455  1
  In  In14  1  0.384825  0.249550  0.496093  1
  In  In15  1  0.116122  0.249476  0.993977  1
  In  In16  1  0.651559  0.749450  0.243977  1
  In  In17  1  0.848091  0.751427  0.744360  1
  In  In18  1  0.348137  0.248464  0.756190  1
  In  In19  1  0.150961  0.250295  0.255075  1
  In  In20  1  0.123846  0.750364  0.282297  1
  In  In21  1  0.375097  0.751406  0.782716  1
  In  In22  1  0.875057  0.248402  0.717200  1
  In  In23  1  0.624845  0.250905  0.217467  1
  In  In24  1  0.875148  0.543376  0.399952  1
  In  In25  1  0.625304  0.957310  0.899604  1
  In  In26  1  0.124862  0.042592  0.600577  1
  In  In27  1  0.374043  0.456470  0.099058  1
  In  In28  1  0.124950  0.455418  0.599216  1
  In  In29  1  0.375835  0.044368  0.099036  1
  In  In30  1  0.875610  0.955867  0.401074  1
  In  In31  1  0.624860  0.544654  0.901069  1
