# generated using pymatgen
data_Tb10CoHg3
_symmetry_space_group_name_H-M   'P 1'
_cell_length_a   9.63831400
_cell_length_b   9.63831506
_cell_length_c   9.64261500
_cell_angle_alpha   90.00000000
_cell_angle_beta   90.00000000
_cell_angle_gamma   119.99999635
_symmetry_Int_Tables_number   1
_chemical_formula_structural   Tb10CoHg3
_chemical_formula_sum   'Tb20 Co2 Hg6'
_cell_volume   775.76050286
_cell_formula_units_Z   2
loop_
 _symmetry_equiv_pos_site_id
 _symmetry_equiv_pos_as_xyz
  1  'x, y, z'
loop_
 _atom_site_type_symbol
 _atom_site_label
 _atom_site_symmetry_multiplicity
 _atom_site_fract_x
 _atom_site_fract_y
 _atom_site_fract_z
 _atom_site_occupancy
  Tb  Tb0  1  0.000000  0.000000  0.500000  1
  Tb  Tb1  1  0.000000  0.000000  0.000000  1
  Tb  Tb2  1  0.542405  0.457595  0.250000  1
  Tb  Tb3  1  0.542405  0.084811  0.250000  1
  Tb  Tb4  1  0.915189  0.457595  0.250000  1
  Tb  Tb5  1  0.457595  0.542405  0.750000  1
  Tb  Tb6  1  0.457595  0.915189  0.750000  1
  Tb  Tb7  1  0.084811  0.542405  0.750000  1
  Tb  Tb8  1  0.211166  0.788834  0.435326  1
  Tb  Tb9  1  0.211166  0.422335  0.435326  1
  Tb  Tb10  1  0.577665  0.788834  0.435326  1
  Tb  Tb11  1  0.788834  0.211166  0.564674  1
  Tb  Tb12  1  0.788834  0.577665  0.564674  1
  Tb  Tb13  1  0.422335  0.211166  0.564674  1
  Tb  Tb14  1  0.788834  0.211166  0.935326  1
  Tb  Tb15  1  0.788834  0.577665  0.935326  1
  Tb  Tb16  1  0.422335  0.211166  0.935326  1
  Tb  Tb17  1  0.211166  0.788834  0.064674  1
  Tb  Tb18  1  0.211166  0.422335  0.064674  1
  Tb  Tb19  1  0.577665  0.788834  0.064674  1
  Co  Co20  1  0.333333  0.666667  0.250000  1
  Co  Co21  1  0.666667  0.333333  0.750000  1
  Hg  Hg22  1  0.880700  0.119300  0.250000  1
  Hg  Hg23  1  0.880700  0.761400  0.250000  1
  Hg  Hg24  1  0.238600  0.119300  0.250000  1
  Hg  Hg25  1  0.119300  0.880700  0.750000  1
  Hg  Hg26  1  0.119300  0.238600  0.750000  1
  Hg  Hg27  1  0.761400  0.880700  0.750000  1
