# generated using pymatgen
data_Ho2Cr2Ni10As7
_symmetry_space_group_name_H-M   'P 1'
_cell_length_a   3.82574000
_cell_length_b   9.43674157
_cell_length_c   9.46002691
_cell_angle_alpha   119.75557341
_cell_angle_beta   90.00000000
_cell_angle_gamma   90.00000000
_symmetry_Int_Tables_number   1
_chemical_formula_structural   Ho2Cr2Ni10As7
_chemical_formula_sum   'Ho2 Cr2 Ni10 As7'
_cell_volume   296.50015562
_cell_formula_units_Z   1
loop_
 _symmetry_equiv_pos_site_id
 _symmetry_equiv_pos_as_xyz
  1  'x, y, z'
loop_
 _atom_site_type_symbol
 _atom_site_label
 _atom_site_symmetry_multiplicity
 _atom_site_fract_x
 _atom_site_fract_y
 _atom_site_fract_z
 _atom_site_occupancy
  Ho  Ho0  1  0.000000  0.670022  0.337666  1
  Ho  Ho1  1  0.500000  0.332602  0.666334  1
  Cr  Cr2  1  0.500000  0.785006  0.898184  1
  Cr  Cr3  1  0.500000  0.116755  0.214767  1
  Ni  Ni4  1  0.000000  0.564364  0.938361  1
  Ni  Ni5  1  0.000000  0.369299  0.432003  1
  Ni  Ni6  1  0.000000  0.061746  0.626860  1
  Ni  Ni7  1  0.500000  0.103645  0.880372  1
  Ni  Ni8  1  0.000000  0.870310  0.153773  1
  Ni  Ni9  1  0.000000  0.284315  0.128099  1
  Ni  Ni10  1  0.000000  0.846287  0.719385  1
  Ni  Ni11  1  0.500000  0.946354  0.381004  1
  Ni  Ni12  1  0.500000  0.429833  0.049192  1
  Ni  Ni13  1  0.500000  0.619917  0.568090  1
  As  As14  1  0.000000  0.002054  0.000388  1
  As  As15  1  0.500000  0.704483  0.114631  1
  As  As16  1  0.500000  0.411142  0.296384  1
  As  As17  1  0.500000  0.889844  0.597911  1
  As  As18  1  0.000000  0.589061  0.703408  1
  As  As19  1  0.000000  0.111532  0.408015  1
  As  As20  1  0.000000  0.291425  0.885173  1
