# generated using pymatgen
data_Tb3Tm2Si3
_symmetry_space_group_name_H-M   'P 1'
_cell_length_a   8.43566200
_cell_length_b   8.43566199
_cell_length_c   6.30960200
_cell_angle_alpha   90.00000000
_cell_angle_beta   90.00000000
_cell_angle_gamma   120.00000788
_symmetry_Int_Tables_number   1
_chemical_formula_structural   Tb3Tm2Si3
_chemical_formula_sum   'Tb6 Tm4 Si6'
_cell_volume   388.83997124
_cell_formula_units_Z   2
loop_
 _symmetry_equiv_pos_site_id
 _symmetry_equiv_pos_as_xyz
  1  'x, y, z'
loop_
 _atom_site_type_symbol
 _atom_site_label
 _atom_site_symmetry_multiplicity
 _atom_site_fract_x
 _atom_site_fract_y
 _atom_site_fract_z
 _atom_site_occupancy
  Tb  Tb0  1  0.755584  0.755584  0.250000  1
  Tb  Tb1  1  0.244416  0.000000  0.250000  1
  Tb  Tb2  1  0.000000  0.244416  0.250000  1
  Tb  Tb3  1  0.244416  0.244416  0.750000  1
  Tb  Tb4  1  0.755584  0.000000  0.750000  1
  Tb  Tb5  1  0.000000  0.755584  0.750000  1
  Tm  Tm6  1  0.666667  0.333333  0.500000  1
  Tm  Tm7  1  0.333333  0.666667  0.500000  1
  Tm  Tm8  1  0.333333  0.666667  0.000000  1
  Tm  Tm9  1  0.666667  0.333333  0.000000  1
  Si  Si10  1  0.394876  0.394876  0.250000  1
  Si  Si11  1  0.605124  0.000000  0.250000  1
  Si  Si12  1  0.000000  0.605124  0.250000  1
  Si  Si13  1  0.605124  0.605124  0.750000  1
  Si  Si14  1  0.394876  0.000000  0.750000  1
  Si  Si15  1  0.000000  0.394876  0.750000  1
