# generated using pymatgen
data_Th3CoSn3IrRu
_symmetry_space_group_name_H-M   'P 1'
_cell_length_a   7.55606500
_cell_length_b   7.55606541
_cell_length_c   4.05213800
_cell_angle_alpha   90.00000000
_cell_angle_beta   90.00000000
_cell_angle_gamma   119.99999385
_symmetry_Int_Tables_number   1
_chemical_formula_structural   Th3CoSn3IrRu
_chemical_formula_sum   'Th3 Co1 Sn3 Ir1 Ru1'
_cell_volume   200.35781171
_cell_formula_units_Z   1
loop_
 _symmetry_equiv_pos_site_id
 _symmetry_equiv_pos_as_xyz
  1  'x, y, z'
loop_
 _atom_site_type_symbol
 _atom_site_label
 _atom_site_symmetry_multiplicity
 _atom_site_fract_x
 _atom_site_fract_y
 _atom_site_fract_z
 _atom_site_occupancy
  Th  Th0  1  0.002416  0.589789  0.500000  1
  Th  Th1  1  0.410211  0.412626  0.500000  1
  Th  Th2  1  0.587374  0.997584  0.500000  1
  Co  Co3  1  0.000000  0.000000  0.500000  1
  Sn  Sn4  1  0.755051  0.757237  0.000000  1
  Sn  Sn5  1  0.002186  0.244949  0.000000  1
  Sn  Sn6  1  0.242763  0.997814  0.000000  1
  Ir  Ir7  1  0.666667  0.333333  0.000000  1
  Ru  Ru8  1  0.333333  0.666667  0.000000  1
