# generated using pymatgen
data_La3Zn6Au5
_symmetry_space_group_name_H-M   'P 1'
_cell_length_a   4.44281781
_cell_length_b   8.61585792
_cell_length_c   8.61585879
_cell_angle_alpha   68.73242491
_cell_angle_beta   75.05878909
_cell_angle_gamma   75.05879625
_symmetry_Int_Tables_number   1
_chemical_formula_structural   La3Zn6Au5
_chemical_formula_sum   'La3 Zn6 Au5'
_cell_volume   291.96581407
_cell_formula_units_Z   1
loop_
 _symmetry_equiv_pos_site_id
 _symmetry_equiv_pos_as_xyz
  1  'x, y, z'
loop_
 _atom_site_type_symbol
 _atom_site_label
 _atom_site_symmetry_multiplicity
 _atom_site_fract_x
 _atom_site_fract_y
 _atom_site_fract_z
 _atom_site_occupancy
  La  La0  1  0.705168  0.294832  0.294832  1
  La  La1  1  0.294832  0.705168  0.705168  1
  La  La2  1  0.000000  0.000000  0.000000  1
  Zn  Zn3  1  0.500000  0.684121  0.315879  1
  Zn  Zn4  1  0.500000  0.315879  0.684121  1
  Zn  Zn5  1  0.867143  0.423367  0.842347  1
  Zn  Zn6  1  0.132857  0.576633  0.157653  1
  Zn  Zn7  1  0.867143  0.842347  0.423367  1
  Zn  Zn8  1  0.132857  0.157653  0.576633  1
  Au  Au9  1  0.658200  0.694745  0.988857  1
  Au  Au10  1  0.341800  0.305255  0.011143  1
  Au  Au11  1  0.658200  0.988857  0.694745  1
  Au  Au12  1  0.341800  0.011143  0.305255  1
  Au  Au13  1  0.000000  0.500000  0.500000  1
