# generated using pymatgen
data_HoTm7(B6Ir)4
_symmetry_space_group_name_H-M   'P 1'
_cell_length_a   3.60941400
_cell_length_b   9.12337600
_cell_length_c   11.46286901
_cell_angle_alpha   90.00372959
_cell_angle_beta   90.00000000
_cell_angle_gamma   90.00000000
_symmetry_Int_Tables_number   1
_chemical_formula_structural   HoTm7(B6Ir)4
_chemical_formula_sum   'Ho1 Tm7 B24 Ir4'
_cell_volume   377.47274645
_cell_formula_units_Z   1
loop_
 _symmetry_equiv_pos_site_id
 _symmetry_equiv_pos_as_xyz
  1  'x, y, z'
loop_
 _atom_site_type_symbol
 _atom_site_label
 _atom_site_symmetry_multiplicity
 _atom_site_fract_x
 _atom_site_fract_y
 _atom_site_fract_z
 _atom_site_occupancy
  Ho  Ho0  1  0.000000  0.321654  0.412954  1
  Tm  Tm1  1  0.000000  0.678530  0.586974  1
  Tm  Tm2  1  0.000000  0.821401  0.086916  1
  Tm  Tm3  1  0.000000  0.178568  0.913050  1
  Tm  Tm4  1  0.000000  0.944080  0.374573  1
  Tm  Tm5  1  0.000000  0.055727  0.625593  1
  Tm  Tm6  1  0.000000  0.444202  0.125321  1
  Tm  Tm7  1  0.000000  0.555871  0.874633  1
  B  B8  1  0.500000  0.553604  0.434192  1
  B  B9  1  0.500000  0.447081  0.566181  1
  B  B10  1  0.500000  0.053144  0.065659  1
  B  B11  1  0.500000  0.946827  0.934214  1
  B  B12  1  0.500000  0.749839  0.421159  1
  B  B13  1  0.500000  0.250022  0.579404  1
  B  B14  1  0.500000  0.249782  0.078782  1
  B  B15  1  0.500000  0.750212  0.921078  1
  B  B16  1  0.500000  0.793788  0.265001  1
  B  B17  1  0.500000  0.206178  0.735079  1
  B  B18  1  0.500000  0.293579  0.234480  1
  B  B19  1  0.500000  0.706273  0.765124  1
  B  B20  1  0.500000  0.632019  0.183791  1
  B  B21  1  0.500000  0.368094  0.816145  1
  B  B22  1  0.500000  0.131577  0.315854  1
  B  B23  1  0.500000  0.868019  0.683966  1
  B  B24  1  0.500000  0.980972  0.213030  1
  B  B25  1  0.500000  0.018857  0.787004  1
  B  B26  1  0.500000  0.481538  0.286617  1
  B  B27  1  0.500000  0.519044  0.713124  1
  B  B28  1  0.500000  0.609827  0.030013  1
  B  B29  1  0.500000  0.390255  0.969906  1
  B  B30  1  0.500000  0.108940  0.470191  1
  B  B31  1  0.500000  0.890374  0.530032  1
  Ir  Ir32  1  0.000000  0.638884  0.320805  1
  Ir  Ir33  1  0.000000  0.361674  0.679415  1
  Ir  Ir34  1  0.000000  0.137788  0.178542  1
  Ir  Ir35  1  0.000000  0.861777  0.821195  1
