# generated using pymatgen
data_HfSc4(ReTc)12
_symmetry_space_group_name_H-M   'P 1'
_cell_length_a   8.44044416
_cell_length_b   8.44044402
_cell_length_c   8.44044433
_cell_angle_alpha   109.48725706
_cell_angle_beta   109.48725839
_cell_angle_gamma   109.48726343
_symmetry_Int_Tables_number   1
_chemical_formula_structural   HfSc4(ReTc)12
_chemical_formula_sum   'Hf1 Sc4 Re12 Tc12'
_cell_volume   462.61088771
_cell_formula_units_Z   1
loop_
 _symmetry_equiv_pos_site_id
 _symmetry_equiv_pos_as_xyz
  1  'x, y, z'
loop_
 _atom_site_type_symbol
 _atom_site_label
 _atom_site_symmetry_multiplicity
 _atom_site_fract_x
 _atom_site_fract_y
 _atom_site_fract_z
 _atom_site_occupancy
  Hf  Hf0  1  0.372013  0.372013  0.372013  1
  Sc  Sc1  1  0.998515  0.998515  0.998515  1
  Sc  Sc2  1  0.628229  0.000160  0.000160  1
  Sc  Sc3  1  0.000160  0.628229  0.000160  1
  Sc  Sc4  1  0.000160  0.000160  0.628229  1
  Re  Re5  1  0.377056  0.192922  0.999634  1
  Re  Re6  1  0.185255  0.809151  0.809151  1
  Re  Re7  1  0.377056  0.999634  0.192922  1
  Re  Re8  1  0.192922  0.377056  0.999634  1
  Re  Re9  1  0.999634  0.377056  0.192922  1
  Re  Re10  1  0.809151  0.185255  0.809151  1
  Re  Re11  1  0.809151  0.809151  0.185255  1
  Re  Re12  1  0.999634  0.192922  0.377056  1
  Re  Re13  1  0.192922  0.999634  0.377056  1
  Re  Re14  1  0.623492  0.623492  0.816070  1
  Re  Re15  1  0.816070  0.623492  0.623492  1
  Re  Re16  1  0.623492  0.816070  0.623492  1
  Tc  Tc17  1  0.397216  0.675585  0.998909  1
  Tc  Tc18  1  0.721727  0.323875  0.323875  1
  Tc  Tc19  1  0.397216  0.998909  0.675585  1
  Tc  Tc20  1  0.675585  0.397216  0.998909  1
  Tc  Tc21  1  0.998909  0.397216  0.675585  1
  Tc  Tc22  1  0.323875  0.721727  0.323875  1
  Tc  Tc23  1  0.323875  0.323875  0.721727  1
  Tc  Tc24  1  0.998909  0.675585  0.397216  1
  Tc  Tc25  1  0.675585  0.998909  0.397216  1
  Tc  Tc26  1  0.602093  0.602093  0.278004  1
  Tc  Tc27  1  0.278004  0.602093  0.602093  1
  Tc  Tc28  1  0.602093  0.278004  0.602093  1
