# generated using pymatgen
data_Yb4AlCr(SbO6)2
_symmetry_space_group_name_H-M   'P 1'
_cell_length_a   5.37724018
_cell_length_b   5.51208678
_cell_length_c   7.67182213
_cell_angle_alpha   90.06103177
_cell_angle_beta   90.24786943
_cell_angle_gamma   90.00925680
_symmetry_Int_Tables_number   1
_chemical_formula_structural   Yb4AlCr(SbO6)2
_chemical_formula_sum   'Yb4 Al1 Cr1 Sb2 O12'
_cell_volume   227.38912464
_cell_formula_units_Z   1
loop_
 _symmetry_equiv_pos_site_id
 _symmetry_equiv_pos_as_xyz
  1  'x, y, z'
loop_
 _atom_site_type_symbol
 _atom_site_label
 _atom_site_symmetry_multiplicity
 _atom_site_fract_x
 _atom_site_fract_y
 _atom_site_fract_z
 _atom_site_occupancy
  Yb  Yb0  1  0.514871  0.552649  0.246725  1
  Yb  Yb1  1  0.987433  0.051453  0.248307  1
  Yb  Yb2  1  0.485129  0.447351  0.753275  1
  Yb  Yb3  1  0.012567  0.948547  0.751693  1
  Al  Al4  1  0.500000  0.000000  0.000000  1
  Cr  Cr5  1  0.000000  0.500000  0.500000  1
  Sb  Sb6  1  0.000000  0.500000  0.000000  1
  Sb  Sb7  1  0.500000  0.000000  0.500000  1
  O  O8  1  0.410732  0.973573  0.244938  1
  O  O9  1  0.095732  0.470532  0.248832  1
  O  O10  1  0.589268  0.026427  0.755062  1
  O  O11  1  0.904268  0.529468  0.751168  1
  O  O12  1  0.789145  0.794864  0.047299  1
  O  O13  1  0.696767  0.297657  0.450392  1
  O  O14  1  0.199378  0.199191  0.549512  1
  O  O15  1  0.297166  0.712503  0.953460  1
  O  O16  1  0.210855  0.205136  0.952701  1
  O  O17  1  0.303233  0.702343  0.549608  1
  O  O18  1  0.800622  0.800809  0.450488  1
  O  O19  1  0.702834  0.287497  0.046540  1
