# generated using pymatgen
data_Mn2Al2FeB2
_symmetry_space_group_name_H-M   'P 1'
_cell_length_a   8.45654606
_cell_length_b   8.45654557
_cell_length_c   2.87085400
_cell_angle_alpha   90.00000000
_cell_angle_beta   90.00000000
_cell_angle_gamma   160.37704261
_symmetry_Int_Tables_number   1
_chemical_formula_structural   Mn2Al2FeB2
_chemical_formula_sum   'Mn2 Al2 Fe1 B2'
_cell_volume   68.94699239
_cell_formula_units_Z   1
loop_
 _symmetry_equiv_pos_site_id
 _symmetry_equiv_pos_as_xyz
  1  'x, y, z'
loop_
 _atom_site_type_symbol
 _atom_site_label
 _atom_site_symmetry_multiplicity
 _atom_site_fract_x
 _atom_site_fract_y
 _atom_site_fract_z
 _atom_site_occupancy
  Mn  Mn0  1  0.681607  0.318396  0.500001  1
  Mn  Mn1  1  0.318396  0.681607  0.500001  1
  Al  Al2  1  0.918176  0.081827  0.000000  1
  Al  Al3  1  0.081827  0.918176  0.000000  1
  Fe  Fe4  1  0.500001  0.500001  0.500001  1
  B  B5  1  0.779763  0.220240  0.000000  1
  B  B6  1  0.220240  0.779763  0.000000  1
