# generated using pymatgen
data_Y2Er7ScCd3Os
_symmetry_space_group_name_H-M   'P 1'
_cell_length_a   9.46182713
_cell_length_b   9.45689146
_cell_length_c   9.76282000
_cell_angle_alpha   90.00000000
_cell_angle_beta   90.00000000
_cell_angle_gamma   119.98274615
_symmetry_Int_Tables_number   1
_chemical_formula_structural   Y2Er7ScCd3Os
_chemical_formula_sum   'Y4 Er14 Sc2 Cd6 Os2'
_cell_volume   756.66702579
_cell_formula_units_Z   2
loop_
 _symmetry_equiv_pos_site_id
 _symmetry_equiv_pos_as_xyz
  1  'x, y, z'
loop_
 _atom_site_type_symbol
 _atom_site_label
 _atom_site_symmetry_multiplicity
 _atom_site_fract_x
 _atom_site_fract_y
 _atom_site_fract_z
 _atom_site_occupancy
  Y  Y0  1  0.920351  0.460175  0.250000  1
  Y  Y1  1  0.460719  0.538892  0.750000  1
  Y  Y2  1  0.460719  0.921827  0.750000  1
  Y  Y3  1  0.077739  0.538870  0.750000  1
  Er  Er4  1  0.209181  0.792107  0.441082  1
  Er  Er5  1  0.209181  0.417073  0.441082  1
  Er  Er6  1  0.583127  0.791564  0.440929  1
  Er  Er7  1  0.790858  0.208162  0.558145  1
  Er  Er8  1  0.790858  0.582695  0.558145  1
  Er  Er9  1  0.417739  0.208869  0.557732  1
  Er  Er10  1  0.790858  0.208162  0.941855  1
  Er  Er11  1  0.790858  0.582695  0.941855  1
  Er  Er12  1  0.417739  0.208869  0.942268  1
  Er  Er13  1  0.209181  0.792107  0.058918  1
  Er  Er14  1  0.209181  0.417073  0.058918  1
  Er  Er15  1  0.583127  0.791564  0.059071  1
  Er  Er16  1  0.538760  0.460903  0.250000  1
  Er  Er17  1  0.538760  0.077857  0.250000  1
  Sc  Sc18  1  0.000222  0.000111  0.500106  1
  Sc  Sc19  1  0.000222  0.000111  0.999894  1
  Cd  Cd20  1  0.888869  0.109818  0.250000  1
  Cd  Cd21  1  0.888869  0.779053  0.250000  1
  Cd  Cd22  1  0.221706  0.110855  0.250000  1
  Cd  Cd23  1  0.110435  0.889909  0.750000  1
  Cd  Cd24  1  0.110435  0.220524  0.750000  1
  Cd  Cd25  1  0.779463  0.889730  0.750000  1
  Os  Os26  1  0.334066  0.667033  0.250000  1
  Os  Os27  1  0.666780  0.333389  0.750000  1
