# generated using pymatgen
data_Cs2DyTi6CBr18
_symmetry_space_group_name_H-M   'P 1'
_cell_length_a   10.89957411
_cell_length_b   10.89957425
_cell_length_c   10.89957364
_cell_angle_alpha   55.47277976
_cell_angle_beta   55.47276997
_cell_angle_gamma   55.47277311
_symmetry_Int_Tables_number   1
_chemical_formula_structural   Cs2DyTi6CBr18
_chemical_formula_sum   'Cs2 Dy1 Ti6 C1 Br18'
_cell_volume   819.36101393
_cell_formula_units_Z   1
loop_
 _symmetry_equiv_pos_site_id
 _symmetry_equiv_pos_as_xyz
  1  'x, y, z'
loop_
 _atom_site_type_symbol
 _atom_site_label
 _atom_site_symmetry_multiplicity
 _atom_site_fract_x
 _atom_site_fract_y
 _atom_site_fract_z
 _atom_site_occupancy
  Cs  Cs0  1  0.775161  0.775161  0.775161  1
  Cs  Cs1  1  0.224839  0.224839  0.224839  1
  Dy  Dy2  1  0.500000  0.500000  0.500000  1
  Ti  Ti3  1  0.145426  0.911557  0.809612  1
  Ti  Ti4  1  0.854574  0.088443  0.190388  1
  Ti  Ti5  1  0.088443  0.190388  0.854574  1
  Ti  Ti6  1  0.190388  0.854574  0.088443  1
  Ti  Ti7  1  0.911557  0.809612  0.145426  1
  Ti  Ti8  1  0.809612  0.145426  0.911557  1
  C  C9  1  0.000000  0.000000  0.000000  1
  Br  Br10  1  0.202349  0.461824  0.658107  1
  Br  Br11  1  0.797651  0.538176  0.341893  1
  Br  Br12  1  0.330225  0.054555  0.932861  1
  Br  Br13  1  0.669775  0.945445  0.067139  1
  Br  Br14  1  0.932861  0.330225  0.054555  1
  Br  Br15  1  0.721928  0.880586  0.395568  1
  Br  Br16  1  0.341893  0.797651  0.538176  1
  Br  Br17  1  0.604432  0.278072  0.119414  1
  Br  Br18  1  0.278072  0.119414  0.604432  1
  Br  Br19  1  0.119414  0.604432  0.278072  1
  Br  Br20  1  0.945445  0.067139  0.669775  1
  Br  Br21  1  0.395568  0.721928  0.880586  1
  Br  Br22  1  0.880586  0.395568  0.721928  1
  Br  Br23  1  0.067139  0.669775  0.945445  1
  Br  Br24  1  0.461824  0.658107  0.202349  1
  Br  Br25  1  0.658107  0.202349  0.461824  1
  Br  Br26  1  0.538176  0.341893  0.797651  1
  Br  Br27  1  0.054555  0.932861  0.330225  1
