# generated using pymatgen
data_Y4Tm4VOs3C8
_symmetry_space_group_name_H-M   'P 1'
_cell_length_a   5.06090500
_cell_length_b   6.52898310
_cell_length_c   9.72283216
_cell_angle_alpha   89.86291619
_cell_angle_beta   90.00000000
_cell_angle_gamma   90.00000000
_symmetry_Int_Tables_number   1
_chemical_formula_structural   Y4Tm4VOs3C8
_chemical_formula_sum   'Y4 Tm4 V1 Os3 C8'
_cell_volume   321.26637688
_cell_formula_units_Z   1
loop_
 _symmetry_equiv_pos_site_id
 _symmetry_equiv_pos_as_xyz
  1  'x, y, z'
loop_
 _atom_site_type_symbol
 _atom_site_label
 _atom_site_symmetry_multiplicity
 _atom_site_fract_x
 _atom_site_fract_y
 _atom_site_fract_z
 _atom_site_occupancy
  Y  Y0  1  0.250000  0.534625  0.210134  1
  Y  Y1  1  0.750000  0.465420  0.782916  1
  Y  Y2  1  0.750000  0.971499  0.713735  1
  Y  Y3  1  0.250000  0.031755  0.286253  1
  Tm  Tm4  1  0.250000  0.678901  0.559199  1
  Tm  Tm5  1  0.750000  0.325856  0.443336  1
  Tm  Tm6  1  0.750000  0.824172  0.056082  1
  Tm  Tm7  1  0.250000  0.170736  0.941422  1
  V  V8  1  0.250000  0.723244  0.866494  1
  Os  Os9  1  0.750000  0.277348  0.134321  1
  Os  Os10  1  0.750000  0.776873  0.365192  1
  Os  Os11  1  0.250000  0.225615  0.634308  1
  C  C12  1  0.250000  0.457518  0.763135  1
  C  C13  1  0.750000  0.543671  0.241454  1
  C  C14  1  0.750000  0.044002  0.260273  1
  C  C15  1  0.250000  0.954576  0.740145  1
  C  C16  1  0.250000  0.824725  0.050439  1
  C  C17  1  0.750000  0.169735  0.950801  1
  C  C18  1  0.750000  0.671640  0.551288  1
  C  C19  1  0.250000  0.328090  0.449074  1
