# generated using pymatgen
data_Ce2Zn3Rh2Au
_symmetry_space_group_name_H-M   'P 1'
_cell_length_a   5.09687909
_cell_length_b   5.09687898
_cell_length_c   8.09551742
_cell_angle_alpha   90.62149234
_cell_angle_beta   89.37850663
_cell_angle_gamma   132.73212005
_symmetry_Int_Tables_number   1
_chemical_formula_structural   Ce2Zn3Rh2Au
_chemical_formula_sum   'Ce2 Zn3 Rh2 Au1'
_cell_volume   154.46671237
_cell_formula_units_Z   1
loop_
 _symmetry_equiv_pos_site_id
 _symmetry_equiv_pos_as_xyz
  1  'x, y, z'
loop_
 _atom_site_type_symbol
 _atom_site_label
 _atom_site_symmetry_multiplicity
 _atom_site_fract_x
 _atom_site_fract_y
 _atom_site_fract_z
 _atom_site_occupancy
  Ce  Ce0  1  0.063086  0.936914  0.253201  1
  Ce  Ce1  1  0.934723  0.065277  0.750180  1
  Zn  Zn2  1  0.351363  0.648637  0.039333  1
  Zn  Zn3  1  0.643750  0.356250  0.958352  1
  Zn  Zn4  1  0.654705  0.345295  0.541499  1
  Rh  Rh5  1  0.787148  0.212852  0.235019  1
  Rh  Rh6  1  0.196853  0.803147  0.758398  1
  Au  Au7  1  0.368371  0.631629  0.464019  1
