# generated using pymatgen
data_TbSmYP4Pd7
_symmetry_space_group_name_H-M   'P 1'
_cell_length_a   7.97791761
_cell_length_b   7.97791720
_cell_length_c   9.48400513
_cell_angle_alpha   55.80321550
_cell_angle_beta   55.80321627
_cell_angle_gamma   29.19266741
_symmetry_Int_Tables_number   1
_chemical_formula_structural   TbSmYP4Pd7
_chemical_formula_sum   'Tb1 Sm1 Y1 P4 Pd7'
_cell_volume   239.67483474
_cell_formula_units_Z   1
loop_
 _symmetry_equiv_pos_site_id
 _symmetry_equiv_pos_as_xyz
  1  'x, y, z'
loop_
 _atom_site_type_symbol
 _atom_site_label
 _atom_site_symmetry_multiplicity
 _atom_site_fract_x
 _atom_site_fract_y
 _atom_site_fract_z
 _atom_site_occupancy
  Tb  Tb0  1  0.320361  0.320361  0.676095  1
  Sm  Sm1  1  0.999964  0.999964  0.000036  1
  Y  Y2  1  0.679829  0.679829  0.323588  1
  P  P3  1  0.339340  0.339340  0.255967  1
  P  P4  1  0.660497  0.660497  0.744206  1
  P  P5  1  0.893693  0.893693  0.818735  1
  P  P6  1  0.106332  0.106332  0.181354  1
  Pd  Pd7  1  0.304631  0.304631  0.030492  1
  Pd  Pd8  1  0.695342  0.695342  0.969704  1
  Pd  Pd9  1  0.509438  0.509438  0.714695  1
  Pd  Pd10  1  0.830879  0.830879  0.422988  1
  Pd  Pd11  1  0.490545  0.490545  0.285361  1
  Pd  Pd12  1  0.169045  0.169045  0.576874  1
  Pd  Pd13  1  0.000104  0.000104  0.499904  1
