# generated using pymatgen
data_Ca6Tl2HN
_symmetry_space_group_name_H-M   'P 1'
_cell_length_a   6.97229114
_cell_length_b   6.97229143
_cell_length_c   6.97229000
_cell_angle_alpha   59.99999730
_cell_angle_beta   59.99999591
_cell_angle_gamma   59.99999866
_symmetry_Int_Tables_number   1
_chemical_formula_structural   Ca6Tl2HN
_chemical_formula_sum   'Ca6 Tl2 H1 N1'
_cell_volume   239.66877889
_cell_formula_units_Z   1
loop_
 _symmetry_equiv_pos_site_id
 _symmetry_equiv_pos_as_xyz
  1  'x, y, z'
loop_
 _atom_site_type_symbol
 _atom_site_label
 _atom_site_symmetry_multiplicity
 _atom_site_fract_x
 _atom_site_fract_y
 _atom_site_fract_z
 _atom_site_occupancy
  Ca  Ca0  1  0.259158  0.740842  0.740842  1
  Ca  Ca1  1  0.259158  0.740842  0.259158  1
  Ca  Ca2  1  0.740842  0.259158  0.740842  1
  Ca  Ca3  1  0.740842  0.740842  0.259158  1
  Ca  Ca4  1  0.259158  0.259158  0.740842  1
  Ca  Ca5  1  0.740842  0.259158  0.259158  1
  Tl  Tl6  1  0.250000  0.250000  0.250000  1
  Tl  Tl7  1  0.750000  0.750000  0.750000  1
  H  H8  1  0.000000  0.000000  0.000000  1
  N  N9  1  0.500000  0.500000  0.500000  1
