# generated using pymatgen
data_Ho2ErIn3HgRh2
_symmetry_space_group_name_H-M   'P 1'
_cell_length_a   7.84246400
_cell_length_b   7.84054788
_cell_length_c   3.77517900
_cell_angle_alpha   90.00000000
_cell_angle_beta   90.00000000
_cell_angle_gamma   120.01004131
_symmetry_Int_Tables_number   1
_chemical_formula_structural   Ho2ErIn3HgRh2
_chemical_formula_sum   'Ho2 Er1 In3 Hg1 Rh2'
_cell_volume   201.01255017
_cell_formula_units_Z   1
loop_
 _symmetry_equiv_pos_site_id
 _symmetry_equiv_pos_as_xyz
  1  'x, y, z'
loop_
 _atom_site_type_symbol
 _atom_site_label
 _atom_site_symmetry_multiplicity
 _atom_site_fract_x
 _atom_site_fract_y
 _atom_site_fract_z
 _atom_site_occupancy
  Ho  Ho0  1  0.029217  0.614267  0.500000  1
  Ho  Ho1  1  0.385822  0.414999  0.500000  1
  Er  Er2  1  0.585002  0.970463  0.500000  1
  In  In3  1  0.257535  0.998709  0.000000  1
  In  In4  1  0.741218  0.742825  0.000000  1
  In  In5  1  0.001219  0.258603  0.000000  1
  Hg  Hg6  1  0.666563  0.333060  0.000000  1
  Rh  Rh7  1  0.333609  0.667059  0.000000  1
  Rh  Rh8  1  0.999816  0.000015  0.500000  1
