# generated using pymatgen
data_K3Nb16O23
_symmetry_space_group_name_H-M   'P 1'
_cell_length_a   12.34588200
_cell_length_b   12.34588172
_cell_length_c   4.21703000
_cell_angle_alpha   90.00000000
_cell_angle_beta   90.00000000
_cell_angle_gamma   118.44531209
_symmetry_Int_Tables_number   1
_chemical_formula_structural   K3Nb16O23
_chemical_formula_sum   'K3 Nb16 O23'
_cell_volume   565.16367859
_cell_formula_units_Z   1
loop_
 _symmetry_equiv_pos_site_id
 _symmetry_equiv_pos_as_xyz
  1  'x, y, z'
loop_
 _atom_site_type_symbol
 _atom_site_label
 _atom_site_symmetry_multiplicity
 _atom_site_fract_x
 _atom_site_fract_y
 _atom_site_fract_z
 _atom_site_occupancy
  K  K0  1  0.200982  0.799018  0.000000  1
  K  K1  1  0.799018  0.200982  0.000000  1
  K  K2  1  0.000000  0.000000  0.000000  1
  Nb  Nb3  1  0.467847  0.863157  0.500000  1
  Nb  Nb4  1  0.532153  0.136843  0.500000  1
  Nb  Nb5  1  0.863157  0.467847  0.500000  1
  Nb  Nb6  1  0.136843  0.532153  0.500000  1
  Nb  Nb7  1  0.737064  0.939839  0.500000  1
  Nb  Nb8  1  0.262936  0.060161  0.500000  1
  Nb  Nb9  1  0.939839  0.737064  0.500000  1
  Nb  Nb10  1  0.060161  0.262936  0.500000  1
  Nb  Nb11  1  0.600186  0.399814  0.500000  1
  Nb  Nb12  1  0.399814  0.600186  0.500000  1
  Nb  Nb13  1  0.569400  0.773279  0.000000  1
  Nb  Nb14  1  0.430600  0.226721  0.000000  1
  Nb  Nb15  1  0.773279  0.569400  0.000000  1
  Nb  Nb16  1  0.226721  0.430600  0.000000  1
  Nb  Nb17  1  0.672006  0.672006  0.500000  1
  Nb  Nb18  1  0.327994  0.327994  0.500000  1
  O  O19  1  0.102331  0.897669  0.500000  1
  O  O20  1  0.897669  0.102331  0.500000  1
  O  O21  1  0.698848  0.301152  0.500000  1
  O  O22  1  0.301152  0.698848  0.500000  1
  O  O23  1  0.537802  0.140253  0.000000  1
  O  O24  1  0.462198  0.859747  0.000000  1
  O  O25  1  0.140253  0.537802  0.000000  1
  O  O26  1  0.859747  0.462198  0.000000  1
  O  O27  1  0.632362  0.030147  0.500000  1
  O  O28  1  0.367638  0.969853  0.500000  1
  O  O29  1  0.030147  0.632362  0.500000  1
  O  O30  1  0.969853  0.367638  0.500000  1
  O  O31  1  0.737115  0.935594  0.000000  1
  O  O32  1  0.262885  0.064406  0.000000  1
  O  O33  1  0.935594  0.737115  0.000000  1
  O  O34  1  0.064406  0.262885  0.000000  1
  O  O35  1  0.836386  0.836386  0.500000  1
  O  O36  1  0.163614  0.163614  0.500000  1
  O  O37  1  0.596700  0.403300  0.000000  1
  O  O38  1  0.500000  0.500000  0.500000  1
  O  O39  1  0.333312  0.333312  0.000000  1
  O  O40  1  0.666688  0.666688  0.000000  1
  O  O41  1  0.403300  0.596700  0.000000  1
