# generated using pymatgen
data_Hf5Sc3V11Si16Mo
_symmetry_space_group_name_H-M   'P 1'
_cell_length_a   6.62704024
_cell_length_b   6.62786648
_cell_length_c   12.25611600
_cell_angle_alpha   90.00678607
_cell_angle_beta   90.01548455
_cell_angle_gamma   89.92014724
_symmetry_Int_Tables_number   1
_chemical_formula_structural   Hf5Sc3V11Si16Mo
_chemical_formula_sum   'Hf5 Sc3 V11 Si16 Mo1'
_cell_volume   538.32652699
_cell_formula_units_Z   1
loop_
 _symmetry_equiv_pos_site_id
 _symmetry_equiv_pos_as_xyz
  1  'x, y, z'
loop_
 _atom_site_type_symbol
 _atom_site_label
 _atom_site_symmetry_multiplicity
 _atom_site_fract_x
 _atom_site_fract_y
 _atom_site_fract_z
 _atom_site_occupancy
  Hf  Hf0  1  0.002901  0.661261  0.029845  1
  Hf  Hf1  1  0.836086  0.503168  0.280541  1
  Hf  Hf2  1  0.162060  0.496482  0.779683  1
  Hf  Hf3  1  0.502824  0.836531  0.719184  1
  Hf  Hf4  1  0.496486  0.162564  0.220167  1
  Sc  Sc5  1  0.998169  0.337918  0.529424  1
  Sc  Sc6  1  0.662539  0.001047  0.970544  1
  Sc  Sc7  1  0.337904  0.998290  0.470815  1
  V  V8  1  0.167384  0.833841  0.249639  1
  V  V9  1  0.834194  0.167355  0.749826  1
  V  V10  1  0.667234  0.666944  0.500139  1
  V  V11  1  0.003069  0.158550  0.127515  1
  V  V12  1  0.342541  0.505340  0.375719  1
  V  V13  1  0.660639  0.497349  0.875197  1
  V  V14  1  0.505436  0.342811  0.624252  1
  V  V15  1  0.496848  0.660610  0.124760  1
  V  V16  1  0.995098  0.840658  0.627686  1
  V  V17  1  0.157249  0.002350  0.872247  1
  V  V18  1  0.840444  0.994499  0.372657  1
  Si  Si19  1  0.291277  0.959186  0.064174  1
  Si  Si20  1  0.537816  0.793681  0.315795  1
  Si  Si21  1  0.463523  0.205130  0.813609  1
  Si  Si22  1  0.793985  0.538030  0.684285  1
  Si  Si23  1  0.206519  0.462654  0.187457  1
  Si  Si24  1  0.708840  0.039609  0.563869  1
  Si  Si25  1  0.956989  0.288662  0.934844  1
  Si  Si26  1  0.039568  0.708678  0.436178  1
  Si  Si27  1  0.705740  0.372516  0.071708  1
  Si  Si28  1  0.127860  0.203594  0.321330  1
  Si  Si29  1  0.871816  0.794597  0.821063  1
  Si  Si30  1  0.204240  0.128535  0.678794  1
  Si  Si31  1  0.794163  0.873213  0.179615  1
  Si  Si32  1  0.295663  0.628066  0.570403  1
  Si  Si33  1  0.373940  0.707023  0.927629  1
  Si  Si34  1  0.628105  0.295625  0.429531  1
  Mo  Mo35  1  0.330853  0.333636  0.999875  1
