# generated using pymatgen
data_Tb2Th(GaNi)3
_symmetry_space_group_name_H-M   'P 1'
_cell_length_a   7.11496300
_cell_length_b   7.06835685
_cell_length_c   3.83198800
_cell_angle_alpha   90.00000000
_cell_angle_beta   90.00000000
_cell_angle_gamma   120.21836105
_symmetry_Int_Tables_number   1
_chemical_formula_structural   Tb2Th(GaNi)3
_chemical_formula_sum   'Tb2 Th1 Ga3 Ni3'
_cell_volume   166.52754269
_cell_formula_units_Z   1
loop_
 _symmetry_equiv_pos_site_id
 _symmetry_equiv_pos_as_xyz
  1  'x, y, z'
loop_
 _atom_site_type_symbol
 _atom_site_label
 _atom_site_symmetry_multiplicity
 _atom_site_fract_x
 _atom_site_fract_y
 _atom_site_fract_z
 _atom_site_occupancy
  Tb  Tb0  1  0.998630  0.413020  0.500000  1
  Tb  Tb1  1  0.585610  0.586980  0.500000  1
  Th  Th2  1  0.417685  0.000000  0.500000  1
  Ga  Ga3  1  0.989146  0.747543  0.000000  1
  Ga  Ga4  1  0.241603  0.252457  0.000000  1
  Ga  Ga5  1  0.768714  0.000000  0.000000  1
  Ni  Ni6  1  0.333704  0.676878  0.000000  1
  Ni  Ni7  1  0.656827  0.323122  0.000000  1
  Ni  Ni8  1  0.008081  0.000000  0.500000  1
