# generated using pymatgen
data_DyEr2Al7Pd2
_symmetry_space_group_name_H-M   'P 1'
_cell_length_a   9.18231908
_cell_length_b   9.18231978
_cell_length_c   9.18231900
_cell_angle_alpha   34.90903772
_cell_angle_beta   34.90903152
_cell_angle_gamma   34.90903743
_symmetry_Int_Tables_number   1
_chemical_formula_structural   DyEr2Al7Pd2
_chemical_formula_sum   'Dy1 Er2 Al7 Pd2'
_cell_volume   226.35653392
_cell_formula_units_Z   1
loop_
 _symmetry_equiv_pos_site_id
 _symmetry_equiv_pos_as_xyz
  1  'x, y, z'
loop_
 _atom_site_type_symbol
 _atom_site_label
 _atom_site_symmetry_multiplicity
 _atom_site_fract_x
 _atom_site_fract_y
 _atom_site_fract_z
 _atom_site_occupancy
  Dy  Dy0  1  0.000000  0.000000  0.000000  1
  Er  Er1  1  0.143023  0.143023  0.143023  1
  Er  Er2  1  0.856977  0.856977  0.856977  1
  Al  Al3  1  0.583063  0.583063  0.074016  1
  Al  Al4  1  0.925985  0.416936  0.416938  1
  Al  Al5  1  0.416936  0.925985  0.416938  1
  Al  Al6  1  0.500000  0.500000  0.500000  1
  Al  Al7  1  0.583064  0.074015  0.583062  1
  Al  Al8  1  0.074015  0.583064  0.583062  1
  Al  Al9  1  0.416937  0.416937  0.925984  1
  Pd  Pd10  1  0.335330  0.335330  0.335330  1
  Pd  Pd11  1  0.664671  0.664671  0.664671  1
