# generated using pymatgen
data_Yb3(PrSn2)2
_symmetry_space_group_name_H-M   'P 1'
_cell_length_a   7.97195800
_cell_length_b   8.49625300
_cell_length_c   16.14617800
_cell_angle_alpha   90.00000000
_cell_angle_beta   90.00000000
_cell_angle_gamma   90.00000000
_symmetry_Int_Tables_number   1
_chemical_formula_structural   Yb3(PrSn2)2
_chemical_formula_sum   'Yb12 Pr8 Sn16'
_cell_volume   1093.60924815
_cell_formula_units_Z   4
loop_
 _symmetry_equiv_pos_site_id
 _symmetry_equiv_pos_as_xyz
  1  'x, y, z'
loop_
 _atom_site_type_symbol
 _atom_site_label
 _atom_site_symmetry_multiplicity
 _atom_site_fract_x
 _atom_site_fract_y
 _atom_site_fract_z
 _atom_site_occupancy
  Yb  Yb0  1  0.334559  0.826293  0.876424  1
  Yb  Yb1  1  0.834559  0.673707  0.623576  1
  Yb  Yb2  1  0.665441  0.173707  0.376424  1
  Yb  Yb3  1  0.165441  0.326293  0.123576  1
  Yb  Yb4  1  0.665441  0.173707  0.123576  1
  Yb  Yb5  1  0.165441  0.326293  0.376424  1
  Yb  Yb6  1  0.334559  0.826293  0.623576  1
  Yb  Yb7  1  0.834559  0.673707  0.876424  1
  Yb  Yb8  1  0.162698  0.503746  0.750000  1
  Yb  Yb9  1  0.662698  0.996254  0.750000  1
  Yb  Yb10  1  0.837302  0.496254  0.250000  1
  Yb  Yb11  1  0.337302  0.003746  0.250000  1
  Pr  Pr12  1  0.494244  0.315093  0.904070  1
  Pr  Pr13  1  0.994244  0.184907  0.595930  1
  Pr  Pr14  1  0.505756  0.684907  0.404070  1
  Pr  Pr15  1  0.005756  0.815093  0.095930  1
  Pr  Pr16  1  0.505756  0.684907  0.095930  1
  Pr  Pr17  1  0.005756  0.815093  0.404070  1
  Pr  Pr18  1  0.494244  0.315093  0.595930  1
  Pr  Pr19  1  0.994244  0.184907  0.904070  1
  Sn  Sn20  1  0.330278  0.034937  0.038628  1
  Sn  Sn21  1  0.830278  0.465063  0.461372  1
  Sn  Sn22  1  0.669722  0.965063  0.538628  1
  Sn  Sn23  1  0.169722  0.534937  0.961372  1
  Sn  Sn24  1  0.669722  0.965063  0.961372  1
  Sn  Sn25  1  0.169722  0.534937  0.538628  1
  Sn  Sn26  1  0.330278  0.034937  0.461372  1
  Sn  Sn27  1  0.830278  0.465063  0.038628  1
  Sn  Sn28  1  0.535843  0.601700  0.750000  1
  Sn  Sn29  1  0.035843  0.898300  0.750000  1
  Sn  Sn30  1  0.464157  0.398300  0.250000  1
  Sn  Sn31  1  0.964157  0.101700  0.250000  1
  Sn  Sn32  1  0.290344  0.141493  0.750000  1
  Sn  Sn33  1  0.790344  0.358507  0.750000  1
  Sn  Sn34  1  0.709656  0.858507  0.250000  1
  Sn  Sn35  1  0.209656  0.641493  0.250000  1
