# generated using pymatgen
data_Tm3Al12Os3Pt
_symmetry_space_group_name_H-M   'P 1'
_cell_length_a   8.79812000
_cell_length_b   8.82921308
_cell_length_c   9.55297952
_cell_angle_alpha   89.82935619
_cell_angle_beta   90.00000000
_cell_angle_gamma   119.88357417
_symmetry_Int_Tables_number   1
_chemical_formula_structural   Tm3Al12Os3Pt
_chemical_formula_sum   'Tm6 Al24 Os6 Pt2'
_cell_volume   643.40896546
_cell_formula_units_Z   2
loop_
 _symmetry_equiv_pos_site_id
 _symmetry_equiv_pos_as_xyz
  1  'x, y, z'
loop_
 _atom_site_type_symbol
 _atom_site_label
 _atom_site_symmetry_multiplicity
 _atom_site_fract_x
 _atom_site_fract_y
 _atom_site_fract_z
 _atom_site_occupancy
  Tm  Tm0  1  0.193661  0.387324  0.252966  1
  Tm  Tm1  1  0.806339  0.612676  0.747034  1
  Tm  Tm2  1  0.610677  0.808869  0.253187  1
  Tm  Tm3  1  0.389323  0.191131  0.746813  1
  Tm  Tm4  1  0.198191  0.808869  0.253187  1
  Tm  Tm5  1  0.801809  0.191131  0.746813  1
  Al  Al6  1  0.335344  0.670689  0.028381  1
  Al  Al7  1  0.664656  0.329311  0.971619  1
  Al  Al8  1  0.666877  0.333754  0.523265  1
  Al  Al9  1  0.333123  0.666246  0.476735  1
  Al  Al10  1  0.163010  0.326018  0.576099  1
  Al  Al11  1  0.836990  0.673982  0.423901  1
  Al  Al12  1  0.672995  0.835762  0.576046  1
  Al  Al13  1  0.838091  0.676181  0.079122  1
  Al  Al14  1  0.327005  0.164238  0.423954  1
  Al  Al15  1  0.161909  0.323819  0.920878  1
  Al  Al16  1  0.162767  0.835762  0.576046  1
  Al  Al17  1  0.325771  0.158851  0.077643  1
  Al  Al18  1  0.837233  0.164238  0.423954  1
  Al  Al19  1  0.674229  0.841149  0.922357  1
  Al  Al20  1  0.833080  0.158851  0.077643  1
  Al  Al21  1  0.166920  0.841149  0.922357  1
  Al  Al22  1  0.562019  0.124038  0.248694  1
  Al  Al23  1  0.437981  0.875962  0.751306  1
  Al  Al24  1  0.875196  0.438095  0.251467  1
  Al  Al25  1  0.124804  0.561905  0.748533  1
  Al  Al26  1  0.562899  0.438095  0.251467  1
  Al  Al27  1  0.437101  0.561905  0.748533  1
  Al  Al28  1  0.000994  0.001987  0.250370  1
  Al  Al29  1  0.999006  0.998013  0.749630  1
  Os  Os30  1  0.500000  0.000000  0.000000  1
  Os  Os31  1  0.500000  0.000000  0.500000  1
  Os  Os32  1  0.000000  0.500000  0.500000  1
  Os  Os33  1  0.500000  0.500000  0.500000  1
  Os  Os34  1  0.000000  0.000000  0.000000  1
  Os  Os35  1  0.000000  0.000000  0.500000  1
  Pt  Pt36  1  0.000000  0.500000  0.000000  1
  Pt  Pt37  1  0.500000  0.500000  0.000000  1
