# generated using pymatgen
data_CaErInS4
_symmetry_space_group_name_H-M   'P 1'
_cell_length_a   13.82767900
_cell_length_b   8.08842000
_cell_length_c   6.57431200
_cell_angle_alpha   90.00000000
_cell_angle_beta   90.00000000
_cell_angle_gamma   90.00000000
_symmetry_Int_Tables_number   1
_chemical_formula_structural   CaErInS4
_chemical_formula_sum   'Ca4 Er4 In4 S16'
_cell_volume   735.29784688
_cell_formula_units_Z   4
loop_
 _symmetry_equiv_pos_site_id
 _symmetry_equiv_pos_as_xyz
  1  'x, y, z'
loop_
 _atom_site_type_symbol
 _atom_site_label
 _atom_site_symmetry_multiplicity
 _atom_site_fract_x
 _atom_site_fract_y
 _atom_site_fract_z
 _atom_site_occupancy
  Ca  Ca0  1  0.731007  0.750000  0.008285  1
  Ca  Ca1  1  0.231007  0.750000  0.491714  1
  Ca  Ca2  1  0.768994  0.250000  0.508286  1
  Ca  Ca3  1  0.268993  0.250000  0.991715  1
  Er  Er4  1  0.000000  0.000000  0.000000  1
  Er  Er5  1  0.000000  0.499999  0.000000  1
  Er  Er6  1  0.500000  0.000000  0.500001  1
  Er  Er7  1  0.500000  0.499999  0.500001  1
  In  In8  1  0.592980  0.250000  0.085924  1
  In  In9  1  0.092980  0.250000  0.414075  1
  In  In10  1  0.907021  0.750000  0.585925  1
  In  In11  1  0.407020  0.750000  0.914074  1
  S  S12  1  0.913871  0.750000  0.213547  1
  S  S13  1  0.164185  0.009496  0.233764  1
  S  S14  1  0.164185  0.490504  0.233764  1
  S  S15  1  0.929481  0.250000  0.236784  1
  S  S16  1  0.429481  0.250000  0.263217  1
  S  S17  1  0.664185  0.009496  0.266237  1
  S  S18  1  0.664185  0.490504  0.266237  1
  S  S19  1  0.413872  0.750000  0.286453  1
  S  S20  1  0.586129  0.250000  0.713548  1
  S  S21  1  0.335814  0.509497  0.733764  1
  S  S22  1  0.335814  0.990503  0.733764  1
  S  S23  1  0.570520  0.750000  0.736785  1
  S  S24  1  0.070520  0.750000  0.763217  1
  S  S25  1  0.835815  0.509497  0.766236  1
  S  S26  1  0.835815  0.990503  0.766236  1
  S  S27  1  0.086129  0.250000  0.786453  1
