# generated using pymatgen
data_Ho2TmCdIn4
_symmetry_space_group_name_H-M   'P 1'
_cell_length_a   6.33603213
_cell_length_b   6.33603172
_cell_length_c   10.42652400
_cell_angle_alpha   90.00000000
_cell_angle_beta   90.00000000
_cell_angle_gamma   102.62903889
_symmetry_Int_Tables_number   1
_chemical_formula_structural   Ho2TmCdIn4
_chemical_formula_sum   'Ho4 Tm2 Cd2 In8'
_cell_volume   408.44894532
_cell_formula_units_Z   2
loop_
 _symmetry_equiv_pos_site_id
 _symmetry_equiv_pos_as_xyz
  1  'x, y, z'
loop_
 _atom_site_type_symbol
 _atom_site_label
 _atom_site_symmetry_multiplicity
 _atom_site_fract_x
 _atom_site_fract_y
 _atom_site_fract_z
 _atom_site_occupancy
  Ho  Ho0  1  0.204316  0.795684  0.500000  1
  Ho  Ho1  1  0.204316  0.795684  0.000000  1
  Ho  Ho2  1  0.795684  0.204316  0.500000  1
  Ho  Ho3  1  0.795684  0.204316  0.000000  1
  Tm  Tm4  1  0.617967  0.617967  0.250000  1
  Tm  Tm5  1  0.382033  0.382033  0.750000  1
  Cd  Cd6  1  0.008296  0.008296  0.250000  1
  Cd  Cd7  1  0.991704  0.991704  0.750000  1
  In  In8  1  0.306992  0.306992  0.042671  1
  In  In9  1  0.693008  0.693008  0.957329  1
  In  In10  1  0.306992  0.306992  0.457329  1
  In  In11  1  0.693008  0.693008  0.542671  1
  In  In12  1  0.512097  0.072105  0.250000  1
  In  In13  1  0.927895  0.487903  0.750000  1
  In  In14  1  0.487903  0.927895  0.750000  1
  In  In15  1  0.072105  0.512097  0.250000  1
