# generated using pymatgen
data_Tb12Y4CdHg3Pt4
_symmetry_space_group_name_H-M   'P 1'
_cell_length_a   9.69385887
_cell_length_b   9.70779805
_cell_length_c   9.70779819
_cell_angle_alpha   59.98333723
_cell_angle_beta   59.96179026
_cell_angle_gamma   59.96179415
_symmetry_Int_Tables_number   1
_chemical_formula_structural   Tb12Y4CdHg3Pt4
_chemical_formula_sum   'Tb12 Y4 Cd1 Hg3 Pt4'
_cell_volume   645.53152967
_cell_formula_units_Z   1
loop_
 _symmetry_equiv_pos_site_id
 _symmetry_equiv_pos_as_xyz
  1  'x, y, z'
loop_
 _atom_site_type_symbol
 _atom_site_label
 _atom_site_symmetry_multiplicity
 _atom_site_fract_x
 _atom_site_fract_y
 _atom_site_fract_z
 _atom_site_occupancy
  Tb  Tb0  1  0.354169  0.353321  0.353321  1
  Tb  Tb1  1  0.354159  0.353308  0.939227  1
  Tb  Tb2  1  0.354159  0.939227  0.353308  1
  Tb  Tb3  1  0.936732  0.354429  0.354429  1
  Tb  Tb4  1  0.809701  0.190243  0.190243  1
  Tb  Tb5  1  0.189013  0.810478  0.810478  1
  Tb  Tb6  1  0.188998  0.810493  0.190008  1
  Tb  Tb7  1  0.809700  0.190249  0.809815  1
  Tb  Tb8  1  0.188998  0.190008  0.810493  1
  Tb  Tb9  1  0.809700  0.809815  0.190249  1
  Tb  Tb10  1  0.934729  0.564306  0.564306  1
  Tb  Tb11  1  0.563408  0.936243  0.936243  1
  Y  Y12  1  0.563455  0.936225  0.564056  1
  Y  Y13  1  0.934835  0.564289  0.936561  1
  Y  Y14  1  0.563455  0.564056  0.936225  1
  Y  Y15  1  0.934835  0.936561  0.564289  1
  Cd  Cd16  1  0.255635  0.581558  0.581558  1
  Hg  Hg17  1  0.584890  0.587287  0.587287  1
  Hg  Hg18  1  0.585098  0.587030  0.240606  1
  Hg  Hg19  1  0.585098  0.240606  0.587030  1
  Pt  Pt20  1  0.143469  0.144257  0.144257  1
  Pt  Pt21  1  0.143715  0.144023  0.568019  1
  Pt  Pt22  1  0.143715  0.568019  0.144023  1
  Pt  Pt23  1  0.568335  0.143968  0.143968  1
