# generated using pymatgen
data_Y3Cd3Ga2Cu
_symmetry_space_group_name_H-M   'P 1'
_cell_length_a   7.25923100
_cell_length_b   7.25923035
_cell_length_c   4.32307400
_cell_angle_alpha   90.00000000
_cell_angle_beta   90.00000000
_cell_angle_gamma   119.99999839
_symmetry_Int_Tables_number   1
_chemical_formula_structural   Y3Cd3Ga2Cu
_chemical_formula_sum   'Y3 Cd3 Ga2 Cu1'
_cell_volume   197.28974104
_cell_formula_units_Z   1
loop_
 _symmetry_equiv_pos_site_id
 _symmetry_equiv_pos_as_xyz
  1  'x, y, z'
loop_
 _atom_site_type_symbol
 _atom_site_label
 _atom_site_symmetry_multiplicity
 _atom_site_fract_x
 _atom_site_fract_y
 _atom_site_fract_z
 _atom_site_occupancy
  Y  Y0  1  0.410274  0.410274  0.500000  1
  Y  Y1  1  0.589726  0.000000  0.500000  1
  Y  Y2  1  0.000000  0.589726  0.500000  1
  Cd  Cd3  1  0.757088  0.757088  0.000000  1
  Cd  Cd4  1  0.242912  0.000000  0.000000  1
  Cd  Cd5  1  0.000000  0.242912  0.000000  1
  Ga  Ga6  1  0.666667  0.333333  0.000000  1
  Ga  Ga7  1  0.333333  0.666667  0.000000  1
  Cu  Cu8  1  0.000000  0.000000  0.500000  1
