# generated using pymatgen
data_Dy2ErMg3Si2Ag
_symmetry_space_group_name_H-M   'P 1'
_cell_length_a   7.25043587
_cell_length_b   7.26160080
_cell_length_c   4.31845600
_cell_angle_alpha   90.00000000
_cell_angle_beta   90.00000000
_cell_angle_gamma   120.05095096
_symmetry_Int_Tables_number   1
_chemical_formula_structural   Dy2ErMg3Si2Ag
_chemical_formula_sum   'Dy2 Er1 Mg3 Si2 Ag1'
_cell_volume   196.80331702
_cell_formula_units_Z   1
loop_
 _symmetry_equiv_pos_site_id
 _symmetry_equiv_pos_as_xyz
  1  'x, y, z'
loop_
 _atom_site_type_symbol
 _atom_site_label
 _atom_site_symmetry_multiplicity
 _atom_site_fract_x
 _atom_site_fract_y
 _atom_site_fract_z
 _atom_site_occupancy
  Dy  Dy0  1  0.422089  0.422472  0.500000  1
  Dy  Dy1  1  0.577911  0.000383  0.500000  1
  Er  Er2  1  0.000000  0.577580  0.500000  1
  Mg  Mg3  1  0.751763  0.751467  0.000000  1
  Mg  Mg4  1  0.248237  0.999704  0.000000  1
  Mg  Mg5  1  0.000000  0.248875  0.000000  1
  Si  Si6  1  0.667504  0.333917  0.000000  1
  Si  Si7  1  0.332496  0.666415  0.000000  1
  Ag  Ag8  1  0.000000  0.999186  0.500000  1
