# generated using pymatgen
data_Ti4Ga2Rh9Au
_symmetry_space_group_name_H-M   'P 1'
_cell_length_a   4.02687500
_cell_length_b   5.41952439
_cell_length_c   10.72994062
_cell_angle_alpha   90.94947664
_cell_angle_beta   90.00000000
_cell_angle_gamma   90.00000000
_symmetry_Int_Tables_number   1
_chemical_formula_structural   Ti4Ga2Rh9Au
_chemical_formula_sum   'Ti4 Ga2 Rh9 Au1'
_cell_volume   234.13536020
_cell_formula_units_Z   1
loop_
 _symmetry_equiv_pos_site_id
 _symmetry_equiv_pos_as_xyz
  1  'x, y, z'
loop_
 _atom_site_type_symbol
 _atom_site_label
 _atom_site_symmetry_multiplicity
 _atom_site_fract_x
 _atom_site_fract_y
 _atom_site_fract_z
 _atom_site_occupancy
  Ti  Ti0  1  0.500000  0.343438  0.132152  1
  Ti  Ti1  1  0.500000  0.684660  0.858579  1
  Ti  Ti2  1  0.500000  0.798624  0.369897  1
  Ti  Ti3  1  0.500000  0.179915  0.640400  1
  Ga  Ga4  1  0.000000  0.002816  0.994302  1
  Ga  Ga5  1  0.000000  0.491422  0.501880  1
  Rh  Rh6  1  0.000000  0.990104  0.501406  1
  Rh  Rh7  1  0.000000  0.505355  0.000361  1
  Rh  Rh8  1  0.000000  0.933604  0.753082  1
  Rh  Rh9  1  0.000000  0.567351  0.255576  1
  Rh  Rh10  1  0.000000  0.433311  0.746040  1
  Rh  Rh11  1  0.500000  0.298068  0.388786  1
  Rh  Rh12  1  0.500000  0.693123  0.613450  1
  Rh  Rh13  1  0.500000  0.810477  0.110262  1
  Rh  Rh14  1  0.500000  0.200753  0.887965  1
  Au  Au15  1  0.000000  0.066978  0.245862  1
