# generated using pymatgen
data_Nd12Si4SnHg
_symmetry_space_group_name_H-M   'P 1'
_cell_length_a   8.81499741
_cell_length_b   8.81543680
_cell_length_c   8.81499698
_cell_angle_alpha   112.53851790
_cell_angle_beta   110.00858028
_cell_angle_gamma   105.93232994
_symmetry_Int_Tables_number   1
_chemical_formula_structural   Nd12Si4SnHg
_chemical_formula_sum   'Nd12 Si4 Sn1 Hg1'
_cell_volume   525.55311076
_cell_formula_units_Z   1
loop_
 _symmetry_equiv_pos_site_id
 _symmetry_equiv_pos_as_xyz
  1  'x, y, z'
loop_
 _atom_site_type_symbol
 _atom_site_label
 _atom_site_symmetry_multiplicity
 _atom_site_fract_x
 _atom_site_fract_y
 _atom_site_fract_z
 _atom_site_occupancy
  Nd  Nd0  1  0.443132  0.238013  0.205158  1
  Nd  Nd1  1  0.556868  0.761987  0.794842  1
  Nd  Nd2  1  0.032855  0.238013  0.794879  1
  Nd  Nd3  1  0.967145  0.761987  0.205121  1
  Nd  Nd4  1  0.185185  0.276604  0.461796  1
  Nd  Nd5  1  0.814815  0.723396  0.538204  1
  Nd  Nd6  1  0.185191  0.723396  0.908581  1
  Nd  Nd7  1  0.814809  0.276604  0.091419  1
  Nd  Nd8  1  0.320555  0.614516  0.293960  1
  Nd  Nd9  1  0.679445  0.385484  0.706040  1
  Nd  Nd10  1  0.320495  0.026526  0.706030  1
  Nd  Nd11  1  0.679505  0.973474  0.293970  1
  Si  Si12  1  0.372911  0.000000  0.372911  1
  Si  Si13  1  0.627089  0.000000  0.627089  1
  Si  Si14  1  0.112091  0.612087  0.499997  1
  Si  Si15  1  0.887909  0.387913  0.500003  1
  Sn  Sn16  1  0.500000  0.500000  0.000000  1
  Hg  Hg17  1  0.000000  0.000000  0.000000  1
