# generated using pymatgen
data_Dy5Cr2O12
_symmetry_space_group_name_H-M   'P 1'
_cell_length_a   6.76890042
_cell_length_b   6.76890073
_cell_length_c   7.26400009
_cell_angle_alpha   74.36767806
_cell_angle_beta   74.36768874
_cell_angle_gamma   50.99392276
_symmetry_Int_Tables_number   1
_chemical_formula_structural   Dy5Cr2O12
_chemical_formula_sum   'Dy5 Cr2 O12'
_cell_volume   246.83501760
_cell_formula_units_Z   1
loop_
 _symmetry_equiv_pos_site_id
 _symmetry_equiv_pos_as_xyz
  1  'x, y, z'
loop_
 _atom_site_type_symbol
 _atom_site_label
 _atom_site_symmetry_multiplicity
 _atom_site_fract_x
 _atom_site_fract_y
 _atom_site_fract_z
 _atom_site_occupancy
  Dy  Dy0  1  0.305480  0.305480  0.358053  1
  Dy  Dy1  1  0.694520  0.694520  0.641947  1
  Dy  Dy2  1  0.309661  0.309661  0.830687  1
  Dy  Dy3  1  0.690339  0.690339  0.169313  1
  Dy  Dy4  1  0.000000  0.000000  0.500000  1
  Cr  Cr5  1  0.756992  0.243008  0.000000  1
  Cr  Cr6  1  0.243008  0.756992  0.000000  1
  O  O7  1  0.898585  0.421648  0.920019  1
  O  O8  1  0.421648  0.898585  0.920019  1
  O  O9  1  0.101415  0.578352  0.079981  1
  O  O10  1  0.578352  0.101415  0.079981  1
  O  O11  1  0.096585  0.597008  0.575639  1
  O  O12  1  0.597008  0.096585  0.575639  1
  O  O13  1  0.903415  0.402992  0.424361  1
  O  O14  1  0.402992  0.903415  0.424361  1
  O  O15  1  0.000417  0.000417  0.822670  1
  O  O16  1  0.999583  0.999583  0.177330  1
  O  O17  1  0.499911  0.499911  0.818025  1
  O  O18  1  0.500089  0.500089  0.181975  1
