# generated using pymatgen
data_Pr3TaMnC6
_symmetry_space_group_name_H-M   'P 1'
_cell_length_a   8.44215800
_cell_length_b   8.44215675
_cell_length_c   5.33493800
_cell_angle_alpha   90.00000000
_cell_angle_beta   90.00000000
_cell_angle_gamma   119.99998923
_symmetry_Int_Tables_number   1
_chemical_formula_structural   Pr3TaMnC6
_chemical_formula_sum   'Pr6 Ta2 Mn2 C12'
_cell_volume   329.28120547
_cell_formula_units_Z   2
loop_
 _symmetry_equiv_pos_site_id
 _symmetry_equiv_pos_as_xyz
  1  'x, y, z'
loop_
 _atom_site_type_symbol
 _atom_site_label
 _atom_site_symmetry_multiplicity
 _atom_site_fract_x
 _atom_site_fract_y
 _atom_site_fract_z
 _atom_site_occupancy
  Pr  Pr0  1  0.610156  0.676878  0.750000  1
  Pr  Pr1  1  0.933277  0.610156  0.250000  1
  Pr  Pr2  1  0.676878  0.066723  0.250000  1
  Pr  Pr3  1  0.323122  0.933277  0.750000  1
  Pr  Pr4  1  0.066723  0.389844  0.750000  1
  Pr  Pr5  1  0.389844  0.323122  0.250000  1
  Ta  Ta6  1  0.000000  0.000000  0.500000  1
  Ta  Ta7  1  0.000000  0.000000  0.000000  1
  Mn  Mn8  1  0.666667  0.333333  0.750000  1
  Mn  Mn9  1  0.333333  0.666667  0.250000  1
  C  C10  1  0.951639  0.758535  0.750000  1
  C  C11  1  0.193103  0.951639  0.250000  1
  C  C12  1  0.758535  0.806897  0.250000  1
  C  C13  1  0.241465  0.193103  0.750000  1
  C  C14  1  0.806897  0.048361  0.750000  1
  C  C15  1  0.048361  0.241465  0.250000  1
  C  C16  1  0.855062  0.569660  0.750000  1
  C  C17  1  0.285400  0.855062  0.250000  1
  C  C18  1  0.569660  0.714600  0.250000  1
  C  C19  1  0.430340  0.285400  0.750000  1
  C  C20  1  0.144938  0.430340  0.250000  1
  C  C21  1  0.714600  0.144938  0.750000  1
