# generated using pymatgen
data_Tb9Tm(SiBi)4
_symmetry_space_group_name_H-M   'P 1'
_cell_length_a   8.67809247
_cell_length_b   8.67809323
_cell_length_c   7.93786503
_cell_angle_alpha   90.03737224
_cell_angle_beta   90.03736221
_cell_angle_gamma   125.64096329
_symmetry_Int_Tables_number   1
_chemical_formula_structural   Tb9Tm(SiBi)4
_chemical_formula_sum   'Tb9 Tm1 Si4 Bi4'
_cell_volume   485.81817499
_cell_formula_units_Z   1
loop_
 _symmetry_equiv_pos_site_id
 _symmetry_equiv_pos_as_xyz
  1  'x, y, z'
loop_
 _atom_site_type_symbol
 _atom_site_label
 _atom_site_symmetry_multiplicity
 _atom_site_fract_x
 _atom_site_fract_y
 _atom_site_fract_z
 _atom_site_occupancy
  Tb  Tb0  1  0.044380  0.289202  0.333219  1
  Tb  Tb1  1  0.955620  0.710798  0.666781  1
  Tb  Tb2  1  0.455799  0.209909  0.833329  1
  Tb  Tb3  1  0.790091  0.544201  0.166671  1
  Tb  Tb4  1  0.544201  0.790091  0.166671  1
  Tb  Tb5  1  0.209909  0.455799  0.833329  1
  Tb  Tb6  1  0.710798  0.955620  0.666781  1
  Tb  Tb7  1  0.289202  0.044380  0.333219  1
  Tb  Tb8  1  0.500000  0.500000  0.500000  1
  Tm  Tm9  1  0.000000  0.000000  0.000000  1
  Si  Si10  1  0.367134  0.367134  0.129285  1
  Si  Si11  1  0.632866  0.632866  0.870715  1
  Si  Si12  1  0.131020  0.131020  0.632308  1
  Si  Si13  1  0.868980  0.868980  0.367692  1
  Bi  Bi14  1  0.793397  0.206603  0.000000  1
  Bi  Bi15  1  0.206603  0.793397  0.000000  1
  Bi  Bi16  1  0.708158  0.291842  0.500000  1
  Bi  Bi17  1  0.291842  0.708158  0.500000  1
