# generated using pymatgen
data_Pa(PS3)2
_symmetry_space_group_name_H-M   'P 1'
_cell_length_a   7.17274700
_cell_length_b   7.17274700
_cell_length_c   9.74931200
_cell_angle_alpha   90.00000000
_cell_angle_beta   90.00000000
_cell_angle_gamma   90.00000000
_symmetry_Int_Tables_number   1
_chemical_formula_structural   Pa(PS3)2
_chemical_formula_sum   'Pa2 P4 S12'
_cell_volume   501.58552395
_cell_formula_units_Z   2
loop_
 _symmetry_equiv_pos_site_id
 _symmetry_equiv_pos_as_xyz
  1  'x, y, z'
loop_
 _atom_site_type_symbol
 _atom_site_label
 _atom_site_symmetry_multiplicity
 _atom_site_fract_x
 _atom_site_fract_y
 _atom_site_fract_z
 _atom_site_occupancy
  Pa  Pa0  1  0.000000  0.000000  0.750000  1
  Pa  Pa1  1  0.000000  0.000000  0.250000  1
  P  P2  1  0.654844  0.056302  0.000000  1
  P  P3  1  0.345156  0.943698  0.000000  1
  P  P4  1  0.056302  0.345156  0.500000  1
  P  P5  1  0.943698  0.654844  0.500000  1
  S  S6  1  0.204204  0.310041  0.675785  1
  S  S7  1  0.689959  0.204204  0.175785  1
  S  S8  1  0.170332  0.171531  0.000000  1
  S  S9  1  0.828469  0.170332  0.500000  1
  S  S10  1  0.171531  0.829668  0.500000  1
  S  S11  1  0.829668  0.828469  0.000000  1
  S  S12  1  0.204204  0.310041  0.324215  1
  S  S13  1  0.689959  0.204204  0.824215  1
  S  S14  1  0.310041  0.795796  0.824215  1
  S  S15  1  0.795796  0.689959  0.324215  1
  S  S16  1  0.795796  0.689959  0.675785  1
  S  S17  1  0.310041  0.795796  0.175785  1
