# generated using pymatgen
data_Pr8Tm12Ga13Ge3
_symmetry_space_group_name_H-M   'P 1'
_cell_length_a   7.86032748
_cell_length_b   7.88890267
_cell_length_c   14.53491800
_cell_angle_alpha   89.86018307
_cell_angle_beta   89.90642075
_cell_angle_gamma   90.01208939
_symmetry_Int_Tables_number   1
_chemical_formula_structural   Pr8Tm12Ga13Ge3
_chemical_formula_sum   'Pr8 Tm12 Ga13 Ge3'
_cell_volume   901.29703426
_cell_formula_units_Z   1
loop_
 _symmetry_equiv_pos_site_id
 _symmetry_equiv_pos_as_xyz
  1  'x, y, z'
loop_
 _atom_site_type_symbol
 _atom_site_label
 _atom_site_symmetry_multiplicity
 _atom_site_fract_x
 _atom_site_fract_y
 _atom_site_fract_z
 _atom_site_occupancy
  Pr  Pr0  1  0.643150  0.994004  0.460069  1
  Pr  Pr1  1  0.355736  0.007740  0.960116  1
  Pr  Pr2  1  0.990779  0.640358  0.540708  1
  Pr  Pr3  1  0.489887  0.856191  0.210052  1
  Pr  Pr4  1  0.508436  0.143716  0.709619  1
  Pr  Pr5  1  0.859510  0.491361  0.789932  1
  Pr  Pr6  1  0.141789  0.509033  0.289836  1
  Pr  Pr7  1  0.008354  0.360016  0.039477  1
  Tm  Tm8  1  0.492134  0.357775  0.121933  1
  Tm  Tm9  1  0.992896  0.143986  0.627260  1
  Tm  Tm10  1  0.857851  0.008623  0.873230  1
  Tm  Tm11  1  0.142651  0.994096  0.373915  1
  Tm  Tm12  1  0.508991  0.641604  0.623250  1
  Tm  Tm13  1  0.355588  0.492518  0.876775  1
  Tm  Tm14  1  0.644861  0.505421  0.377068  1
  Tm  Tm15  1  0.006868  0.855449  0.126921  1
  Tm  Tm16  1  0.320642  0.318196  0.499497  1
  Tm  Tm17  1  0.182576  0.820690  0.749931  1
  Tm  Tm18  1  0.818014  0.180465  0.248807  1
  Tm  Tm19  1  0.679507  0.682040  0.000356  1
  Ga  Ga20  1  0.288101  0.939082  0.563225  1
  Ga  Ga21  1  0.712742  0.060114  0.062323  1
  Ga  Ga22  1  0.939487  0.285812  0.437490  1
  Ga  Ga23  1  0.438776  0.213031  0.312316  1
  Ga  Ga24  1  0.559955  0.787414  0.813034  1
  Ga  Ga25  1  0.214948  0.438525  0.686964  1
  Ga  Ga26  1  0.785918  0.560297  0.187071  1
  Ga  Ga27  1  0.060845  0.714246  0.936834  1
  Ga  Ga28  1  0.796190  0.853105  0.688105  1
  Ga  Ga29  1  0.203326  0.148667  0.186774  1
  Ga  Ga30  1  0.850128  0.795947  0.313816  1
  Ga  Ga31  1  0.352331  0.703497  0.437735  1
  Ga  Ga32  1  0.645691  0.295297  0.936596  1
  Ge  Ge33  1  0.703488  0.350130  0.563423  1
  Ge  Ge34  1  0.297501  0.649353  0.062889  1
  Ge  Ge35  1  0.150353  0.202201  0.812654  1
