# generated using pymatgen
data_Lu3Tl2
_symmetry_space_group_name_H-M   'P 1'
_cell_length_a   11.38090681
_cell_length_b   11.38090639
_cell_length_c   11.38090700
_cell_angle_alpha   116.90016330
_cell_angle_beta   116.90016222
_cell_angle_gamma   95.45854416
_symmetry_Int_Tables_number   1
_chemical_formula_structural   Lu3Tl2
_chemical_formula_sum   'Lu24 Tl16'
_cell_volume   1085.85956927
_cell_formula_units_Z   8
loop_
 _symmetry_equiv_pos_site_id
 _symmetry_equiv_pos_as_xyz
  1  'x, y, z'
loop_
 _atom_site_type_symbol
 _atom_site_label
 _atom_site_symmetry_multiplicity
 _atom_site_fract_x
 _atom_site_fract_y
 _atom_site_fract_z
 _atom_site_occupancy
  Lu  Lu0  1  0.146270  0.646270  0.500000  1
  Lu  Lu1  1  0.646270  0.146270  0.500000  1
  Lu  Lu2  1  0.853730  0.353730  0.500000  1
  Lu  Lu3  1  0.353730  0.853730  0.500000  1
  Lu  Lu4  1  0.669217  0.169217  0.838433  1
  Lu  Lu5  1  0.330783  0.830783  0.161567  1
  Lu  Lu6  1  0.169217  0.330783  0.500000  1
  Lu  Lu7  1  0.830783  0.669217  0.500000  1
  Lu  Lu8  1  0.068548  0.930954  0.271770  1
  Lu  Lu9  1  0.659183  0.796777  0.728230  1
  Lu  Lu10  1  0.568548  0.296777  0.137594  1
  Lu  Lu11  1  0.159183  0.430954  0.862406  1
  Lu  Lu12  1  0.796777  0.068548  0.137594  1
  Lu  Lu13  1  0.930954  0.659183  0.862406  1
  Lu  Lu14  1  0.430954  0.568548  0.271770  1
  Lu  Lu15  1  0.296777  0.159183  0.728230  1
  Lu  Lu16  1  0.931452  0.069046  0.728230  1
  Lu  Lu17  1  0.340817  0.203223  0.271770  1
  Lu  Lu18  1  0.431452  0.703223  0.862406  1
  Lu  Lu19  1  0.840817  0.569046  0.137594  1
  Lu  Lu20  1  0.203223  0.931452  0.862406  1
  Lu  Lu21  1  0.069046  0.340817  0.137594  1
  Lu  Lu22  1  0.569046  0.431452  0.728230  1
  Lu  Lu23  1  0.703223  0.840817  0.271770  1
  Tl  Tl24  1  0.750000  0.750000  0.000000  1
  Tl  Tl25  1  0.250000  0.250000  0.000000  1
  Tl  Tl26  1  0.000000  0.000000  0.000000  1
  Tl  Tl27  1  0.500000  0.500000  0.000000  1
  Tl  Tl28  1  0.118913  0.618913  0.737825  1
  Tl  Tl29  1  0.881087  0.381087  0.262175  1
  Tl  Tl30  1  0.618913  0.881087  0.500000  1
  Tl  Tl31  1  0.381087  0.118913  0.500000  1
  Tl  Tl32  1  0.870823  0.370823  0.845149  1
  Tl  Tl33  1  0.525674  0.025674  0.154851  1
  Tl  Tl34  1  0.370823  0.525674  0.500000  1
  Tl  Tl35  1  0.025674  0.870823  0.500000  1
  Tl  Tl36  1  0.129177  0.629177  0.154851  1
  Tl  Tl37  1  0.474326  0.974326  0.845149  1
  Tl  Tl38  1  0.629177  0.474326  0.500000  1
  Tl  Tl39  1  0.974326  0.129177  0.500000  1
