# generated using pymatgen
data_La16Tb3HoPb16
_symmetry_space_group_name_H-M   'P 1'
_cell_length_a   8.57951700
_cell_length_b   8.67503706
_cell_length_c   16.53563900
_cell_angle_alpha   90.00000000
_cell_angle_beta   90.00000000
_cell_angle_gamma   90.00661788
_symmetry_Int_Tables_number   1
_chemical_formula_structural   La16Tb3HoPb16
_chemical_formula_sum   'La16 Tb3 Ho1 Pb16'
_cell_volume   1230.70837860
_cell_formula_units_Z   1
loop_
 _symmetry_equiv_pos_site_id
 _symmetry_equiv_pos_as_xyz
  1  'x, y, z'
loop_
 _atom_site_type_symbol
 _atom_site_label
 _atom_site_symmetry_multiplicity
 _atom_site_fract_x
 _atom_site_fract_y
 _atom_site_fract_z
 _atom_site_occupancy
  La  La0  1  0.376749  0.843852  0.881726  1
  La  La1  1  0.877483  0.655603  0.618249  1
  La  La2  1  0.622994  0.155878  0.381996  1
  La  La3  1  0.122820  0.344336  0.117879  1
  La  La4  1  0.622994  0.155878  0.118004  1
  La  La5  1  0.122820  0.344336  0.382121  1
  La  La6  1  0.376749  0.843852  0.618274  1
  La  La7  1  0.877483  0.655603  0.881751  1
  La  La8  1  0.533498  0.321905  0.899428  1
  La  La9  1  0.033739  0.178258  0.600564  1
  La  La10  1  0.466407  0.678347  0.399749  1
  La  La11  1  0.966318  0.821964  0.100370  1
  La  La12  1  0.466407  0.678347  0.100251  1
  La  La13  1  0.966318  0.821964  0.399630  1
  La  La14  1  0.533498  0.321905  0.600572  1
  La  La15  1  0.033739  0.178258  0.899436  1
  Tb  Tb16  1  0.712246  0.996784  0.750000  1
  Tb  Tb17  1  0.787265  0.496524  0.250000  1
  Tb  Tb18  1  0.287638  0.003441  0.250000  1
  Ho  Ho19  1  0.213239  0.503538  0.750000  1
  Pb  Pb20  1  0.280172  0.029649  0.047514  1
  Pb  Pb21  1  0.780122  0.470496  0.452397  1
  Pb  Pb22  1  0.719721  0.970163  0.547762  1
  Pb  Pb23  1  0.219750  0.529200  0.951817  1
  Pb  Pb24  1  0.719721  0.970163  0.952238  1
  Pb  Pb25  1  0.219750  0.529200  0.548183  1
  Pb  Pb26  1  0.280172  0.029649  0.452486  1
  Pb  Pb27  1  0.780122  0.470496  0.047603  1
  Pb  Pb28  1  0.571838  0.625126  0.750000  1
  Pb  Pb29  1  0.071829  0.874844  0.750000  1
  Pb  Pb30  1  0.427945  0.374689  0.250000  1
  Pb  Pb31  1  0.928435  0.125116  0.250000  1
  Pb  Pb32  1  0.343242  0.152780  0.750000  1
  Pb  Pb33  1  0.842552  0.347815  0.750000  1
  Pb  Pb34  1  0.656746  0.848004  0.250000  1
  Pb  Pb35  1  0.157480  0.652035  0.250000  1
