# generated using pymatgen
data_KTmMnS3
_symmetry_space_group_name_H-M   'P 1'
_cell_length_a   7.46170214
_cell_length_b   7.46170220
_cell_length_c   10.52683500
_cell_angle_alpha   90.00000000
_cell_angle_beta   90.00000000
_cell_angle_gamma   148.84109222
_symmetry_Int_Tables_number   1
_chemical_formula_structural   KTmMnS3
_chemical_formula_sum   'K2 Tm2 Mn2 S6'
_cell_volume   303.25733883
_cell_formula_units_Z   2
loop_
 _symmetry_equiv_pos_site_id
 _symmetry_equiv_pos_as_xyz
  1  'x, y, z'
loop_
 _atom_site_type_symbol
 _atom_site_label
 _atom_site_symmetry_multiplicity
 _atom_site_fract_x
 _atom_site_fract_y
 _atom_site_fract_z
 _atom_site_occupancy
  K  K0  1  0.743556  0.256445  0.250000  1
  K  K1  1  0.256445  0.743556  0.750000  1
  Tm  Tm2  1  0.000000  0.000000  0.000000  1
  Tm  Tm3  1  0.000000  0.000000  0.500000  1
  Mn  Mn4  1  0.464163  0.535838  0.250000  1
  Mn  Mn5  1  0.535838  0.464163  0.750000  1
  S  S6  1  0.379261  0.620739  0.061208  1
  S  S7  1  0.060671  0.939330  0.250000  1
  S  S8  1  0.379261  0.620739  0.438792  1
  S  S9  1  0.620739  0.379261  0.561208  1
  S  S10  1  0.939330  0.060671  0.750000  1
  S  S11  1  0.620739  0.379261  0.938792  1
