# generated using pymatgen
data_Lu12TlGaFe2Tc
_symmetry_space_group_name_H-M   'P 1'
_cell_length_a   8.14948928
_cell_length_b   8.14998570
_cell_length_c   8.14948902
_cell_angle_alpha   108.49089011
_cell_angle_beta   109.66389400
_cell_angle_gamma   110.26139930
_symmetry_Int_Tables_number   1
_chemical_formula_structural   Lu12TlGaFe2Tc
_chemical_formula_sum   'Lu12 Tl1 Ga1 Fe2 Tc1'
_cell_volume   416.58333465
_cell_formula_units_Z   1
loop_
 _symmetry_equiv_pos_site_id
 _symmetry_equiv_pos_as_xyz
  1  'x, y, z'
loop_
 _atom_site_type_symbol
 _atom_site_label
 _atom_site_symmetry_multiplicity
 _atom_site_fract_x
 _atom_site_fract_y
 _atom_site_fract_z
 _atom_site_occupancy
  Lu  Lu0  1  0.309570  0.305993  0.615713  1
  Lu  Lu1  1  0.690430  0.694007  0.384287  1
  Lu  Lu2  1  0.690281  0.305993  0.996423  1
  Lu  Lu3  1  0.309719  0.694007  0.003577  1
  Lu  Lu4  1  0.191183  0.426049  0.234867  1
  Lu  Lu5  1  0.808817  0.573951  0.765133  1
  Lu  Lu6  1  0.191413  0.956488  0.765075  1
  Lu  Lu7  1  0.943463  0.190944  0.752484  1
  Lu  Lu8  1  0.808587  0.043512  0.234925  1
  Lu  Lu9  1  0.056537  0.809056  0.247516  1
  Lu  Lu10  1  0.438460  0.190944  0.247480  1
  Lu  Lu11  1  0.561540  0.809056  0.752520  1
  Tl  Tl12  1  0.000000  0.500000  0.500000  1
  Ga  Ga13  1  0.500000  0.000000  0.500000  1
  Fe  Fe14  1  0.383063  0.383267  0.000204  1
  Fe  Fe15  1  0.616937  0.616733  0.999796  1
  Tc  Tc16  1  0.000000  0.000000  0.000000  1
