# generated using pymatgen
data_YbHf(ScPd5)3
_symmetry_space_group_name_H-M   'P 1'
_cell_length_a   3.99551200
_cell_length_b   3.99551200
_cell_length_c   20.07371700
_cell_angle_alpha   90.00000000
_cell_angle_beta   90.00000000
_cell_angle_gamma   90.00000000
_symmetry_Int_Tables_number   1
_chemical_formula_structural   YbHf(ScPd5)3
_chemical_formula_sum   'Yb1 Hf1 Sc3 Pd15'
_cell_volume   320.45914959
_cell_formula_units_Z   1
loop_
 _symmetry_equiv_pos_site_id
 _symmetry_equiv_pos_as_xyz
  1  'x, y, z'
loop_
 _atom_site_type_symbol
 _atom_site_label
 _atom_site_symmetry_multiplicity
 _atom_site_fract_x
 _atom_site_fract_y
 _atom_site_fract_z
 _atom_site_occupancy
  Yb  Yb0  1  0.000000  0.000000  0.199658  1
  Hf  Hf1  1  0.000000  0.000000  0.998658  1
  Sc  Sc2  1  0.000000  0.000000  0.400699  1
  Sc  Sc3  1  0.000000  0.000000  0.601636  1
  Sc  Sc4  1  0.000000  0.000000  0.799462  1
  Pd  Pd5  1  0.500000  0.500000  0.997955  1
  Pd  Pd6  1  0.500000  0.500000  0.199256  1
  Pd  Pd7  1  0.500000  0.500000  0.401714  1
  Pd  Pd8  1  0.500000  0.500000  0.600307  1
  Pd  Pd9  1  0.500000  0.500000  0.800421  1
  Pd  Pd10  1  0.500000  0.000000  0.095328  1
  Pd  Pd11  1  0.500000  0.000000  0.303259  1
  Pd  Pd12  1  0.500000  0.000000  0.500809  1
  Pd  Pd13  1  0.500000  0.000000  0.700693  1
  Pd  Pd14  1  0.500000  0.000000  0.900029  1
  Pd  Pd15  1  0.000000  0.500000  0.095328  1
  Pd  Pd16  1  0.000000  0.500000  0.303259  1
  Pd  Pd17  1  0.000000  0.500000  0.500809  1
  Pd  Pd18  1  0.000000  0.500000  0.700693  1
  Pd  Pd19  1  0.000000  0.500000  0.900029  1
