# generated using pymatgen
data_CeU5(MnSb5)2
_symmetry_space_group_name_H-M   'P 1'
_cell_length_a   9.15649600
_cell_length_b   9.11685202
_cell_length_c   6.14938200
_cell_angle_alpha   90.00000000
_cell_angle_beta   90.00000000
_cell_angle_gamma   120.14394940
_symmetry_Int_Tables_number   1
_chemical_formula_structural   CeU5(MnSb5)2
_chemical_formula_sum   'Ce1 U5 Mn2 Sb10'
_cell_volume   443.91981770
_cell_formula_units_Z   1
loop_
 _symmetry_equiv_pos_site_id
 _symmetry_equiv_pos_as_xyz
  1  'x, y, z'
loop_
 _atom_site_type_symbol
 _atom_site_label
 _atom_site_symmetry_multiplicity
 _atom_site_fract_x
 _atom_site_fract_y
 _atom_site_fract_z
 _atom_site_occupancy
  Ce  Ce0  1  0.385791  0.000000  0.750000  1
  U  U1  1  0.388613  0.388659  0.250000  1
  U  U2  1  0.999953  0.611341  0.250000  1
  U  U3  1  0.000172  0.389723  0.750000  1
  U  U4  1  0.610449  0.610277  0.750000  1
  U  U5  1  0.613997  0.000000  0.250000  1
  Mn  Mn6  1  0.999994  0.000000  0.998264  1
  Mn  Mn7  1  0.999994  0.000000  0.501736  1
  Sb  Sb8  1  0.668824  0.335347  0.498339  1
  Sb  Sb9  1  0.333477  0.664653  0.001661  1
  Sb  Sb10  1  0.744109  0.000000  0.750000  1
  Sb  Sb11  1  0.743925  0.742981  0.250000  1
  Sb  Sb12  1  0.333477  0.664653  0.498339  1
  Sb  Sb13  1  0.668824  0.335347  0.001661  1
  Sb  Sb14  1  0.255885  0.000000  0.250000  1
  Sb  Sb15  1  0.255916  0.260261  0.750000  1
  Sb  Sb16  1  0.995656  0.739739  0.750000  1
  Sb  Sb17  1  0.000944  0.257019  0.250000  1
