# generated using pymatgen
data_CsSnAsRh2
_symmetry_space_group_name_H-M   'P 1'
_cell_length_a   8.48312448
_cell_length_b   8.48312421
_cell_length_c   8.48312427
_cell_angle_alpha   151.78650573
_cell_angle_beta   151.78650462
_cell_angle_gamma   40.32515784
_symmetry_Int_Tables_number   1
_chemical_formula_structural   CsSnAsRh2
_chemical_formula_sum   'Cs1 Sn1 As1 Rh2'
_cell_volume   136.16892585
_cell_formula_units_Z   1
loop_
 _symmetry_equiv_pos_site_id
 _symmetry_equiv_pos_as_xyz
  1  'x, y, z'
loop_
 _atom_site_type_symbol
 _atom_site_label
 _atom_site_symmetry_multiplicity
 _atom_site_fract_x
 _atom_site_fract_y
 _atom_site_fract_z
 _atom_site_occupancy
  Cs  Cs0  1  0.013575  0.013575  0.000000  1
  Sn  Sn1  1  0.345171  0.345171  0.000000  1
  As  As2  1  0.661245  0.661245  0.000000  1
  Rh  Rh3  1  0.740004  0.240004  0.500000  1
  Rh  Rh4  1  0.240004  0.740004  0.500000  1
