# generated using pymatgen
data_Dy3LuAl24Pt8Au
_symmetry_space_group_name_H-M   'P 1'
_cell_length_a   7.54962981
_cell_length_b   7.56828755
_cell_length_c   13.16328514
_cell_angle_alpha   84.55608852
_cell_angle_beta   79.01119191
_cell_angle_gamma   59.90086220
_symmetry_Int_Tables_number   1
_chemical_formula_structural   Dy3LuAl24Pt8Au
_chemical_formula_sum   'Dy3 Lu1 Al24 Pt8 Au1'
_cell_volume   638.77275431
_cell_formula_units_Z   1
loop_
 _symmetry_equiv_pos_site_id
 _symmetry_equiv_pos_as_xyz
  1  'x, y, z'
loop_
 _atom_site_type_symbol
 _atom_site_label
 _atom_site_symmetry_multiplicity
 _atom_site_fract_x
 _atom_site_fract_y
 _atom_site_fract_z
 _atom_site_occupancy
  Dy  Dy0  1  0.392457  0.169458  0.809304  1
  Dy  Dy1  1  0.606297  0.831736  0.191914  1
  Dy  Dy2  1  0.733969  0.498932  0.809161  1
  Lu  Lu3  1  0.266296  0.501029  0.192540  1
  Al  Al4  1  0.683322  0.834118  0.945592  1
  Al  Al5  1  0.315405  0.167167  0.056648  1
  Al  Al6  1  0.146686  0.839404  0.559871  1
  Al  Al7  1  0.854513  0.167134  0.436148  1
  Al  Al8  1  0.488736  0.159270  0.557198  1
  Al  Al9  1  0.520069  0.833621  0.439876  1
  Al  Al10  1  0.217963  0.165931  0.327591  1
  Al  Al11  1  0.777534  0.839065  0.673823  1
  Al  Al12  1  0.439869  0.507295  0.674051  1
  Al  Al13  1  0.562914  0.493204  0.327177  1
  Al  Al14  1  0.108735  0.154228  0.672570  1
  Al  Al15  1  0.891583  0.839448  0.328506  1
  Al  Al16  1  0.352719  0.499267  0.946085  1
  Al  Al17  1  0.645915  0.500541  0.056680  1
  Al  Al18  1  0.015215  0.167526  0.954018  1
  Al  Al19  1  0.984959  0.831417  0.048346  1
  Al  Al20  1  0.188187  0.499719  0.436255  1
  Al  Al21  1  0.806677  0.499877  0.557062  1
  Al  Al22  1  0.733335  0.164912  0.183272  1
  Al  Al23  1  0.266552  0.835384  0.816957  1
  Al  Al24  1  0.060476  0.633788  0.818214  1
  Al  Al25  1  0.939592  0.368495  0.184528  1
  Al  Al26  1  0.854418  0.041919  0.816346  1
  Al  Al27  1  0.144614  0.957244  0.183706  1
  Pt  Pt28  1  0.880263  0.508711  0.360515  1
  Pt  Pt29  1  0.657280  0.171412  0.999649  1
  Pt  Pt30  1  0.342768  0.828418  0.000049  1
  Pt  Pt31  1  0.537127  0.167199  0.360705  1
  Pt  Pt32  1  0.462516  0.833218  0.638236  1
  Pt  Pt33  1  0.779066  0.175207  0.636765  1
  Pt  Pt34  1  0.221603  0.824208  0.362036  1
  Pt  Pt35  1  0.999960  0.499977  0.000388  1
  Au  Au36  1  0.120410  0.490524  0.638220  1
