# generated using pymatgen
data_ThSc10PaCo4
_symmetry_space_group_name_H-M   'P 1'
_cell_length_a   5.87538300
_cell_length_b   8.81686800
_cell_length_c   13.11344600
_cell_angle_alpha   90.00000000
_cell_angle_beta   90.00000000
_cell_angle_gamma   90.00000000
_symmetry_Int_Tables_number   1
_chemical_formula_structural   ThSc10PaCo4
_chemical_formula_sum   'Th2 Sc20 Pa2 Co8'
_cell_volume   679.30897642
_cell_formula_units_Z   2
loop_
 _symmetry_equiv_pos_site_id
 _symmetry_equiv_pos_as_xyz
  1  'x, y, z'
loop_
 _atom_site_type_symbol
 _atom_site_label
 _atom_site_symmetry_multiplicity
 _atom_site_fract_x
 _atom_site_fract_y
 _atom_site_fract_z
 _atom_site_occupancy
  Th  Th0  1  0.570327  0.750000  0.354139  1
  Th  Th1  1  0.070327  0.250000  0.145861  1
  Sc  Sc2  1  0.789812  0.750000  0.103233  1
  Sc  Sc3  1  0.289812  0.250000  0.396767  1
  Sc  Sc4  1  0.210661  0.250000  0.895295  1
  Sc  Sc5  1  0.710661  0.750000  0.604705  1
  Sc  Sc6  1  0.405520  0.933683  0.789498  1
  Sc  Sc7  1  0.905520  0.066317  0.710502  1
  Sc  Sc8  1  0.591366  0.433015  0.208395  1
  Sc  Sc9  1  0.091366  0.566985  0.291605  1
  Sc  Sc10  1  0.591366  0.066985  0.208395  1
  Sc  Sc11  1  0.091366  0.933015  0.291605  1
  Sc  Sc12  1  0.405520  0.566317  0.789498  1
  Sc  Sc13  1  0.905520  0.433683  0.710502  1
  Sc  Sc14  1  0.241957  0.933497  0.539619  1
  Sc  Sc15  1  0.741957  0.066503  0.960381  1
  Sc  Sc16  1  0.760559  0.428919  0.466792  1
  Sc  Sc17  1  0.260559  0.571081  0.033208  1
  Sc  Sc18  1  0.760559  0.071081  0.466792  1
  Sc  Sc19  1  0.260559  0.928919  0.033208  1
  Sc  Sc20  1  0.241957  0.566503  0.539619  1
  Sc  Sc21  1  0.741957  0.433497  0.960381  1
  Pa  Pa22  1  0.417098  0.250000  0.652179  1
  Pa  Pa23  1  0.917098  0.750000  0.847821  1
  Co  Co24  1  0.962553  0.750000  0.443947  1
  Co  Co25  1  0.462553  0.250000  0.056053  1
  Co  Co26  1  0.066067  0.250000  0.562035  1
  Co  Co27  1  0.566067  0.750000  0.937965  1
  Co  Co28  1  0.379493  0.750000  0.184206  1
  Co  Co29  1  0.879493  0.250000  0.315794  1
  Co  Co30  1  0.605184  0.250000  0.806286  1
  Co  Co31  1  0.105184  0.750000  0.693714  1
