# generated using pymatgen
data_HoLu4In4IrPt
_symmetry_space_group_name_H-M   'P 1'
_cell_length_a   3.56375200
_cell_length_b   8.03563778
_cell_length_c   18.00804102
_cell_angle_alpha   89.96443548
_cell_angle_beta   90.00000000
_cell_angle_gamma   90.00000000
_symmetry_Int_Tables_number   1
_chemical_formula_structural   HoLu4In4IrPt
_chemical_formula_sum   'Ho2 Lu8 In8 Ir2 Pt2'
_cell_volume   515.69653557
_cell_formula_units_Z   2
loop_
 _symmetry_equiv_pos_site_id
 _symmetry_equiv_pos_as_xyz
  1  'x, y, z'
loop_
 _atom_site_type_symbol
 _atom_site_label
 _atom_site_symmetry_multiplicity
 _atom_site_fract_x
 _atom_site_fract_y
 _atom_site_fract_z
 _atom_site_occupancy
  Ho  Ho0  1  0.000000  0.000000  0.000000  1
  Ho  Ho1  1  0.000000  0.500000  0.500000  1
  Lu  Lu2  1  0.000000  0.115718  0.412428  1
  Lu  Lu3  1  0.000000  0.884282  0.587572  1
  Lu  Lu4  1  0.000000  0.382996  0.913531  1
  Lu  Lu5  1  0.000000  0.617004  0.086469  1
  Lu  Lu6  1  0.000000  0.237016  0.221800  1
  Lu  Lu7  1  0.000000  0.762984  0.778200  1
  Lu  Lu8  1  0.000000  0.250245  0.720504  1
  Lu  Lu9  1  0.000000  0.749755  0.279496  1
  In  In10  1  0.500000  0.423343  0.351217  1
  In  In11  1  0.500000  0.576657  0.648783  1
  In  In12  1  0.500000  0.074802  0.851045  1
  In  In13  1  0.500000  0.925198  0.148955  1
  In  In14  1  0.500000  0.293748  0.066462  1
  In  In15  1  0.500000  0.706252  0.933538  1
  In  In16  1  0.500000  0.205697  0.566973  1
  In  In17  1  0.500000  0.794303  0.433027  1
  Ir  Ir18  1  0.500000  0.022403  0.303853  1
  Ir  Ir19  1  0.500000  0.977597  0.696147  1
  Pt  Pt20  1  0.500000  0.477143  0.803850  1
  Pt  Pt21  1  0.500000  0.522857  0.196150  1
