# generated using pymatgen
data_Hf5ScAl6(GaPt2)2
_symmetry_space_group_name_H-M   'P 1'
_cell_length_a   6.68896331
_cell_length_b   6.70230321
_cell_length_c   8.19283500
_cell_angle_alpha   90.00000000
_cell_angle_beta   90.00000000
_cell_angle_gamma   119.89917980
_symmetry_Int_Tables_number   1
_chemical_formula_structural   Hf5ScAl6(GaPt2)2
_chemical_formula_sum   'Hf5 Sc1 Al6 Ga2 Pt4'
_cell_volume   318.41098525
_cell_formula_units_Z   1
loop_
 _symmetry_equiv_pos_site_id
 _symmetry_equiv_pos_as_xyz
  1  'x, y, z'
loop_
 _atom_site_type_symbol
 _atom_site_label
 _atom_site_symmetry_multiplicity
 _atom_site_fract_x
 _atom_site_fract_y
 _atom_site_fract_z
 _atom_site_occupancy
  Hf  Hf0  1  0.005843  0.583325  0.750000  1
  Hf  Hf1  1  0.414436  0.425290  0.750000  1
  Hf  Hf2  1  0.005043  0.583832  0.250000  1
  Hf  Hf3  1  0.576031  0.992276  0.250000  1
  Hf  Hf4  1  0.417007  0.423398  0.250000  1
  Sc  Sc5  1  0.577383  0.994175  0.750000  1
  Al  Al6  1  0.750690  0.760344  0.999201  1
  Al  Al7  1  0.240814  0.990615  0.000737  1
  Al  Al8  1  0.009055  0.248597  0.999103  1
  Al  Al9  1  0.750690  0.760344  0.500799  1
  Al  Al10  1  0.240814  0.990615  0.499263  1
  Al  Al11  1  0.009055  0.248597  0.500897  1
  Ga  Ga12  1  0.666971  0.334217  0.000351  1
  Ga  Ga13  1  0.666971  0.334217  0.499649  1
  Pt  Pt14  1  0.005022  0.999719  0.750000  1
  Pt  Pt15  1  0.999485  0.000459  0.250000  1
  Pt  Pt16  1  0.332344  0.664990  0.497716  1
  Pt  Pt17  1  0.332344  0.664990  0.002285  1
