# generated using pymatgen
data_TlOsBr6
_symmetry_space_group_name_H-M   'P 1'
_cell_length_a   7.10854532
_cell_length_b   7.11289040
_cell_length_c   7.12726630
_cell_angle_alpha   99.45221660
_cell_angle_beta   99.55770565
_cell_angle_gamma   119.92478692
_symmetry_Int_Tables_number   1
_chemical_formula_structural   TlOsBr6
_chemical_formula_sum   'Tl1 Os1 Br6'
_cell_volume   294.84218344
_cell_formula_units_Z   1
loop_
 _symmetry_equiv_pos_site_id
 _symmetry_equiv_pos_as_xyz
  1  'x, y, z'
loop_
 _atom_site_type_symbol
 _atom_site_label
 _atom_site_symmetry_multiplicity
 _atom_site_fract_x
 _atom_site_fract_y
 _atom_site_fract_z
 _atom_site_occupancy
  Tl  Tl0  1  0.832752  0.166976  0.999898  1
  Os  Os1  1  0.166497  0.833861  0.000014  1
  Br  Br2  1  0.521680  0.900489  0.214323  1
  Br  Br3  1  0.949164  0.620681  0.213702  1
  Br  Br4  1  0.240186  0.192137  0.214752  1
  Br  Br5  1  0.807804  0.759631  0.785098  1
  Br  Br6  1  0.379078  0.051100  0.786334  1
  Br  Br7  1  0.099561  0.478407  0.785886  1
