# generated using pymatgen
data_Tb3DyRe2(B8Mo)2
_symmetry_space_group_name_H-M   'P 1'
_cell_length_a   3.62739400
_cell_length_b   6.01456958
_cell_length_c   11.63660533
_cell_angle_alpha   90.05515543
_cell_angle_beta   90.00000000
_cell_angle_gamma   90.00000000
_symmetry_Int_Tables_number   1
_chemical_formula_structural   Tb3DyRe2(B8Mo)2
_chemical_formula_sum   'Tb3 Dy1 Re2 B16 Mo2'
_cell_volume   253.87818636
_cell_formula_units_Z   1
loop_
 _symmetry_equiv_pos_site_id
 _symmetry_equiv_pos_as_xyz
  1  'x, y, z'
loop_
 _atom_site_type_symbol
 _atom_site_label
 _atom_site_symmetry_multiplicity
 _atom_site_fract_x
 _atom_site_fract_y
 _atom_site_fract_z
 _atom_site_occupancy
  Tb  Tb0  1  0.000000  0.627239  0.350501  1
  Tb  Tb1  1  0.000000  0.372767  0.649537  1
  Tb  Tb2  1  0.000000  0.126567  0.150756  1
  Dy  Dy3  1  0.000000  0.873377  0.849273  1
  Re  Re4  1  0.000000  0.133894  0.413427  1
  Re  Re5  1  0.000000  0.866088  0.586772  1
  B  B6  1  0.500000  0.788525  0.186351  1
  B  B7  1  0.500000  0.211066  0.813630  1
  B  B8  1  0.500000  0.284882  0.315884  1
  B  B9  1  0.500000  0.715169  0.684268  1
  B  B10  1  0.500000  0.866720  0.032196  1
  B  B11  1  0.500000  0.133100  0.967546  1
  B  B12  1  0.500000  0.362765  0.468955  1
  B  B13  1  0.500000  0.637265  0.531096  1
  B  B14  1  0.500000  0.886868  0.452927  1
  B  B15  1  0.500000  0.113077  0.547151  1
  B  B16  1  0.500000  0.385460  0.047351  1
  B  B17  1  0.500000  0.614937  0.952423  1
  B  B18  1  0.500000  0.977353  0.308852  1
  B  B19  1  0.500000  0.022513  0.691342  1
  B  B20  1  0.500000  0.475954  0.193936  1
  B  B21  1  0.500000  0.524320  0.806014  1
  Mo  Mo22  1  0.000000  0.629151  0.084605  1
  Mo  Mo23  1  0.000000  0.370944  0.915209  1
