# generated using pymatgen
data_TbDyMnIn2Co3
_symmetry_space_group_name_H-M   'P 1'
_cell_length_a   4.05376900
_cell_length_b   5.05674298
_cell_length_c   7.21153621
_cell_angle_alpha   90.75897340
_cell_angle_beta   90.00000000
_cell_angle_gamma   90.00000000
_symmetry_Int_Tables_number   1
_chemical_formula_structural   TbDyMnIn2Co3
_chemical_formula_sum   'Tb1 Dy1 Mn1 In2 Co3'
_cell_volume   147.81535868
_cell_formula_units_Z   1
loop_
 _symmetry_equiv_pos_site_id
 _symmetry_equiv_pos_as_xyz
  1  'x, y, z'
loop_
 _atom_site_type_symbol
 _atom_site_label
 _atom_site_symmetry_multiplicity
 _atom_site_fract_x
 _atom_site_fract_y
 _atom_site_fract_z
 _atom_site_occupancy
  Tb  Tb0  1  0.500000  0.757230  0.714595  1
  Dy  Dy1  1  0.500000  0.242731  0.284625  1
  Mn  Mn2  1  0.000000  0.000300  0.000274  1
  In  In3  1  0.000000  0.747018  0.347736  1
  In  In4  1  0.000000  0.252986  0.651878  1
  Co  Co5  1  0.000000  0.499722  0.000276  1
  Co  Co6  1  0.500000  0.736284  0.087661  1
  Co  Co7  1  0.500000  0.263728  0.912954  1
