# generated using pymatgen
data_Dy12Fe4PdPb
_symmetry_space_group_name_H-M   'P 1'
_cell_length_a   8.45557290
_cell_length_b   8.45557338
_cell_length_c   8.45557300
_cell_angle_alpha   111.39064515
_cell_angle_beta   110.23086870
_cell_angle_gamma   106.82631811
_symmetry_Int_Tables_number   1
_chemical_formula_structural   Dy12Fe4PdPb
_chemical_formula_sum   'Dy12 Fe4 Pd1 Pb1'
_cell_volume   464.59001847
_cell_formula_units_Z   1
loop_
 _symmetry_equiv_pos_site_id
 _symmetry_equiv_pos_as_xyz
  1  'x, y, z'
loop_
 _atom_site_type_symbol
 _atom_site_label
 _atom_site_symmetry_multiplicity
 _atom_site_fract_x
 _atom_site_fract_y
 _atom_site_fract_z
 _atom_site_occupancy
  Dy  Dy0  1  0.311570  0.615461  0.303890  1
  Dy  Dy1  1  0.688430  0.384540  0.696110  1
  Dy  Dy2  1  0.311570  0.007681  0.696110  1
  Dy  Dy3  1  0.688430  0.992319  0.303890  1
  Dy  Dy4  1  0.413243  0.211838  0.201405  1
  Dy  Dy5  1  0.586757  0.788162  0.798595  1
  Dy  Dy6  1  0.010433  0.211838  0.798595  1
  Dy  Dy7  1  0.989567  0.788162  0.201405  1
  Dy  Dy8  1  0.185403  0.291503  0.476906  1
  Dy  Dy9  1  0.814597  0.708497  0.523094  1
  Dy  Dy10  1  0.185403  0.708497  0.893900  1
  Dy  Dy11  1  0.814597  0.291503  0.106100  1
  Fe  Fe12  1  0.106096  0.606096  0.500000  1
  Fe  Fe13  1  0.893905  0.393905  0.500000  1
  Fe  Fe14  1  0.387686  0.000000  0.387686  1
  Fe  Fe15  1  0.612314  0.000000  0.612314  1
  Pd  Pd16  1  0.000000  0.000000  0.000000  1
  Pb  Pb17  1  0.500000  0.500000  0.000000  1
