# generated using pymatgen
data_Ca3LaTbIr2
_symmetry_space_group_name_H-M   'P 1'
_cell_length_a   6.64075399
_cell_length_b   7.48138054
_cell_length_c   8.81831604
_cell_angle_alpha   96.97556919
_cell_angle_beta   112.11900992
_cell_angle_gamma   89.99999440
_symmetry_Int_Tables_number   1
_chemical_formula_structural   Ca3LaTbIr2
_chemical_formula_sum   'Ca6 La2 Tb2 Ir4'
_cell_volume   402.36559998
_cell_formula_units_Z   2
loop_
 _symmetry_equiv_pos_site_id
 _symmetry_equiv_pos_as_xyz
  1  'x, y, z'
loop_
 _atom_site_type_symbol
 _atom_site_label
 _atom_site_symmetry_multiplicity
 _atom_site_fract_x
 _atom_site_fract_y
 _atom_site_fract_z
 _atom_site_occupancy
  Ca  Ca0  1  0.021441  0.081563  0.822097  1
  Ca  Ca1  1  0.199345  0.418437  0.177903  1
  Ca  Ca2  1  0.638398  0.820130  0.432811  1
  Ca  Ca3  1  0.205587  0.679870  0.567189  1
  Ca  Ca4  1  0.361991  0.183094  0.567963  1
  Ca  Ca5  1  0.794028  0.316906  0.432037  1
  La  La6  1  0.984216  0.916294  0.178593  1
  La  La7  1  0.805621  0.583706  0.821407  1
  Tb  Tb8  1  0.429154  0.750000  0.000000  1
  Tb  Tb9  1  0.562809  0.250000  0.000000  1
  Ir  Ir10  1  0.810137  0.582493  0.200713  1
  Ir  Ir11  1  0.609424  0.917507  0.799287  1
  Ir  Ir12  1  0.184972  0.429190  0.792096  1
  Ir  Ir13  1  0.392876  0.070810  0.207904  1
