# generated using pymatgen
data_Er3Zn3Ag2Ir
_symmetry_space_group_name_H-M   'P 1'
_cell_length_a   7.53082600
_cell_length_b   7.53082596
_cell_length_c   3.73522400
_cell_angle_alpha   90.00000000
_cell_angle_beta   90.00000000
_cell_angle_gamma   120.00000898
_symmetry_Int_Tables_number   1
_chemical_formula_structural   Er3Zn3Ag2Ir
_chemical_formula_sum   'Er3 Zn3 Ag2 Ir1'
_cell_volume   183.45623144
_cell_formula_units_Z   1
loop_
 _symmetry_equiv_pos_site_id
 _symmetry_equiv_pos_as_xyz
  1  'x, y, z'
loop_
 _atom_site_type_symbol
 _atom_site_label
 _atom_site_symmetry_multiplicity
 _atom_site_fract_x
 _atom_site_fract_y
 _atom_site_fract_z
 _atom_site_occupancy
  Er  Er0  1  0.421456  0.397178  0.500000  1
  Er  Er1  1  0.602822  0.024277  0.500000  1
  Er  Er2  1  0.975723  0.578544  0.500000  1
  Zn  Zn3  1  0.738323  0.732321  0.000000  1
  Zn  Zn4  1  0.267679  0.006003  0.000000  1
  Zn  Zn5  1  0.993997  0.261677  0.000000  1
  Ag  Ag6  1  0.333333  0.666667  0.000000  1
  Ag  Ag7  1  0.000000  0.000000  0.500000  1
  Ir  Ir8  1  0.666667  0.333333  0.000000  1
