# generated using pymatgen
data_Na3Y2P12Rh19
_symmetry_space_group_name_H-M   'P 1'
_cell_length_a   12.61729100
_cell_length_b   12.61729115
_cell_length_c   3.94493900
_cell_angle_alpha   90.00000000
_cell_angle_beta   90.00000000
_cell_angle_gamma   119.99999697
_symmetry_Int_Tables_number   1
_chemical_formula_structural   Na3Y2P12Rh19
_chemical_formula_sum   'Na3 Y2 P12 Rh19'
_cell_volume   543.88011606
_cell_formula_units_Z   1
loop_
 _symmetry_equiv_pos_site_id
 _symmetry_equiv_pos_as_xyz
  1  'x, y, z'
loop_
 _atom_site_type_symbol
 _atom_site_label
 _atom_site_symmetry_multiplicity
 _atom_site_fract_x
 _atom_site_fract_y
 _atom_site_fract_z
 _atom_site_occupancy
  Na  Na0  1  0.000000  0.182127  0.500000  1
  Na  Na1  1  0.817873  0.817873  0.500000  1
  Na  Na2  1  0.182127  0.000000  0.500000  1
  Y  Y3  1  0.666667  0.333333  0.000000  1
  Y  Y4  1  0.333333  0.666667  0.000000  1
  P  P5  1  0.478304  0.312019  0.500000  1
  P  P6  1  0.821204  0.000000  0.000000  1
  P  P7  1  0.178796  0.178796  0.000000  1
  P  P8  1  0.000000  0.821204  0.000000  1
  P  P9  1  0.364252  0.000000  0.000000  1
  P  P10  1  0.687981  0.166285  0.500000  1
  P  P11  1  0.833715  0.521696  0.500000  1
  P  P12  1  0.521696  0.833715  0.500000  1
  P  P13  1  0.166285  0.687981  0.500000  1
  P  P14  1  0.312019  0.478304  0.500000  1
  P  P15  1  0.000000  0.364252  0.000000  1
  P  P16  1  0.635748  0.635748  0.000000  1
  Rh  Rh17  1  0.806643  0.181845  0.000000  1
  Rh  Rh18  1  0.375203  0.193357  0.000000  1
  Rh  Rh19  1  0.639712  0.508975  0.500000  1
  Rh  Rh20  1  0.869262  0.360288  0.500000  1
  Rh  Rh21  1  0.360288  0.869262  0.500000  1
  Rh  Rh22  1  0.508975  0.639712  0.500000  1
  Rh  Rh23  1  0.130738  0.491025  0.500000  1
  Rh  Rh24  1  0.818155  0.624797  0.000000  1
  Rh  Rh25  1  0.624797  0.818155  0.000000  1
  Rh  Rh26  1  0.181845  0.806643  0.000000  1
  Rh  Rh27  1  0.193357  0.375203  0.000000  1
  Rh  Rh28  1  0.000000  0.720656  0.500000  1
  Rh  Rh29  1  0.279344  0.279344  0.500000  1
  Rh  Rh30  1  0.720656  0.000000  0.500000  1
  Rh  Rh31  1  0.000000  0.545299  0.000000  1
  Rh  Rh32  1  0.454701  0.454701  0.000000  1
  Rh  Rh33  1  0.545299  0.000000  0.000000  1
  Rh  Rh34  1  0.000000  0.000000  0.000000  1
  Rh  Rh35  1  0.491025  0.130738  0.500000  1
