# generated using pymatgen
data_Pr15YCd4Co3Ru
_symmetry_space_group_name_H-M   'P 1'
_cell_length_a   9.92727121
_cell_length_b   9.87263231
_cell_length_c   9.87321964
_cell_angle_alpha   59.82026359
_cell_angle_beta   60.11561624
_cell_angle_gamma   59.86085884
_symmetry_Int_Tables_number   1
_chemical_formula_structural   Pr15YCd4Co3Ru
_chemical_formula_sum   'Pr15 Y1 Cd4 Co3 Ru1'
_cell_volume   683.17490534
_cell_formula_units_Z   1
loop_
 _symmetry_equiv_pos_site_id
 _symmetry_equiv_pos_as_xyz
  1  'x, y, z'
loop_
 _atom_site_type_symbol
 _atom_site_label
 _atom_site_symmetry_multiplicity
 _atom_site_fract_x
 _atom_site_fract_y
 _atom_site_fract_z
 _atom_site_occupancy
  Pr  Pr0  1  0.440286  0.437562  0.060718  1
  Pr  Pr1  1  0.062684  0.058125  0.440269  1
  Pr  Pr2  1  0.439312  0.062857  0.061623  1
  Pr  Pr3  1  0.840198  0.851776  0.846358  1
  Pr  Pr4  1  0.691282  0.308949  0.312686  1
  Pr  Pr5  1  0.061732  0.439391  0.441659  1
  Pr  Pr6  1  0.316428  0.686367  0.690610  1
  Pr  Pr7  1  0.316545  0.306581  0.690063  1
  Pr  Pr8  1  0.843121  0.849028  0.457973  1
  Pr  Pr9  1  0.691763  0.685810  0.312390  1
  Pr  Pr10  1  0.458657  0.847528  0.848113  1
  Pr  Pr11  1  0.062368  0.441260  0.057180  1
  Pr  Pr12  1  0.840535  0.459319  0.847321  1
  Pr  Pr13  1  0.439175  0.061311  0.439287  1
  Pr  Pr14  1  0.313603  0.689002  0.306285  1
  Y  Y15  1  0.692748  0.308255  0.690231  1
  Cd  Cd16  1  0.078959  0.762495  0.078929  1
  Cd  Cd17  1  0.076834  0.080661  0.762183  1
  Cd  Cd18  1  0.761388  0.080882  0.076781  1
  Cd  Cd19  1  0.079025  0.078681  0.078489  1
  Co  Co20  1  0.637635  0.080923  0.641100  1
  Co  Co21  1  0.637006  0.641757  0.641045  1
  Co  Co22  1  0.637474  0.641715  0.079364  1
  Ru  Ru23  1  0.081243  0.639763  0.639338  1
