# generated using pymatgen
data_PrSn6Ru3Pt
_symmetry_space_group_name_H-M   'P 1'
_cell_length_a   7.02416884
_cell_length_b   6.97217644
_cell_length_c   6.97217652
_cell_angle_alpha   90.03203989
_cell_angle_beta   119.75577470
_cell_angle_gamma   119.75577162
_symmetry_Int_Tables_number   1
_chemical_formula_structural   PrSn6Ru3Pt
_chemical_formula_sum   'Pr1 Sn6 Ru3 Pt1'
_cell_volume   243.14970469
_cell_formula_units_Z   1
loop_
 _symmetry_equiv_pos_site_id
 _symmetry_equiv_pos_as_xyz
  1  'x, y, z'
loop_
 _atom_site_type_symbol
 _atom_site_label
 _atom_site_symmetry_multiplicity
 _atom_site_fract_x
 _atom_site_fract_y
 _atom_site_fract_z
 _atom_site_occupancy
  Pr  Pr0  1  0.008234  0.003815  0.003815  1
  Sn  Sn1  1  0.660902  0.130785  0.130785  1
  Sn  Sn2  1  0.342887  0.465192  0.465192  1
  Sn  Sn3  1  0.986898  0.873978  0.521298  1
  Sn  Sn4  1  0.986898  0.521298  0.873978  1
  Sn  Sn5  1  0.498604  0.488411  0.996511  1
  Sn  Sn6  1  0.498604  0.996511  0.488411  1
  Ru  Ru7  1  0.642938  0.401805  0.401805  1
  Ru  Ru8  1  0.004121  0.254770  0.598649  1
  Ru  Ru9  1  0.004121  0.598649  0.254770  1
  Pt  Pt10  1  0.365792  0.764788  0.764788  1
