# generated using pymatgen
data_ZnCr20MoWC6
_symmetry_space_group_name_H-M   'P 1'
_cell_length_a   7.54673419
_cell_length_b   7.54673506
_cell_length_c   7.54673500
_cell_angle_alpha   59.99999588
_cell_angle_beta   59.99999206
_cell_angle_gamma   59.99999346
_symmetry_Int_Tables_number   1
_chemical_formula_structural   ZnCr20MoWC6
_chemical_formula_sum   'Zn1 Cr20 Mo1 W1 C6'
_cell_volume   303.92204199
_cell_formula_units_Z   1
loop_
 _symmetry_equiv_pos_site_id
 _symmetry_equiv_pos_as_xyz
  1  'x, y, z'
loop_
 _atom_site_type_symbol
 _atom_site_label
 _atom_site_symmetry_multiplicity
 _atom_site_fract_x
 _atom_site_fract_y
 _atom_site_fract_z
 _atom_site_occupancy
  Zn  Zn0  1  0.000000  0.000000  0.000000  1
  Cr  Cr1  1  0.616864  0.616864  0.149409  1
  Cr  Cr2  1  0.616864  0.149408  0.616864  1
  Cr  Cr3  1  0.149409  0.616864  0.616864  1
  Cr  Cr4  1  0.616864  0.616864  0.616864  1
  Cr  Cr5  1  0.384137  0.384137  0.847590  1
  Cr  Cr6  1  0.384137  0.847590  0.384137  1
  Cr  Cr7  1  0.847590  0.384137  0.384137  1
  Cr  Cr8  1  0.384137  0.384137  0.384137  1
  Cr  Cr9  1  0.000176  0.000176  0.342381  1
  Cr  Cr10  1  0.657267  0.000176  0.342381  1
  Cr  Cr11  1  0.000176  0.657267  0.342381  1
  Cr  Cr12  1  0.657267  0.342381  0.000176  1
  Cr  Cr13  1  0.000176  0.342381  0.000176  1
  Cr  Cr14  1  0.000176  0.342381  0.657267  1
  Cr  Cr15  1  0.342381  0.657267  0.000176  1
  Cr  Cr16  1  0.342381  0.000176  0.657267  1
  Cr  Cr17  1  0.342381  0.000176  0.000176  1
  Cr  Cr18  1  0.000176  0.000176  0.657267  1
  Cr  Cr19  1  0.000176  0.657267  0.000176  1
  Cr  Cr20  1  0.657267  0.000176  0.000176  1
  Mo  Mo21  1  0.750000  0.750000  0.750000  1
  W  W22  1  0.250000  0.250000  0.250000  1
  C  C23  1  0.723125  0.723125  0.276875  1
  C  C24  1  0.276875  0.723125  0.276875  1
  C  C25  1  0.723125  0.276875  0.276875  1
  C  C26  1  0.276875  0.276875  0.723125  1
  C  C27  1  0.723125  0.276875  0.723125  1
  C  C28  1  0.276875  0.723125  0.723125  1
