# generated using pymatgen
data_Li4Ac4Si5Hg
_symmetry_space_group_name_H-M   'P 1'
_cell_length_a   9.99804250
_cell_length_b   9.99804279
_cell_length_c   7.10416100
_cell_angle_alpha   90.00000000
_cell_angle_beta   90.00000000
_cell_angle_gamma   152.63708885
_symmetry_Int_Tables_number   1
_chemical_formula_structural   Li4Ac4Si5Hg
_chemical_formula_sum   'Li4 Ac4 Si5 Hg1'
_cell_volume   326.39717700
_cell_formula_units_Z   1
loop_
 _symmetry_equiv_pos_site_id
 _symmetry_equiv_pos_as_xyz
  1  'x, y, z'
loop_
 _atom_site_type_symbol
 _atom_site_label
 _atom_site_symmetry_multiplicity
 _atom_site_fract_x
 _atom_site_fract_y
 _atom_site_fract_z
 _atom_site_occupancy
  Li  Li0  1  0.815029  0.184971  0.429596  1
  Li  Li1  1  0.186884  0.813116  0.549259  1
  Li  Li2  1  0.815029  0.184971  0.070404  1
  Li  Li3  1  0.186884  0.813116  0.950741  1
  Ac  Ac4  1  0.549077  0.450923  0.750000  1
  Ac  Ac5  1  0.447662  0.552338  0.250000  1
  Ac  Ac6  1  0.345351  0.654649  0.750000  1
  Ac  Ac7  1  0.656542  0.343458  0.250000  1
  Si  Si8  1  0.943616  0.056384  0.921781  1
  Si  Si9  1  0.055602  0.944398  0.078852  1
  Si  Si10  1  0.943616  0.056384  0.578219  1
  Si  Si11  1  0.055602  0.944398  0.421148  1
  Si  Si12  1  0.279985  0.720015  0.250000  1
  Hg  Hg13  1  0.719120  0.280880  0.750000  1
