# generated using pymatgen
data_CeTh3(Nb3Ge4)2
_symmetry_space_group_name_H-M   'P 1'
_cell_length_a   7.18302500
_cell_length_b   7.31416729
_cell_length_c   13.77730155
_cell_angle_alpha   89.96757394
_cell_angle_beta   90.00000000
_cell_angle_gamma   90.00000000
_symmetry_Int_Tables_number   1
_chemical_formula_structural   CeTh3(Nb3Ge4)2
_chemical_formula_sum   'Ce2 Th6 Nb12 Ge16'
_cell_volume   723.82963844
_cell_formula_units_Z   2
loop_
 _symmetry_equiv_pos_site_id
 _symmetry_equiv_pos_as_xyz
  1  'x, y, z'
loop_
 _atom_site_type_symbol
 _atom_site_label
 _atom_site_symmetry_multiplicity
 _atom_site_fract_x
 _atom_site_fract_y
 _atom_site_fract_z
 _atom_site_occupancy
  Ce  Ce0  1  0.494539  0.328936  0.094876  1
  Ce  Ce1  1  0.994539  0.171064  0.405124  1
  Th  Th2  1  0.505152  0.670441  0.593243  1
  Th  Th3  1  0.005152  0.829559  0.906757  1
  Th  Th4  1  0.506184  0.669507  0.907012  1
  Th  Th5  1  0.006184  0.830493  0.592988  1
  Th  Th6  1  0.494395  0.329468  0.405719  1
  Th  Th7  1  0.994395  0.170532  0.094281  1
  Nb  Nb8  1  0.665697  0.008355  0.750009  1
  Nb  Nb9  1  0.165697  0.491645  0.749991  1
  Nb  Nb10  1  0.334723  0.991854  0.250747  1
  Nb  Nb11  1  0.834723  0.508146  0.249253  1
  Nb  Nb12  1  0.837990  0.333494  0.625395  1
  Nb  Nb13  1  0.337990  0.166506  0.874605  1
  Nb  Nb14  1  0.159994  0.667107  0.126125  1
  Nb  Nb15  1  0.659994  0.832893  0.373875  1
  Nb  Nb16  1  0.163518  0.665475  0.373625  1
  Nb  Nb17  1  0.663518  0.834525  0.126375  1
  Nb  Nb18  1  0.838825  0.333936  0.874428  1
  Nb  Nb19  1  0.338825  0.166064  0.625572  1
  Ge  Ge20  1  0.809135  0.628973  0.749637  1
  Ge  Ge21  1  0.309135  0.871027  0.750363  1
  Ge  Ge22  1  0.191159  0.368991  0.250317  1
  Ge  Ge23  1  0.691159  0.131009  0.249683  1
  Ge  Ge24  1  0.537367  0.367166  0.750127  1
  Ge  Ge25  1  0.037367  0.132834  0.749873  1
  Ge  Ge26  1  0.463143  0.630567  0.248443  1
  Ge  Ge27  1  0.963143  0.869433  0.251557  1
  Ge  Ge28  1  0.670371  0.046896  0.544408  1
  Ge  Ge29  1  0.170371  0.453104  0.955592  1
  Ge  Ge30  1  0.332416  0.956462  0.045957  1
  Ge  Ge31  1  0.832416  0.543538  0.454043  1
  Ge  Ge32  1  0.327207  0.955656  0.454487  1
  Ge  Ge33  1  0.827207  0.544344  0.045513  1
  Ge  Ge34  1  0.668184  0.048196  0.955262  1
  Ge  Ge35  1  0.168184  0.451804  0.544738  1
