# generated using pymatgen
data_ErLu15In6CoNi
_symmetry_space_group_name_H-M   'P 1'
_cell_length_a   10.21308100
_cell_length_b   10.21308160
_cell_length_c   6.82445900
_cell_angle_alpha   90.00000000
_cell_angle_beta   90.00000000
_cell_angle_gamma   120.00000130
_symmetry_Int_Tables_number   1
_chemical_formula_structural   ErLu15In6CoNi
_chemical_formula_sum   'Er1 Lu15 In6 Co1 Ni1'
_cell_volume   616.47069015
_cell_formula_units_Z   1
loop_
 _symmetry_equiv_pos_site_id
 _symmetry_equiv_pos_as_xyz
  1  'x, y, z'
loop_
 _atom_site_type_symbol
 _atom_site_label
 _atom_site_symmetry_multiplicity
 _atom_site_fract_x
 _atom_site_fract_y
 _atom_site_fract_z
 _atom_site_occupancy
  Er  Er0  1  0.000000  0.000000  0.278589  1
  Lu  Lu1  1  0.530722  0.061443  0.793782  1
  Lu  Lu2  1  0.938557  0.469278  0.793782  1
  Lu  Lu3  1  0.530722  0.469278  0.793782  1
  Lu  Lu4  1  0.465349  0.930699  0.293895  1
  Lu  Lu5  1  0.069301  0.534651  0.293895  1
  Lu  Lu6  1  0.465349  0.534651  0.293895  1
  Lu  Lu7  1  0.821109  0.642217  0.498752  1
  Lu  Lu8  1  0.357783  0.178891  0.498752  1
  Lu  Lu9  1  0.821109  0.178891  0.498752  1
  Lu  Lu10  1  0.179214  0.358425  0.001337  1
  Lu  Lu11  1  0.641575  0.820786  0.001337  1
  Lu  Lu12  1  0.179214  0.820786  0.001337  1
  Lu  Lu13  1  0.666667  0.333333  0.176574  1
  Lu  Lu14  1  0.333333  0.666667  0.683305  1
  Lu  Lu15  1  0.000000  0.000000  0.777132  1
  In  In16  1  0.837168  0.674338  0.033901  1
  In  In17  1  0.325662  0.162832  0.033901  1
  In  In18  1  0.837168  0.162832  0.033901  1
  In  In19  1  0.162406  0.324813  0.539845  1
  In  In20  1  0.675187  0.837594  0.539845  1
  In  In21  1  0.162406  0.837594  0.539845  1
  Co  Co22  1  0.333333  0.666667  0.070291  1
  Ni  Ni23  1  0.666667  0.333333  0.565479  1
