# generated using pymatgen
data_Ce6PaO12
_symmetry_space_group_name_H-M   'P 1'
_cell_length_a   6.80961585
_cell_length_b   6.80961504
_cell_length_c   6.80961436
_cell_angle_alpha   99.14417407
_cell_angle_beta   99.14416657
_cell_angle_gamma   99.14418659
_symmetry_Int_Tables_number   1
_chemical_formula_structural   Ce6PaO12
_chemical_formula_sum   'Ce6 Pa1 O12'
_cell_volume   302.24870571
_cell_formula_units_Z   1
loop_
 _symmetry_equiv_pos_site_id
 _symmetry_equiv_pos_as_xyz
  1  'x, y, z'
loop_
 _atom_site_type_symbol
 _atom_site_label
 _atom_site_symmetry_multiplicity
 _atom_site_fract_x
 _atom_site_fract_y
 _atom_site_fract_z
 _atom_site_occupancy
  Ce  Ce0  1  0.859450  0.695666  0.399089  1
  Ce  Ce1  1  0.399089  0.859450  0.695666  1
  Ce  Ce2  1  0.695666  0.399089  0.859450  1
  Ce  Ce3  1  0.140550  0.304334  0.600911  1
  Ce  Ce4  1  0.600911  0.140550  0.304334  1
  Ce  Ce5  1  0.304334  0.600911  0.140550  1
  Pa  Pa6  1  0.000000  0.000000  0.000000  1
  O  O7  1  0.059081  0.929880  0.689847  1
  O  O8  1  0.689847  0.059081  0.929880  1
  O  O9  1  0.929880  0.689847  0.059081  1
  O  O10  1  0.940919  0.070120  0.310153  1
  O  O11  1  0.310153  0.940919  0.070120  1
  O  O12  1  0.070120  0.310153  0.940919  1
  O  O13  1  0.566556  0.822787  0.413357  1
  O  O14  1  0.177213  0.586643  0.433444  1
  O  O15  1  0.586643  0.433444  0.177213  1
  O  O16  1  0.433444  0.177213  0.586643  1
  O  O17  1  0.822787  0.413357  0.566556  1
  O  O18  1  0.413357  0.566556  0.822787  1
