# generated using pymatgen
data_YbDyEr2(Ga3Ir)6
_symmetry_space_group_name_H-M   'P 1'
_cell_length_a   7.57527204
_cell_length_b   7.56865808
_cell_length_c   9.51093500
_cell_angle_alpha   90.00114623
_cell_angle_beta   90.00165947
_cell_angle_gamma   119.84666284
_symmetry_Int_Tables_number   1
_chemical_formula_structural   YbDyEr2(Ga3Ir)6
_chemical_formula_sum   'Yb1 Dy1 Er2 Ga18 Ir6'
_cell_volume   472.97690330
_cell_formula_units_Z   1
loop_
 _symmetry_equiv_pos_site_id
 _symmetry_equiv_pos_as_xyz
  1  'x, y, z'
loop_
 _atom_site_type_symbol
 _atom_site_label
 _atom_site_symmetry_multiplicity
 _atom_site_fract_x
 _atom_site_fract_y
 _atom_site_fract_z
 _atom_site_occupancy
  Yb  Yb0  1  0.667739  0.996887  0.750005  1
  Dy  Dy1  1  0.997464  0.667952  0.750005  1
  Er  Er2  1  0.002101  0.331834  0.249987  1
  Er  Er3  1  0.332166  0.002145  0.249991  1
  Ga  Ga4  1  0.126955  0.126562  0.749999  1
  Ga  Ga5  1  0.873102  0.873229  0.250005  1
  Ga  Ga6  1  0.998659  0.332978  0.580008  1
  Ga  Ga7  1  0.001032  0.665646  0.418998  1
  Ga  Ga8  1  0.001034  0.665650  0.081006  1
  Ga  Ga9  1  0.335548  0.000012  0.919588  1
  Ga  Ga10  1  0.998661  0.332974  0.919985  1
  Ga  Ga11  1  0.665409  0.000521  0.079931  1
  Ga  Ga12  1  0.665412  0.000524  0.420073  1
  Ga  Ga13  1  0.335545  0.000012  0.580408  1
  Ga  Ga14  1  0.332113  0.332163  0.065396  1
  Ga  Ga15  1  0.667370  0.668713  0.936530  1
  Ga  Ga16  1  0.667373  0.668722  0.563469  1
  Ga  Ga17  1  0.332112  0.332157  0.434610  1
  Ga  Ga18  1  0.337966  0.546590  0.750002  1
  Ga  Ga19  1  0.661425  0.453257  0.250002  1
  Ga  Ga20  1  0.546661  0.338247  0.750001  1
  Ga  Ga21  1  0.453608  0.661671  0.250000  1
  Ir  Ir22  1  0.671134  0.328929  0.499201  1
  Ir  Ir23  1  0.328301  0.670808  0.499509  1
  Ir  Ir24  1  0.328303  0.670810  0.000493  1
  Ir  Ir25  1  0.671133  0.328928  0.000800  1
  Ir  Ir26  1  0.000840  0.001043  0.498994  1
  Ir  Ir27  1  0.000837  0.001037  0.001005  1
