# generated using pymatgen
data_Ho2Al9Ru2Au
_symmetry_space_group_name_H-M   'P 1'
_cell_length_a   7.61397023
_cell_length_b   7.61397045
_cell_length_c   9.52527500
_cell_angle_alpha   90.00000000
_cell_angle_beta   90.00000000
_cell_angle_gamma   119.22570205
_symmetry_Int_Tables_number   1
_chemical_formula_structural   Ho2Al9Ru2Au
_chemical_formula_sum   'Ho4 Al18 Ru4 Au2'
_cell_volume   481.91053926
_cell_formula_units_Z   2
loop_
 _symmetry_equiv_pos_site_id
 _symmetry_equiv_pos_as_xyz
  1  'x, y, z'
loop_
 _atom_site_type_symbol
 _atom_site_label
 _atom_site_symmetry_multiplicity
 _atom_site_fract_x
 _atom_site_fract_y
 _atom_site_fract_z
 _atom_site_occupancy
  Ho  Ho0  1  0.997397  0.678258  0.750000  1
  Ho  Ho1  1  0.002603  0.321742  0.250000  1
  Ho  Ho2  1  0.678258  0.997397  0.750000  1
  Ho  Ho3  1  0.321742  0.002603  0.250000  1
  Al  Al4  1  0.145201  0.145201  0.750000  1
  Al  Al5  1  0.854799  0.854799  0.250000  1
  Al  Al6  1  0.002770  0.347890  0.576901  1
  Al  Al7  1  0.997230  0.652110  0.423099  1
  Al  Al8  1  0.997230  0.652110  0.076901  1
  Al  Al9  1  0.347890  0.002770  0.923099  1
  Al  Al10  1  0.002770  0.347890  0.923099  1
  Al  Al11  1  0.652110  0.997230  0.076901  1
  Al  Al12  1  0.652110  0.997230  0.423099  1
  Al  Al13  1  0.347890  0.002770  0.576901  1
  Al  Al14  1  0.343753  0.343753  0.053349  1
  Al  Al15  1  0.656247  0.656247  0.946651  1
  Al  Al16  1  0.656247  0.656247  0.553349  1
  Al  Al17  1  0.343753  0.343753  0.446651  1
  Al  Al18  1  0.337974  0.556790  0.750000  1
  Al  Al19  1  0.662026  0.443210  0.250000  1
  Al  Al20  1  0.556790  0.337974  0.750000  1
  Al  Al21  1  0.443210  0.662026  0.250000  1
  Ru  Ru22  1  0.672487  0.327513  0.500000  1
  Ru  Ru23  1  0.327513  0.672487  0.500000  1
  Ru  Ru24  1  0.327513  0.672487  0.000000  1
  Ru  Ru25  1  0.672487  0.327513  0.000000  1
  Au  Au26  1  0.000000  0.000000  0.500000  1
  Au  Au27  1  0.000000  0.000000  0.000000  1
