# generated using pymatgen
data_K2Pa3OF12
_symmetry_space_group_name_H-M   'P 1'
_cell_length_a   11.34552306
_cell_length_b   11.34552269
_cell_length_c   11.34552307
_cell_angle_alpha   43.63309893
_cell_angle_beta   43.63310281
_cell_angle_gamma   43.63310117
_symmetry_Int_Tables_number   1
_chemical_formula_structural   K2Pa3OF12
_chemical_formula_sum   'K4 Pa6 O2 F24'
_cell_volume   631.10940001
_cell_formula_units_Z   2
loop_
 _symmetry_equiv_pos_site_id
 _symmetry_equiv_pos_as_xyz
  1  'x, y, z'
loop_
 _atom_site_type_symbol
 _atom_site_label
 _atom_site_symmetry_multiplicity
 _atom_site_fract_x
 _atom_site_fract_y
 _atom_site_fract_z
 _atom_site_occupancy
  K  K0  1  0.000000  0.000000  0.000000  1
  K  K1  1  0.500000  0.500000  0.500000  1
  K  K2  1  0.138704  0.138704  0.138704  1
  K  K3  1  0.861296  0.861296  0.861296  1
  Pa  Pa4  1  0.580419  0.580419  0.035077  1
  Pa  Pa5  1  0.035077  0.580419  0.580419  1
  Pa  Pa6  1  0.580419  0.035077  0.580419  1
  Pa  Pa7  1  0.419581  0.964923  0.419581  1
  Pa  Pa8  1  0.964923  0.419581  0.419581  1
  Pa  Pa9  1  0.419581  0.419581  0.964923  1
  O  O10  1  0.720306  0.720306  0.720306  1
  O  O11  1  0.279694  0.279694  0.279694  1
  F  F12  1  0.696989  0.696989  0.368293  1
  F  F13  1  0.368293  0.696989  0.696989  1
  F  F14  1  0.696989  0.368293  0.696989  1
  F  F15  1  0.303011  0.631707  0.303011  1
  F  F16  1  0.303011  0.303011  0.631707  1
  F  F17  1  0.631707  0.303011  0.303011  1
  F  F18  1  0.917583  0.917583  0.399249  1
  F  F19  1  0.399249  0.917583  0.917583  1
  F  F20  1  0.648144  0.351856  0.000000  1
  F  F21  1  0.351856  0.000000  0.648144  1
  F  F22  1  0.000000  0.648144  0.351856  1
  F  F23  1  0.351856  0.648144  0.000000  1
  F  F24  1  0.648144  0.000000  0.351856  1
  F  F25  1  0.000000  0.351856  0.648144  1
  F  F26  1  0.912332  0.339913  0.339913  1
  F  F27  1  0.339913  0.339913  0.912332  1
  F  F28  1  0.339913  0.912332  0.339913  1
  F  F29  1  0.660087  0.087668  0.660087  1
  F  F30  1  0.087668  0.660087  0.660087  1
  F  F31  1  0.660087  0.660087  0.087668  1
  F  F32  1  0.600751  0.082417  0.082417  1
  F  F33  1  0.082417  0.082417  0.600751  1
  F  F34  1  0.082417  0.600751  0.082417  1
  F  F35  1  0.917583  0.399249  0.917583  1
