# generated using pymatgen
data_Lu2Bi2Ir3RhO14
_symmetry_space_group_name_H-M   'P 1'
_cell_length_a   7.24583110
_cell_length_b   7.24583030
_cell_length_c   7.23035406
_cell_angle_alpha   60.22666044
_cell_angle_beta   60.22666881
_cell_angle_gamma   60.39160272
_symmetry_Int_Tables_number   1
_chemical_formula_structural   Lu2Bi2Ir3RhO14
_chemical_formula_sum   'Lu2 Bi2 Ir3 Rh1 O14'
_cell_volume   270.13323359
_cell_formula_units_Z   1
loop_
 _symmetry_equiv_pos_site_id
 _symmetry_equiv_pos_as_xyz
  1  'x, y, z'
loop_
 _atom_site_type_symbol
 _atom_site_label
 _atom_site_symmetry_multiplicity
 _atom_site_fract_x
 _atom_site_fract_y
 _atom_site_fract_z
 _atom_site_occupancy
  Lu  Lu0  1  0.125000  0.125000  0.125000  1
  Lu  Lu1  1  0.125000  0.125000  0.625000  1
  Bi  Bi2  1  0.125000  0.625000  0.125000  1
  Bi  Bi3  1  0.625000  0.125000  0.125000  1
  Ir  Ir4  1  0.625000  0.625000  0.625000  1
  Ir  Ir5  1  0.125000  0.625000  0.625000  1
  Ir  Ir6  1  0.625000  0.125000  0.625000  1
  Rh  Rh7  1  0.625000  0.625000  0.125000  1
  O  O8  1  0.238752  0.238752  0.262619  1
  O  O9  1  0.283628  0.722162  0.289988  1
  O  O10  1  0.961562  0.961562  0.540997  1
  O  O11  1  0.527997  0.961501  0.549794  1
  O  O12  1  0.708874  0.708874  0.294110  1
  O  O13  1  0.961501  0.527997  0.549794  1
  O  O14  1  0.722003  0.288499  0.700206  1
  O  O15  1  0.288438  0.288438  0.709003  1
  O  O16  1  0.722162  0.283628  0.289988  1
  O  O17  1  0.288499  0.722003  0.700206  1
  O  O18  1  0.966372  0.527838  0.960012  1
  O  O19  1  0.541126  0.541126  0.955890  1
  O  O20  1  0.011248  0.011248  0.987381  1
  O  O21  1  0.527838  0.966372  0.960012  1
