# generated using pymatgen
data_Tm12ZnSi4Hg
_symmetry_space_group_name_H-M   'P 1'
_cell_length_a   8.36967606
_cell_length_b   8.36967425
_cell_length_c   8.36967600
_cell_angle_alpha   111.87133731
_cell_angle_beta   110.23499412
_cell_angle_gamma   106.35602507
_symmetry_Int_Tables_number   1
_chemical_formula_structural   Tm12ZnSi4Hg
_chemical_formula_sum   'Tm12 Zn1 Si4 Hg1'
_cell_volume   450.24901260
_cell_formula_units_Z   1
loop_
 _symmetry_equiv_pos_site_id
 _symmetry_equiv_pos_as_xyz
  1  'x, y, z'
loop_
 _atom_site_type_symbol
 _atom_site_label
 _atom_site_symmetry_multiplicity
 _atom_site_fract_x
 _atom_site_fract_y
 _atom_site_fract_z
 _atom_site_occupancy
  Tm  Tm0  1  0.440491  0.245578  0.194913  1
  Tm  Tm1  1  0.559509  0.754422  0.805087  1
  Tm  Tm2  1  0.050665  0.245578  0.805087  1
  Tm  Tm3  1  0.949335  0.754422  0.194913  1
  Tm  Tm4  1  0.176267  0.267927  0.444195  1
  Tm  Tm5  1  0.823733  0.732073  0.555805  1
  Tm  Tm6  1  0.176267  0.732073  0.908338  1
  Tm  Tm7  1  0.823733  0.267927  0.091662  1
  Tm  Tm8  1  0.324374  0.621679  0.297304  1
  Tm  Tm9  1  0.675626  0.378321  0.702696  1
  Tm  Tm10  1  0.324374  0.027069  0.702696  1
  Tm  Tm11  1  0.675626  0.972931  0.297304  1
  Zn  Zn12  1  0.000000  0.000000  0.000000  1
  Si  Si13  1  0.353606  0.000000  0.353606  1
  Si  Si14  1  0.646394  0.000000  0.646394  1
  Si  Si15  1  0.118679  0.618679  0.500000  1
  Si  Si16  1  0.881321  0.381321  0.500000  1
  Hg  Hg17  1  0.500000  0.500000  0.000000  1
