# generated using pymatgen
data_KBaPu2(CuSe3)2
_symmetry_space_group_name_H-M   'P 1'
_cell_length_a   7.49537346
_cell_length_b   7.49537492
_cell_length_c   10.76097900
_cell_angle_alpha   90.00000000
_cell_angle_beta   90.00000000
_cell_angle_gamma   147.50382062
_symmetry_Int_Tables_number   1
_chemical_formula_structural   KBaPu2(CuSe3)2
_chemical_formula_sum   'K1 Ba1 Pu2 Cu2 Se6'
_cell_volume   324.79511192
_cell_formula_units_Z   1
loop_
 _symmetry_equiv_pos_site_id
 _symmetry_equiv_pos_as_xyz
  1  'x, y, z'
loop_
 _atom_site_type_symbol
 _atom_site_label
 _atom_site_symmetry_multiplicity
 _atom_site_fract_x
 _atom_site_fract_y
 _atom_site_fract_z
 _atom_site_occupancy
  K  K0  1  0.747124  0.252876  0.250000  1
  Ba  Ba1  1  0.254305  0.745695  0.750000  1
  Pu  Pu2  1  0.999612  0.000388  0.001966  1
  Pu  Pu3  1  0.999612  0.000388  0.498034  1
  Cu  Cu4  1  0.531883  0.468117  0.750000  1
  Cu  Cu5  1  0.465547  0.534453  0.250000  1
  Se  Se6  1  0.630847  0.369153  0.933097  1
  Se  Se7  1  0.063750  0.936250  0.250000  1
  Se  Se8  1  0.371923  0.628077  0.440323  1
  Se  Se9  1  0.371923  0.628077  0.059677  1
  Se  Se10  1  0.630847  0.369153  0.566903  1
  Se  Se11  1  0.932628  0.067372  0.750000  1
