# generated using pymatgen
data_Tb2Nd3SmRuBr10
_symmetry_space_group_name_H-M   'P 1'
_cell_length_a   7.53860261
_cell_length_b   9.47225262
_cell_length_c   9.49061790
_cell_angle_alpha   108.41935232
_cell_angle_beta   95.73670933
_cell_angle_gamma   105.79206470
_symmetry_Int_Tables_number   1
_chemical_formula_structural   Tb2Nd3SmRuBr10
_chemical_formula_sum   'Tb2 Nd3 Sm1 Ru1 Br10'
_cell_volume   605.74450655
_cell_formula_units_Z   1
loop_
 _symmetry_equiv_pos_site_id
 _symmetry_equiv_pos_as_xyz
  1  'x, y, z'
loop_
 _atom_site_type_symbol
 _atom_site_label
 _atom_site_symmetry_multiplicity
 _atom_site_fract_x
 _atom_site_fract_y
 _atom_site_fract_z
 _atom_site_occupancy
  Tb  Tb0  1  0.363651  0.135454  0.179795  1
  Tb  Tb1  1  0.636223  0.862699  0.819716  1
  Nd  Nd2  1  0.127079  0.047053  0.753869  1
  Nd  Nd3  1  0.871820  0.953354  0.245850  1
  Nd  Nd4  1  0.973197  0.297281  0.094805  1
  Sm  Sm5  1  0.027662  0.706784  0.906707  1
  Ru  Ru6  1  0.999605  0.000783  0.000130  1
  Br  Br7  1  0.548853  0.170873  0.918650  1
  Br  Br8  1  0.448388  0.826254  0.079358  1
  Br  Br9  1  0.361477  0.447339  0.272521  1
  Br  Br10  1  0.645660  0.552785  0.729166  1
  Br  Br11  1  0.255274  0.084950  0.449698  1
  Br  Br12  1  0.743318  0.913815  0.550025  1
  Br  Br13  1  0.778287  0.254596  0.347284  1
  Br  Br14  1  0.218779  0.743235  0.655302  1
  Br  Br15  1  0.088307  0.369857  0.826993  1
  Br  Br16  1  0.912421  0.632890  0.170130  1
