# generated using pymatgen
data_Tb2LuThAl14(Ga2Ir3)2
_symmetry_space_group_name_H-M   'P 1'
_cell_length_a   7.57809600
_cell_length_b   7.58090696
_cell_length_c   9.46611400
_cell_angle_alpha   90.00000000
_cell_angle_beta   90.00000000
_cell_angle_gamma   119.47622514
_symmetry_Int_Tables_number   1
_chemical_formula_structural   Tb2LuThAl14(Ga2Ir3)2
_chemical_formula_sum   'Tb2 Lu1 Th1 Al14 Ga4 Ir6'
_cell_volume   473.42554116
_cell_formula_units_Z   1
loop_
 _symmetry_equiv_pos_site_id
 _symmetry_equiv_pos_as_xyz
  1  'x, y, z'
loop_
 _atom_site_type_symbol
 _atom_site_label
 _atom_site_symmetry_multiplicity
 _atom_site_fract_x
 _atom_site_fract_y
 _atom_site_fract_z
 _atom_site_occupancy
  Tb  Tb0  1  0.671907  0.994579  0.250000  1
  Tb  Tb1  1  0.324991  0.003105  0.750000  1
  Lu  Lu2  1  0.002257  0.324655  0.750000  1
  Th  Th3  1  0.994345  0.671182  0.250000  1
  Al  Al4  1  0.003019  0.331886  0.069677  1
  Al  Al5  1  0.999496  0.662655  0.917801  1
  Al  Al6  1  0.999496  0.662655  0.582199  1
  Al  Al7  1  0.340193  0.006567  0.428723  1
  Al  Al8  1  0.003019  0.331886  0.430323  1
  Al  Al9  1  0.665070  0.001241  0.577571  1
  Al  Al10  1  0.665070  0.001241  0.922429  1
  Al  Al11  1  0.340193  0.006567  0.071277  1
  Al  Al12  1  0.331888  0.332850  0.563103  1
  Al  Al13  1  0.662844  0.666094  0.457854  1
  Al  Al14  1  0.662844  0.666094  0.042146  1
  Al  Al15  1  0.331888  0.332850  0.936897  1
  Al  Al16  1  0.660778  0.448040  0.750000  1
  Al  Al17  1  0.447881  0.661721  0.750000  1
  Ga  Ga18  1  0.132445  0.135701  0.250000  1
  Ga  Ga19  1  0.866390  0.869412  0.750000  1
  Ga  Ga20  1  0.345677  0.548688  0.250000  1
  Ga  Ga21  1  0.543156  0.337446  0.250000  1
  Ir  Ir22  1  0.674133  0.330498  0.998023  1
  Ir  Ir23  1  0.327373  0.671888  0.997922  1
  Ir  Ir24  1  0.327373  0.671888  0.502078  1
  Ir  Ir25  1  0.674133  0.330498  0.501977  1
  Ir  Ir26  1  0.001068  0.999057  0.000462  1
  Ir  Ir27  1  0.001068  0.999057  0.499538  1
