# generated using pymatgen
data_Np2Al20FeRh3
_symmetry_space_group_name_H-M   'P 1'
_cell_length_a   6.84707154
_cell_length_b   6.81718494
_cell_length_c   9.11765908
_cell_angle_alpha   90.21932611
_cell_angle_beta   90.03018010
_cell_angle_gamma   97.71920609
_symmetry_Int_Tables_number   1
_chemical_formula_structural   Np2Al20FeRh3
_chemical_formula_sum   'Np2 Al20 Fe1 Rh3'
_cell_volume   421.73190041
_cell_formula_units_Z   1
loop_
 _symmetry_equiv_pos_site_id
 _symmetry_equiv_pos_as_xyz
  1  'x, y, z'
loop_
 _atom_site_type_symbol
 _atom_site_label
 _atom_site_symmetry_multiplicity
 _atom_site_fract_x
 _atom_site_fract_y
 _atom_site_fract_z
 _atom_site_occupancy
  Np  Np0  1  0.883173  0.122826  0.752420  1
  Np  Np1  1  0.116827  0.877174  0.247580  1
  Al  Al2  1  0.623711  0.377718  0.552194  1
  Al  Al3  1  0.376289  0.622282  0.447806  1
  Al  Al4  1  0.370183  0.620756  0.048673  1
  Al  Al5  1  0.629817  0.379244  0.951327  1
  Al  Al6  1  0.219869  0.220510  0.498692  1
  Al  Al7  1  0.780131  0.779490  0.501308  1
  Al  Al8  1  0.783608  0.775811  0.002109  1
  Al  Al9  1  0.216392  0.224189  0.997891  1
  Al  Al10  1  0.847537  0.159261  0.099981  1
  Al  Al11  1  0.152463  0.840739  0.900019  1
  Al  Al12  1  0.154806  0.845809  0.603135  1
  Al  Al13  1  0.845194  0.154191  0.396865  1
  Al  Al14  1  0.861776  0.589736  0.754631  1
  Al  Al15  1  0.138224  0.410264  0.245369  1
  Al  Al16  1  0.408641  0.142044  0.750898  1
  Al  Al17  1  0.591359  0.857956  0.249102  1
  Al  Al18  1  0.220221  0.479242  0.756003  1
  Al  Al19  1  0.779779  0.520758  0.243997  1
  Al  Al20  1  0.523356  0.776555  0.750812  1
  Al  Al21  1  0.476644  0.223445  0.249188  1
  Fe  Fe22  1  0.000000  0.500000  0.000000  1
  Rh  Rh23  1  0.000000  0.500000  0.500000  1
  Rh  Rh24  1  0.500000  0.000000  0.000000  1
  Rh  Rh25  1  0.500000  0.000000  0.500000  1
