# generated using pymatgen
data_DyEr3Ga4RuPt3
_symmetry_space_group_name_H-M   'P 1'
_cell_length_a   4.41923600
_cell_length_b   6.81899132
_cell_length_c   7.69516563
_cell_angle_alpha   89.30496564
_cell_angle_beta   90.00000000
_cell_angle_gamma   90.00000000
_symmetry_Int_Tables_number   1
_chemical_formula_structural   DyEr3Ga4RuPt3
_chemical_formula_sum   'Dy1 Er3 Ga4 Ru1 Pt3'
_cell_volume   231.87469183
_cell_formula_units_Z   1
loop_
 _symmetry_equiv_pos_site_id
 _symmetry_equiv_pos_as_xyz
  1  'x, y, z'
loop_
 _atom_site_type_symbol
 _atom_site_label
 _atom_site_symmetry_multiplicity
 _atom_site_fract_x
 _atom_site_fract_y
 _atom_site_fract_z
 _atom_site_occupancy
  Dy  Dy0  1  0.250000  0.981219  0.306654  1
  Er  Er1  1  0.250000  0.478464  0.189486  1
  Er  Er2  1  0.750000  0.018031  0.699660  1
  Er  Er3  1  0.750000  0.513697  0.803343  1
  Ga  Ga4  1  0.250000  0.329267  0.575732  1
  Ga  Ga5  1  0.250000  0.838797  0.926302  1
  Ga  Ga6  1  0.750000  0.668239  0.428146  1
  Ga  Ga7  1  0.750000  0.173372  0.069789  1
  Ru  Ru8  1  0.250000  0.229448  0.898754  1
  Pt  Pt9  1  0.250000  0.723873  0.604154  1
  Pt  Pt10  1  0.750000  0.770717  0.100340  1
  Pt  Pt11  1  0.750000  0.274874  0.397642  1
