# generated using pymatgen
data_Sm10Be2(ZnSi5)3
_symmetry_space_group_name_H-M   'P 1'
_cell_length_a   4.12745256
_cell_length_b   4.20147539
_cell_length_c   35.42767400
_cell_angle_alpha   86.57421116
_cell_angle_beta   86.61606480
_cell_angle_gamma   89.99302741
_symmetry_Int_Tables_number   1
_chemical_formula_structural   Sm10Be2(ZnSi5)3
_chemical_formula_sum   'Sm10 Be2 Zn3 Si15'
_cell_volume   612.19441586
_cell_formula_units_Z   1
loop_
 _symmetry_equiv_pos_site_id
 _symmetry_equiv_pos_as_xyz
  1  'x, y, z'
loop_
 _atom_site_type_symbol
 _atom_site_label
 _atom_site_symmetry_multiplicity
 _atom_site_fract_x
 _atom_site_fract_y
 _atom_site_fract_z
 _atom_site_occupancy
  Sm  Sm0  1  0.950233  0.450233  0.100269  1
  Sm  Sm1  1  0.349228  0.849870  0.301643  1
  Sm  Sm2  1  0.748058  0.248415  0.504634  1
  Sm  Sm3  1  0.149901  0.649736  0.701320  1
  Sm  Sm4  1  0.552255  0.051919  0.897321  1
  Sm  Sm5  1  0.002302  0.002153  0.994276  1
  Sm  Sm6  1  0.400810  0.401090  0.197197  1
  Sm  Sm7  1  0.799791  0.800365  0.399057  1
  Sm  Sm8  1  0.198606  0.197402  0.602583  1
  Sm  Sm9  1  0.601093  0.600250  0.797940  1
  Be  Be10  1  0.680750  0.681530  0.636808  1
  Be  Be11  1  0.083515  0.083808  0.832400  1
  Zn  Zn12  1  0.469075  0.968382  0.063031  1
  Zn  Zn13  1  0.867945  0.367900  0.265065  1
  Zn  Zn14  1  0.267291  0.766296  0.467955  1
  Si  Si15  1  0.667426  0.167334  0.666108  1
  Si  Si16  1  0.070098  0.569829  0.861371  1
  Si  Si17  1  0.917663  0.916250  0.165375  1
  Si  Si18  1  0.316492  0.316361  0.367306  1
  Si  Si19  1  0.713585  0.710991  0.572969  1
  Si  Si20  1  0.115775  0.113320  0.768793  1
  Si  Si21  1  0.518835  0.516308  0.962915  1
  Si  Si22  1  0.434354  0.936214  0.131086  1
  Si  Si23  1  0.833136  0.334758  0.332879  1
  Si  Si24  1  0.231258  0.732895  0.536631  1
  Si  Si25  1  0.633035  0.134415  0.733497  1
  Si  Si26  1  0.035866  0.537568  0.928817  1
  Si  Si27  1  0.484287  0.484739  0.029902  1
  Si  Si28  1  0.883059  0.884051  0.232247  1
  Si  Si29  1  0.281477  0.282818  0.434202  1
