# generated using pymatgen
data_Tb19Pr(Sn3Bi)4
_symmetry_space_group_name_H-M   'P 1'
_cell_length_a   8.18266058
_cell_length_b   8.25969108
_cell_length_c   15.57794669
_cell_angle_alpha   90.02649347
_cell_angle_beta   89.77444198
_cell_angle_gamma   89.92047754
_symmetry_Int_Tables_number   1
_chemical_formula_structural   Tb19Pr(Sn3Bi)4
_chemical_formula_sum   'Tb19 Pr1 Sn12 Bi4'
_cell_volume   1052.84568896
_cell_formula_units_Z   1
loop_
 _symmetry_equiv_pos_site_id
 _symmetry_equiv_pos_as_xyz
  1  'x, y, z'
loop_
 _atom_site_type_symbol
 _atom_site_label
 _atom_site_symmetry_multiplicity
 _atom_site_fract_x
 _atom_site_fract_y
 _atom_site_fract_z
 _atom_site_occupancy
  Tb  Tb0  1  0.374899  0.839857  0.875622  1
  Tb  Tb1  1  0.876551  0.660904  0.622715  1
  Tb  Tb2  1  0.622865  0.160498  0.376114  1
  Tb  Tb3  1  0.125292  0.339259  0.124801  1
  Tb  Tb4  1  0.632824  0.162072  0.122965  1
  Tb  Tb5  1  0.130681  0.337739  0.377589  1
  Tb  Tb6  1  0.370000  0.837565  0.621784  1
  Tb  Tb7  1  0.867948  0.661664  0.877000  1
  Tb  Tb8  1  0.540362  0.326260  0.895017  1
  Tb  Tb9  1  0.043233  0.173458  0.605583  1
  Tb  Tb10  1  0.457270  0.673883  0.394596  1
  Tb  Tb11  1  0.959000  0.824875  0.105043  1
  Tb  Tb12  1  0.478360  0.676173  0.103131  1
  Tb  Tb13  1  0.976003  0.825511  0.396587  1
  Tb  Tb14  1  0.523542  0.325502  0.601910  1
  Tb  Tb15  1  0.201387  0.500532  0.746226  1
  Tb  Tb16  1  0.700982  0.999260  0.752842  1
  Tb  Tb17  1  0.798791  0.499666  0.246960  1
  Tb  Tb18  1  0.298866  0.000330  0.253582  1
  Pr  Pr19  1  0.020925  0.177853  0.899951  1
  Sn  Sn20  1  0.709141  0.961451  0.958810  1
  Sn  Sn21  1  0.214643  0.532910  0.542158  1
  Sn  Sn22  1  0.284990  0.032700  0.457504  1
  Sn  Sn23  1  0.786292  0.466505  0.042545  1
  Sn  Sn24  1  0.567071  0.621891  0.748077  1
  Sn  Sn25  1  0.067282  0.876545  0.750445  1
  Sn  Sn26  1  0.433026  0.378525  0.248754  1
  Sn  Sn27  1  0.932927  0.121502  0.251812  1
  Sn  Sn28  1  0.338489  0.146811  0.750296  1
  Sn  Sn29  1  0.833602  0.354625  0.746500  1
  Sn  Sn30  1  0.663886  0.852955  0.251597  1
  Sn  Sn31  1  0.163350  0.647107  0.248720  1
  Bi  Bi32  1  0.285058  0.026986  0.045618  1
  Bi  Bi33  1  0.780163  0.471361  0.456018  1
  Bi  Bi34  1  0.720239  0.972136  0.543244  1
  Bi  Bi35  1  0.220058  0.533132  0.957882  1
