# generated using pymatgen
data_NdEr3(Zr3Si4)2
_symmetry_space_group_name_H-M   'P 1'
_cell_length_a   7.33974697
_cell_length_b   7.13611954
_cell_length_c   7.32580694
_cell_angle_alpha   72.00071569
_cell_angle_beta   89.89015042
_cell_angle_gamma   90.19085189
_symmetry_Int_Tables_number   1
_chemical_formula_structural   NdEr3(Zr3Si4)2
_chemical_formula_sum   'Nd1 Er3 Zr6 Si8'
_cell_volume   364.92386670
_cell_formula_units_Z   1
loop_
 _symmetry_equiv_pos_site_id
 _symmetry_equiv_pos_as_xyz
  1  'x, y, z'
loop_
 _atom_site_type_symbol
 _atom_site_label
 _atom_site_symmetry_multiplicity
 _atom_site_fract_x
 _atom_site_fract_y
 _atom_site_fract_z
 _atom_site_occupancy
  Nd  Nd0  1  0.829516  0.426606  0.688785  1
  Er  Er1  1  0.671932  0.925157  0.692773  1
  Er  Er2  1  0.327325  0.074706  0.307235  1
  Er  Er3  1  0.173380  0.575945  0.306229  1
  Zr  Zr4  1  0.678753  0.751075  0.248545  1
  Zr  Zr5  1  0.321170  0.248940  0.751830  1
  Zr  Zr6  1  0.181420  0.750687  0.752674  1
  Zr  Zr7  1  0.819323  0.249264  0.248659  1
  Zr  Zr8  1  0.000824  0.999772  0.000331  1
  Zr  Zr9  1  0.499243  0.500181  0.000680  1
  Si  Si10  1  0.968743  0.871752  0.417551  1
  Si  Si11  1  0.033853  0.123996  0.581022  1
  Si  Si12  1  0.465197  0.631006  0.579850  1
  Si  Si13  1  0.528174  0.371968  0.415073  1
  Si  Si14  1  0.877958  0.629289  0.994552  1
  Si  Si15  1  0.125413  0.371800  0.011123  1
  Si  Si16  1  0.376889  0.871928  0.009305  1
  Si  Si17  1  0.620887  0.125928  0.993783  1
