# generated using pymatgen
data_Pr4Nd5YSn8
_symmetry_space_group_name_H-M   'P 1'
_cell_length_a   8.29695300
_cell_length_b   8.45912800
_cell_length_c   16.01696500
_cell_angle_alpha   90.00000000
_cell_angle_beta   90.00000000
_cell_angle_gamma   90.00000000
_symmetry_Int_Tables_number   1
_chemical_formula_structural   Pr4Nd5YSn8
_chemical_formula_sum   'Pr8 Nd10 Y2 Sn16'
_cell_volume   1124.15048730
_cell_formula_units_Z   2
loop_
 _symmetry_equiv_pos_site_id
 _symmetry_equiv_pos_as_xyz
  1  'x, y, z'
loop_
 _atom_site_type_symbol
 _atom_site_label
 _atom_site_symmetry_multiplicity
 _atom_site_fract_x
 _atom_site_fract_y
 _atom_site_fract_z
 _atom_site_occupancy
  Pr  Pr0  1  0.514801  0.319489  0.902223  1
  Pr  Pr1  1  0.014801  0.180511  0.597777  1
  Pr  Pr2  1  0.485256  0.680457  0.401536  1
  Pr  Pr3  1  0.985256  0.819543  0.098464  1
  Pr  Pr4  1  0.485256  0.680457  0.098464  1
  Pr  Pr5  1  0.985256  0.819543  0.401536  1
  Pr  Pr6  1  0.514801  0.319489  0.597777  1
  Pr  Pr7  1  0.014801  0.180511  0.902223  1
  Nd  Nd8  1  0.363326  0.836010  0.879052  1
  Nd  Nd9  1  0.863326  0.663990  0.620948  1
  Nd  Nd10  1  0.637120  0.163171  0.377967  1
  Nd  Nd11  1  0.137120  0.336829  0.122033  1
  Nd  Nd12  1  0.637120  0.163171  0.122033  1
  Nd  Nd13  1  0.137120  0.336829  0.377967  1
  Nd  Nd14  1  0.363326  0.836010  0.620948  1
  Nd  Nd15  1  0.863326  0.663990  0.879052  1
  Nd  Nd16  1  0.194973  0.501212  0.750000  1
  Nd  Nd17  1  0.694973  0.998788  0.750000  1
  Y  Y18  1  0.803195  0.499330  0.250000  1
  Y  Y19  1  0.303195  0.000670  0.250000  1
  Sn  Sn20  1  0.297722  0.036492  0.043821  1
  Sn  Sn21  1  0.797722  0.463508  0.456179  1
  Sn  Sn22  1  0.701989  0.962128  0.541297  1
  Sn  Sn23  1  0.201989  0.537872  0.958703  1
  Sn  Sn24  1  0.701989  0.962128  0.958703  1
  Sn  Sn25  1  0.201989  0.537872  0.541297  1
  Sn  Sn26  1  0.297722  0.036492  0.456179  1
  Sn  Sn27  1  0.797722  0.463508  0.043821  1
  Sn  Sn28  1  0.563367  0.617019  0.750000  1
  Sn  Sn29  1  0.063367  0.882981  0.750000  1
  Sn  Sn30  1  0.439360  0.381906  0.250000  1
  Sn  Sn31  1  0.939360  0.118094  0.250000  1
  Sn  Sn32  1  0.321002  0.142706  0.750000  1
  Sn  Sn33  1  0.821002  0.357294  0.750000  1
  Sn  Sn34  1  0.677675  0.854566  0.250000  1
  Sn  Sn35  1  0.177675  0.645434  0.250000  1
