# generated using pymatgen
data_Tb12Dy4Tl3InRh4
_symmetry_space_group_name_H-M   'P 1'
_cell_length_a   9.70973206
_cell_length_b   9.70973089
_cell_length_c   9.70730925
_cell_angle_alpha   60.03991339
_cell_angle_beta   60.03991274
_cell_angle_gamma   60.09772322
_symmetry_Int_Tables_number   1
_chemical_formula_structural   Tb12Dy4Tl3InRh4
_chemical_formula_sum   'Tb12 Dy4 Tl3 In1 Rh4'
_cell_volume   648.00767982
_cell_formula_units_Z   1
loop_
 _symmetry_equiv_pos_site_id
 _symmetry_equiv_pos_as_xyz
  1  'x, y, z'
loop_
 _atom_site_type_symbol
 _atom_site_label
 _atom_site_symmetry_multiplicity
 _atom_site_fract_x
 _atom_site_fract_y
 _atom_site_fract_z
 _atom_site_occupancy
  Tb  Tb0  1  0.689259  0.311334  0.311752  1
  Tb  Tb1  1  0.688831  0.688831  0.311878  1
  Tb  Tb2  1  0.311334  0.689259  0.311752  1
  Tb  Tb3  1  0.937495  0.937495  0.562545  1
  Tb  Tb4  1  0.148385  0.148385  0.549668  1
  Tb  Tb5  1  0.559734  0.938647  0.560073  1
  Tb  Tb6  1  0.152531  0.152531  0.152386  1
  Tb  Tb7  1  0.311925  0.311925  0.689160  1
  Tb  Tb8  1  0.938647  0.559734  0.560073  1
  Tb  Tb9  1  0.559405  0.559405  0.938981  1
  Tb  Tb10  1  0.562035  0.937876  0.937688  1
  Tb  Tb11  1  0.937876  0.562035  0.937688  1
  Dy  Dy12  1  0.148329  0.549811  0.148301  1
  Dy  Dy13  1  0.311652  0.688549  0.689073  1
  Dy  Dy14  1  0.688549  0.311652  0.689073  1
  Dy  Dy15  1  0.549811  0.148329  0.148301  1
  Tl  Tl16  1  0.915188  0.915188  0.254913  1
  Tl  Tl17  1  0.254698  0.915321  0.915149  1
  Tl  Tl18  1  0.915321  0.254698  0.915149  1
  In  In19  1  0.916348  0.916348  0.916121  1
  Rh  Rh20  1  0.357713  0.357713  0.356099  1
  Rh  Rh21  1  0.927125  0.358878  0.358312  1
  Rh  Rh22  1  0.358929  0.358929  0.927555  1
  Rh  Rh23  1  0.358878  0.927125  0.358312  1
