# generated using pymatgen
data_Lu3Al2RhC
_symmetry_space_group_name_H-M   'P 1'
_cell_length_a   8.95615576
_cell_length_b   8.95607186
_cell_length_c   8.95672300
_cell_angle_alpha   59.99644614
_cell_angle_beta   59.99629732
_cell_angle_gamma   59.99504493
_symmetry_Int_Tables_number   1
_chemical_formula_structural   Lu3Al2RhC
_chemical_formula_sum   'Lu12 Al8 Rh4 C4'
_cell_volume   507.96439124
_cell_formula_units_Z   4
loop_
 _symmetry_equiv_pos_site_id
 _symmetry_equiv_pos_as_xyz
  1  'x, y, z'
loop_
 _atom_site_type_symbol
 _atom_site_label
 _atom_site_symmetry_multiplicity
 _atom_site_fract_x
 _atom_site_fract_y
 _atom_site_fract_z
 _atom_site_occupancy
  Lu  Lu0  1  0.551675  0.948330  0.551671  1
  Lu  Lu1  1  0.301682  0.698325  0.698324  1
  Lu  Lu2  1  0.698324  0.301662  0.301680  1
  Lu  Lu3  1  0.301678  0.698327  0.301659  1
  Lu  Lu4  1  0.698311  0.698332  0.301677  1
  Lu  Lu5  1  0.301691  0.301662  0.698322  1
  Lu  Lu6  1  0.551689  0.551668  0.948323  1
  Lu  Lu7  1  0.948318  0.551675  0.551676  1
  Lu  Lu8  1  0.551676  0.948338  0.948320  1
  Lu  Lu9  1  0.948309  0.948338  0.551678  1
  Lu  Lu10  1  0.698325  0.301670  0.698329  1
  Lu  Lu11  1  0.948322  0.551673  0.948341  1
  Al  Al12  1  0.923816  0.923821  0.923838  1
  Al  Al13  1  0.021470  0.326194  0.326173  1
  Al  Al14  1  0.326196  0.021473  0.326171  1
  Al  Al15  1  0.326187  0.326184  0.021475  1
  Al  Al16  1  0.923804  0.228527  0.923829  1
  Al  Al17  1  0.923813  0.923816  0.228525  1
  Al  Al18  1  0.228530  0.923806  0.923827  1
  Al  Al19  1  0.326184  0.326179  0.326162  1
  Rh  Rh20  1  0.125000  0.125000  0.125000  1
  Rh  Rh21  1  0.625000  0.125000  0.125000  1
  Rh  Rh22  1  0.125000  0.625000  0.125000  1
  Rh  Rh23  1  0.125000  0.125000  0.625000  1
  C  C24  1  0.625000  0.625000  0.625000  1
  C  C25  1  0.125000  0.625000  0.625000  1
  C  C26  1  0.625000  0.125000  0.625000  1
  C  C27  1  0.625000  0.625000  0.125000  1
