# generated using pymatgen
data_Tb3Dy2(In2Au)2
_symmetry_space_group_name_H-M   'P 1'
_cell_length_a   3.67823600
_cell_length_b   8.22079000
_cell_length_c   18.46138100
_cell_angle_alpha   90.00000000
_cell_angle_beta   90.00000000
_cell_angle_gamma   90.00000000
_symmetry_Int_Tables_number   1
_chemical_formula_structural   Tb3Dy2(In2Au)2
_chemical_formula_sum   'Tb6 Dy4 In8 Au4'
_cell_volume   558.23534440
_cell_formula_units_Z   2
loop_
 _symmetry_equiv_pos_site_id
 _symmetry_equiv_pos_as_xyz
  1  'x, y, z'
loop_
 _atom_site_type_symbol
 _atom_site_label
 _atom_site_symmetry_multiplicity
 _atom_site_fract_x
 _atom_site_fract_y
 _atom_site_fract_z
 _atom_site_occupancy
  Tb  Tb0  1  0.000000  0.500000  0.500000  1
  Tb  Tb1  1  0.000000  0.000000  0.000000  1
  Tb  Tb2  1  0.000000  0.735400  0.283181  1
  Tb  Tb3  1  0.000000  0.264600  0.716819  1
  Tb  Tb4  1  0.000000  0.764600  0.783181  1
  Tb  Tb5  1  0.000000  0.235400  0.216819  1
  Dy  Dy6  1  0.000000  0.620485  0.079679  1
  Dy  Dy7  1  0.000000  0.379515  0.920321  1
  Dy  Dy8  1  0.000000  0.879515  0.579679  1
  Dy  Dy9  1  0.000000  0.120485  0.420321  1
  In  In10  1  0.500000  0.709191  0.933433  1
  In  In11  1  0.500000  0.290809  0.066567  1
  In  In12  1  0.500000  0.790809  0.433433  1
  In  In13  1  0.500000  0.209191  0.566567  1
  In  In14  1  0.500000  0.581095  0.647203  1
  In  In15  1  0.500000  0.418905  0.352797  1
  In  In16  1  0.500000  0.918905  0.147203  1
  In  In17  1  0.500000  0.081095  0.852797  1
  Au  Au18  1  0.500000  0.527136  0.195906  1
  Au  Au19  1  0.500000  0.472864  0.804094  1
  Au  Au20  1  0.500000  0.972864  0.695906  1
  Au  Au21  1  0.500000  0.027136  0.304094  1
