# generated using pymatgen
data_Nd10Os3Rh
_symmetry_space_group_name_H-M   'P 1'
_cell_length_a   8.90580757
_cell_length_b   8.88900242
_cell_length_c   7.43097115
_cell_angle_alpha   83.52768194
_cell_angle_beta   83.58451858
_cell_angle_gamma   43.77831505
_symmetry_Int_Tables_number   1
_chemical_formula_structural   Nd10Os3Rh
_chemical_formula_sum   'Nd10 Os3 Rh1'
_cell_volume   404.01352552
_cell_formula_units_Z   1
loop_
 _symmetry_equiv_pos_site_id
 _symmetry_equiv_pos_as_xyz
  1  'x, y, z'
loop_
 _atom_site_type_symbol
 _atom_site_label
 _atom_site_symmetry_multiplicity
 _atom_site_fract_x
 _atom_site_fract_y
 _atom_site_fract_z
 _atom_site_occupancy
  Nd  Nd0  1  0.023200  0.794688  0.912565  1
  Nd  Nd1  1  0.203409  0.979870  0.585466  1
  Nd  Nd2  1  0.983090  0.204170  0.084269  1
  Nd  Nd3  1  0.798768  0.019088  0.416099  1
  Nd  Nd4  1  0.356603  0.206862  0.814398  1
  Nd  Nd5  1  0.791671  0.643798  0.685191  1
  Nd  Nd6  1  0.642746  0.787885  0.185136  1
  Nd  Nd7  1  0.202229  0.360817  0.318535  1
  Nd  Nd8  1  0.574106  0.428280  0.746304  1
  Nd  Nd9  1  0.426534  0.574223  0.251022  1
  Os  Os10  1  0.176565  0.602142  0.574761  1
  Os  Os11  1  0.397982  0.822844  0.926749  1
  Os  Os12  1  0.822622  0.398543  0.424692  1
  Rh  Rh13  1  0.600476  0.176791  0.074812  1
