# generated using pymatgen
data_Sr4Ho5Tm3Se16
_symmetry_space_group_name_H-M   'P 1'
_cell_length_a   4.12774800
_cell_length_b   12.64918908
_cell_length_c   14.92738303
_cell_angle_alpha   89.94733592
_cell_angle_beta   90.00000000
_cell_angle_gamma   90.00000000
_symmetry_Int_Tables_number   1
_chemical_formula_structural   Sr4Ho5Tm3Se16
_chemical_formula_sum   'Sr4 Ho5 Tm3 Se16'
_cell_volume   779.39811902
_cell_formula_units_Z   1
loop_
 _symmetry_equiv_pos_site_id
 _symmetry_equiv_pos_as_xyz
  1  'x, y, z'
loop_
 _atom_site_type_symbol
 _atom_site_label
 _atom_site_symmetry_multiplicity
 _atom_site_fract_x
 _atom_site_fract_y
 _atom_site_fract_z
 _atom_site_occupancy
  Sr  Sr0  1  0.250000  0.759092  0.335187  1
  Sr  Sr1  1  0.250000  0.258071  0.166125  1
  Sr  Sr2  1  0.750000  0.240764  0.663796  1
  Sr  Sr3  1  0.750000  0.740603  0.834864  1
  Ho  Ho4  1  0.250000  0.437230  0.388329  1
  Ho  Ho5  1  0.250000  0.937243  0.111538  1
  Ho  Ho6  1  0.750000  0.563495  0.610726  1
  Ho  Ho7  1  0.750000  0.061956  0.887793  1
  Ho  Ho8  1  0.250000  0.417728  0.903176  1
  Tm  Tm9  1  0.250000  0.917976  0.597138  1
  Tm  Tm10  1  0.750000  0.582797  0.098384  1
  Tm  Tm11  1  0.750000  0.081602  0.402441  1
  Se  Se12  1  0.250000  0.205801  0.826948  1
  Se  Se13  1  0.250000  0.707488  0.670843  1
  Se  Se14  1  0.750000  0.793212  0.172145  1
  Se  Se15  1  0.750000  0.292565  0.329213  1
  Se  Se16  1  0.250000  0.127636  0.528704  1
  Se  Se17  1  0.250000  0.629443  0.972380  1
  Se  Se18  1  0.750000  0.872103  0.470686  1
  Se  Se19  1  0.750000  0.372253  0.031621  1
  Se  Se20  1  0.250000  0.027108  0.285658  1
  Se  Se21  1  0.250000  0.527598  0.214857  1
  Se  Se22  1  0.750000  0.972257  0.713804  1
  Se  Se23  1  0.750000  0.474136  0.784951  1
  Se  Se24  1  0.250000  0.410688  0.577078  1
  Se  Se25  1  0.250000  0.910086  0.922618  1
  Se  Se26  1  0.750000  0.589606  0.422158  1
  Se  Se27  1  0.750000  0.089462  0.076840  1
