# generated using pymatgen
data_Er15Tm5Pt16
_symmetry_space_group_name_H-M   'P 1'
_cell_length_a   7.38503901
_cell_length_b   14.66272603
_cell_length_c   7.48356202
_cell_angle_alpha   90.00719702
_cell_angle_beta   90.00403093
_cell_angle_gamma   89.99792463
_symmetry_Int_Tables_number   1
_chemical_formula_structural   Er15Tm5Pt16
_chemical_formula_sum   'Er15 Tm5 Pt16'
_cell_volume   810.35603511
_cell_formula_units_Z   1
loop_
 _symmetry_equiv_pos_site_id
 _symmetry_equiv_pos_as_xyz
  1  'x, y, z'
loop_
 _atom_site_type_symbol
 _atom_site_label
 _atom_site_symmetry_multiplicity
 _atom_site_fract_x
 _atom_site_fract_y
 _atom_site_fract_z
 _atom_site_occupancy
  Er  Er0  1  0.641891  0.377623  0.167661  1
  Er  Er1  1  0.012823  0.593408  0.177019  1
  Er  Er2  1  0.012784  0.906601  0.177004  1
  Er  Er3  1  0.512826  0.593413  0.322900  1
  Er  Er4  1  0.512918  0.906727  0.322784  1
  Er  Er5  1  0.141849  0.122349  0.332281  1
  Er  Er6  1  0.141836  0.377592  0.332296  1
  Er  Er7  1  0.858160  0.622328  0.667729  1
  Er  Er8  1  0.858102  0.877664  0.667700  1
  Er  Er9  1  0.487292  0.093420  0.677118  1
  Er  Er10  1  0.487183  0.406550  0.677089  1
  Er  Er11  1  0.986986  0.093460  0.823150  1
  Er  Er12  1  0.987162  0.406569  0.822908  1
  Er  Er13  1  0.358144  0.622358  0.832327  1
  Er  Er14  1  0.358158  0.877656  0.832408  1
  Tm  Tm15  1  0.697453  0.750011  0.011207  1
  Tm  Tm16  1  0.641860  0.122486  0.167692  1
  Tm  Tm17  1  0.197448  0.750015  0.488810  1
  Tm  Tm18  1  0.802455  0.249906  0.511045  1
  Tm  Tm19  1  0.302719  0.249887  0.988956  1
  Pt  Pt20  1  0.306978  0.041569  0.030999  1
  Pt  Pt21  1  0.306334  0.458547  0.030763  1
  Pt  Pt22  1  0.937310  0.249742  0.111215  1
  Pt  Pt23  1  0.337817  0.750061  0.144894  1
  Pt  Pt24  1  0.837790  0.750031  0.355147  1
  Pt  Pt25  1  0.437803  0.249733  0.388564  1
  Pt  Pt26  1  0.805950  0.041568  0.468541  1
  Pt  Pt27  1  0.806335  0.458555  0.469251  1
  Pt  Pt28  1  0.193671  0.541425  0.530748  1
  Pt  Pt29  1  0.193542  0.958618  0.530784  1
  Pt  Pt30  1  0.562421  0.750046  0.611060  1
  Pt  Pt31  1  0.162325  0.249951  0.644784  1
  Pt  Pt32  1  0.662165  0.249761  0.855322  1
  Pt  Pt33  1  0.062365  0.750028  0.888930  1
  Pt  Pt34  1  0.693593  0.541399  0.969275  1
  Pt  Pt35  1  0.693550  0.958942  0.969643  1
