# generated using pymatgen
data_SmErMnIr3
_symmetry_space_group_name_H-M   'P 1'
_cell_length_a   5.20578095
_cell_length_b   5.20578085
_cell_length_c   5.20578140
_cell_angle_alpha   63.73724913
_cell_angle_beta   63.73724555
_cell_angle_gamma   63.73724891
_symmetry_Int_Tables_number   1
_chemical_formula_structural   SmErMnIr3
_chemical_formula_sum   'Sm1 Er1 Mn1 Ir3'
_cell_volume   107.98530770
_cell_formula_units_Z   1
loop_
 _symmetry_equiv_pos_site_id
 _symmetry_equiv_pos_as_xyz
  1  'x, y, z'
loop_
 _atom_site_type_symbol
 _atom_site_label
 _atom_site_symmetry_multiplicity
 _atom_site_fract_x
 _atom_site_fract_y
 _atom_site_fract_z
 _atom_site_occupancy
  Sm  Sm0  1  0.999577  0.999577  0.999577  1
  Er  Er1  1  0.251303  0.251303  0.251303  1
  Mn  Mn2  1  0.624906  0.624906  0.624906  1
  Ir  Ir3  1  0.624309  0.624309  0.125594  1
  Ir  Ir4  1  0.624309  0.125594  0.624309  1
  Ir  Ir5  1  0.125594  0.624309  0.624309  1
