# generated using pymatgen
data_Ho12Si12Ru3Rh
_symmetry_space_group_name_H-M   'P 1'
_cell_length_a   4.18481400
_cell_length_b   10.68729087
_cell_length_c   12.34711412
_cell_angle_alpha   90.06576359
_cell_angle_beta   90.00000000
_cell_angle_gamma   90.00000000
_symmetry_Int_Tables_number   1
_chemical_formula_structural   Ho12Si12Ru3Rh
_chemical_formula_sum   'Ho12 Si12 Ru3 Rh1'
_cell_volume   552.21597453
_cell_formula_units_Z   1
loop_
 _symmetry_equiv_pos_site_id
 _symmetry_equiv_pos_as_xyz
  1  'x, y, z'
loop_
 _atom_site_type_symbol
 _atom_site_label
 _atom_site_symmetry_multiplicity
 _atom_site_fract_x
 _atom_site_fract_y
 _atom_site_fract_z
 _atom_site_occupancy
  Ho  Ho0  1  0.250000  0.880043  0.020681  1
  Ho  Ho1  1  0.250000  0.620473  0.520475  1
  Ho  Ho2  1  0.750000  0.120508  0.979788  1
  Ho  Ho3  1  0.750000  0.380595  0.479174  1
  Ho  Ho4  1  0.250000  0.920918  0.605211  1
  Ho  Ho5  1  0.250000  0.578735  0.104764  1
  Ho  Ho6  1  0.750000  0.078491  0.395440  1
  Ho  Ho7  1  0.750000  0.420958  0.894849  1
  Ho  Ho8  1  0.250000  0.662952  0.800438  1
  Ho  Ho9  1  0.250000  0.836354  0.300049  1
  Ho  Ho10  1  0.750000  0.337270  0.199687  1
  Ho  Ho11  1  0.750000  0.161182  0.699061  1
  Si  Si12  1  0.250000  0.014018  0.822758  1
  Si  Si13  1  0.250000  0.488840  0.321342  1
  Si  Si14  1  0.750000  0.988324  0.178423  1
  Si  Si15  1  0.750000  0.511661  0.678619  1
  Si  Si16  1  0.250000  0.248783  0.841052  1
  Si  Si17  1  0.250000  0.250560  0.342252  1
  Si  Si18  1  0.750000  0.750509  0.158061  1
  Si  Si19  1  0.750000  0.748363  0.657448  1
  Si  Si20  1  0.250000  0.201613  0.542486  1
  Si  Si21  1  0.250000  0.299499  0.042327  1
  Si  Si22  1  0.750000  0.800045  0.457699  1
  Si  Si23  1  0.750000  0.698664  0.958249  1
  Ru  Ru24  1  0.250000  0.390518  0.680824  1
  Ru  Ru25  1  0.250000  0.109932  0.180938  1
  Ru  Ru26  1  0.750000  0.610679  0.319294  1
  Rh  Rh27  1  0.750000  0.889515  0.818606  1
