# generated using pymatgen
data_Ho8Hf12Si15Rh
_symmetry_space_group_name_H-M   'P 1'
_cell_length_a   7.28383571
_cell_length_b   7.26035505
_cell_length_c   13.35718986
_cell_angle_alpha   90.11780723
_cell_angle_beta   89.92550551
_cell_angle_gamma   89.91123544
_symmetry_Int_Tables_number   1
_chemical_formula_structural   Ho8Hf12Si15Rh
_chemical_formula_sum   'Ho8 Hf12 Si15 Rh1'
_cell_volume   706.36844808
_cell_formula_units_Z   1
loop_
 _symmetry_equiv_pos_site_id
 _symmetry_equiv_pos_as_xyz
  1  'x, y, z'
loop_
 _atom_site_type_symbol
 _atom_site_label
 _atom_site_symmetry_multiplicity
 _atom_site_fract_x
 _atom_site_fract_y
 _atom_site_fract_z
 _atom_site_occupancy
  Ho  Ho0  1  0.496399  0.154983  0.535197  1
  Ho  Ho1  1  0.500517  0.842293  0.034231  1
  Ho  Ho2  1  0.654853  0.004484  0.285875  1
  Ho  Ho3  1  0.344694  0.995686  0.783941  1
  Ho  Ho4  1  0.848454  0.504046  0.964871  1
  Ho  Ho5  1  0.153549  0.495214  0.464648  1
  Ho  Ho6  1  0.003711  0.654539  0.715288  1
  Ho  Ho7  1  0.995349  0.343450  0.213515  1
  Hf  Hf8  1  0.676761  0.323956  0.748972  1
  Hf  Hf9  1  0.324479  0.674003  0.250113  1
  Hf  Hf10  1  0.824035  0.824423  0.500063  1
  Hf  Hf11  1  0.175603  0.175401  0.001387  1
  Hf  Hf12  1  0.502982  0.349193  0.123574  1
  Hf  Hf13  1  0.503093  0.648000  0.625277  1
  Hf  Hf14  1  0.849463  0.005902  0.877593  1
  Hf  Hf15  1  0.148593  0.996639  0.375363  1
  Hf  Hf16  1  0.647414  0.502777  0.375695  1
  Hf  Hf17  1  0.350968  0.499587  0.873831  1
  Hf  Hf18  1  0.001899  0.856675  0.128052  1
  Hf  Hf19  1  0.996306  0.146884  0.624072  1
  Si  Si20  1  0.205017  0.859731  0.568643  1
  Si  Si21  1  0.640311  0.703838  0.817208  1
  Si  Si22  1  0.359943  0.295734  0.317408  1
  Si  Si23  1  0.859984  0.203843  0.433097  1
  Si  Si24  1  0.141067  0.796371  0.931724  1
  Si  Si25  1  0.700376  0.641259  0.184177  1
  Si  Si26  1  0.295547  0.359931  0.682160  1
  Si  Si27  1  0.546845  0.207962  0.933342  1
  Si  Si28  1  0.449951  0.795075  0.435843  1
  Si  Si29  1  0.704662  0.950379  0.685806  1
  Si  Si30  1  0.297210  0.049837  0.187559  1
  Si  Si31  1  0.796003  0.450907  0.564449  1
  Si  Si32  1  0.207370  0.551766  0.063693  1
  Si  Si33  1  0.949726  0.704244  0.315386  1
  Si  Si34  1  0.051240  0.294689  0.812392  1
  Rh  Rh35  1  0.795629  0.136302  0.065555  1
