# generated using pymatgen
data_SrLi12Ca7(NbN4)4
_symmetry_space_group_name_H-M   'P 1'
_cell_length_a   8.37228872
_cell_length_b   8.73799681
_cell_length_c   6.97743000
_cell_angle_alpha   90.00000000
_cell_angle_beta   90.00000000
_cell_angle_gamma   89.92643293
_symmetry_Int_Tables_number   1
_chemical_formula_structural   SrLi12Ca7(NbN4)4
_chemical_formula_sum   'Sr1 Li12 Ca7 Nb4 N16'
_cell_volume   510.44764969
_cell_formula_units_Z   1
loop_
 _symmetry_equiv_pos_site_id
 _symmetry_equiv_pos_as_xyz
  1  'x, y, z'
loop_
 _atom_site_type_symbol
 _atom_site_label
 _atom_site_symmetry_multiplicity
 _atom_site_fract_x
 _atom_site_fract_y
 _atom_site_fract_z
 _atom_site_occupancy
  Sr  Sr0  1  0.256224  0.254244  0.500001  1
  Li  Li1  1  0.015588  0.363439  0.232256  1
  Li  Li2  1  0.981461  0.640495  0.237663  1
  Li  Li3  1  0.521429  0.138095  0.260088  1
  Li  Li4  1  0.481762  0.859290  0.261369  1
  Li  Li5  1  0.981461  0.640495  0.762337  1
  Li  Li6  1  0.015588  0.363439  0.767744  1
  Li  Li7  1  0.481762  0.859290  0.738631  1
  Li  Li8  1  0.521429  0.138095  0.739912  1
  Li  Li9  1  0.212600  0.424952  0.000000  1
  Li  Li10  1  0.790371  0.575445  0.000000  1
  Li  Li11  1  0.713866  0.077579  0.500001  1
  Li  Li12  1  0.290627  0.924094  0.500001  1
  Ca  Ca13  1  0.998307  0.997959  0.261169  1
  Ca  Ca14  1  0.501645  0.502386  0.236663  1
  Ca  Ca15  1  0.998307  0.997959  0.738831  1
  Ca  Ca16  1  0.501645  0.502386  0.763337  1
  Ca  Ca17  1  0.242063  0.753516  0.000000  1
  Ca  Ca18  1  0.757917  0.248853  0.000000  1
  Ca  Ca19  1  0.741740  0.749923  0.500001  1
  Nb  Nb20  1  0.280614  0.134279  0.000000  1
  Nb  Nb21  1  0.718842  0.862714  0.000000  1
  Nb  Nb22  1  0.781542  0.365013  0.500001  1
  Nb  Nb23  1  0.219175  0.639228  0.500001  1
  N  N24  1  0.295900  0.011016  0.234204  1
  N  N25  1  0.703358  0.982719  0.237340  1
  N  N26  1  0.796748  0.484309  0.260148  1
  N  N27  1  0.203097  0.518565  0.262654  1
  N  N28  1  0.703358  0.982719  0.762660  1
  N  N29  1  0.295900  0.011016  0.765796  1
  N  N30  1  0.203097  0.518565  0.737346  1
  N  N31  1  0.796748  0.484309  0.739852  1
  N  N32  1  0.057410  0.217623  0.000000  1
  N  N33  1  0.943097  0.783324  0.000000  1
  N  N34  1  0.562406  0.281079  0.500001  1
  N  N35  1  0.444128  0.717554  0.500001  1
  N  N36  1  0.458118  0.287237  0.000000  1
  N  N37  1  0.540965  0.710847  0.000000  1
  N  N38  1  0.949506  0.206188  0.500001  1
  N  N39  1  0.040200  0.789760  0.500001  1
