# generated using pymatgen
data_Ca5SnSb2
_symmetry_space_group_name_H-M   'P 1'
_cell_length_a   9.19176261
_cell_length_b   9.21914941
_cell_length_c   6.97909100
_cell_angle_alpha   90.00000000
_cell_angle_beta   90.00000000
_cell_angle_gamma   120.09860710
_symmetry_Int_Tables_number   1
_chemical_formula_structural   Ca5SnSb2
_chemical_formula_sum   'Ca10 Sn2 Sb4'
_cell_volume   511.66623615
_cell_formula_units_Z   2
loop_
 _symmetry_equiv_pos_site_id
 _symmetry_equiv_pos_as_xyz
  1  'x, y, z'
loop_
 _atom_site_type_symbol
 _atom_site_label
 _atom_site_symmetry_multiplicity
 _atom_site_fract_x
 _atom_site_fract_y
 _atom_site_fract_z
 _atom_site_occupancy
  Ca  Ca0  1  0.336800  0.668400  0.000000  1
  Ca  Ca1  1  0.667258  0.333628  0.500000  1
  Ca  Ca2  1  0.667258  0.333628  0.000000  1
  Ca  Ca3  1  0.336800  0.668400  0.500000  1
  Ca  Ca4  1  0.276212  0.000102  0.250000  1
  Ca  Ca5  1  0.276212  0.276110  0.750000  1
  Ca  Ca6  1  0.996040  0.722226  0.750000  1
  Ca  Ca7  1  0.996040  0.273814  0.250000  1
  Ca  Ca8  1  0.726119  0.729575  0.250000  1
  Ca  Ca9  1  0.726119  0.996544  0.750000  1
  Sn  Sn10  1  0.621977  0.002089  0.250000  1
  Sn  Sn11  1  0.621977  0.619888  0.750000  1
  Sb  Sb12  1  0.002160  0.377592  0.750000  1
  Sb  Sb13  1  0.002160  0.624568  0.250000  1
  Sb  Sb14  1  0.373435  0.374208  0.250000  1
  Sb  Sb15  1  0.373435  0.999227  0.750000  1
