# generated using pymatgen
data_La4B2CBr5
_symmetry_space_group_name_H-M   'P 1'
_cell_length_a   4.21277916
_cell_length_b   11.54293615
_cell_length_c   15.01298820
_cell_angle_alpha   91.12931328
_cell_angle_beta   98.06546799
_cell_angle_gamma   100.51442195
_symmetry_Int_Tables_number   1
_chemical_formula_structural   La4B2CBr5
_chemical_formula_sum   'La8 B4 C2 Br10'
_cell_volume   709.92055086
_cell_formula_units_Z   2
loop_
 _symmetry_equiv_pos_site_id
 _symmetry_equiv_pos_as_xyz
  1  'x, y, z'
loop_
 _atom_site_type_symbol
 _atom_site_label
 _atom_site_symmetry_multiplicity
 _atom_site_fract_x
 _atom_site_fract_y
 _atom_site_fract_z
 _atom_site_occupancy
  La  La0  1  0.970570  0.834997  0.106142  1
  La  La1  1  0.644531  0.156747  0.132317  1
  La  La2  1  0.557030  0.718521  0.395539  1
  La  La3  1  0.909018  0.415348  0.402690  1
  La  La4  1  0.090982  0.584652  0.597310  1
  La  La5  1  0.442970  0.281478  0.604461  1
  La  La6  1  0.355469  0.843252  0.867683  1
  La  La7  1  0.029430  0.165002  0.893858  1
  B  B8  1  0.316899  0.000000  0.000000  1
  B  B9  1  0.683100  0.000000  0.000000  1
  B  B10  1  0.054634  0.058282  0.050986  1
  B  B11  1  0.945366  0.941718  0.949014  1
  C  C12  1  0.513269  0.551421  0.475118  1
  C  C13  1  0.486731  0.448579  0.524882  1
  Br  Br14  1  0.341490  0.665746  0.017235  1
  Br  Br15  1  0.939139  0.618819  0.259461  1
  Br  Br16  1  0.591516  0.932403  0.250629  1
  Br  Br17  1  0.281666  0.298553  0.264780  1
  Br  Br18  1  0.824972  0.167489  0.482458  1
  Br  Br19  1  0.175027  0.832511  0.517542  1
  Br  Br20  1  0.718334  0.701447  0.735220  1
  Br  Br21  1  0.408484  0.067597  0.749371  1
  Br  Br22  1  0.060861  0.381181  0.740539  1
  Br  Br23  1  0.658509  0.334254  0.982765  1
