# generated using pymatgen
data_Tb4YTh7Ni12
_symmetry_space_group_name_H-M   'P 1'
_cell_length_a   4.32422200
_cell_length_b   5.55275833
_cell_length_c   20.85986208
_cell_angle_alpha   83.94662294
_cell_angle_beta   90.00000000
_cell_angle_gamma   90.00000000
_symmetry_Int_Tables_number   1
_chemical_formula_structural   Tb4YTh7Ni12
_chemical_formula_sum   'Tb4 Y1 Th7 Ni12'
_cell_volume   498.08082353
_cell_formula_units_Z   1
loop_
 _symmetry_equiv_pos_site_id
 _symmetry_equiv_pos_as_xyz
  1  'x, y, z'
loop_
 _atom_site_type_symbol
 _atom_site_label
 _atom_site_symmetry_multiplicity
 _atom_site_fract_x
 _atom_site_fract_y
 _atom_site_fract_z
 _atom_site_occupancy
  Tb  Tb0  1  0.250000  0.667712  0.438662  1
  Tb  Tb1  1  0.250000  0.976030  0.272150  1
  Tb  Tb2  1  0.750000  0.176084  0.893580  1
  Tb  Tb3  1  0.250000  0.823624  0.106639  1
  Y  Y4  1  0.750000  0.022513  0.728359  1
  Th  Th5  1  0.750000  0.322314  0.061480  1
  Th  Th6  1  0.250000  0.677975  0.938722  1
  Th  Th7  1  0.750000  0.496751  0.227711  1
  Th  Th8  1  0.250000  0.501005  0.772882  1
  Th  Th9  1  0.750000  0.183448  0.393695  1
  Th  Th10  1  0.250000  0.817597  0.606946  1
  Th  Th11  1  0.750000  0.338505  0.559955  1
  Ni  Ni12  1  0.750000  0.847305  0.013995  1
  Ni  Ni13  1  0.250000  0.152531  0.986261  1
  Ni  Ni14  1  0.750000  0.021727  0.180206  1
  Ni  Ni15  1  0.250000  0.977252  0.820186  1
  Ni  Ni16  1  0.750000  0.705176  0.345565  1
  Ni  Ni17  1  0.250000  0.289859  0.652980  1
  Ni  Ni18  1  0.750000  0.860412  0.513634  1
  Ni  Ni19  1  0.250000  0.145064  0.485874  1
  Ni  Ni20  1  0.750000  0.543639  0.681097  1
  Ni  Ni21  1  0.250000  0.454975  0.319338  1
  Ni  Ni22  1  0.750000  0.691959  0.846958  1
  Ni  Ni23  1  0.250000  0.306542  0.153127  1
