# generated using pymatgen
data_RbHoBeF6
_symmetry_space_group_name_H-M   'P 1'
_cell_length_a   5.86160400
_cell_length_b   6.55955262
_cell_length_c   7.29598376
_cell_angle_alpha   66.09754352
_cell_angle_beta   90.00000000
_cell_angle_gamma   90.00000000
_symmetry_Int_Tables_number   1
_chemical_formula_structural   RbHoBeF6
_chemical_formula_sum   'Rb2 Ho2 Be2 F12'
_cell_volume   256.46797941
_cell_formula_units_Z   2
loop_
 _symmetry_equiv_pos_site_id
 _symmetry_equiv_pos_as_xyz
  1  'x, y, z'
loop_
 _atom_site_type_symbol
 _atom_site_label
 _atom_site_symmetry_multiplicity
 _atom_site_fract_x
 _atom_site_fract_y
 _atom_site_fract_z
 _atom_site_occupancy
  Rb  Rb0  1  0.250000  0.083320  0.786283  1
  Rb  Rb1  1  0.750000  0.916680  0.213717  1
  Ho  Ho2  1  0.250000  0.393903  0.179032  1
  Ho  Ho3  1  0.750000  0.606097  0.820968  1
  Be  Be4  1  0.250000  0.767485  0.464764  1
  Be  Be5  1  0.750000  0.232515  0.535236  1
  F  F6  1  0.465998  0.752188  0.596762  1
  F  F7  1  0.534002  0.247812  0.403238  1
  F  F8  1  0.965998  0.247812  0.403238  1
  F  F9  1  0.034002  0.752188  0.596762  1
  F  F10  1  0.250000  0.580170  0.386593  1
  F  F11  1  0.750000  0.419830  0.613407  1
  F  F12  1  0.499653  0.675997  0.026668  1
  F  F13  1  0.500347  0.324003  0.973332  1
  F  F14  1  0.999653  0.324003  0.973332  1
  F  F15  1  0.000347  0.675997  0.026668  1
  F  F16  1  0.250000  0.999471  0.278373  1
  F  F17  1  0.750000  0.000529  0.721627  1
