# generated using pymatgen
data_K9Rb3(TcN2)8
_symmetry_space_group_name_H-M   'P 1'
_cell_length_a   6.62826948
_cell_length_b   10.03172288
_cell_length_c   11.04110100
_cell_angle_alpha   89.77767517
_cell_angle_beta   90.08610445
_cell_angle_gamma   89.53746150
_symmetry_Int_Tables_number   1
_chemical_formula_structural   K9Rb3(TcN2)8
_chemical_formula_sum   'K9 Rb3 Tc8 N16'
_cell_volume   734.12520324
_cell_formula_units_Z   1
loop_
 _symmetry_equiv_pos_site_id
 _symmetry_equiv_pos_as_xyz
  1  'x, y, z'
loop_
 _atom_site_type_symbol
 _atom_site_label
 _atom_site_symmetry_multiplicity
 _atom_site_fract_x
 _atom_site_fract_y
 _atom_site_fract_z
 _atom_site_occupancy
  K  K0  1  0.636593  0.150702  0.415452  1
  K  K1  1  0.860834  0.846893  0.424184  1
  K  K2  1  0.638672  0.346990  0.078935  1
  K  K3  1  0.863189  0.651831  0.082991  1
  K  K4  1  0.365911  0.848543  0.580793  1
  K  K5  1  0.745869  0.499883  0.418030  1
  K  K6  1  0.753163  0.000439  0.079647  1
  K  K7  1  0.246428  0.504984  0.585287  1
  K  K8  1  0.252529  0.001254  0.914816  1
  Rb  Rb9  1  0.148937  0.157232  0.573470  1
  Rb  Rb10  1  0.353645  0.658891  0.925012  1
  Rb  Rb11  1  0.144590  0.343921  0.918976  1
  Tc  Tc12  1  0.746271  0.500850  0.738343  1
  Tc  Tc13  1  0.756359  0.000358  0.758984  1
  Tc  Tc14  1  0.247578  0.498519  0.266823  1
  Tc  Tc15  1  0.248655  0.998599  0.234872  1
  Tc  Tc16  1  0.694071  0.250411  0.747843  1
  Tc  Tc17  1  0.806867  0.749870  0.749749  1
  Tc  Tc18  1  0.307504  0.748341  0.254163  1
  Tc  Tc19  1  0.189028  0.248947  0.248330  1
  N  N20  1  0.863010  0.356753  0.643658  1
  N  N21  1  0.635140  0.649527  0.643248  1
  N  N22  1  0.863593  0.144058  0.855848  1
  N  N23  1  0.637979  0.858562  0.854702  1
  N  N24  1  0.131034  0.646737  0.358166  1
  N  N25  1  0.353754  0.348228  0.360746  1
  N  N26  1  0.144065  0.849650  0.140444  1
  N  N27  1  0.365335  0.146781  0.143588  1
  N  N28  1  0.557066  0.399396  0.832137  1
  N  N29  1  0.936424  0.598973  0.835057  1
  N  N30  1  0.566365  0.097699  0.662079  1
  N  N31  1  0.951870  0.898106  0.668284  1
  N  N32  1  0.448573  0.594858  0.177187  1
  N  N33  1  0.055514  0.404704  0.168767  1
  N  N34  1  0.437099  0.902398  0.335678  1
  N  N35  1  0.046486  0.096110  0.323715  1
