# generated using pymatgen
data_Lu3TiZn2Ir3
_symmetry_space_group_name_H-M   'P 1'
_cell_length_a   6.99259193
_cell_length_b   6.86133637
_cell_length_c   4.06392200
_cell_angle_alpha   90.00000000
_cell_angle_beta   90.00000000
_cell_angle_gamma   119.38099331
_symmetry_Int_Tables_number   1
_chemical_formula_structural   Lu3TiZn2Ir3
_chemical_formula_sum   'Lu3 Ti1 Zn2 Ir3'
_cell_volume   169.90186951
_cell_formula_units_Z   1
loop_
 _symmetry_equiv_pos_site_id
 _symmetry_equiv_pos_as_xyz
  1  'x, y, z'
loop_
 _atom_site_type_symbol
 _atom_site_label
 _atom_site_symmetry_multiplicity
 _atom_site_fract_x
 _atom_site_fract_y
 _atom_site_fract_z
 _atom_site_occupancy
  Lu  Lu0  1  0.000000  0.394191  0.500000  1
  Lu  Lu1  1  0.576877  0.585302  0.500000  1
  Lu  Lu2  1  0.423123  0.008424  0.500000  1
  Ti  Ti3  1  0.000000  0.763468  0.000000  1
  Zn  Zn4  1  0.249052  0.245716  0.000000  1
  Zn  Zn5  1  0.750948  0.996664  0.000000  1
  Ir  Ir6  1  0.318358  0.673021  0.000000  1
  Ir  Ir7  1  0.681642  0.354662  0.000000  1
  Ir  Ir8  1  0.000000  0.978552  0.500000  1
