# generated using pymatgen
data_YHo5Sc4(In2Rh)4
_symmetry_space_group_name_H-M   'P 1'
_cell_length_a   3.54192100
_cell_length_b   7.88160205
_cell_length_c   17.92646313
_cell_angle_alpha   90.01351241
_cell_angle_beta   90.00000000
_cell_angle_gamma   90.00000000
_symmetry_Int_Tables_number   1
_chemical_formula_structural   YHo5Sc4(In2Rh)4
_chemical_formula_sum   'Y1 Ho5 Sc4 In8 Rh4'
_cell_volume   500.43534277
_cell_formula_units_Z   1
loop_
 _symmetry_equiv_pos_site_id
 _symmetry_equiv_pos_as_xyz
  1  'x, y, z'
loop_
 _atom_site_type_symbol
 _atom_site_label
 _atom_site_symmetry_multiplicity
 _atom_site_fract_x
 _atom_site_fract_y
 _atom_site_fract_z
 _atom_site_occupancy
  Y  Y0  1  0.000000  0.000000  0.000000  1
  Ho  Ho1  1  0.000000  0.500000  0.500000  1
  Ho  Ho2  1  0.000000  0.748395  0.781697  1
  Ho  Ho3  1  0.000000  0.251605  0.218303  1
  Ho  Ho4  1  0.000000  0.248440  0.718117  1
  Ho  Ho5  1  0.000000  0.751560  0.281883  1
  Sc  Sc6  1  0.000000  0.877969  0.588730  1
  Sc  Sc7  1  0.000000  0.122031  0.411270  1
  Sc  Sc8  1  0.000000  0.378089  0.911065  1
  Sc  Sc9  1  0.000000  0.621911  0.088935  1
  In  In10  1  0.500000  0.809096  0.438126  1
  In  In11  1  0.500000  0.190904  0.561874  1
  In  In12  1  0.500000  0.310012  0.061944  1
  In  In13  1  0.500000  0.689988  0.938056  1
  In  In14  1  0.500000  0.925281  0.150039  1
  In  In15  1  0.500000  0.074719  0.849961  1
  In  In16  1  0.500000  0.425604  0.350400  1
  In  In17  1  0.500000  0.574396  0.649600  1
  Rh  Rh18  1  0.500000  0.963026  0.692308  1
  Rh  Rh19  1  0.500000  0.036974  0.307692  1
  Rh  Rh20  1  0.500000  0.463377  0.807366  1
  Rh  Rh21  1  0.500000  0.536623  0.192634  1
