# generated using pymatgen
data_AcCo5As3
_symmetry_space_group_name_H-M   'P 1'
_cell_length_a   6.30983245
_cell_length_b   6.30983375
_cell_length_c   11.94284000
_cell_angle_alpha   90.00000000
_cell_angle_beta   90.00000000
_cell_angle_gamma   144.97853181
_symmetry_Int_Tables_number   1
_chemical_formula_structural   AcCo5As3
_chemical_formula_sum   'Ac2 Co10 As6'
_cell_volume   272.87702009
_cell_formula_units_Z   2
loop_
 _symmetry_equiv_pos_site_id
 _symmetry_equiv_pos_as_xyz
  1  'x, y, z'
loop_
 _atom_site_type_symbol
 _atom_site_label
 _atom_site_symmetry_multiplicity
 _atom_site_fract_x
 _atom_site_fract_y
 _atom_site_fract_z
 _atom_site_occupancy
  Ac  Ac0  1  0.333663  0.666337  0.250000  1
  Ac  Ac1  1  0.666337  0.333663  0.750000  1
  Co  Co2  1  0.052028  0.947972  0.142653  1
  Co  Co3  1  0.052028  0.947972  0.357347  1
  Co  Co4  1  0.693393  0.306607  0.432591  1
  Co  Co5  1  0.306607  0.693393  0.567409  1
  Co  Co6  1  0.306607  0.693393  0.932591  1
  Co  Co7  1  0.693393  0.306607  0.067409  1
  Co  Co8  1  0.500000  0.500000  0.500000  1
  Co  Co9  1  0.500000  0.500000  0.000000  1
  Co  Co10  1  0.947972  0.052028  0.642653  1
  Co  Co11  1  0.947972  0.052028  0.857347  1
  As  As12  1  0.607158  0.392842  0.250000  1
  As  As13  1  0.392842  0.607158  0.750000  1
  As  As14  1  0.119614  0.880386  0.538318  1
  As  As15  1  0.880386  0.119614  0.461682  1
  As  As16  1  0.880386  0.119614  0.038318  1
  As  As17  1  0.119614  0.880386  0.961682  1
