# generated using pymatgen
data_Y9ErCd3Ir
_symmetry_space_group_name_H-M   'P 1'
_cell_length_a   9.65974100
_cell_length_b   9.65974066
_cell_length_c   9.84817900
_cell_angle_alpha   90.00000000
_cell_angle_beta   90.00000000
_cell_angle_gamma   119.99999773
_symmetry_Int_Tables_number   1
_chemical_formula_structural   Y9ErCd3Ir
_chemical_formula_sum   'Y18 Er2 Cd6 Ir2'
_cell_volume   795.82490206
_cell_formula_units_Z   2
loop_
 _symmetry_equiv_pos_site_id
 _symmetry_equiv_pos_as_xyz
  1  'x, y, z'
loop_
 _atom_site_type_symbol
 _atom_site_label
 _atom_site_symmetry_multiplicity
 _atom_site_fract_x
 _atom_site_fract_y
 _atom_site_fract_z
 _atom_site_occupancy
  Y  Y0  1  0.209022  0.790978  0.440670  1
  Y  Y1  1  0.209022  0.418045  0.440670  1
  Y  Y2  1  0.581955  0.790978  0.440670  1
  Y  Y3  1  0.790978  0.209022  0.559330  1
  Y  Y4  1  0.790978  0.581955  0.559330  1
  Y  Y5  1  0.418045  0.209022  0.559330  1
  Y  Y6  1  0.790978  0.209022  0.940670  1
  Y  Y7  1  0.790978  0.581955  0.940670  1
  Y  Y8  1  0.418045  0.209022  0.940670  1
  Y  Y9  1  0.209022  0.790978  0.059330  1
  Y  Y10  1  0.209022  0.418045  0.059330  1
  Y  Y11  1  0.581955  0.790978  0.059330  1
  Y  Y12  1  0.541520  0.458480  0.250000  1
  Y  Y13  1  0.541520  0.083040  0.250000  1
  Y  Y14  1  0.916960  0.458480  0.250000  1
  Y  Y15  1  0.458480  0.541520  0.750000  1
  Y  Y16  1  0.458480  0.916960  0.750000  1
  Y  Y17  1  0.083040  0.541520  0.750000  1
  Er  Er18  1  0.000000  0.000000  0.500000  1
  Er  Er19  1  0.000000  0.000000  0.000000  1
  Cd  Cd20  1  0.885536  0.114464  0.250000  1
  Cd  Cd21  1  0.885536  0.771073  0.250000  1
  Cd  Cd22  1  0.228927  0.114464  0.250000  1
  Cd  Cd23  1  0.114464  0.885536  0.750000  1
  Cd  Cd24  1  0.114464  0.228927  0.750000  1
  Cd  Cd25  1  0.771073  0.885536  0.750000  1
  Ir  Ir26  1  0.333333  0.666667  0.250000  1
  Ir  Ir27  1  0.666667  0.333333  0.750000  1
