# generated using pymatgen
data_Cs2Mn2Cu4Se7S
_symmetry_space_group_name_H-M   'P 1'
_cell_length_a   10.33171650
_cell_length_b   10.32877192
_cell_length_c   7.75705986
_cell_angle_alpha   89.73148798
_cell_angle_beta   89.79113331
_cell_angle_gamma   147.95633979
_symmetry_Int_Tables_number   1
_chemical_formula_structural   Cs2Mn2Cu4Se7S
_chemical_formula_sum   'Cs2 Mn2 Cu4 Se7 S1'
_cell_volume   439.14469761
_cell_formula_units_Z   1
loop_
 _symmetry_equiv_pos_site_id
 _symmetry_equiv_pos_as_xyz
  1  'x, y, z'
loop_
 _atom_site_type_symbol
 _atom_site_label
 _atom_site_symmetry_multiplicity
 _atom_site_fract_x
 _atom_site_fract_y
 _atom_site_fract_z
 _atom_site_occupancy
  Cs  Cs0  1  0.176634  0.547711  0.747223  1
  Cs  Cs1  1  0.547834  0.172790  0.250081  1
  Mn  Mn2  1  0.706331  0.503428  0.749412  1
  Mn  Mn3  1  0.501358  0.704702  0.253884  1
  Cu  Cu4  1  0.626206  0.630460  0.500265  1
  Cu  Cu5  1  0.992360  0.197614  0.257854  1
  Cu  Cu6  1  0.206501  0.001328  0.747668  1
  Cu  Cu7  1  0.619467  0.620103  0.000683  1
  Se  Se8  1  0.734559  0.942378  0.009662  1
  Se  Se9  1  0.374292  0.362324  0.751516  1
  Se  Se10  1  0.358056  0.371346  0.253834  1
  Se  Se11  1  0.944593  0.739596  0.506002  1
  Se  Se12  1  0.567588  0.177423  0.748856  1
  Se  Se13  1  0.939005  0.731643  0.990818  1
  Se  Se14  1  0.173157  0.562673  0.254769  1
  S  S15  1  0.723863  0.926283  0.477475  1
