# generated using pymatgen
data_ErTi8(In2Co)7
_symmetry_space_group_name_H-M   'P 1'
_cell_length_a   9.21414023
_cell_length_b   9.21413981
_cell_length_c   9.21413900
_cell_angle_alpha   59.99999214
_cell_angle_beta   59.99999364
_cell_angle_gamma   59.99999426
_symmetry_Int_Tables_number   1
_chemical_formula_structural   ErTi8(In2Co)7
_chemical_formula_sum   'Er1 Ti8 In14 Co7'
_cell_volume   553.15814475
_cell_formula_units_Z   1
loop_
 _symmetry_equiv_pos_site_id
 _symmetry_equiv_pos_as_xyz
  1  'x, y, z'
loop_
 _atom_site_type_symbol
 _atom_site_label
 _atom_site_symmetry_multiplicity
 _atom_site_fract_x
 _atom_site_fract_y
 _atom_site_fract_z
 _atom_site_occupancy
  Er  Er0  1  0.500000  0.500000  0.500000  1
  Ti  Ti1  1  0.116348  0.650958  0.116348  1
  Ti  Ti2  1  0.349042  0.883652  0.883652  1
  Ti  Ti3  1  0.883652  0.883652  0.883652  1
  Ti  Ti4  1  0.650958  0.116348  0.116348  1
  Ti  Ti5  1  0.883652  0.883652  0.349042  1
  Ti  Ti6  1  0.116348  0.116348  0.116348  1
  Ti  Ti7  1  0.883652  0.349042  0.883652  1
  Ti  Ti8  1  0.116348  0.116348  0.650958  1
  In  In9  1  0.500000  0.846828  0.153172  1
  In  In10  1  0.500000  0.846828  0.500000  1
  In  In11  1  0.500000  0.153172  0.500000  1
  In  In12  1  0.500000  0.500000  0.846828  1
  In  In13  1  0.153172  0.500000  0.500000  1
  In  In14  1  0.846828  0.153172  0.500000  1
  In  In15  1  0.153172  0.846828  0.500000  1
  In  In16  1  0.500000  0.153172  0.846828  1
  In  In17  1  0.153172  0.500000  0.846828  1
  In  In18  1  0.500000  0.500000  0.153172  1
  In  In19  1  0.846828  0.500000  0.500000  1
  In  In20  1  0.846828  0.500000  0.153172  1
  In  In21  1  0.250000  0.250000  0.250000  1
  In  In22  1  0.750000  0.750000  0.750000  1
  Co  Co23  1  0.787945  0.787945  0.212055  1
  Co  Co24  1  0.000000  0.000000  0.000000  1
  Co  Co25  1  0.212055  0.787945  0.212055  1
  Co  Co26  1  0.212055  0.787945  0.787945  1
  Co  Co27  1  0.212055  0.212055  0.787945  1
  Co  Co28  1  0.787945  0.212055  0.787945  1
  Co  Co29  1  0.787945  0.212055  0.212055  1
