# generated using pymatgen
data_NdLu2(Co3P2)3
_symmetry_space_group_name_H-M   'P 1'
_cell_length_a   3.69545400
_cell_length_b   10.51639800
_cell_length_c   12.16404300
_cell_angle_alpha   90.00000000
_cell_angle_beta   90.00000000
_cell_angle_gamma   90.00000000
_symmetry_Int_Tables_number   1
_chemical_formula_structural   NdLu2(Co3P2)3
_chemical_formula_sum   'Nd2 Lu4 Co18 P12'
_cell_volume   472.72956163
_cell_formula_units_Z   2
loop_
 _symmetry_equiv_pos_site_id
 _symmetry_equiv_pos_as_xyz
  1  'x, y, z'
loop_
 _atom_site_type_symbol
 _atom_site_label
 _atom_site_symmetry_multiplicity
 _atom_site_fract_x
 _atom_site_fract_y
 _atom_site_fract_z
 _atom_site_occupancy
  Nd  Nd0  1  0.000000  0.500000  0.523195  1
  Nd  Nd1  1  0.500000  0.000000  0.476805  1
  Lu  Lu2  1  0.500000  0.818388  0.204594  1
  Lu  Lu3  1  0.500000  0.181612  0.204594  1
  Lu  Lu4  1  0.000000  0.681612  0.795406  1
  Lu  Lu5  1  0.000000  0.318388  0.795406  1
  Co  Co6  1  0.500000  0.500000  0.157005  1
  Co  Co7  1  0.000000  0.000000  0.842995  1
  Co  Co8  1  0.500000  0.500000  0.708098  1
  Co  Co9  1  0.000000  0.000000  0.291902  1
  Co  Co10  1  0.000000  0.500000  0.987067  1
  Co  Co11  1  0.500000  0.000000  0.012933  1
  Co  Co12  1  0.500000  0.332920  0.995018  1
  Co  Co13  1  0.500000  0.667080  0.995018  1
  Co  Co14  1  0.000000  0.167080  0.004982  1
  Co  Co15  1  0.000000  0.832920  0.004982  1
  Co  Co16  1  0.500000  0.296438  0.428634  1
  Co  Co17  1  0.500000  0.703562  0.428634  1
  Co  Co18  1  0.000000  0.203562  0.571366  1
  Co  Co19  1  0.000000  0.796438  0.571366  1
  Co  Co20  1  0.500000  0.878514  0.713001  1
  Co  Co21  1  0.500000  0.121486  0.713001  1
  Co  Co22  1  0.000000  0.621486  0.286999  1
  Co  Co23  1  0.000000  0.378514  0.286999  1
  P  P24  1  0.500000  0.500000  0.883842  1
  P  P25  1  0.000000  0.000000  0.116158  1
  P  P26  1  0.500000  0.500000  0.340151  1
  P  P27  1  0.000000  0.000000  0.659849  1
  P  P28  1  0.500000  0.308141  0.619202  1
  P  P29  1  0.500000  0.691859  0.619202  1
  P  P30  1  0.000000  0.191859  0.380798  1
  P  P31  1  0.000000  0.808141  0.380798  1
  P  P32  1  0.500000  0.845610  0.893099  1
  P  P33  1  0.500000  0.154390  0.893099  1
  P  P34  1  0.000000  0.654390  0.106901  1
  P  P35  1  0.000000  0.345610  0.106901  1
