# generated using pymatgen
data_Nd3Sm(SnRh2)4
_symmetry_space_group_name_H-M   'P 1'
_cell_length_a   7.17473694
_cell_length_b   4.45167600
_cell_length_c   10.07147900
_cell_angle_alpha   90.00000000
_cell_angle_beta   90.06721622
_cell_angle_gamma   90.00000000
_symmetry_Int_Tables_number   1
_chemical_formula_structural   Nd3Sm(SnRh2)4
_chemical_formula_sum   'Nd3 Sm1 Sn4 Rh8'
_cell_volume   321.67883191
_cell_formula_units_Z   1
loop_
 _symmetry_equiv_pos_site_id
 _symmetry_equiv_pos_as_xyz
  1  'x, y, z'
loop_
 _atom_site_type_symbol
 _atom_site_label
 _atom_site_symmetry_multiplicity
 _atom_site_fract_x
 _atom_site_fract_y
 _atom_site_fract_z
 _atom_site_occupancy
  Nd  Nd0  1  0.828015  0.250001  0.094296  1
  Nd  Nd1  1  0.326021  0.750000  0.405795  1
  Nd  Nd2  1  0.673791  0.250001  0.594059  1
  Sm  Sm3  1  0.172554  0.750000  0.905300  1
  Sn  Sn4  1  0.307333  0.250001  0.139842  1
  Sn  Sn5  1  0.808112  0.750000  0.356889  1
  Sn  Sn6  1  0.194104  0.250001  0.645054  1
  Sn  Sn7  1  0.694007  0.750000  0.857755  1
  Rh  Rh8  1  0.522264  0.750000  0.107711  1
  Rh  Rh9  1  0.101216  0.750000  0.186794  1
  Rh  Rh10  1  0.599253  0.250001  0.310865  1
  Rh  Rh11  1  0.024277  0.250001  0.392553  1
  Rh  Rh12  1  0.973725  0.750000  0.614750  1
  Rh  Rh13  1  0.400971  0.750000  0.688850  1
  Rh  Rh14  1  0.902160  0.250001  0.813657  1
  Rh  Rh15  1  0.472197  0.250001  0.885829  1
