# generated using pymatgen
data_Tm4Si4Ir3Rh
_symmetry_space_group_name_H-M   'P 1'
_cell_length_a   4.19946200
_cell_length_b   6.76126144
_cell_length_c   7.43042060
_cell_angle_alpha   89.92505429
_cell_angle_beta   90.00000000
_cell_angle_gamma   90.00000000
_symmetry_Int_Tables_number   1
_chemical_formula_structural   Tm4Si4Ir3Rh
_chemical_formula_sum   'Tm4 Si4 Ir3 Rh1'
_cell_volume   210.97665920
_cell_formula_units_Z   1
loop_
 _symmetry_equiv_pos_site_id
 _symmetry_equiv_pos_as_xyz
  1  'x, y, z'
loop_
 _atom_site_type_symbol
 _atom_site_label
 _atom_site_symmetry_multiplicity
 _atom_site_fract_x
 _atom_site_fract_y
 _atom_site_fract_z
 _atom_site_occupancy
  Tm  Tm0  1  0.250000  0.504541  0.189316  1
  Tm  Tm1  1  0.750000  0.495489  0.810732  1
  Tm  Tm2  1  0.750000  0.996732  0.688262  1
  Tm  Tm3  1  0.250000  0.004641  0.311711  1
  Si  Si4  1  0.250000  0.796214  0.890561  1
  Si  Si5  1  0.750000  0.205305  0.111333  1
  Si  Si6  1  0.750000  0.705109  0.388147  1
  Si  Si7  1  0.250000  0.294388  0.610529  1
  Ir  Ir8  1  0.750000  0.341400  0.434133  1
  Ir  Ir9  1  0.750000  0.841845  0.065455  1
  Ir  Ir10  1  0.250000  0.158782  0.934097  1
  Rh  Rh11  1  0.250000  0.655554  0.565724  1
