# generated using pymatgen
data_Li8Hf3TeBr24
_symmetry_space_group_name_H-M   'P 1'
_cell_length_a   6.77687200
_cell_length_b   6.77687173
_cell_length_c   26.63696200
_cell_angle_alpha   90.00000000
_cell_angle_beta   90.00000000
_cell_angle_gamma   120.00000131
_symmetry_Int_Tables_number   1
_chemical_formula_structural   Li8Hf3TeBr24
_chemical_formula_sum   'Li8 Hf3 Te1 Br24'
_cell_volume   1059.43390035
_cell_formula_units_Z   1
loop_
 _symmetry_equiv_pos_site_id
 _symmetry_equiv_pos_as_xyz
  1  'x, y, z'
loop_
 _atom_site_type_symbol
 _atom_site_label
 _atom_site_symmetry_multiplicity
 _atom_site_fract_x
 _atom_site_fract_y
 _atom_site_fract_z
 _atom_site_occupancy
  Li  Li0  1  0.000000  0.000000  0.250117  1
  Li  Li1  1  0.000000  0.000000  0.749883  1
  Li  Li2  1  0.333333  0.666667  0.000845  1
  Li  Li3  1  0.333333  0.666667  0.499123  1
  Li  Li4  1  0.333333  0.666667  0.250080  1
  Li  Li5  1  0.666667  0.333333  0.749920  1
  Li  Li6  1  0.666667  0.333333  0.999155  1
  Li  Li7  1  0.666667  0.333333  0.500877  1
  Hf  Hf8  1  0.000000  0.000000  0.500000  1
  Hf  Hf9  1  0.333333  0.666667  0.749815  1
  Hf  Hf10  1  0.666667  0.333333  0.250185  1
  Te  Te11  1  0.000000  0.000000  0.000000  1
  Br  Br12  1  0.349057  0.015379  0.306914  1
  Br  Br13  1  0.333466  0.984618  0.806604  1
  Br  Br14  1  0.999564  0.331341  0.058326  1
  Br  Br15  1  0.000456  0.318125  0.556736  1
  Br  Br16  1  0.984621  0.333679  0.306914  1
  Br  Br17  1  0.015382  0.348847  0.806604  1
  Br  Br18  1  0.348847  0.333466  0.193396  1
  Br  Br19  1  0.333679  0.349057  0.693086  1
  Br  Br20  1  0.318125  0.317670  0.443264  1
  Br  Br21  1  0.331341  0.331777  0.941674  1
  Br  Br22  1  0.682330  0.000456  0.443264  1
  Br  Br23  1  0.331777  0.000436  0.058326  1
  Br  Br24  1  0.317670  0.999544  0.556736  1
  Br  Br25  1  0.668659  0.668223  0.058326  1
  Br  Br26  1  0.681875  0.682330  0.556736  1
  Br  Br27  1  0.666321  0.650943  0.306914  1
  Br  Br28  1  0.651153  0.666534  0.806604  1
  Br  Br29  1  0.984618  0.651153  0.193396  1
  Br  Br30  1  0.015379  0.666321  0.693086  1
  Br  Br31  1  0.999544  0.681875  0.443264  1
  Br  Br32  1  0.000436  0.668659  0.941674  1
  Br  Br33  1  0.668223  0.999564  0.941674  1
  Br  Br34  1  0.666534  0.015382  0.193396  1
  Br  Br35  1  0.650943  0.984621  0.693086  1
