# generated using pymatgen
data_Y4Ho2Fe3(Co5P4)3
_symmetry_space_group_name_H-M   'P 1'
_cell_length_a   3.69793800
_cell_length_b   10.54279500
_cell_length_c   12.14292700
_cell_angle_alpha   90.00000000
_cell_angle_beta   90.00000000
_cell_angle_gamma   90.00000000
_symmetry_Int_Tables_number   1
_chemical_formula_structural   Y4Ho2Fe3(Co5P4)3
_chemical_formula_sum   'Y4 Ho2 Fe3 Co15 P12'
_cell_volume   473.41146518
_cell_formula_units_Z   1
loop_
 _symmetry_equiv_pos_site_id
 _symmetry_equiv_pos_as_xyz
  1  'x, y, z'
loop_
 _atom_site_type_symbol
 _atom_site_label
 _atom_site_symmetry_multiplicity
 _atom_site_fract_x
 _atom_site_fract_y
 _atom_site_fract_z
 _atom_site_occupancy
  Y  Y0  1  0.000000  0.500000  0.522257  1
  Y  Y1  1  0.500000  0.000000  0.477546  1
  Y  Y2  1  0.000000  0.680973  0.795734  1
  Y  Y3  1  0.000000  0.319027  0.795734  1
  Ho  Ho4  1  0.500000  0.817688  0.204900  1
  Ho  Ho5  1  0.500000  0.182312  0.204900  1
  Fe  Fe6  1  0.000000  0.500000  0.988796  1
  Fe  Fe7  1  0.500000  0.500000  0.155757  1
  Fe  Fe8  1  0.000000  0.000000  0.842661  1
  Co  Co9  1  0.500000  0.000000  0.013861  1
  Co  Co10  1  0.500000  0.296949  0.430412  1
  Co  Co11  1  0.500000  0.703051  0.430412  1
  Co  Co12  1  0.000000  0.203443  0.569462  1
  Co  Co13  1  0.000000  0.796557  0.569462  1
  Co  Co14  1  0.500000  0.879127  0.708751  1
  Co  Co15  1  0.500000  0.120873  0.708751  1
  Co  Co16  1  0.000000  0.621185  0.290542  1
  Co  Co17  1  0.000000  0.378815  0.290542  1
  Co  Co18  1  0.500000  0.331055  0.994421  1
  Co  Co19  1  0.500000  0.668945  0.994421  1
  Co  Co20  1  0.000000  0.166197  0.006001  1
  Co  Co21  1  0.000000  0.833803  0.006001  1
  Co  Co22  1  0.500000  0.500000  0.701385  1
  Co  Co23  1  0.000000  0.000000  0.298145  1
  P  P24  1  0.500000  0.310182  0.616207  1
  P  P25  1  0.500000  0.689818  0.616207  1
  P  P26  1  0.000000  0.190115  0.383385  1
  P  P27  1  0.000000  0.809885  0.383385  1
  P  P28  1  0.500000  0.500000  0.884618  1
  P  P29  1  0.000000  0.000000  0.117888  1
  P  P30  1  0.500000  0.847974  0.892770  1
  P  P31  1  0.500000  0.152026  0.892770  1
  P  P32  1  0.000000  0.652723  0.106551  1
  P  P33  1  0.000000  0.347277  0.106551  1
  P  P34  1  0.500000  0.500000  0.341556  1
  P  P35  1  0.000000  0.000000  0.657259  1
