# generated using pymatgen
data_Ba4WO7
_symmetry_space_group_name_H-M   'P 1'
_cell_length_a   6.18457700
_cell_length_b   7.41487200
_cell_length_c   9.65418400
_cell_angle_alpha   103.07499110
_cell_angle_beta   90.00000000
_cell_angle_gamma   90.00000000
_symmetry_Int_Tables_number   1
_chemical_formula_structural   Ba4WO7
_chemical_formula_sum   'Ba8 W2 O14'
_cell_volume   431.24248659
_cell_formula_units_Z   2
loop_
 _symmetry_equiv_pos_site_id
 _symmetry_equiv_pos_as_xyz
  1  'x, y, z'
loop_
 _atom_site_type_symbol
 _atom_site_label
 _atom_site_symmetry_multiplicity
 _atom_site_fract_x
 _atom_site_fract_y
 _atom_site_fract_z
 _atom_site_occupancy
  Ba  Ba0  1  0.179362  0.631657  0.083048  1
  Ba  Ba1  1  0.679362  0.368343  0.916952  1
  Ba  Ba2  1  0.649782  0.009618  0.140341  1
  Ba  Ba3  1  0.149782  0.990382  0.859659  1
  Ba  Ba4  1  0.184270  0.908490  0.440205  1
  Ba  Ba5  1  0.684270  0.091510  0.559795  1
  Ba  Ba6  1  0.158557  0.476507  0.620656  1
  Ba  Ba7  1  0.658557  0.523493  0.379344  1
  W  W8  1  0.158557  0.264328  0.245072  1
  W  W9  1  0.658557  0.735672  0.754928  1
  O  O10  1  0.397477  0.319654  0.120592  1
  O  O11  1  0.897477  0.680346  0.879408  1
  O  O12  1  0.955718  0.307983  0.097362  1
  O  O13  1  0.455718  0.692017  0.902638  1
  O  O14  1  0.922524  0.207918  0.361984  1
  O  O15  1  0.422524  0.792082  0.638016  1
  O  O16  1  0.371806  0.235105  0.385955  1
  O  O17  1  0.871806  0.764895  0.614045  1
  O  O18  1  0.131209  0.530206  0.336587  1
  O  O19  1  0.631209  0.469794  0.663413  1
  O  O20  1  0.170704  0.999058  0.154848  1
  O  O21  1  0.670704  0.000942  0.845152  1
  O  O22  1  0.074305  0.174344  0.680077  1
  O  O23  1  0.574305  0.825656  0.319923  1
