# generated using pymatgen
data_Ce3MnGa9Ni
_symmetry_space_group_name_H-M   'P 1'
_cell_length_a   7.38583800
_cell_length_b   8.45438600
_cell_length_c   17.74069200
_cell_angle_alpha   90.00000000
_cell_angle_beta   90.00000000
_cell_angle_gamma   90.00000000
_symmetry_Int_Tables_number   1
_chemical_formula_structural   Ce3MnGa9Ni
_chemical_formula_sum   'Ce3 Mn1 Ga9 Ni1'
_cell_volume   1107.77715870
_cell_formula_units_Z   1
loop_
 _symmetry_equiv_pos_site_id
 _symmetry_equiv_pos_as_xyz
  1  'x, y, z'
loop_
 _atom_site_type_symbol
 _atom_site_label
 _atom_site_symmetry_multiplicity
 _atom_site_fract_x
 _atom_site_fract_y
 _atom_site_fract_z
 _atom_site_occupancy
  Ce  Ce0  1  0.000000  0.500000  0.494120  1
  Ce  Ce1  1  0.000000  0.000000  0.256194  1
  Ce  Ce2  1  0.000000  0.000000  0.746389  1
  Mn  Mn3  1  0.000000  0.500000  0.088978  1
  Ga  Ga4  1  0.500000  0.500000  0.185013  1
  Ga  Ga5  1  0.500000  0.500000  0.815247  1
  Ga  Ga6  1  0.500000  0.500000  0.344468  1
  Ga  Ga7  1  0.500000  0.500000  0.652629  1
  Ga  Ga8  1  0.500000  0.000000  0.421741  1
  Ga  Ga9  1  0.500000  0.000000  0.577185  1
  Ga  Ga10  1  0.500000  0.000000  0.089530  1
  Ga  Ga11  1  0.500000  0.000000  0.912149  1
  Ga  Ga12  1  0.000000  0.500000  0.914061  1
  Ni  Ni13  1  0.000000  0.000000  0.002295  1
