# generated using pymatgen
data_Dy5ZrSbO12
_symmetry_space_group_name_H-M   'P 1'
_cell_length_a   6.45606417
_cell_length_b   6.43980600
_cell_length_c   6.46444630
_cell_angle_alpha   99.40804949
_cell_angle_beta   98.62990222
_cell_angle_gamma   98.73936120
_symmetry_Int_Tables_number   1
_chemical_formula_structural   Dy5ZrSbO12
_chemical_formula_sum   'Dy5 Zr1 Sb1 O12'
_cell_volume   257.82135073
_cell_formula_units_Z   1
loop_
 _symmetry_equiv_pos_site_id
 _symmetry_equiv_pos_as_xyz
  1  'x, y, z'
loop_
 _atom_site_type_symbol
 _atom_site_label
 _atom_site_symmetry_multiplicity
 _atom_site_fract_x
 _atom_site_fract_y
 _atom_site_fract_z
 _atom_site_occupancy
  Dy  Dy0  1  0.390963  0.691098  0.855965  1
  Dy  Dy1  1  0.859372  0.388355  0.692276  1
  Dy  Dy2  1  0.310663  0.142892  0.608777  1
  Dy  Dy3  1  0.609561  0.309761  0.139383  1
  Dy  Dy4  1  0.139949  0.610770  0.307544  1
  Zr  Zr5  1  0.684489  0.855965  0.388353  1
  Sb  Sb6  1  0.997897  0.996569  0.000514  1
  O  O7  1  0.443140  0.605233  0.183723  1
  O  O8  1  0.176202  0.434252  0.583248  1
  O  O9  1  0.598258  0.167126  0.428048  1
  O  O10  1  0.564273  0.408910  0.820530  1
  O  O11  1  0.816417  0.583119  0.415554  1
  O  O12  1  0.432323  0.823473  0.564633  1
  O  O13  1  0.913567  0.027609  0.691106  1
  O  O14  1  0.956865  0.304440  0.068843  1
  O  O15  1  0.301112  0.073258  0.954733  1
  O  O16  1  0.067153  0.958691  0.307840  1
  O  O17  1  0.042568  0.692744  0.931022  1
  O  O18  1  0.695229  0.925734  0.057908  1
