# generated using pymatgen
data_NaScNi3P7Ru9
_symmetry_space_group_name_H-M   'P 1'
_cell_length_a   9.35648200
_cell_length_b   9.35648141
_cell_length_c   3.77500000
_cell_angle_alpha   90.00000000
_cell_angle_beta   90.00000000
_cell_angle_gamma   119.99999501
_symmetry_Int_Tables_number   1
_chemical_formula_structural   NaScNi3P7Ru9
_chemical_formula_sum   'Na1 Sc1 Ni3 P7 Ru9'
_cell_volume   286.20205980
_cell_formula_units_Z   1
loop_
 _symmetry_equiv_pos_site_id
 _symmetry_equiv_pos_as_xyz
  1  'x, y, z'
loop_
 _atom_site_type_symbol
 _atom_site_label
 _atom_site_symmetry_multiplicity
 _atom_site_fract_x
 _atom_site_fract_y
 _atom_site_fract_z
 _atom_site_occupancy
  Na  Na0  1  0.333333  0.666667  0.000000  1
  Sc  Sc1  1  0.666667  0.333333  0.500000  1
  Ni  Ni2  1  0.726601  0.886868  0.000000  1
  Ni  Ni3  1  0.113132  0.839732  0.000000  1
  Ni  Ni4  1  0.160268  0.273399  0.000000  1
  P  P5  1  0.595784  0.713901  0.500000  1
  P  P6  1  0.000000  0.000000  0.000000  1
  P  P7  1  0.286099  0.881883  0.500000  1
  P  P8  1  0.118117  0.404216  0.500000  1
  P  P9  1  0.886649  0.583937  0.000000  1
  P  P10  1  0.416063  0.302712  0.000000  1
  P  P11  1  0.697288  0.113351  0.000000  1
  Ru  Ru12  1  0.566738  0.954097  0.500000  1
  Ru  Ru13  1  0.387361  0.433262  0.500000  1
  Ru  Ru14  1  0.918584  0.121028  0.500000  1
  Ru  Ru15  1  0.202444  0.081416  0.500000  1
  Ru  Ru16  1  0.878972  0.797556  0.500000  1
  Ru  Ru17  1  0.427613  0.066315  0.000000  1
  Ru  Ru18  1  0.933685  0.361299  0.000000  1
  Ru  Ru19  1  0.638701  0.572387  0.000000  1
  Ru  Ru20  1  0.045903  0.612639  0.500000  1
