# generated using pymatgen
data_YEr2Zn3Si2Pd
_symmetry_space_group_name_H-M   'P 1'
_cell_length_a   6.83610167
_cell_length_b   6.82225240
_cell_length_c   4.25770600
_cell_angle_alpha   90.00000000
_cell_angle_beta   90.00000000
_cell_angle_gamma   119.93300591
_symmetry_Int_Tables_number   1
_chemical_formula_structural   YEr2Zn3Si2Pd
_chemical_formula_sum   'Y1 Er2 Zn3 Si2 Pd1'
_cell_volume   172.08197568
_cell_formula_units_Z   1
loop_
 _symmetry_equiv_pos_site_id
 _symmetry_equiv_pos_as_xyz
  1  'x, y, z'
loop_
 _atom_site_type_symbol
 _atom_site_label
 _atom_site_symmetry_multiplicity
 _atom_site_fract_x
 _atom_site_fract_y
 _atom_site_fract_z
 _atom_site_occupancy
  Y  Y0  1  0.000000  0.416078  0.000000  1
  Er  Er1  1  0.584532  0.584445  0.000000  1
  Er  Er2  1  0.415468  0.999914  0.000000  1
  Zn  Zn3  1  0.243734  0.243972  0.500000  1
  Zn  Zn4  1  0.756266  0.000238  0.500000  1
  Zn  Zn5  1  0.000000  0.757935  0.500000  1
  Si  Si6  1  0.335675  0.668484  0.500000  1
  Si  Si7  1  0.664325  0.332808  0.500000  1
  Pd  Pd8  1  0.000000  0.996126  0.000000  1
