# generated using pymatgen
data_CaPrNd5IrBr12
_symmetry_space_group_name_H-M   'P 1'
_cell_length_a   9.63106742
_cell_length_b   9.53109354
_cell_length_c   9.64253515
_cell_angle_alpha   107.07565457
_cell_angle_beta   107.16972493
_cell_angle_gamma   107.26081079
_symmetry_Int_Tables_number   1
_chemical_formula_structural   CaPrNd5IrBr12
_chemical_formula_sum   'Ca1 Pr1 Nd5 Ir1 Br12'
_cell_volume   733.72614953
_cell_formula_units_Z   1
loop_
 _symmetry_equiv_pos_site_id
 _symmetry_equiv_pos_as_xyz
  1  'x, y, z'
loop_
 _atom_site_type_symbol
 _atom_site_label
 _atom_site_symmetry_multiplicity
 _atom_site_fract_x
 _atom_site_fract_y
 _atom_site_fract_z
 _atom_site_occupancy
  Ca  Ca0  1  0.499954  0.500071  0.499870  1
  Pr  Pr1  1  0.894755  0.688987  0.974189  1
  Nd  Nd2  1  0.104847  0.309447  0.025886  1
  Nd  Nd3  1  0.319949  0.026402  0.108958  1
  Nd  Nd4  1  0.026850  0.108883  0.319137  1
  Nd  Nd5  1  0.973436  0.892012  0.681189  1
  Nd  Nd6  1  0.680195  0.973728  0.891027  1
  Ir  Ir7  1  0.000161  0.000314  0.000232  1
  Br  Br8  1  0.220370  0.683692  0.073279  1
  Br  Br9  1  0.458325  0.380134  0.167670  1
  Br  Br10  1  0.684852  0.073173  0.218682  1
  Br  Br11  1  0.926951  0.780784  0.316835  1
  Br  Br12  1  0.167703  0.459463  0.378882  1
  Br  Br13  1  0.378607  0.165332  0.458045  1
  Br  Br14  1  0.621428  0.834810  0.542014  1
  Br  Br15  1  0.831964  0.540279  0.619047  1
  Br  Br16  1  0.073459  0.220431  0.685286  1
  Br  Br17  1  0.315154  0.926864  0.781337  1
  Br  Br18  1  0.539679  0.619831  0.831316  1
  Br  Br19  1  0.781365  0.315365  0.927124  1
