# generated using pymatgen
data_Zr4FeCoOs6
_symmetry_space_group_name_H-M   'P 1'
_cell_length_a   5.11077012
_cell_length_b   5.11076895
_cell_length_c   8.52720900
_cell_angle_alpha   90.00000000
_cell_angle_beta   90.00000000
_cell_angle_gamma   118.37733058
_symmetry_Int_Tables_number   1
_chemical_formula_structural   Zr4FeCoOs6
_chemical_formula_sum   'Zr4 Fe1 Co1 Os6'
_cell_volume   195.96637954
_cell_formula_units_Z   1
loop_
 _symmetry_equiv_pos_site_id
 _symmetry_equiv_pos_as_xyz
  1  'x, y, z'
loop_
 _atom_site_type_symbol
 _atom_site_label
 _atom_site_symmetry_multiplicity
 _atom_site_fract_x
 _atom_site_fract_y
 _atom_site_fract_z
 _atom_site_occupancy
  Zr  Zr0  1  0.331578  0.668422  0.433763  1
  Zr  Zr1  1  0.668479  0.331521  0.564353  1
  Zr  Zr2  1  0.668479  0.331521  0.935647  1
  Zr  Zr3  1  0.331578  0.668422  0.066237  1
  Fe  Fe4  1  0.168750  0.831250  0.750000  1
  Co  Co5  1  0.830500  0.169500  0.250000  1
  Os  Os6  1  0.000683  0.999317  0.498277  1
  Os  Os7  1  0.000683  0.999317  0.001723  1
  Os  Os8  1  0.824085  0.654202  0.250000  1
  Os  Os9  1  0.345798  0.175915  0.250000  1
  Os  Os10  1  0.175030  0.345647  0.750000  1
  Os  Os11  1  0.654353  0.824970  0.750000  1
