# generated using pymatgen
data_Pr3Nd7(IrPt2)2
_symmetry_space_group_name_H-M   'P 1'
_cell_length_a   11.47747654
_cell_length_b   11.47761200
_cell_length_c   6.54899631
_cell_angle_alpha   90.00000000
_cell_angle_beta   89.96483428
_cell_angle_gamma   90.00000000
_symmetry_Int_Tables_number   1
_chemical_formula_structural   Pr3Nd7(IrPt2)2
_chemical_formula_sum   'Pr6 Nd14 Ir4 Pt8'
_cell_volume   862.72546435
_cell_formula_units_Z   2
loop_
 _symmetry_equiv_pos_site_id
 _symmetry_equiv_pos_as_xyz
  1  'x, y, z'
loop_
 _atom_site_type_symbol
 _atom_site_label
 _atom_site_symmetry_multiplicity
 _atom_site_fract_x
 _atom_site_fract_y
 _atom_site_fract_z
 _atom_site_occupancy
  Pr  Pr0  1  0.794110  0.410254  0.127332  1
  Pr  Pr1  1  0.794110  0.589746  0.627332  1
  Pr  Pr2  1  0.910637  0.705927  0.127249  1
  Pr  Pr3  1  0.910637  0.294073  0.627249  1
  Pr  Pr4  1  0.090394  0.705576  0.627318  1
  Pr  Pr5  1  0.090394  0.294424  0.127318  1
  Nd  Nd6  1  0.295872  0.088999  0.373878  1
  Nd  Nd7  1  0.295872  0.911001  0.873878  1
  Nd  Nd8  1  0.704169  0.088735  0.873627  1
  Nd  Nd9  1  0.704169  0.911265  0.373627  1
  Nd  Nd10  1  0.588852  0.795759  0.873607  1
  Nd  Nd11  1  0.588852  0.204241  0.373607  1
  Nd  Nd12  1  0.410791  0.795575  0.373526  1
  Nd  Nd13  1  0.410791  0.204425  0.873526  1
  Nd  Nd14  1  0.205203  0.410732  0.626510  1
  Nd  Nd15  1  0.205203  0.589268  0.126510  1
  Nd  Nd16  1  0.000213  0.999773  0.499441  1
  Nd  Nd17  1  0.000213  0.000227  0.999441  1
  Nd  Nd18  1  0.499433  0.500113  0.999606  1
  Nd  Nd19  1  0.499433  0.499887  0.499606  1
  Ir  Ir20  1  0.499915  0.999971  0.114321  1
  Ir  Ir21  1  0.499915  0.000029  0.614321  1
  Ir  Ir22  1  0.001235  0.500133  0.886023  1
  Ir  Ir23  1  0.001235  0.499867  0.386023  1
  Pt  Pt24  1  0.845494  0.151549  0.249363  1
  Pt  Pt25  1  0.845494  0.848451  0.749363  1
  Pt  Pt26  1  0.154627  0.152497  0.748605  1
  Pt  Pt27  1  0.154627  0.847503  0.248605  1
  Pt  Pt28  1  0.651530  0.345670  0.749277  1
  Pt  Pt29  1  0.651530  0.654330  0.249277  1
  Pt  Pt30  1  0.347523  0.346433  0.250317  1
  Pt  Pt31  1  0.347523  0.653567  0.750317  1
