# generated using pymatgen
data_VFe4NiBr16
_symmetry_space_group_name_H-M   'P 1'
_cell_length_a   10.37419742
_cell_length_b   10.37419692
_cell_length_c   12.54479200
_cell_angle_alpha   55.04857618
_cell_angle_beta   55.04857810
_cell_angle_gamma   49.10344860
_symmetry_Int_Tables_number   1
_chemical_formula_structural   VFe4NiBr16
_chemical_formula_sum   'V1 Fe4 Ni1 Br16'
_cell_volume   792.69487494
_cell_formula_units_Z   1
loop_
 _symmetry_equiv_pos_site_id
 _symmetry_equiv_pos_as_xyz
  1  'x, y, z'
loop_
 _atom_site_type_symbol
 _atom_site_label
 _atom_site_symmetry_multiplicity
 _atom_site_fract_x
 _atom_site_fract_y
 _atom_site_fract_z
 _atom_site_occupancy
  V  V0  1  0.022344  0.977656  0.250000  1
  Fe  Fe1  1  0.149583  0.697595  0.518911  1
  Fe  Fe2  1  0.302405  0.850417  0.981089  1
  Fe  Fe3  1  0.848558  0.309371  0.477715  1
  Fe  Fe4  1  0.690629  0.151442  0.022285  1
  Ni  Ni5  1  0.987318  0.012682  0.750000  1
  Br  Br6  1  0.299901  0.393998  0.554453  1
  Br  Br7  1  0.606002  0.700099  0.945547  1
  Br  Br8  1  0.696899  0.612024  0.443710  1
  Br  Br9  1  0.387976  0.303101  0.056290  1
  Br  Br10  1  0.858627  0.849700  0.501074  1
  Br  Br11  1  0.150300  0.141373  0.998926  1
  Br  Br12  1  0.137348  0.154836  0.497215  1
  Br  Br13  1  0.845164  0.862652  0.002785  1
  Br  Br14  1  0.135230  0.714538  0.709067  1
  Br  Br15  1  0.285462  0.864770  0.790933  1
  Br  Br16  1  0.866633  0.279157  0.291763  1
  Br  Br17  1  0.720843  0.133367  0.208237  1
  Br  Br18  1  0.296765  0.851720  0.299573  1
  Br  Br19  1  0.148280  0.703235  0.200427  1
  Br  Br20  1  0.711180  0.147447  0.694498  1
  Br  Br21  1  0.852553  0.288820  0.805502  1
