# generated using pymatgen
data_Hf4Ta4AlP3
_symmetry_space_group_name_H-M   'P 1'
_cell_length_a   3.54154600
_cell_length_b   6.96221189
_cell_length_c   8.42824155
_cell_angle_alpha   89.32854025
_cell_angle_beta   90.00000000
_cell_angle_gamma   90.00000000
_symmetry_Int_Tables_number   1
_chemical_formula_structural   Hf4Ta4AlP3
_chemical_formula_sum   'Hf4 Ta4 Al1 P3'
_cell_volume   207.80082798
_cell_formula_units_Z   1
loop_
 _symmetry_equiv_pos_site_id
 _symmetry_equiv_pos_as_xyz
  1  'x, y, z'
loop_
 _atom_site_type_symbol
 _atom_site_label
 _atom_site_symmetry_multiplicity
 _atom_site_fract_x
 _atom_site_fract_y
 _atom_site_fract_z
 _atom_site_occupancy
  Hf  Hf0  1  0.250000  0.036882  0.669249  1
  Hf  Hf1  1  0.250000  0.533505  0.828757  1
  Hf  Hf2  1  0.750000  0.471838  0.159458  1
  Hf  Hf3  1  0.750000  0.954207  0.331450  1
  Ta  Ta4  1  0.750000  0.854603  0.939254  1
  Ta  Ta5  1  0.250000  0.641659  0.442443  1
  Ta  Ta6  1  0.750000  0.370624  0.569700  1
  Ta  Ta7  1  0.250000  0.133540  0.053707  1
  Al  Al8  1  0.250000  0.258370  0.357780  1
  P  P9  1  0.250000  0.764323  0.147334  1
  P  P10  1  0.750000  0.744850  0.643764  1
  P  P11  1  0.750000  0.235599  0.857103  1
