# generated using pymatgen
data_Tm9Zn(SiB4)4
_symmetry_space_group_name_H-M   'P 1'
_cell_length_a   7.11378300
_cell_length_b   7.11378300
_cell_length_c   7.82106400
_cell_angle_alpha   90.00000000
_cell_angle_beta   90.00000000
_cell_angle_gamma   90.00000000
_symmetry_Int_Tables_number   1
_chemical_formula_structural   Tm9Zn(SiB4)4
_chemical_formula_sum   'Tm9 Zn1 Si4 B16'
_cell_volume   395.79204971
_cell_formula_units_Z   1
loop_
 _symmetry_equiv_pos_site_id
 _symmetry_equiv_pos_as_xyz
  1  'x, y, z'
loop_
 _atom_site_type_symbol
 _atom_site_label
 _atom_site_symmetry_multiplicity
 _atom_site_fract_x
 _atom_site_fract_y
 _atom_site_fract_z
 _atom_site_occupancy
  Tm  Tm0  1  0.682290  0.179295  0.229357  1
  Tm  Tm1  1  0.317710  0.820705  0.770643  1
  Tm  Tm2  1  0.317710  0.820705  0.229357  1
  Tm  Tm3  1  0.820705  0.682290  0.229357  1
  Tm  Tm4  1  0.820705  0.682290  0.770643  1
  Tm  Tm5  1  0.682290  0.179295  0.770643  1
  Tm  Tm6  1  0.179295  0.317710  0.770643  1
  Tm  Tm7  1  0.179295  0.317710  0.229357  1
  Tm  Tm8  1  0.500000  0.500000  0.500000  1
  Zn  Zn9  1  0.000000  0.000000  0.500000  1
  Si  Si10  1  0.115896  0.617965  0.500000  1
  Si  Si11  1  0.884104  0.382035  0.500000  1
  Si  Si12  1  0.382035  0.115896  0.500000  1
  Si  Si13  1  0.617965  0.884104  0.500000  1
  B  B14  1  0.175075  0.039070  0.000000  1
  B  B15  1  0.824925  0.960930  0.000000  1
  B  B16  1  0.960930  0.175075  0.000000  1
  B  B17  1  0.326915  0.539931  0.000000  1
  B  B18  1  0.039070  0.824925  0.000000  1
  B  B19  1  0.673085  0.460069  0.000000  1
  B  B20  1  0.539931  0.673085  0.000000  1
  B  B21  1  0.460069  0.326915  0.000000  1
  B  B22  1  0.089034  0.587880  0.000000  1
  B  B23  1  0.910966  0.412120  0.000000  1
  B  B24  1  0.412120  0.089034  0.000000  1
  B  B25  1  0.587880  0.910966  0.000000  1
  B  B26  1  0.000000  0.000000  0.162472  1
  B  B27  1  0.000000  0.000000  0.837528  1
  B  B28  1  0.500000  0.500000  0.832844  1
  B  B29  1  0.500000  0.500000  0.167156  1
