# generated using pymatgen
data_CeTh3(B10Ru)2
_symmetry_space_group_name_H-M   'P 1'
_cell_length_a   4.18987800
_cell_length_b   5.72606440
_cell_length_c   11.44535902
_cell_angle_alpha   89.99394139
_cell_angle_beta   90.00000000
_cell_angle_gamma   90.00000000
_symmetry_Int_Tables_number   1
_chemical_formula_structural   CeTh3(B10Ru)2
_chemical_formula_sum   'Ce1 Th3 B20 Ru2'
_cell_volume   274.59145831
_cell_formula_units_Z   1
loop_
 _symmetry_equiv_pos_site_id
 _symmetry_equiv_pos_as_xyz
  1  'x, y, z'
loop_
 _atom_site_type_symbol
 _atom_site_label
 _atom_site_symmetry_multiplicity
 _atom_site_fract_x
 _atom_site_fract_y
 _atom_site_fract_z
 _atom_site_occupancy
  Ce  Ce0  1  0.500000  0.214423  0.367347  1
  Th  Th1  1  0.500000  0.285392  0.868039  1
  Th  Th2  1  0.500000  0.714740  0.134361  1
  Th  Th3  1  0.500000  0.785479  0.630134  1
  B  B4  1  0.000000  0.118470  0.542241  1
  B  B5  1  0.000000  0.881761  0.457047  1
  B  B6  1  0.000000  0.618729  0.957516  1
  B  B7  1  0.000000  0.381544  0.042826  1
  B  B8  1  0.000000  0.132762  0.696830  1
  B  B9  1  0.000000  0.867298  0.303066  1
  B  B10  1  0.301001  0.220917  0.119331  1
  B  B11  1  0.300971  0.779632  0.881037  1
  B  B12  1  0.698945  0.720548  0.381324  1
  B  B13  1  0.698970  0.279381  0.618480  1
  B  B14  1  0.699029  0.779632  0.881037  1
  B  B15  1  0.698999  0.220917  0.119331  1
  B  B16  1  0.301030  0.279381  0.618480  1
  B  B17  1  0.301055  0.720548  0.381324  1
  B  B18  1  0.000000  0.057897  0.192939  1
  B  B19  1  0.000000  0.942080  0.807041  1
  B  B20  1  0.000000  0.557238  0.307578  1
  B  B21  1  0.000000  0.442085  0.692520  1
  B  B22  1  0.000000  0.366771  0.197714  1
  B  B23  1  0.000000  0.632677  0.802804  1
  Ru  Ru24  1  0.000000  0.499215  0.499667  1
  Ru  Ru25  1  0.000000  0.000484  0.999984  1
