# generated using pymatgen
data_Ho2Lu4Al23VOs8
_symmetry_space_group_name_H-M   'P 1'
_cell_length_a   8.80257710
_cell_length_b   8.80257617
_cell_length_c   9.49217101
_cell_angle_alpha   90.00397380
_cell_angle_beta   89.99602650
_cell_angle_gamma   119.93440781
_symmetry_Int_Tables_number   1
_chemical_formula_structural   Ho2Lu4Al23VOs8
_chemical_formula_sum   'Ho2 Lu4 Al23 V1 Os8'
_cell_volume   637.38594341
_cell_formula_units_Z   1
loop_
 _symmetry_equiv_pos_site_id
 _symmetry_equiv_pos_as_xyz
  1  'x, y, z'
loop_
 _atom_site_type_symbol
 _atom_site_label
 _atom_site_symmetry_multiplicity
 _atom_site_fract_x
 _atom_site_fract_y
 _atom_site_fract_z
 _atom_site_occupancy
  Ho  Ho0  1  0.195844  0.804156  0.245752  1
  Ho  Ho1  1  0.807188  0.192812  0.750672  1
  Lu  Lu2  1  0.197520  0.395186  0.244611  1
  Lu  Lu3  1  0.805534  0.611186  0.750392  1
  Lu  Lu4  1  0.604814  0.802480  0.244611  1
  Lu  Lu5  1  0.388814  0.194466  0.750392  1
  Al  Al6  1  0.666554  0.333446  0.976689  1
  Al  Al7  1  0.666614  0.333386  0.519957  1
  Al  Al8  1  0.333517  0.666483  0.481087  1
  Al  Al9  1  0.162435  0.324122  0.575716  1
  Al  Al10  1  0.836935  0.674647  0.424428  1
  Al  Al11  1  0.675878  0.837565  0.575716  1
  Al  Al12  1  0.835366  0.671254  0.076826  1
  Al  Al13  1  0.325353  0.163065  0.424428  1
  Al  Al14  1  0.160943  0.320959  0.924971  1
  Al  Al15  1  0.161960  0.838040  0.576444  1
  Al  Al16  1  0.328746  0.164634  0.076826  1
  Al  Al17  1  0.837398  0.162602  0.423638  1
  Al  Al18  1  0.679041  0.839057  0.924971  1
  Al  Al19  1  0.835792  0.164208  0.077592  1
  Al  Al20  1  0.160488  0.839512  0.924191  1
  Al  Al21  1  0.562524  0.124184  0.253283  1
  Al  Al22  1  0.440904  0.882910  0.751597  1
  Al  Al23  1  0.875816  0.437476  0.253283  1
  Al  Al24  1  0.117090  0.559096  0.751597  1
  Al  Al25  1  0.561606  0.438394  0.253456  1
  Al  Al26  1  0.441907  0.558093  0.751769  1
  Al  Al27  1  0.998887  0.001113  0.250195  1
  Al  Al28  1  0.001104  0.998896  0.749654  1
  V  V29  1  0.333269  0.666731  0.986088  1
  Os  Os30  1  0.495734  0.991039  0.005390  1
  Os  Os31  1  0.008961  0.504266  0.005390  1
  Os  Os32  1  0.499429  0.999071  0.504096  1
  Os  Os33  1  0.495399  0.504601  0.005661  1
  Os  Os34  1  0.000929  0.500571  0.504096  1
  Os  Os35  1  0.499689  0.500311  0.504399  1
  Os  Os36  1  0.000060  0.999940  0.000666  1
  Os  Os37  1  0.999957  0.000043  0.499471  1
