# generated using pymatgen
data_Pr8Sc12Si15Hg
_symmetry_space_group_name_H-M   'P 1'
_cell_length_a   7.28388961
_cell_length_b   7.54062326
_cell_length_c   14.33510555
_cell_angle_alpha   89.96206798
_cell_angle_beta   89.64457737
_cell_angle_gamma   90.17499054
_symmetry_Int_Tables_number   1
_chemical_formula_structural   Pr8Sc12Si15Hg
_chemical_formula_sum   'Pr8 Sc12 Si15 Hg1'
_cell_volume   787.33763475
_cell_formula_units_Z   1
loop_
 _symmetry_equiv_pos_site_id
 _symmetry_equiv_pos_as_xyz
  1  'x, y, z'
loop_
 _atom_site_type_symbol
 _atom_site_label
 _atom_site_symmetry_multiplicity
 _atom_site_fract_x
 _atom_site_fract_y
 _atom_site_fract_z
 _atom_site_occupancy
  Pr  Pr0  1  0.008373  0.168875  0.398149  1
  Pr  Pr1  1  0.513213  0.326046  0.398299  1
  Pr  Pr2  1  0.487542  0.672605  0.902901  1
  Pr  Pr3  1  0.495560  0.678317  0.600698  1
  Pr  Pr4  1  0.987816  0.834040  0.598294  1
  Pr  Pr5  1  0.986984  0.827878  0.903318  1
  Pr  Pr6  1  0.512372  0.327329  0.097499  1
  Pr  Pr7  1  0.012802  0.172752  0.098002  1
  Sc  Sc8  1  0.340248  0.168913  0.628863  1
  Sc  Sc9  1  0.666306  0.824391  0.373158  1
  Sc  Sc10  1  0.662612  0.001338  0.751731  1
  Sc  Sc11  1  0.168468  0.678192  0.370979  1
  Sc  Sc12  1  0.829411  0.323380  0.876088  1
  Sc  Sc13  1  0.822723  0.324052  0.626274  1
  Sc  Sc14  1  0.839486  0.502605  0.249790  1
  Sc  Sc15  1  0.340156  0.996467  0.248640  1
  Sc  Sc16  1  0.328431  0.174465  0.875842  1
  Sc  Sc17  1  0.169581  0.676100  0.124967  1
  Sc  Sc18  1  0.670792  0.824072  0.124480  1
  Sc  Sc19  1  0.160785  0.497647  0.754630  1
  Si  Si20  1  0.285976  0.882025  0.751309  1
  Si  Si21  1  0.465139  0.625823  0.248361  1
  Si  Si22  1  0.035464  0.128174  0.751307  1
  Si  Si23  1  0.534939  0.376449  0.751700  1
  Si  Si24  1  0.964378  0.874639  0.248527  1
  Si  Si25  1  0.710518  0.117037  0.248087  1
  Si  Si26  1  0.849465  0.536852  0.039732  1
  Si  Si27  1  0.348986  0.962662  0.040117  1
  Si  Si28  1  0.150416  0.462734  0.961403  1
  Si  Si29  1  0.651825  0.039662  0.537669  1
  Si  Si30  1  0.346733  0.960565  0.459778  1
  Si  Si31  1  0.838468  0.542585  0.457579  1
  Si  Si32  1  0.790514  0.616858  0.751796  1
  Si  Si33  1  0.211230  0.382458  0.248944  1
  Si  Si34  1  0.650325  0.036938  0.960407  1
  Hg  Hg35  1  0.161962  0.455073  0.540683  1
