# generated using pymatgen
data_ErCd3(IO6)2
_symmetry_space_group_name_H-M   'P 1'
_cell_length_a   4.94844900
_cell_length_b   4.93581395
_cell_length_c   9.81451000
_cell_angle_alpha   90.00000000
_cell_angle_beta   90.00000000
_cell_angle_gamma   89.75546150
_symmetry_Int_Tables_number   1
_chemical_formula_structural   ErCd3(IO6)2
_chemical_formula_sum   'Er1 Cd3 I2 O12'
_cell_volume   239.71352955
_cell_formula_units_Z   1
loop_
 _symmetry_equiv_pos_site_id
 _symmetry_equiv_pos_as_xyz
  1  'x, y, z'
loop_
 _atom_site_type_symbol
 _atom_site_label
 _atom_site_symmetry_multiplicity
 _atom_site_fract_x
 _atom_site_fract_y
 _atom_site_fract_z
 _atom_site_occupancy
  Er  Er0  1  0.000000  0.000000  0.338785  1
  Cd  Cd1  1  0.500000  0.500000  0.163537  1
  Cd  Cd2  1  0.000000  0.000000  0.666156  1
  Cd  Cd3  1  0.500000  0.500000  0.833997  1
  I  I4  1  0.500000  0.500000  0.500324  1
  I  I5  1  0.000000  0.000000  0.999994  1
  O  O6  1  0.682437  0.682924  0.640789  1
  O  O7  1  0.317563  0.317076  0.640789  1
  O  O8  1  0.816745  0.183669  0.858849  1
  O  O9  1  0.183255  0.816331  0.858849  1
  O  O10  1  0.314848  0.314607  0.358266  1
  O  O11  1  0.685152  0.685393  0.358266  1
  O  O12  1  0.179157  0.820492  0.147157  1
  O  O13  1  0.820843  0.179508  0.147157  1
  O  O14  1  0.730846  0.730498  0.000645  1
  O  O15  1  0.269154  0.269502  0.000645  1
  O  O16  1  0.771225  0.228552  0.492897  1
  O  O17  1  0.228775  0.771448  0.492897  1
