# generated using pymatgen
data_MnNb3As2Ru3
_symmetry_space_group_name_H-M   'P 1'
_cell_length_a   6.39540700
_cell_length_b   6.39540594
_cell_length_c   3.92320400
_cell_angle_alpha   90.00000000
_cell_angle_beta   90.00000000
_cell_angle_gamma   120.00000028
_symmetry_Int_Tables_number   1
_chemical_formula_structural   MnNb3As2Ru3
_chemical_formula_sum   'Mn1 Nb3 As2 Ru3'
_cell_volume   138.96576611
_cell_formula_units_Z   1
loop_
 _symmetry_equiv_pos_site_id
 _symmetry_equiv_pos_as_xyz
  1  'x, y, z'
loop_
 _atom_site_type_symbol
 _atom_site_label
 _atom_site_symmetry_multiplicity
 _atom_site_fract_x
 _atom_site_fract_y
 _atom_site_fract_z
 _atom_site_occupancy
  Mn  Mn0  1  0.000000  0.000000  0.500000  1
  Nb  Nb1  1  0.390735  0.390735  0.500000  1
  Nb  Nb2  1  0.609265  0.000000  0.500000  1
  Nb  Nb3  1  0.000000  0.609265  0.500000  1
  As  As4  1  0.666667  0.333333  0.000000  1
  As  As5  1  0.333333  0.666667  0.000000  1
  Ru  Ru6  1  0.000000  0.239505  0.000000  1
  Ru  Ru7  1  0.239505  0.000000  0.000000  1
  Ru  Ru8  1  0.760495  0.760495  0.000000  1
