# generated using pymatgen
data_La16Tm4Ir7Pt5
_symmetry_space_group_name_H-M   'P 1'
_cell_length_a   11.47296767
_cell_length_b   11.47296767
_cell_length_c   6.51853067
_cell_angle_alpha   90.03687153
_cell_angle_beta   90.03687153
_cell_angle_gamma   89.77521483
_symmetry_Int_Tables_number   1
_chemical_formula_structural   La16Tm4Ir7Pt5
_chemical_formula_sum   'La16 Tm4 Ir7 Pt5'
_cell_volume   858.02063237
_cell_formula_units_Z   1
loop_
 _symmetry_equiv_pos_site_id
 _symmetry_equiv_pos_as_xyz
  1  'x, y, z'
loop_
 _atom_site_type_symbol
 _atom_site_label
 _atom_site_symmetry_multiplicity
 _atom_site_fract_x
 _atom_site_fract_y
 _atom_site_fract_z
 _atom_site_occupancy
  La  La0  1  0.291218  0.089578  0.382603  1
  La  La1  1  0.291749  0.909896  0.881903  1
  La  La2  1  0.708842  0.086877  0.882208  1
  La  La3  1  0.708642  0.910091  0.382226  1
  La  La4  1  0.586423  0.786108  0.888014  1
  La  La5  1  0.584728  0.210841  0.382530  1
  La  La6  1  0.413241  0.786997  0.387902  1
  La  La7  1  0.410917  0.211980  0.889252  1
  La  La8  1  0.213892  0.413577  0.611986  1
  La  La9  1  0.213003  0.586759  0.112098  1
  La  La10  1  0.789159  0.415272  0.117470  1
  La  La11  1  0.788020  0.589083  0.610748  1
  La  La12  1  0.910422  0.708782  0.117397  1
  La  La13  1  0.913123  0.291158  0.617792  1
  La  La14  1  0.090104  0.708251  0.618097  1
  La  La15  1  0.089909  0.291358  0.117774  1
  Tm  Tm16  1  0.999981  0.999849  0.499961  1
  Tm  Tm17  1  0.000151  0.000019  0.000039  1
  Tm  Tm18  1  0.498333  0.501389  0.001522  1
  Tm  Tm19  1  0.498611  0.501667  0.498478  1
  Ir  Ir20  1  0.647536  0.646231  0.250092  1
  Ir  Ir21  1  0.353769  0.352464  0.249908  1
  Ir  Ir22  1  0.352933  0.647067  0.750000  1
  Ir  Ir23  1  0.500483  0.000397  0.119830  1
  Ir  Ir24  1  0.500363  0.001081  0.620157  1
  Ir  Ir25  1  0.998919  0.499637  0.879843  1
  Ir  Ir26  1  0.999603  0.499517  0.380170  1
  Pt  Pt27  1  0.854369  0.145631  0.250000  1
  Pt  Pt28  1  0.854843  0.855127  0.749895  1
  Pt  Pt29  1  0.144873  0.145157  0.750105  1
  Pt  Pt30  1  0.145231  0.854769  0.250000  1
  Pt  Pt31  1  0.646610  0.353390  0.750000  1
