# generated using pymatgen
data_HfTi2SnC2
_symmetry_space_group_name_H-M   'P 1'
_cell_length_a   3.22132300
_cell_length_b   3.22132314
_cell_length_c   19.11408600
_cell_angle_alpha   90.00000000
_cell_angle_beta   90.00000000
_cell_angle_gamma   119.99998831
_symmetry_Int_Tables_number   1
_chemical_formula_structural   HfTi2SnC2
_chemical_formula_sum   'Hf2 Ti4 Sn2 C4'
_cell_volume   171.77216284
_cell_formula_units_Z   2
loop_
 _symmetry_equiv_pos_site_id
 _symmetry_equiv_pos_as_xyz
  1  'x, y, z'
loop_
 _atom_site_type_symbol
 _atom_site_label
 _atom_site_symmetry_multiplicity
 _atom_site_fract_x
 _atom_site_fract_y
 _atom_site_fract_z
 _atom_site_occupancy
  Hf  Hf0  1  0.000000  0.000000  0.000000  1
  Hf  Hf1  1  0.000000  0.000000  0.500000  1
  Ti  Ti2  1  0.333333  0.666667  0.127209  1
  Ti  Ti3  1  0.333333  0.666667  0.372791  1
  Ti  Ti4  1  0.666667  0.333333  0.627209  1
  Ti  Ti5  1  0.666667  0.333333  0.872791  1
  Sn  Sn6  1  0.000000  0.000000  0.250000  1
  Sn  Sn7  1  0.000000  0.000000  0.750000  1
  C  C8  1  0.333333  0.666667  0.926870  1
  C  C9  1  0.666667  0.333333  0.073130  1
  C  C10  1  0.666667  0.333333  0.426870  1
  C  C11  1  0.333333  0.666667  0.573130  1
