# generated using pymatgen
data_Dy10Cd3Pt
_symmetry_space_group_name_H-M   'P 1'
_cell_length_a   9.63656200
_cell_length_b   9.63656244
_cell_length_c   9.88306800
_cell_angle_alpha   90.00000000
_cell_angle_beta   90.00000000
_cell_angle_gamma   119.99999851
_symmetry_Int_Tables_number   1
_chemical_formula_structural   Dy10Cd3Pt
_chemical_formula_sum   'Dy20 Cd6 Pt2'
_cell_volume   794.81614672
_cell_formula_units_Z   2
loop_
 _symmetry_equiv_pos_site_id
 _symmetry_equiv_pos_as_xyz
  1  'x, y, z'
loop_
 _atom_site_type_symbol
 _atom_site_label
 _atom_site_symmetry_multiplicity
 _atom_site_fract_x
 _atom_site_fract_y
 _atom_site_fract_z
 _atom_site_occupancy
  Dy  Dy0  1  0.000000  0.000000  0.500000  1
  Dy  Dy1  1  0.000000  0.000000  0.000000  1
  Dy  Dy2  1  0.208547  0.791453  0.442575  1
  Dy  Dy3  1  0.208547  0.417095  0.442575  1
  Dy  Dy4  1  0.582905  0.791453  0.442575  1
  Dy  Dy5  1  0.791453  0.208547  0.557425  1
  Dy  Dy6  1  0.791453  0.582905  0.557425  1
  Dy  Dy7  1  0.417095  0.208547  0.557425  1
  Dy  Dy8  1  0.791453  0.208547  0.942575  1
  Dy  Dy9  1  0.791453  0.582905  0.942575  1
  Dy  Dy10  1  0.417095  0.208547  0.942575  1
  Dy  Dy11  1  0.208547  0.791453  0.057425  1
  Dy  Dy12  1  0.208547  0.417095  0.057425  1
  Dy  Dy13  1  0.582905  0.791453  0.057425  1
  Dy  Dy14  1  0.542534  0.457466  0.250000  1
  Dy  Dy15  1  0.542534  0.085067  0.250000  1
  Dy  Dy16  1  0.914933  0.457466  0.250000  1
  Dy  Dy17  1  0.457466  0.542534  0.750000  1
  Dy  Dy18  1  0.457466  0.914933  0.750000  1
  Dy  Dy19  1  0.085067  0.542534  0.750000  1
  Cd  Cd20  1  0.885395  0.114605  0.250000  1
  Cd  Cd21  1  0.885395  0.770792  0.250000  1
  Cd  Cd22  1  0.229208  0.114605  0.250000  1
  Cd  Cd23  1  0.114605  0.885395  0.750000  1
  Cd  Cd24  1  0.114605  0.229208  0.750000  1
  Cd  Cd25  1  0.770792  0.885395  0.750000  1
  Pt  Pt26  1  0.333333  0.666667  0.250000  1
  Pt  Pt27  1  0.666667  0.333333  0.750000  1
