# generated using pymatgen
data_U4Ga2CoIr5
_symmetry_space_group_name_H-M   'P 1'
_cell_length_a   5.46841429
_cell_length_b   5.46833109
_cell_length_c   7.87292000
_cell_angle_alpha   90.00000000
_cell_angle_beta   90.00000000
_cell_angle_gamma   119.24852497
_symmetry_Int_Tables_number   1
_chemical_formula_structural   U4Ga2CoIr5
_chemical_formula_sum   'U4 Ga2 Co1 Ir5'
_cell_volume   205.41008344
_cell_formula_units_Z   1
loop_
 _symmetry_equiv_pos_site_id
 _symmetry_equiv_pos_as_xyz
  1  'x, y, z'
loop_
 _atom_site_type_symbol
 _atom_site_label
 _atom_site_symmetry_multiplicity
 _atom_site_fract_x
 _atom_site_fract_y
 _atom_site_fract_z
 _atom_site_occupancy
  U  U0  1  0.666418  0.333512  0.574721  1
  U  U1  1  0.334107  0.665995  0.419149  1
  U  U2  1  0.334107  0.665995  0.080851  1
  U  U3  1  0.666418  0.333512  0.925279  1
  Ga  Ga4  1  0.992996  0.007021  0.006305  1
  Ga  Ga5  1  0.992996  0.007021  0.493695  1
  Co  Co6  1  0.830993  0.168987  0.250000  1
  Ir  Ir7  1  0.170901  0.340687  0.750000  1
  Ir  Ir8  1  0.659232  0.828987  0.750000  1
  Ir  Ir9  1  0.168304  0.831582  0.750000  1
  Ir  Ir10  1  0.834097  0.650624  0.250000  1
  Ir  Ir11  1  0.349432  0.166078  0.250000  1
