# generated using pymatgen
data_Er20Ir7PdRu4
_symmetry_space_group_name_H-M   'P 1'
_cell_length_a   10.73871961
_cell_length_b   10.73871961
_cell_length_c   6.38785087
_cell_angle_alpha   90.06191021
_cell_angle_beta   90.06191021
_cell_angle_gamma   89.91363457
_symmetry_Int_Tables_number   1
_chemical_formula_structural   Er20Ir7PdRu4
_chemical_formula_sum   'Er20 Ir7 Pd1 Ru4'
_cell_volume   736.64589806
_cell_formula_units_Z   1
loop_
 _symmetry_equiv_pos_site_id
 _symmetry_equiv_pos_as_xyz
  1  'x, y, z'
loop_
 _atom_site_type_symbol
 _atom_site_label
 _atom_site_symmetry_multiplicity
 _atom_site_fract_x
 _atom_site_fract_y
 _atom_site_fract_z
 _atom_site_occupancy
  Er  Er0  1  0.292965  0.085959  0.377140  1
  Er  Er1  1  0.293961  0.913628  0.876607  1
  Er  Er2  1  0.703740  0.084506  0.870945  1
  Er  Er3  1  0.704503  0.909667  0.379253  1
  Er  Er4  1  0.586187  0.793221  0.877504  1
  Er  Er5  1  0.581717  0.206782  0.377691  1
  Er  Er6  1  0.413059  0.793293  0.377434  1
  Er  Er7  1  0.413324  0.206586  0.877612  1
  Er  Er8  1  0.206779  0.413813  0.622496  1
  Er  Er9  1  0.206707  0.586941  0.122566  1
  Er  Er10  1  0.793218  0.418283  0.122309  1
  Er  Er11  1  0.793414  0.586676  0.622388  1
  Er  Er12  1  0.914041  0.707035  0.122860  1
  Er  Er13  1  0.915494  0.296260  0.629055  1
  Er  Er14  1  0.086372  0.706039  0.623393  1
  Er  Er15  1  0.090333  0.295497  0.120747  1
  Er  Er16  1  0.001731  0.997873  0.501825  1
  Er  Er17  1  0.002127  0.998269  0.998175  1
  Er  Er18  1  0.499891  0.499988  0.999754  1
  Er  Er19  1  0.500012  0.500109  0.500246  1
  Ir  Ir20  1  0.847809  0.848870  0.750178  1
  Ir  Ir21  1  0.151130  0.152191  0.749822  1
  Ir  Ir22  1  0.152425  0.847575  0.250000  1
  Ir  Ir23  1  0.653602  0.346398  0.750000  1
  Ir  Ir24  1  0.652611  0.652197  0.250064  1
  Ir  Ir25  1  0.347803  0.347389  0.249936  1
  Ir  Ir26  1  0.347553  0.652447  0.750000  1
  Pd  Pd27  1  0.846362  0.153638  0.250000  1
  Ru  Ru28  1  0.500701  0.000243  0.124085  1
  Ru  Ru29  1  0.500653  0.999978  0.622932  1
  Ru  Ru30  1  0.000022  0.499347  0.877068  1
  Ru  Ru31  1  0.999757  0.499299  0.375915  1
