# generated using pymatgen
data_Ce6Al23CrTc8
_symmetry_space_group_name_H-M   'P 1'
_cell_length_a   8.93440200
_cell_length_b   8.93440055
_cell_length_c   9.65603900
_cell_angle_alpha   90.00000000
_cell_angle_beta   90.00000000
_cell_angle_gamma   119.99999797
_symmetry_Int_Tables_number   1
_chemical_formula_structural   Ce6Al23CrTc8
_chemical_formula_sum   'Ce6 Al23 Cr1 Tc8'
_cell_volume   667.51427880
_cell_formula_units_Z   1
loop_
 _symmetry_equiv_pos_site_id
 _symmetry_equiv_pos_as_xyz
  1  'x, y, z'
loop_
 _atom_site_type_symbol
 _atom_site_label
 _atom_site_symmetry_multiplicity
 _atom_site_fract_x
 _atom_site_fract_y
 _atom_site_fract_z
 _atom_site_occupancy
  Ce  Ce0  1  0.805840  0.611680  0.750395  1
  Ce  Ce1  1  0.195680  0.804320  0.255212  1
  Ce  Ce2  1  0.608638  0.804320  0.255212  1
  Ce  Ce3  1  0.388320  0.194160  0.750395  1
  Ce  Ce4  1  0.805840  0.194160  0.750395  1
  Ce  Ce5  1  0.195680  0.391362  0.255212  1
  Al  Al6  1  0.666667  0.333333  0.996186  1
  Al  Al7  1  0.666667  0.333333  0.508009  1
  Al  Al8  1  0.333333  0.666667  0.007154  1
  Al  Al9  1  0.159866  0.319732  0.577486  1
  Al  Al10  1  0.680268  0.840134  0.577486  1
  Al  Al11  1  0.159866  0.840134  0.577486  1
  Al  Al12  1  0.839234  0.160766  0.077549  1
  Al  Al13  1  0.837760  0.162240  0.421750  1
  Al  Al14  1  0.839234  0.678469  0.077549  1
  Al  Al15  1  0.321531  0.160766  0.077549  1
  Al  Al16  1  0.677741  0.838871  0.922406  1
  Al  Al17  1  0.161129  0.322259  0.922406  1
  Al  Al18  1  0.837760  0.675520  0.421750  1
  Al  Al19  1  0.000000  0.000000  0.247777  1
  Al  Al20  1  0.000000  0.000000  0.748678  1
  Al  Al21  1  0.562556  0.125111  0.246949  1
  Al  Al22  1  0.438732  0.561268  0.748798  1
  Al  Al23  1  0.122536  0.561268  0.748798  1
  Al  Al24  1  0.874889  0.437444  0.246949  1
  Al  Al25  1  0.562556  0.437444  0.246949  1
  Al  Al26  1  0.438732  0.877464  0.748798  1
  Al  Al27  1  0.161129  0.838871  0.922406  1
  Al  Al28  1  0.324480  0.162240  0.421750  1
  Cr  Cr29  1  0.333333  0.666667  0.530343  1
  Tc  Tc30  1  0.000000  0.000000  0.497834  1
  Tc  Tc31  1  0.000000  0.000000  0.998850  1
  Tc  Tc32  1  0.490663  0.981327  0.491799  1
  Tc  Tc33  1  0.499625  0.500375  0.996045  1
  Tc  Tc34  1  0.000751  0.500375  0.996045  1
  Tc  Tc35  1  0.018673  0.509337  0.491799  1
  Tc  Tc36  1  0.490663  0.509337  0.491799  1
  Tc  Tc37  1  0.499625  0.999249  0.996045  1
