# generated using pymatgen
data_Lu10Si4SnSb3
_symmetry_space_group_name_H-M   'P 1'
_cell_length_a   8.34967877
_cell_length_b   8.34967963
_cell_length_c   7.70690760
_cell_angle_alpha   89.85610430
_cell_angle_beta   89.85610385
_cell_angle_gamma   125.08411836
_symmetry_Int_Tables_number   1
_chemical_formula_structural   Lu10Si4SnSb3
_chemical_formula_sum   'Lu10 Si4 Sn1 Sb3'
_cell_volume   439.67386900
_cell_formula_units_Z   1
loop_
 _symmetry_equiv_pos_site_id
 _symmetry_equiv_pos_as_xyz
  1  'x, y, z'
loop_
 _atom_site_type_symbol
 _atom_site_label
 _atom_site_symmetry_multiplicity
 _atom_site_fract_x
 _atom_site_fract_y
 _atom_site_fract_z
 _atom_site_occupancy
  Lu  Lu0  1  0.039952  0.289056  0.333619  1
  Lu  Lu1  1  0.958222  0.707959  0.666207  1
  Lu  Lu2  1  0.461083  0.210885  0.836697  1
  Lu  Lu3  1  0.789115  0.538917  0.163303  1
  Lu  Lu4  1  0.541496  0.790493  0.163143  1
  Lu  Lu5  1  0.209507  0.458504  0.836857  1
  Lu  Lu6  1  0.710944  0.960048  0.666381  1
  Lu  Lu7  1  0.292041  0.041778  0.333793  1
  Lu  Lu8  1  0.998102  0.001898  0.000000  1
  Lu  Lu9  1  0.500330  0.499670  0.500000  1
  Si  Si10  1  0.367599  0.367452  0.133367  1
  Si  Si11  1  0.632548  0.632401  0.866633  1
  Si  Si12  1  0.134017  0.132810  0.632625  1
  Si  Si13  1  0.867190  0.865983  0.367375  1
  Sn  Sn14  1  0.792979  0.207021  0.000000  1
  Sb  Sb15  1  0.205409  0.794591  0.000000  1
  Sb  Sb16  1  0.705558  0.294442  0.500000  1
  Sb  Sb17  1  0.293910  0.706090  0.500000  1
