# generated using pymatgen
data_La4PtRhAu2
_symmetry_space_group_name_H-M   'P 1'
_cell_length_a   4.81540600
_cell_length_b   5.79625510
_cell_length_c   7.57310624
_cell_angle_alpha   92.67163420
_cell_angle_beta   90.00000000
_cell_angle_gamma   90.00000000
_symmetry_Int_Tables_number   1
_chemical_formula_structural   La4PtRhAu2
_chemical_formula_sum   'La4 Pt1 Rh1 Au2'
_cell_volume   211.14565430
_cell_formula_units_Z   1
loop_
 _symmetry_equiv_pos_site_id
 _symmetry_equiv_pos_as_xyz
  1  'x, y, z'
loop_
 _atom_site_type_symbol
 _atom_site_label
 _atom_site_symmetry_multiplicity
 _atom_site_fract_x
 _atom_site_fract_y
 _atom_site_fract_z
 _atom_site_occupancy
  La  La0  1  0.250000  0.637234  0.170359  1
  La  La1  1  0.750000  0.350252  0.829196  1
  La  La2  1  0.750000  0.138968  0.296920  1
  La  La3  1  0.250000  0.858458  0.703375  1
  Pt  Pt4  1  0.750000  0.839331  0.954760  1
  Rh  Rh5  1  0.250000  0.178149  0.045032  1
  Au  Au6  1  0.750000  0.650579  0.461224  1
  Au  Au7  1  0.250000  0.347030  0.539134  1
