# generated using pymatgen
data_LiTb3Al7Pd
_symmetry_space_group_name_H-M   'P 1'
_cell_length_a   9.25180496
_cell_length_b   9.25180503
_cell_length_c   9.25180492
_cell_angle_alpha   34.80615474
_cell_angle_beta   34.80615199
_cell_angle_gamma   34.80615592
_symmetry_Int_Tables_number   1
_chemical_formula_structural   LiTb3Al7Pd
_chemical_formula_sum   'Li1 Tb3 Al7 Pd1'
_cell_volume   230.30319805
_cell_formula_units_Z   1
loop_
 _symmetry_equiv_pos_site_id
 _symmetry_equiv_pos_as_xyz
  1  'x, y, z'
loop_
 _atom_site_type_symbol
 _atom_site_label
 _atom_site_symmetry_multiplicity
 _atom_site_fract_x
 _atom_site_fract_y
 _atom_site_fract_z
 _atom_site_occupancy
  Li  Li0  1  0.334878  0.334878  0.334878  1
  Tb  Tb1  1  0.000172  0.000172  0.000172  1
  Tb  Tb2  1  0.141662  0.141662  0.141662  1
  Tb  Tb3  1  0.857696  0.857696  0.857696  1
  Al  Al4  1  0.583218  0.583218  0.074999  1
  Al  Al5  1  0.924541  0.417065  0.417064  1
  Al  Al6  1  0.417065  0.924541  0.417064  1
  Al  Al7  1  0.500706  0.500706  0.500706  1
  Al  Al8  1  0.583218  0.074999  0.583218  1
  Al  Al9  1  0.074999  0.583218  0.583218  1
  Al  Al10  1  0.417064  0.417064  0.924541  1
  Pd  Pd11  1  0.664783  0.664783  0.664783  1
