# generated using pymatgen
data_Y4ScP12Ir10Ru9
_symmetry_space_group_name_H-M   'P 1'
_cell_length_a   12.62922000
_cell_length_b   12.62922106
_cell_length_c   3.94271700
_cell_angle_alpha   90.00000000
_cell_angle_beta   90.00000000
_cell_angle_gamma   120.00000245
_symmetry_Int_Tables_number   1
_chemical_formula_structural   Y4ScP12Ir10Ru9
_chemical_formula_sum   'Y4 Sc1 P12 Ir10 Ru9'
_cell_volume   544.60211087
_cell_formula_units_Z   1
loop_
 _symmetry_equiv_pos_site_id
 _symmetry_equiv_pos_as_xyz
  1  'x, y, z'
loop_
 _atom_site_type_symbol
 _atom_site_label
 _atom_site_symmetry_multiplicity
 _atom_site_fract_x
 _atom_site_fract_y
 _atom_site_fract_z
 _atom_site_occupancy
  Y  Y0  1  0.333333  0.666667  0.000000  1
  Y  Y1  1  0.811599  0.999918  0.500000  1
  Y  Y2  1  0.000082  0.811682  0.500000  1
  Y  Y3  1  0.188318  0.188401  0.500000  1
  Sc  Sc4  1  0.666667  0.333333  0.000000  1
  P  P5  1  0.181998  0.001172  0.000000  1
  P  P6  1  0.998828  0.180827  0.000000  1
  P  P7  1  0.819173  0.818002  0.000000  1
  P  P8  1  0.172034  0.480046  0.500000  1
  P  P9  1  0.519954  0.691988  0.500000  1
  P  P10  1  0.308012  0.827966  0.500000  1
  P  P11  1  0.692874  0.517353  0.500000  1
  P  P12  1  0.824479  0.307126  0.500000  1
  P  P13  1  0.482647  0.175521  0.500000  1
  P  P14  1  0.635912  0.999837  0.000000  1
  P  P15  1  0.000163  0.636076  0.000000  1
  P  P16  1  0.363924  0.364088  0.000000  1
  Ir  Ir17  1  0.363928  0.493239  0.500000  1
  Ir  Ir18  1  0.506761  0.870686  0.500000  1
  Ir  Ir19  1  0.129314  0.636072  0.500000  1
  Ir  Ir20  1  0.868215  0.503256  0.500000  1
  Ir  Ir21  1  0.635040  0.131785  0.500000  1
  Ir  Ir22  1  0.496744  0.364960  0.500000  1
  Ir  Ir23  1  0.287086  0.001316  0.500000  1
  Ir  Ir24  1  0.998684  0.285770  0.500000  1
  Ir  Ir25  1  0.714230  0.712914  0.500000  1
  Ir  Ir26  1  0.000000  0.000000  0.000000  1
  Ru  Ru27  1  0.452297  0.999827  0.000000  1
  Ru  Ru28  1  0.000173  0.452470  0.000000  1
  Ru  Ru29  1  0.547530  0.547703  0.000000  1
  Ru  Ru30  1  0.181441  0.377870  0.000000  1
  Ru  Ru31  1  0.622130  0.803572  0.000000  1
  Ru  Ru32  1  0.196428  0.818559  0.000000  1
  Ru  Ru33  1  0.802773  0.619152  0.000000  1
  Ru  Ru34  1  0.816381  0.197227  0.000000  1
  Ru  Ru35  1  0.380848  0.183619  0.000000  1
