# generated using pymatgen
data_Y7Ga7Co6
_symmetry_space_group_name_H-M   'P 1'
_cell_length_a   4.06085100
_cell_length_b   13.29600200
_cell_length_c   13.29600200
_cell_angle_alpha   90.00000000
_cell_angle_beta   90.00000000
_cell_angle_gamma   90.00000000
_symmetry_Int_Tables_number   1
_chemical_formula_structural   Y7Ga7Co6
_chemical_formula_sum   'Y14 Ga14 Co12'
_cell_volume   717.89213979
_cell_formula_units_Z   2
loop_
 _symmetry_equiv_pos_site_id
 _symmetry_equiv_pos_as_xyz
  1  'x, y, z'
loop_
 _atom_site_type_symbol
 _atom_site_label
 _atom_site_symmetry_multiplicity
 _atom_site_fract_x
 _atom_site_fract_y
 _atom_site_fract_z
 _atom_site_occupancy
  Y  Y0  1  0.500000  0.634625  0.134625  1
  Y  Y1  1  0.500000  0.365375  0.865375  1
  Y  Y2  1  0.500000  0.865375  0.634625  1
  Y  Y3  1  0.500000  0.134625  0.365375  1
  Y  Y4  1  0.000000  0.261684  0.046387  1
  Y  Y5  1  0.000000  0.738316  0.953613  1
  Y  Y6  1  0.000000  0.953613  0.261684  1
  Y  Y7  1  0.000000  0.238316  0.546387  1
  Y  Y8  1  0.000000  0.046387  0.738316  1
  Y  Y9  1  0.000000  0.761684  0.453613  1
  Y  Y10  1  0.000000  0.546387  0.761684  1
  Y  Y11  1  0.000000  0.453613  0.238316  1
  Y  Y12  1  0.000000  0.000000  0.000000  1
  Y  Y13  1  0.000000  0.500000  0.500000  1
  Ga  Ga14  1  0.500000  0.209821  0.709821  1
  Ga  Ga15  1  0.500000  0.790179  0.290179  1
  Ga  Ga16  1  0.500000  0.290179  0.209821  1
  Ga  Ga17  1  0.500000  0.709821  0.790179  1
  Ga  Ga18  1  0.000000  0.000000  0.500000  1
  Ga  Ga19  1  0.000000  0.500000  0.000000  1
  Ga  Ga20  1  0.500000  0.091308  0.136797  1
  Ga  Ga21  1  0.500000  0.908692  0.863203  1
  Ga  Ga22  1  0.500000  0.863203  0.091308  1
  Ga  Ga23  1  0.500000  0.408692  0.636797  1
  Ga  Ga24  1  0.500000  0.136797  0.908692  1
  Ga  Ga25  1  0.500000  0.591308  0.363203  1
  Ga  Ga26  1  0.500000  0.636797  0.591308  1
  Ga  Ga27  1  0.500000  0.363203  0.408692  1
  Co  Co28  1  0.500000  0.074190  0.574190  1
  Co  Co29  1  0.500000  0.925810  0.425810  1
  Co  Co30  1  0.500000  0.425810  0.074190  1
  Co  Co31  1  0.500000  0.574190  0.925810  1
  Co  Co32  1  0.000000  0.159243  0.214208  1
  Co  Co33  1  0.000000  0.840757  0.785792  1
  Co  Co34  1  0.000000  0.785792  0.159243  1
  Co  Co35  1  0.000000  0.340757  0.714208  1
  Co  Co36  1  0.000000  0.214208  0.840757  1
  Co  Co37  1  0.000000  0.659243  0.285792  1
  Co  Co38  1  0.000000  0.714208  0.659243  1
  Co  Co39  1  0.000000  0.285792  0.340757  1
