# generated using pymatgen
data_TbTh2In3RuRh2
_symmetry_space_group_name_H-M   'P 1'
_cell_length_a   7.50126443
_cell_length_b   7.74006336
_cell_length_c   3.97934200
_cell_angle_alpha   90.00000000
_cell_angle_beta   90.00000000
_cell_angle_gamma   118.79500090
_symmetry_Int_Tables_number   1
_chemical_formula_structural   TbTh2In3RuRh2
_chemical_formula_sum   'Tb1 Th2 In3 Ru1 Rh2'
_cell_volume   202.47304237
_cell_formula_units_Z   1
loop_
 _symmetry_equiv_pos_site_id
 _symmetry_equiv_pos_as_xyz
  1  'x, y, z'
loop_
 _atom_site_type_symbol
 _atom_site_label
 _atom_site_symmetry_multiplicity
 _atom_site_fract_x
 _atom_site_fract_y
 _atom_site_fract_z
 _atom_site_occupancy
  Tb  Tb0  1  0.591375  0.996338  0.500000  1
  Th  Th1  1  0.005609  0.587666  0.500000  1
  Th  Th2  1  0.413423  0.419087  0.500000  1
  In  In3  1  0.747931  0.761431  0.000000  1
  In  In4  1  0.987163  0.239307  0.000000  1
  In  In5  1  0.265984  0.000162  0.000000  1
  Ru  Ru6  1  0.311404  0.641350  0.000000  1
  Rh  Rh7  1  0.009207  0.999615  0.500000  1
  Rh  Rh8  1  0.667903  0.355046  0.000000  1
