# generated using pymatgen
data_Re2SiCl13
_symmetry_space_group_name_H-M   'P 1'
_cell_length_a   9.69594509
_cell_length_b   11.58064200
_cell_length_c   10.30010749
_cell_angle_alpha   90.00000000
_cell_angle_beta   95.54527270
_cell_angle_gamma   90.00000000
_symmetry_Int_Tables_number   1
_chemical_formula_structural   Re2SiCl13
_chemical_formula_sum   'Re4 Si2 Cl26'
_cell_volume   1151.13786211
_cell_formula_units_Z   2
loop_
 _symmetry_equiv_pos_site_id
 _symmetry_equiv_pos_as_xyz
  1  'x, y, z'
loop_
 _atom_site_type_symbol
 _atom_site_label
 _atom_site_symmetry_multiplicity
 _atom_site_fract_x
 _atom_site_fract_y
 _atom_site_fract_z
 _atom_site_occupancy
  Re  Re0  1  0.174407  0.250000  0.089048  1
  Re  Re1  1  0.684145  0.750000  0.125424  1
  Re  Re2  1  0.315855  0.250000  0.874576  1
  Re  Re3  1  0.825593  0.750000  0.910952  1
  Si  Si4  1  0.257357  0.750000  0.497200  1
  Si  Si5  1  0.742644  0.250000  0.502800  1
  Cl  Cl6  1  0.938074  0.250000  0.070267  1
  Cl  Cl7  1  0.837537  0.593490  0.070683  1
  Cl  Cl8  1  0.837537  0.906511  0.070683  1
  Cl  Cl9  1  0.426826  0.250000  0.098037  1
  Cl  Cl10  1  0.533104  0.609531  0.173448  1
  Cl  Cl11  1  0.533104  0.890469  0.173448  1
  Cl  Cl12  1  0.190633  0.109584  0.244854  1
  Cl  Cl13  1  0.190633  0.390416  0.244854  1
  Cl  Cl14  1  0.194467  0.750000  0.302882  1
  Cl  Cl15  1  0.797772  0.750000  0.329376  1
  Cl  Cl16  1  0.816831  0.106495  0.419308  1
  Cl  Cl17  1  0.816831  0.393505  0.419308  1
  Cl  Cl18  1  0.532094  0.250000  0.475490  1
  Cl  Cl19  1  0.467907  0.750000  0.524510  1
  Cl  Cl20  1  0.183170  0.606495  0.580692  1
  Cl  Cl21  1  0.183170  0.893505  0.580692  1
  Cl  Cl22  1  0.202228  0.250000  0.670624  1
  Cl  Cl23  1  0.805533  0.250000  0.697118  1
  Cl  Cl24  1  0.809368  0.609583  0.755146  1
  Cl  Cl25  1  0.809368  0.890417  0.755146  1
  Cl  Cl26  1  0.466895  0.109531  0.826552  1
  Cl  Cl27  1  0.466895  0.390469  0.826552  1
  Cl  Cl28  1  0.573173  0.750000  0.901963  1
  Cl  Cl29  1  0.162463  0.093490  0.929317  1
  Cl  Cl30  1  0.162463  0.406510  0.929317  1
  Cl  Cl31  1  0.061926  0.750000  0.929734  1
