# generated using pymatgen
data_HoTm9(Bi2As)2
_symmetry_space_group_name_H-M   'P 1'
_cell_length_a   7.95635600
_cell_length_b   9.05895500
_cell_length_c   11.92428300
_cell_angle_alpha   90.00000000
_cell_angle_beta   90.00000000
_cell_angle_gamma   90.00000000
_symmetry_Int_Tables_number   1
_chemical_formula_structural   HoTm9(Bi2As)2
_chemical_formula_sum   'Ho2 Tm18 Bi8 As4'
_cell_volume   859.45785261
_cell_formula_units_Z   2
loop_
 _symmetry_equiv_pos_site_id
 _symmetry_equiv_pos_as_xyz
  1  'x, y, z'
loop_
 _atom_site_type_symbol
 _atom_site_label
 _atom_site_symmetry_multiplicity
 _atom_site_fract_x
 _atom_site_fract_y
 _atom_site_fract_z
 _atom_site_occupancy
  Ho  Ho0  1  0.365697  0.250000  0.707443  1
  Ho  Ho1  1  0.134303  0.250000  0.207443  1
  Tm  Tm2  1  0.816930  0.556834  0.062965  1
  Tm  Tm3  1  0.683070  0.943166  0.562965  1
  Tm  Tm4  1  0.182948  0.056796  0.937091  1
  Tm  Tm5  1  0.317052  0.443204  0.437091  1
  Tm  Tm6  1  0.182948  0.443204  0.937091  1
  Tm  Tm7  1  0.317052  0.056796  0.437091  1
  Tm  Tm8  1  0.816930  0.943166  0.062965  1
  Tm  Tm9  1  0.683070  0.556834  0.562965  1
  Tm  Tm10  1  0.156245  0.750000  0.210732  1
  Tm  Tm11  1  0.343755  0.750000  0.710732  1
  Tm  Tm12  1  0.843820  0.250000  0.789313  1
  Tm  Tm13  1  0.656180  0.250000  0.289313  1
  Tm  Tm14  1  0.463904  0.750000  0.000184  1
  Tm  Tm15  1  0.036096  0.750000  0.500184  1
  Tm  Tm16  1  0.536229  0.250000  0.999942  1
  Tm  Tm17  1  0.963771  0.250000  0.499942  1
  Tm  Tm18  1  0.634373  0.750000  0.292605  1
  Tm  Tm19  1  0.865627  0.750000  0.792605  1
  Bi  Bi20  1  0.925381  0.510328  0.326933  1
  Bi  Bi21  1  0.574619  0.989672  0.826933  1
  Bi  Bi22  1  0.074120  0.009814  0.673168  1
  Bi  Bi23  1  0.425880  0.490186  0.173168  1
  Bi  Bi24  1  0.074120  0.490186  0.673168  1
  Bi  Bi25  1  0.425880  0.009814  0.173168  1
  Bi  Bi26  1  0.925381  0.989672  0.326933  1
  Bi  Bi27  1  0.574619  0.510328  0.826933  1
  As  As28  1  0.412598  0.750000  0.478562  1
  As  As29  1  0.087402  0.750000  0.978562  1
  As  As30  1  0.587846  0.250000  0.520904  1
  As  As31  1  0.912154  0.250000  0.020904  1
