# generated using pymatgen
data_Ca2Sb2Se3O2
_symmetry_space_group_name_H-M   'P 1'
_cell_length_a   9.26461634
_cell_length_b   3.96937900
_cell_length_c   13.19141207
_cell_angle_alpha   90.00000000
_cell_angle_beta   122.50347998
_cell_angle_gamma   90.00000000
_symmetry_Int_Tables_number   1
_chemical_formula_structural   Ca2Sb2Se3O2
_chemical_formula_sum   'Ca4 Sb4 Se6 O4'
_cell_volume   409.12279738
_cell_formula_units_Z   2
loop_
 _symmetry_equiv_pos_site_id
 _symmetry_equiv_pos_as_xyz
  1  'x, y, z'
loop_
 _atom_site_type_symbol
 _atom_site_label
 _atom_site_symmetry_multiplicity
 _atom_site_fract_x
 _atom_site_fract_y
 _atom_site_fract_z
 _atom_site_occupancy
  Ca  Ca0  1  0.099232  0.488997  0.386275  1
  Ca  Ca1  1  0.900768  0.988997  0.113725  1
  Ca  Ca2  1  0.900768  0.511003  0.613725  1
  Ca  Ca3  1  0.099232  0.011003  0.886275  1
  Sb  Sb4  1  0.641737  0.493064  0.193290  1
  Sb  Sb5  1  0.358263  0.993064  0.306710  1
  Sb  Sb6  1  0.358263  0.506936  0.806710  1
  Sb  Sb7  1  0.641737  0.006936  0.693290  1
  Se  Se8  1  0.500000  0.500000  0.500000  1
  Se  Se9  1  0.500000  0.000000  0.000000  1
  Se  Se10  1  0.203076  0.493702  0.125601  1
  Se  Se11  1  0.796924  0.993702  0.374399  1
  Se  Se12  1  0.796924  0.506298  0.874399  1
  Se  Se13  1  0.203076  0.006298  0.625601  1
  O  O14  1  0.146211  0.509606  0.813403  1
  O  O15  1  0.853789  0.009606  0.686597  1
  O  O16  1  0.853789  0.490394  0.186597  1
  O  O17  1  0.146211  0.990394  0.313403  1
