# generated using pymatgen
data_Dy3Ho3VB14Mo
_symmetry_space_group_name_H-M   'P 1'
_cell_length_a   8.13565147
_cell_length_b   8.13565176
_cell_length_c   9.44376153
_cell_angle_alpha   89.96241887
_cell_angle_beta   90.03757982
_cell_angle_gamma   155.55133218
_symmetry_Int_Tables_number   1
_chemical_formula_structural   Dy3Ho3VB14Mo
_chemical_formula_sum   'Dy3 Ho3 V1 B14 Mo1'
_cell_volume   258.70317657
_cell_formula_units_Z   1
loop_
 _symmetry_equiv_pos_site_id
 _symmetry_equiv_pos_as_xyz
  1  'x, y, z'
loop_
 _atom_site_type_symbol
 _atom_site_label
 _atom_site_symmetry_multiplicity
 _atom_site_fract_x
 _atom_site_fract_y
 _atom_site_fract_z
 _atom_site_occupancy
  Dy  Dy0  1  0.257991  0.742009  0.250011  1
  Dy  Dy1  1  0.744775  0.255225  0.749976  1
  Dy  Dy2  1  0.606276  0.393724  0.061706  1
  Ho  Ho3  1  0.393376  0.606624  0.942028  1
  Ho  Ho4  1  0.393372  0.606628  0.557901  1
  Ho  Ho5  1  0.606097  0.393903  0.438758  1
  V  V6  1  0.447386  0.552614  0.250094  1
  B  B7  1  0.978874  0.021126  0.095228  1
  B  B8  1  0.019309  0.980691  0.908805  1
  B  B9  1  0.019395  0.980605  0.590966  1
  B  B10  1  0.978973  0.021027  0.404963  1
  B  B11  1  0.772956  0.227044  0.032767  1
  B  B12  1  0.227470  0.772530  0.968283  1
  B  B13  1  0.227302  0.772698  0.531549  1
  B  B14  1  0.772786  0.227214  0.467162  1
  B  B15  1  0.867580  0.132420  0.149930  1
  B  B16  1  0.134614  0.865386  0.853273  1
  B  B17  1  0.134568  0.865432  0.646408  1
  B  B18  1  0.867573  0.132427  0.350058  1
  B  B19  1  0.041239  0.958761  0.250303  1
  B  B20  1  0.955170  0.044830  0.749961  1
  Mo  Mo21  1  0.552919  0.447081  0.749870  1
