# generated using pymatgen
data_Yb2PIO4
_symmetry_space_group_name_H-M   'P 1'
_cell_length_a   8.56683000
_cell_length_b   8.01979770
_cell_length_c   8.81329039
_cell_angle_alpha   68.05662772
_cell_angle_beta   90.00000000
_cell_angle_gamma   90.00000000
_symmetry_Int_Tables_number   1
_chemical_formula_structural   Yb2PIO4
_chemical_formula_sum   'Yb8 P4 I4 O16'
_cell_volume   561.64342108
_cell_formula_units_Z   4
loop_
 _symmetry_equiv_pos_site_id
 _symmetry_equiv_pos_as_xyz
  1  'x, y, z'
loop_
 _atom_site_type_symbol
 _atom_site_label
 _atom_site_symmetry_multiplicity
 _atom_site_fract_x
 _atom_site_fract_y
 _atom_site_fract_z
 _atom_site_occupancy
  Yb  Yb0  1  0.301608  0.468416  0.135078  1
  Yb  Yb1  1  0.801608  0.031584  0.864922  1
  Yb  Yb2  1  0.698392  0.531584  0.864922  1
  Yb  Yb3  1  0.198392  0.968416  0.135078  1
  Yb  Yb4  1  0.323410  0.945135  0.758779  1
  Yb  Yb5  1  0.823410  0.554865  0.241221  1
  Yb  Yb6  1  0.676590  0.054865  0.241221  1
  Yb  Yb7  1  0.176590  0.445135  0.758779  1
  P  P8  1  0.048731  0.741519  0.958317  1
  P  P9  1  0.548731  0.758481  0.041683  1
  P  P10  1  0.951269  0.258481  0.041683  1
  P  P11  1  0.451269  0.241519  0.958317  1
  I  I12  1  0.876173  0.733579  0.512598  1
  I  I13  1  0.376173  0.766421  0.487402  1
  I  I14  1  0.123827  0.266421  0.487402  1
  I  I15  1  0.623827  0.233579  0.512598  1
  O  O16  1  0.077508  0.658176  0.146432  1
  O  O17  1  0.577508  0.841824  0.853568  1
  O  O18  1  0.922492  0.341824  0.853568  1
  O  O19  1  0.422492  0.158176  0.146432  1
  O  O20  1  0.125720  0.285886  0.069435  1
  O  O21  1  0.625720  0.214114  0.930565  1
  O  O22  1  0.874280  0.714114  0.930565  1
  O  O23  1  0.374280  0.785886  0.069435  1
  O  O24  1  0.666773  0.839656  0.128153  1
  O  O25  1  0.166773  0.660344  0.871847  1
  O  O26  1  0.333227  0.160344  0.871847  1
  O  O27  1  0.833227  0.339656  0.128153  1
  O  O28  1  0.418493  0.446815  0.892351  1
  O  O29  1  0.918493  0.053185  0.107649  1
  O  O30  1  0.581507  0.553185  0.107649  1
  O  O31  1  0.081507  0.946815  0.892351  1
