# generated using pymatgen
data_Mn2Al(BiO3)6
_symmetry_space_group_name_H-M   'P 1'
_cell_length_a   9.02696200
_cell_length_b   9.02696474
_cell_length_c   5.09999300
_cell_angle_alpha   89.99990993
_cell_angle_beta   89.99991063
_cell_angle_gamma   120.00000363
_symmetry_Int_Tables_number   1
_chemical_formula_structural   Mn2Al(BiO3)6
_chemical_formula_sum   'Mn2 Al1 Bi6 O18'
_cell_volume   359.90141675
_cell_formula_units_Z   1
loop_
 _symmetry_equiv_pos_site_id
 _symmetry_equiv_pos_as_xyz
  1  'x, y, z'
loop_
 _atom_site_type_symbol
 _atom_site_label
 _atom_site_symmetry_multiplicity
 _atom_site_fract_x
 _atom_site_fract_y
 _atom_site_fract_z
 _atom_site_occupancy
  Mn  Mn0  1  0.333333  0.666667  0.999667  1
  Mn  Mn1  1  0.666667  0.333333  0.000331  1
  Al  Al2  1  0.000000  0.000000  0.499987  1
  Bi  Bi3  1  0.999991  0.373595  0.500000  1
  Bi  Bi4  1  0.287943  0.287934  0.000002  1
  Bi  Bi5  1  0.999990  0.712057  0.000001  1
  Bi  Bi6  1  0.626406  0.626397  0.500000  1
  Bi  Bi7  1  0.373603  0.000009  0.500000  1
  Bi  Bi8  1  0.712066  0.000010  0.000001  1
  O  O9  1  0.085835  0.201151  0.717287  1
  O  O10  1  0.231962  0.460471  0.217959  1
  O  O11  1  0.135035  0.601373  0.787837  1
  O  O12  1  0.398627  0.533663  0.787837  1
  O  O13  1  0.228508  0.768038  0.217960  1
  O  O14  1  0.115314  0.914165  0.717287  1
  O  O15  1  0.539530  0.771492  0.217959  1
  O  O16  1  0.201148  0.085835  0.282719  1
  O  O17  1  0.466337  0.864965  0.787838  1
  O  O18  1  0.798849  0.884685  0.717287  1
  O  O19  1  0.460469  0.231963  0.782042  1
  O  O20  1  0.601376  0.135038  0.212160  1
  O  O21  1  0.533664  0.398624  0.212160  1
  O  O22  1  0.768037  0.228506  0.782041  1
  O  O23  1  0.914165  0.115313  0.282719  1
  O  O24  1  0.771494  0.539532  0.782042  1
  O  O25  1  0.864961  0.466336  0.212160  1
  O  O26  1  0.884687  0.798851  0.282719  1
