# generated using pymatgen
data_Rb2MoOF5
_symmetry_space_group_name_H-M   'P 1'
_cell_length_a   6.52315658
_cell_length_b   6.52315640
_cell_length_c   8.99229775
_cell_angle_alpha   86.80648806
_cell_angle_beta   86.80648679
_cell_angle_gamma   81.40239268
_symmetry_Int_Tables_number   1
_chemical_formula_structural   Rb2MoOF5
_chemical_formula_sum   'Rb4 Mo2 O2 F10'
_cell_volume   377.31373885
_cell_formula_units_Z   2
loop_
 _symmetry_equiv_pos_site_id
 _symmetry_equiv_pos_as_xyz
  1  'x, y, z'
loop_
 _atom_site_type_symbol
 _atom_site_label
 _atom_site_symmetry_multiplicity
 _atom_site_fract_x
 _atom_site_fract_y
 _atom_site_fract_z
 _atom_site_occupancy
  Rb  Rb0  1  0.299761  0.292514  0.022630  1
  Rb  Rb1  1  0.707486  0.700239  0.477370  1
  Rb  Rb2  1  0.700239  0.707486  0.977370  1
  Rb  Rb3  1  0.292514  0.299761  0.522630  1
  Mo  Mo4  1  0.818192  0.181808  0.250000  1
  Mo  Mo5  1  0.181808  0.818192  0.750000  1
  O  O6  1  0.020395  0.979605  0.250000  1
  O  O7  1  0.979605  0.020395  0.750000  1
  F  F8  1  0.853117  0.282334  0.037084  1
  F  F9  1  0.717666  0.146883  0.462916  1
  F  F10  1  0.146883  0.717666  0.962916  1
  F  F11  1  0.282334  0.853117  0.537084  1
  F  F12  1  0.571530  0.428470  0.250000  1
  F  F13  1  0.428470  0.571530  0.750000  1
  F  F14  1  0.600427  0.013483  0.194571  1
  F  F15  1  0.986517  0.399573  0.305429  1
  F  F16  1  0.399573  0.986517  0.805429  1
  F  F17  1  0.013483  0.600427  0.694571  1
