# generated using pymatgen
data_TiBe8Re2W
_symmetry_space_group_name_H-M   'P 1'
_cell_length_a   4.41260200
_cell_length_b   4.41260249
_cell_length_c   7.27394100
_cell_angle_alpha   90.00000000
_cell_angle_beta   90.00000000
_cell_angle_gamma   119.99999629
_symmetry_Int_Tables_number   1
_chemical_formula_structural   TiBe8Re2W
_chemical_formula_sum   'Ti1 Be8 Re2 W1'
_cell_volume   122.65633556
_cell_formula_units_Z   1
loop_
 _symmetry_equiv_pos_site_id
 _symmetry_equiv_pos_as_xyz
  1  'x, y, z'
loop_
 _atom_site_type_symbol
 _atom_site_label
 _atom_site_symmetry_multiplicity
 _atom_site_fract_x
 _atom_site_fract_y
 _atom_site_fract_z
 _atom_site_occupancy
  Ti  Ti0  1  0.666667  0.333333  0.564335  1
  Be  Be1  1  0.000000  0.000000  0.997899  1
  Be  Be2  1  0.000000  0.000000  0.501285  1
  Be  Be3  1  0.831156  0.662313  0.251970  1
  Be  Be4  1  0.170181  0.829819  0.748697  1
  Be  Be5  1  0.659639  0.829819  0.748697  1
  Be  Be6  1  0.337687  0.168844  0.251970  1
  Be  Be7  1  0.831156  0.168844  0.251970  1
  Be  Be8  1  0.170181  0.340361  0.748697  1
  Re  Re9  1  0.666667  0.333333  0.939900  1
  Re  Re10  1  0.333333  0.666667  0.431513  1
  W  W11  1  0.333333  0.666667  0.063067  1
