# generated using pymatgen
data_Nd4Al2CoIrI2
_symmetry_space_group_name_H-M   'P 1'
_cell_length_a   4.28030900
_cell_length_b   4.28030846
_cell_length_c   17.53257100
_cell_angle_alpha   90.00000000
_cell_angle_beta   90.00000000
_cell_angle_gamma   119.99999641
_symmetry_Int_Tables_number   1
_chemical_formula_structural   Nd4Al2CoIrI2
_chemical_formula_sum   'Nd4 Al2 Co1 Ir1 I2'
_cell_volume   278.18034664
_cell_formula_units_Z   1
loop_
 _symmetry_equiv_pos_site_id
 _symmetry_equiv_pos_as_xyz
  1  'x, y, z'
loop_
 _atom_site_type_symbol
 _atom_site_label
 _atom_site_symmetry_multiplicity
 _atom_site_fract_x
 _atom_site_fract_y
 _atom_site_fract_z
 _atom_site_occupancy
  Nd  Nd0  1  0.000000  0.000000  0.106133  1
  Nd  Nd1  1  0.000000  0.000000  0.896542  1
  Nd  Nd2  1  0.000000  0.000000  0.607483  1
  Nd  Nd3  1  0.000000  0.000000  0.389426  1
  Al  Al4  1  0.666667  0.333333  0.497344  1
  Al  Al5  1  0.666667  0.333333  0.001962  1
  Co  Co6  1  0.333333  0.666667  0.997799  1
  Ir  Ir7  1  0.333333  0.666667  0.503030  1
  I  I8  1  0.333333  0.666667  0.248710  1
  I  I9  1  0.666667  0.333333  0.751572  1
