# generated using pymatgen
data_Tb4CdHgPd3Pt
_symmetry_space_group_name_H-M   'P 1'
_cell_length_a   3.75930900
_cell_length_b   7.72378485
_cell_length_c   7.72089387
_cell_angle_alpha   90.16348842
_cell_angle_beta   90.00000000
_cell_angle_gamma   90.00000000
_symmetry_Int_Tables_number   1
_chemical_formula_structural   Tb4CdHgPd3Pt
_chemical_formula_sum   'Tb4 Cd1 Hg1 Pd3 Pt1'
_cell_volume   224.18368672
_cell_formula_units_Z   1
loop_
 _symmetry_equiv_pos_site_id
 _symmetry_equiv_pos_as_xyz
  1  'x, y, z'
loop_
 _atom_site_type_symbol
 _atom_site_label
 _atom_site_symmetry_multiplicity
 _atom_site_fract_x
 _atom_site_fract_y
 _atom_site_fract_z
 _atom_site_occupancy
  Tb  Tb0  1  0.500000  0.157200  0.682576  1
  Tb  Tb1  1  0.500000  0.837624  0.313687  1
  Tb  Tb2  1  0.500000  0.321304  0.160612  1
  Tb  Tb3  1  0.500000  0.683531  0.845441  1
  Cd  Cd4  1  0.000000  0.500157  0.501872  1
  Hg  Hg5  1  0.000000  0.004992  0.999606  1
  Pd  Pd6  1  0.000000  0.380130  0.855103  1
  Pd  Pd7  1  0.000000  0.859810  0.619349  1
  Pd  Pd8  1  0.000000  0.139299  0.382439  1
  Pt  Pt9  1  0.000000  0.615953  0.139316  1
