# generated using pymatgen
data_Tb8Sc2(IrPt)3
_symmetry_space_group_name_H-M   'P 1'
_cell_length_a   10.94937863
_cell_length_b   10.94312800
_cell_length_c   6.30099221
_cell_angle_alpha   90.00000000
_cell_angle_beta   90.11594745
_cell_angle_gamma   90.00000000
_symmetry_Int_Tables_number   1
_chemical_formula_structural   Tb8Sc2(IrPt)3
_chemical_formula_sum   'Tb16 Sc4 Ir6 Pt6'
_cell_volume   754.98618804
_cell_formula_units_Z   2
loop_
 _symmetry_equiv_pos_site_id
 _symmetry_equiv_pos_as_xyz
  1  'x, y, z'
loop_
 _atom_site_type_symbol
 _atom_site_label
 _atom_site_symmetry_multiplicity
 _atom_site_fract_x
 _atom_site_fract_y
 _atom_site_fract_z
 _atom_site_occupancy
  Tb  Tb0  1  0.291358  0.087834  0.375651  1
  Tb  Tb1  1  0.291358  0.912166  0.875651  1
  Tb  Tb2  1  0.708954  0.085355  0.875857  1
  Tb  Tb3  1  0.708954  0.914645  0.375857  1
  Tb  Tb4  1  0.582421  0.788261  0.875851  1
  Tb  Tb5  1  0.582421  0.211739  0.375851  1
  Tb  Tb6  1  0.413101  0.789048  0.380346  1
  Tb  Tb7  1  0.413101  0.210952  0.880346  1
  Tb  Tb8  1  0.212992  0.416075  0.621113  1
  Tb  Tb9  1  0.212992  0.583925  0.121113  1
  Tb  Tb10  1  0.790618  0.414370  0.122613  1
  Tb  Tb11  1  0.790618  0.585630  0.622613  1
  Tb  Tb12  1  0.915316  0.709135  0.124118  1
  Tb  Tb13  1  0.915316  0.290865  0.624118  1
  Tb  Tb14  1  0.088475  0.708538  0.624352  1
  Tb  Tb15  1  0.088475  0.291462  0.124352  1
  Sc  Sc16  1  0.999985  0.999840  0.499939  1
  Sc  Sc17  1  0.999985  0.000160  0.999939  1
  Sc  Sc18  1  0.496258  0.499415  0.000025  1
  Sc  Sc19  1  0.496258  0.500585  0.500025  1
  Ir  Ir20  1  0.354118  0.353361  0.250084  1
  Ir  Ir21  1  0.354118  0.646639  0.750084  1
  Ir  Ir22  1  0.500185  0.999644  0.120771  1
  Ir  Ir23  1  0.500185  0.000356  0.620771  1
  Ir  Ir24  1  0.999055  0.500099  0.879274  1
  Ir  Ir25  1  0.999055  0.499901  0.379274  1
  Pt  Pt26  1  0.853852  0.146298  0.249698  1
  Pt  Pt27  1  0.853852  0.853702  0.749698  1
  Pt  Pt28  1  0.145943  0.145757  0.750289  1
  Pt  Pt29  1  0.145943  0.854243  0.250289  1
  Pt  Pt30  1  0.647369  0.353235  0.750019  1
  Pt  Pt31  1  0.647369  0.646765  0.250019  1
