# generated using pymatgen
data_SmY3Er2(Si3Ru)8
_symmetry_space_group_name_H-M   'P 1'
_cell_length_a   10.12953398
_cell_length_b   10.12952383
_cell_length_c   8.15474098
_cell_angle_alpha   89.99409352
_cell_angle_beta   90.00577301
_cell_angle_gamma   132.58730539
_symmetry_Int_Tables_number   1
_chemical_formula_structural   SmY3Er2(Si3Ru)8
_chemical_formula_sum   'Sm1 Y3 Er2 Si24 Ru8'
_cell_volume   616.04470029
_cell_formula_units_Z   1
loop_
 _symmetry_equiv_pos_site_id
 _symmetry_equiv_pos_as_xyz
  1  'x, y, z'
loop_
 _atom_site_type_symbol
 _atom_site_label
 _atom_site_symmetry_multiplicity
 _atom_site_fract_x
 _atom_site_fract_y
 _atom_site_fract_z
 _atom_site_occupancy
  Sm  Sm0  1  0.997333  0.497330  0.250000  1
  Y  Y1  1  0.497630  0.997630  0.250001  1
  Y  Y2  1  0.002389  0.502387  0.749999  1
  Y  Y3  1  0.502583  0.002584  0.750000  1
  Er  Er4  1  0.500044  0.499955  0.500045  1
  Er  Er5  1  0.999951  0.000049  0.999974  1
  Si  Si6  1  0.387681  0.154609  0.004255  1
  Si  Si7  1  0.654608  0.887678  0.495749  1
  Si  Si8  1  0.111475  0.344030  0.504233  1
  Si  Si9  1  0.844030  0.611473  0.995758  1
  Si  Si10  1  0.612254  0.845257  0.995323  1
  Si  Si11  1  0.345256  0.112255  0.504668  1
  Si  Si12  1  0.888388  0.656078  0.496235  1
  Si  Si13  1  0.156082  0.388393  0.003767  1
  Si  Si14  1  0.612365  0.378438  0.228160  1
  Si  Si15  1  0.878436  0.112367  0.271844  1
  Si  Si16  1  0.886419  0.120256  0.728412  1
  Si  Si17  1  0.620255  0.386421  0.771584  1
  Si  Si18  1  0.387858  0.621463  0.771692  1
  Si  Si19  1  0.121463  0.887856  0.728301  1
  Si  Si20  1  0.704190  0.292978  0.998847  1
  Si  Si21  1  0.792978  0.204189  0.501151  1
  Si  Si22  1  0.295788  0.706908  0.999216  1
  Si  Si23  1  0.206908  0.795787  0.500781  1
  Si  Si24  1  0.168244  0.167845  0.332995  1
  Si  Si25  1  0.667837  0.668233  0.167013  1
  Si  Si26  1  0.331985  0.331896  0.832990  1
  Si  Si27  1  0.831890  0.831979  0.667002  1
  Si  Si28  1  0.380068  0.613539  0.228424  1
  Si  Si29  1  0.113542  0.880067  0.271579  1
  Ru  Ru30  1  0.625846  0.625542  0.872985  1
  Ru  Ru31  1  0.125537  0.125842  0.627021  1
  Ru  Ru32  1  0.874131  0.874602  0.372960  1
  Ru  Ru33  1  0.374597  0.374127  0.127033  1
  Ru  Ru34  1  0.331081  0.667702  0.500600  1
  Ru  Ru35  1  0.167702  0.831080  0.999399  1
  Ru  Ru36  1  0.668842  0.332326  0.500366  1
  Ru  Ru37  1  0.832334  0.168848  0.999639  1
