# generated using pymatgen
data_TbNd4Tm5Sn6
_symmetry_space_group_name_H-M   'P 1'
_cell_length_a   6.59793000
_cell_length_b   9.02344895
_cell_length_c   9.09370001
_cell_angle_alpha   120.25671819
_cell_angle_beta   89.99984180
_cell_angle_gamma   89.99993427
_symmetry_Int_Tables_number   1
_chemical_formula_structural   TbNd4Tm5Sn6
_chemical_formula_sum   'Tb1 Nd4 Tm5 Sn6'
_cell_volume   467.65140262
_cell_formula_units_Z   1
loop_
 _symmetry_equiv_pos_site_id
 _symmetry_equiv_pos_as_xyz
  1  'x, y, z'
loop_
 _atom_site_type_symbol
 _atom_site_label
 _atom_site_symmetry_multiplicity
 _atom_site_fract_x
 _atom_site_fract_y
 _atom_site_fract_z
 _atom_site_occupancy
  Tb  Tb0  1  0.750001  0.999977  0.243373  1
  Nd  Nd1  1  0.750004  0.238795  0.999473  1
  Nd  Nd2  1  0.749998  0.761146  0.760633  1
  Nd  Nd3  1  0.250000  0.760715  0.999801  1
  Nd  Nd4  1  0.250003  0.239356  0.239142  1
  Tm  Tm5  1  0.499901  0.332908  0.666583  1
  Tm  Tm6  1  0.499903  0.667095  0.333653  1
  Tm  Tm7  1  0.000100  0.667104  0.333648  1
  Tm  Tm8  1  0.000094  0.332919  0.666584  1
  Tm  Tm9  1  0.250000  0.000037  0.757481  1
  Sn  Sn10  1  0.749999  0.604283  0.001997  1
  Sn  Sn11  1  0.750001  0.395616  0.397646  1
  Sn  Sn12  1  0.750002  0.000001  0.598645  1
  Sn  Sn13  1  0.249999  0.393769  0.996548  1
  Sn  Sn14  1  0.249994  0.606271  0.602800  1
  Sn  Sn15  1  0.250002  0.000010  0.401992  1
