# generated using pymatgen
data_Lu4Sc8Co5Bi
_symmetry_space_group_name_H-M   'P 1'
_cell_length_a   7.84967354
_cell_length_b   7.84967376
_cell_length_c   7.84967272
_cell_angle_alpha   110.76475419
_cell_angle_beta   110.59947705
_cell_angle_gamma   107.07570624
_symmetry_Int_Tables_number   1
_chemical_formula_structural   Lu4Sc8Co5Bi
_chemical_formula_sum   'Lu4 Sc8 Co5 Bi1'
_cell_volume   371.84775406
_cell_formula_units_Z   1
loop_
 _symmetry_equiv_pos_site_id
 _symmetry_equiv_pos_as_xyz
  1  'x, y, z'
loop_
 _atom_site_type_symbol
 _atom_site_label
 _atom_site_symmetry_multiplicity
 _atom_site_fract_x
 _atom_site_fract_y
 _atom_site_fract_z
 _atom_site_occupancy
  Lu  Lu0  1  0.816169  0.721918  0.538088  1
  Lu  Lu1  1  0.183831  0.278082  0.461912  1
  Lu  Lu2  1  0.183831  0.721918  0.905751  1
  Lu  Lu3  1  0.816169  0.278082  0.094249  1
  Sc  Sc4  1  0.680432  0.367668  0.687237  1
  Sc  Sc5  1  0.319568  0.632332  0.312763  1
  Sc  Sc6  1  0.680432  0.993195  0.312763  1
  Sc  Sc7  1  0.319568  0.006805  0.687237  1
  Sc  Sc8  1  0.587400  0.782903  0.804498  1
  Sc  Sc9  1  0.412600  0.217097  0.195502  1
  Sc  Sc10  1  0.978404  0.782903  0.195502  1
  Sc  Sc11  1  0.021596  0.217097  0.804498  1
  Co  Co12  1  0.648208  0.000000  0.648208  1
  Co  Co13  1  0.351792  0.000000  0.351792  1
  Co  Co14  1  0.119825  0.619825  0.500000  1
  Co  Co15  1  0.880175  0.380175  0.500000  1
  Co  Co16  1  0.000000  0.000000  0.000000  1
  Bi  Bi17  1  0.500000  0.500000  0.000000  1
