# generated using pymatgen
data_Hf8Co16SiP11
_symmetry_space_group_name_H-M   'P 1'
_cell_length_a   12.08719008
_cell_length_b   12.08719044
_cell_length_c   3.63735800
_cell_angle_alpha   90.00000000
_cell_angle_beta   90.00000000
_cell_angle_gamma   119.98931987
_symmetry_Int_Tables_number   1
_chemical_formula_structural   Hf8Co16SiP11
_chemical_formula_sum   'Hf8 Co16 Si1 P11'
_cell_volume   460.27154281
_cell_formula_units_Z   1
loop_
 _symmetry_equiv_pos_site_id
 _symmetry_equiv_pos_as_xyz
  1  'x, y, z'
loop_
 _atom_site_type_symbol
 _atom_site_label
 _atom_site_symmetry_multiplicity
 _atom_site_fract_x
 _atom_site_fract_y
 _atom_site_fract_z
 _atom_site_occupancy
  Hf  Hf0  1  0.441908  0.441908  0.000000  1
  Hf  Hf1  1  0.555502  0.000644  0.000000  1
  Hf  Hf2  1  0.000644  0.555502  0.000000  1
  Hf  Hf3  1  0.667090  0.334190  0.000000  1
  Hf  Hf4  1  0.334190  0.667090  0.000000  1
  Hf  Hf5  1  0.826323  0.826323  0.500000  1
  Hf  Hf6  1  0.174982  0.999752  0.500000  1
  Hf  Hf7  1  0.999752  0.174982  0.500000  1
  Co  Co8  1  0.192361  0.371105  0.000000  1
  Co  Co9  1  0.178066  0.806828  0.000000  1
  Co  Co10  1  0.825512  0.628109  0.000000  1
  Co  Co11  1  0.806828  0.178066  0.000000  1
  Co  Co12  1  0.371105  0.192361  0.000000  1
  Co  Co13  1  0.126782  0.481824  0.500000  1
  Co  Co14  1  0.354552  0.873232  0.500000  1
  Co  Co15  1  0.516511  0.644507  0.500000  1
  Co  Co16  1  0.644507  0.516511  0.500000  1
  Co  Co17  1  0.873232  0.354552  0.500000  1
  Co  Co18  1  0.481824  0.126782  0.500000  1
  Co  Co19  1  0.000558  0.000558  0.000000  1
  Co  Co20  1  0.722243  0.001915  0.500000  1
  Co  Co21  1  0.001915  0.722243  0.500000  1
  Co  Co22  1  0.628109  0.825512  0.000000  1
  Co  Co23  1  0.277604  0.277604  0.500000  1
  Si  Si24  1  0.654919  0.654919  0.000000  1
  P  P25  1  0.344282  0.999694  0.000000  1
  P  P26  1  0.999694  0.344282  0.000000  1
  P  P27  1  0.482439  0.308820  0.500000  1
  P  P28  1  0.690439  0.173850  0.500000  1
  P  P29  1  0.826709  0.517297  0.500000  1
  P  P30  1  0.517297  0.826709  0.500000  1
  P  P31  1  0.173850  0.690439  0.500000  1
  P  P32  1  0.825147  0.999486  0.000000  1
  P  P33  1  0.999486  0.825147  0.000000  1
  P  P34  1  0.308820  0.482439  0.500000  1
  P  P35  1  0.174819  0.174819  0.000000  1
