# generated using pymatgen
data_Na2Al2SiSe6
_symmetry_space_group_name_H-M   'P 1'
_cell_length_a   7.39109277
_cell_length_b   7.39109293
_cell_length_c   12.36955528
_cell_angle_alpha   76.30565834
_cell_angle_beta   76.30566022
_cell_angle_gamma   68.64089558
_symmetry_Int_Tables_number   1
_chemical_formula_structural   Na2Al2SiSe6
_chemical_formula_sum   'Na4 Al4 Si2 Se12'
_cell_volume   602.90685268
_cell_formula_units_Z   2
loop_
 _symmetry_equiv_pos_site_id
 _symmetry_equiv_pos_as_xyz
  1  'x, y, z'
loop_
 _atom_site_type_symbol
 _atom_site_label
 _atom_site_symmetry_multiplicity
 _atom_site_fract_x
 _atom_site_fract_y
 _atom_site_fract_z
 _atom_site_occupancy
  Na  Na0  1  0.196085  0.329616  0.008100  1
  Na  Na1  1  0.329616  0.196085  0.508100  1
  Na  Na2  1  0.354794  0.738699  0.167600  1
  Na  Na3  1  0.738699  0.354794  0.667600  1
  Al  Al4  1  0.847506  0.964635  0.013088  1
  Al  Al5  1  0.964635  0.847506  0.513088  1
  Al  Al6  1  0.661477  0.801453  0.813138  1
  Al  Al7  1  0.801453  0.661477  0.313138  1
  Si  Si8  1  0.184153  0.756797  0.764126  1
  Si  Si9  1  0.756797  0.184153  0.264126  1
  Se  Se10  1  0.046119  0.047317  0.831627  1
  Se  Se11  1  0.047317  0.046119  0.331627  1
  Se  Se12  1  0.803260  0.271483  0.072609  1
  Se  Se13  1  0.271483  0.803260  0.572609  1
  Se  Se14  1  0.015813  0.668002  0.132257  1
  Se  Se15  1  0.668002  0.015813  0.632257  1
  Se  Se16  1  0.542157  0.966618  0.974674  1
  Se  Se17  1  0.966618  0.542157  0.474674  1
  Se  Se18  1  0.469094  0.576889  0.840309  1
  Se  Se19  1  0.576889  0.469094  0.340309  1
  Se  Se20  1  0.990286  0.557605  0.814241  1
  Se  Se21  1  0.557605  0.990286  0.314241  1
