# generated using pymatgen
data_CrGaAg2F8
_symmetry_space_group_name_H-M   'P 1'
_cell_length_a   5.55954000
_cell_length_b   7.65299151
_cell_length_c   8.31358054
_cell_angle_alpha   77.68773839
_cell_angle_beta   90.00000000
_cell_angle_gamma   90.00000000
_symmetry_Int_Tables_number   1
_chemical_formula_structural   CrGaAg2F8
_chemical_formula_sum   'Cr2 Ga2 Ag4 F16'
_cell_volume   345.58329935
_cell_formula_units_Z   2
loop_
 _symmetry_equiv_pos_site_id
 _symmetry_equiv_pos_as_xyz
  1  'x, y, z'
loop_
 _atom_site_type_symbol
 _atom_site_label
 _atom_site_symmetry_multiplicity
 _atom_site_fract_x
 _atom_site_fract_y
 _atom_site_fract_z
 _atom_site_occupancy
  Cr  Cr0  1  0.255163  0.294784  0.839562  1
  Cr  Cr1  1  0.755163  0.205216  0.160438  1
  Ga  Ga2  1  0.745514  0.704850  0.160511  1
  Ga  Ga3  1  0.245514  0.795150  0.839489  1
  Ag  Ag4  1  0.215487  0.895591  0.368253  1
  Ag  Ag5  1  0.715487  0.604409  0.631747  1
  Ag  Ag6  1  0.781860  0.103171  0.632817  1
  Ag  Ag7  1  0.281860  0.396829  0.367183  1
  F  F8  1  0.487828  0.137310  0.304293  1
  F  F9  1  0.987828  0.362690  0.695707  1
  F  F10  1  0.508988  0.862408  0.698353  1
  F  F11  1  0.008988  0.637592  0.301647  1
  F  F12  1  0.953432  0.182906  0.353929  1
  F  F13  1  0.453432  0.317094  0.646071  1
  F  F14  1  0.045329  0.813912  0.652278  1
  F  F15  1  0.545329  0.686088  0.347722  1
  F  F16  1  0.827887  0.954589  0.155296  1
  F  F17  1  0.327887  0.545411  0.844704  1
  F  F18  1  0.170171  0.042227  0.846469  1
  F  F19  1  0.670171  0.457773  0.153531  1
  F  F20  1  0.456722  0.781076  0.029128  1
  F  F21  1  0.956722  0.718924  0.970872  1
  F  F22  1  0.551619  0.214635  0.965773  1
  F  F23  1  0.051619  0.285365  0.034227  1
