# generated using pymatgen
data_Tb3HoEr4(SiBr6)2
_symmetry_space_group_name_H-M   'P 1'
_cell_length_a   4.04174700
_cell_length_b   13.20238116
_cell_length_c   13.96834323
_cell_angle_alpha   90.04809156
_cell_angle_beta   90.00000000
_cell_angle_gamma   90.00000000
_symmetry_Int_Tables_number   1
_chemical_formula_structural   Tb3HoEr4(SiBr6)2
_chemical_formula_sum   'Tb3 Ho1 Er4 Si2 Br12'
_cell_volume   745.36009293
_cell_formula_units_Z   1
loop_
 _symmetry_equiv_pos_site_id
 _symmetry_equiv_pos_as_xyz
  1  'x, y, z'
loop_
 _atom_site_type_symbol
 _atom_site_label
 _atom_site_symmetry_multiplicity
 _atom_site_fract_x
 _atom_site_fract_y
 _atom_site_fract_z
 _atom_site_occupancy
  Tb  Tb0  1  0.000000  0.881415  0.421096  1
  Tb  Tb1  1  0.000000  0.618925  0.920872  1
  Tb  Tb2  1  0.000000  0.381062  0.079138  1
  Ho  Ho3  1  0.000000  0.118295  0.578712  1
  Er  Er4  1  0.500000  0.117713  0.341816  1
  Er  Er5  1  0.500000  0.882516  0.658252  1
  Er  Er6  1  0.500000  0.617488  0.158056  1
  Er  Er7  1  0.500000  0.382409  0.841851  1
  Si  Si8  1  0.500000  0.000951  0.500647  1
  Si  Si9  1  0.500000  0.499955  0.999957  1
  Br  Br10  1  0.500000  0.241923  0.164764  1
  Br  Br11  1  0.500000  0.758104  0.835283  1
  Br  Br12  1  0.500000  0.742031  0.335379  1
  Br  Br13  1  0.500000  0.256803  0.663935  1
  Br  Br14  1  0.000000  0.254660  0.409963  1
  Br  Br15  1  0.000000  0.745074  0.590880  1
  Br  Br16  1  0.000000  0.754912  0.090928  1
  Br  Br17  1  0.000000  0.245052  0.909062  1
  Br  Br18  1  0.000000  0.004193  0.242498  1
  Br  Br19  1  0.000000  0.996578  0.756915  1
  Br  Br20  1  0.000000  0.504269  0.257552  1
  Br  Br21  1  0.000000  0.495671  0.742444  1
