# generated using pymatgen
data_Ce2Re2TcB6
_symmetry_space_group_name_H-M   'P 1'
_cell_length_a   6.27863471
_cell_length_b   6.27863465
_cell_length_c   7.52881315
_cell_angle_alpha   90.61433138
_cell_angle_beta   90.61432512
_cell_angle_gamma   114.45812940
_symmetry_Int_Tables_number   1
_chemical_formula_structural   Ce2Re2TcB6
_chemical_formula_sum   'Ce4 Re4 Tc2 B12'
_cell_volume   270.10904939
_cell_formula_units_Z   2
loop_
 _symmetry_equiv_pos_site_id
 _symmetry_equiv_pos_as_xyz
  1  'x, y, z'
loop_
 _atom_site_type_symbol
 _atom_site_label
 _atom_site_symmetry_multiplicity
 _atom_site_fract_x
 _atom_site_fract_y
 _atom_site_fract_z
 _atom_site_occupancy
  Ce  Ce0  1  0.097412  0.446869  0.330939  1
  Ce  Ce1  1  0.553131  0.902588  0.169061  1
  Ce  Ce2  1  0.902588  0.553131  0.669061  1
  Ce  Ce3  1  0.446869  0.097412  0.830939  1
  Re  Re4  1  0.989960  0.806405  0.088021  1
  Re  Re5  1  0.193595  0.010040  0.411979  1
  Re  Re6  1  0.010040  0.193595  0.911979  1
  Re  Re7  1  0.806405  0.989960  0.588021  1
  Tc  Tc8  1  0.589602  0.410398  0.250000  1
  Tc  Tc9  1  0.410398  0.589602  0.750000  1
  B  B10  1  0.245778  0.156572  0.134741  1
  B  B11  1  0.843428  0.754222  0.365259  1
  B  B12  1  0.754222  0.843428  0.865259  1
  B  B13  1  0.156572  0.245778  0.634741  1
  B  B14  1  0.583763  0.158290  0.483480  1
  B  B15  1  0.841710  0.416237  0.016520  1
  B  B16  1  0.416237  0.841710  0.516520  1
  B  B17  1  0.158290  0.583763  0.983480  1
  B  B18  1  0.444828  0.350004  0.535094  1
  B  B19  1  0.649996  0.555172  0.964906  1
  B  B20  1  0.555172  0.649996  0.464906  1
  B  B21  1  0.350004  0.444828  0.035094  1
