# generated using pymatgen
data_NdHoSi6AsRh12
_symmetry_space_group_name_H-M   'P 1'
_cell_length_a   9.81564700
_cell_length_b   9.81564841
_cell_length_c   3.86336400
_cell_angle_alpha   90.00000000
_cell_angle_beta   90.00000000
_cell_angle_gamma   119.99999861
_symmetry_Int_Tables_number   1
_chemical_formula_structural   NdHoSi6AsRh12
_chemical_formula_sum   'Nd1 Ho1 Si6 As1 Rh12'
_cell_volume   322.35483745
_cell_formula_units_Z   1
loop_
 _symmetry_equiv_pos_site_id
 _symmetry_equiv_pos_as_xyz
  1  'x, y, z'
loop_
 _atom_site_type_symbol
 _atom_site_label
 _atom_site_symmetry_multiplicity
 _atom_site_fract_x
 _atom_site_fract_y
 _atom_site_fract_z
 _atom_site_occupancy
  Nd  Nd0  1  0.333333  0.666667  0.249741  1
  Ho  Ho1  1  0.666667  0.333333  0.750612  1
  Si  Si2  1  0.402650  0.111607  0.248753  1
  Si  Si3  1  0.708956  0.597350  0.248753  1
  Si  Si4  1  0.888393  0.291044  0.248753  1
  Si  Si5  1  0.600256  0.890861  0.751181  1
  Si  Si6  1  0.290605  0.399744  0.751181  1
  Si  Si7  1  0.109139  0.709395  0.751181  1
  As  As8  1  0.000000  0.000000  0.501595  1
  Rh  Rh9  1  0.445133  0.380021  0.249037  1
  Rh  Rh10  1  0.934888  0.554867  0.249037  1
  Rh  Rh11  1  0.619979  0.065112  0.249037  1
  Rh  Rh12  1  0.557548  0.617593  0.750832  1
  Rh  Rh13  1  0.060044  0.442452  0.750832  1
  Rh  Rh14  1  0.382407  0.939956  0.750832  1
  Rh  Rh15  1  0.145717  0.880534  0.249966  1
  Rh  Rh16  1  0.734817  0.854283  0.249966  1
  Rh  Rh17  1  0.119466  0.265183  0.249966  1
  Rh  Rh18  1  0.854590  0.120270  0.749581  1
  Rh  Rh19  1  0.265680  0.145410  0.749581  1
  Rh  Rh20  1  0.879730  0.734320  0.749581  1
