# generated using pymatgen
data_Ce9Dy(SiPb3)2
_symmetry_space_group_name_H-M   'P 1'
_cell_length_a   9.65028415
_cell_length_b   9.65028381
_cell_length_c   6.48651000
_cell_angle_alpha   90.00000000
_cell_angle_beta   90.00000000
_cell_angle_gamma   120.02016043
_symmetry_Int_Tables_number   1
_chemical_formula_structural   Ce9Dy(SiPb3)2
_chemical_formula_sum   'Ce9 Dy1 Si2 Pb6'
_cell_volume   523.03848825
_cell_formula_units_Z   1
loop_
 _symmetry_equiv_pos_site_id
 _symmetry_equiv_pos_as_xyz
  1  'x, y, z'
loop_
 _atom_site_type_symbol
 _atom_site_label
 _atom_site_symmetry_multiplicity
 _atom_site_fract_x
 _atom_site_fract_y
 _atom_site_fract_z
 _atom_site_occupancy
  Ce  Ce0  1  0.666318  0.333235  0.500329  1
  Ce  Ce1  1  0.333235  0.666318  0.500329  1
  Ce  Ce2  1  0.333235  0.666318  0.999671  1
  Ce  Ce3  1  0.666318  0.333235  0.999671  1
  Ce  Ce4  1  0.251400  0.999710  0.250000  1
  Ce  Ce5  1  0.999710  0.251400  0.250000  1
  Ce  Ce6  1  0.250842  0.250842  0.750000  1
  Ce  Ce7  1  0.748108  0.999223  0.750000  1
  Ce  Ce8  1  0.999223  0.748108  0.750000  1
  Dy  Dy9  1  0.751299  0.751299  0.250000  1
  Si  Si10  1  0.999682  0.999682  0.498461  1
  Si  Si11  1  0.999682  0.999682  0.001539  1
  Pb  Pb12  1  0.388616  0.388616  0.250000  1
  Pb  Pb13  1  0.614192  0.998779  0.250000  1
  Pb  Pb14  1  0.998779  0.614192  0.250000  1
  Pb  Pb15  1  0.613113  0.613113  0.750000  1
  Pb  Pb16  1  0.386486  0.999760  0.750000  1
  Pb  Pb17  1  0.999760  0.386486  0.750000  1
