# generated using pymatgen
data_Y3Tm3Co14(P3Ir)4
_symmetry_space_group_name_H-M   'P 1'
_cell_length_a   3.72096200
_cell_length_b   10.61630224
_cell_length_c   12.36841859
_cell_angle_alpha   89.92570618
_cell_angle_beta   90.00000000
_cell_angle_gamma   90.00000000
_symmetry_Int_Tables_number   1
_chemical_formula_structural   Y3Tm3Co14(P3Ir)4
_chemical_formula_sum   'Y3 Tm3 Co14 P12 Ir4'
_cell_volume   488.58746277
_cell_formula_units_Z   1
loop_
 _symmetry_equiv_pos_site_id
 _symmetry_equiv_pos_as_xyz
  1  'x, y, z'
loop_
 _atom_site_type_symbol
 _atom_site_label
 _atom_site_symmetry_multiplicity
 _atom_site_fract_x
 _atom_site_fract_y
 _atom_site_fract_z
 _atom_site_occupancy
  Y  Y0  1  0.000000  0.499980  0.520002  1
  Y  Y1  1  0.500000  0.000116  0.480238  1
  Y  Y2  1  0.500000  0.813159  0.205529  1
  Tm  Tm3  1  0.500000  0.186435  0.206060  1
  Tm  Tm4  1  0.000000  0.686203  0.794199  1
  Tm  Tm5  1  0.000000  0.313601  0.793665  1
  Co  Co6  1  0.000000  0.499124  0.987906  1
  Co  Co7  1  0.500000  0.000339  0.010841  1
  Co  Co8  1  0.500000  0.331782  0.993240  1
  Co  Co9  1  0.500000  0.667096  0.992516  1
  Co  Co10  1  0.000000  0.168235  0.006323  1
  Co  Co11  1  0.000000  0.831932  0.005805  1
  Co  Co12  1  0.500000  0.300285  0.428390  1
  Co  Co13  1  0.500000  0.700378  0.429489  1
  Co  Co14  1  0.000000  0.200388  0.571771  1
  Co  Co15  1  0.000000  0.800054  0.572479  1
  Co  Co16  1  0.500000  0.880195  0.712265  1
  Co  Co17  1  0.500000  0.120016  0.711796  1
  Co  Co18  1  0.000000  0.618817  0.289068  1
  Co  Co19  1  0.000000  0.379911  0.287974  1
  P  P20  1  0.500000  0.499487  0.889424  1
  P  P21  1  0.000000  0.000581  0.109902  1
  P  P22  1  0.500000  0.500445  0.350384  1
  P  P23  1  0.000000  0.000148  0.649848  1
  P  P24  1  0.500000  0.302657  0.613834  1
  P  P25  1  0.500000  0.697503  0.614415  1
  P  P26  1  0.000000  0.198118  0.386374  1
  P  P27  1  0.000000  0.802952  0.387279  1
  P  P28  1  0.500000  0.843692  0.894145  1
  P  P29  1  0.500000  0.156270  0.893689  1
  P  P30  1  0.000000  0.654437  0.104920  1
  P  P31  1  0.000000  0.343749  0.105943  1
  Ir  Ir32  1  0.500000  0.499739  0.160334  1
  Ir  Ir33  1  0.000000  0.000482  0.839465  1
  Ir  Ir34  1  0.500000  0.499865  0.704741  1
  Ir  Ir35  1  0.000000  0.001830  0.295744  1
