# generated using pymatgen
data_Dy2ErIn4CoRu
_symmetry_space_group_name_H-M   'P 1'
_cell_length_a   7.93199618
_cell_length_b   7.92764894
_cell_length_c   3.67216000
_cell_angle_alpha   90.00000000
_cell_angle_beta   90.00000000
_cell_angle_gamma   119.95586825
_symmetry_Int_Tables_number   1
_chemical_formula_structural   Dy2ErIn4CoRu
_chemical_formula_sum   'Dy2 Er1 In4 Co1 Ru1'
_cell_volume   200.06544901
_cell_formula_units_Z   1
loop_
 _symmetry_equiv_pos_site_id
 _symmetry_equiv_pos_as_xyz
  1  'x, y, z'
loop_
 _atom_site_type_symbol
 _atom_site_label
 _atom_site_symmetry_multiplicity
 _atom_site_fract_x
 _atom_site_fract_y
 _atom_site_fract_z
 _atom_site_occupancy
  Dy  Dy0  1  0.704423  0.752474  0.500000  1
  Dy  Dy1  1  0.248039  0.952392  0.500000  1
  Er  Er2  1  0.046676  0.294764  0.500000  1
  In  In3  1  0.667693  0.082726  0.000000  1
  In  In4  1  0.917696  0.583811  0.000000  1
  In  In5  1  0.415196  0.333332  0.000000  1
  In  In6  1  0.332702  0.665660  0.000000  1
  Co  Co7  1  0.667313  0.333315  0.500000  1
  Ru  Ru8  1  0.000263  0.001526  0.000000  1
