# generated using pymatgen
data_DyHo(Al5Cu6)2
_symmetry_space_group_name_H-M   'P 1'
_cell_length_a   10.31527157
_cell_length_b   8.17416851
_cell_length_c   7.82087902
_cell_angle_alpha   80.28381980
_cell_angle_beta   51.35836969
_cell_angle_gamma   48.35779600
_symmetry_Int_Tables_number   1
_chemical_formula_structural   DyHo(Al5Cu6)2
_chemical_formula_sum   'Dy1 Ho1 Al10 Cu12'
_cell_volume   349.01341212
_cell_formula_units_Z   1
loop_
 _symmetry_equiv_pos_site_id
 _symmetry_equiv_pos_as_xyz
  1  'x, y, z'
loop_
 _atom_site_type_symbol
 _atom_site_label
 _atom_site_symmetry_multiplicity
 _atom_site_fract_x
 _atom_site_fract_y
 _atom_site_fract_z
 _atom_site_occupancy
  Dy  Dy0  1  0.250000  0.250000  0.250000  1
  Ho  Ho1  1  0.000000  0.000000  0.000000  1
  Al  Al2  1  0.500000  0.500000  0.500000  1
  Al  Al3  1  0.750000  0.750000  0.750000  1
  Al  Al4  1  0.754420  0.071447  0.836364  1
  Al  Al5  1  0.836364  0.337769  0.754420  1
  Al  Al6  1  0.071447  0.754420  0.337769  1
  Al  Al7  1  0.337769  0.836364  0.071447  1
  Al  Al8  1  0.495805  0.178430  0.413567  1
  Al  Al9  1  0.413567  0.912197  0.495805  1
  Al  Al10  1  0.178430  0.495805  0.912197  1
  Al  Al11  1  0.912197  0.413567  0.178430  1
  Cu  Cu12  1  0.624913  0.125141  0.625059  1
  Cu  Cu13  1  0.625059  0.624887  0.624913  1
  Cu  Cu14  1  0.125141  0.624913  0.624887  1
  Cu  Cu15  1  0.624887  0.625059  0.125141  1
  Cu  Cu16  1  0.491777  0.434435  0.183106  1
  Cu  Cu17  1  0.183106  0.890682  0.491777  1
  Cu  Cu18  1  0.434435  0.491777  0.890682  1
  Cu  Cu19  1  0.890682  0.183106  0.434435  1
  Cu  Cu20  1  0.758423  0.815438  0.066806  1
  Cu  Cu21  1  0.066806  0.359332  0.758423  1
  Cu  Cu22  1  0.815438  0.758423  0.359332  1
  Cu  Cu23  1  0.359332  0.066806  0.815438  1
