# generated using pymatgen
data_Ho8Er11TmPt16
_symmetry_space_group_name_H-M   'P 1'
_cell_length_a   7.43144702
_cell_length_b   7.51049803
_cell_length_c   14.68395700
_cell_angle_alpha   90.00000000
_cell_angle_beta   90.00000000
_cell_angle_gamma   89.99062069
_symmetry_Int_Tables_number   1
_chemical_formula_structural   Ho8Er11TmPt16
_chemical_formula_sum   'Ho8 Er11 Tm1 Pt16'
_cell_volume   819.56842974
_cell_formula_units_Z   1
loop_
 _symmetry_equiv_pos_site_id
 _symmetry_equiv_pos_as_xyz
  1  'x, y, z'
loop_
 _atom_site_type_symbol
 _atom_site_label
 _atom_site_symmetry_multiplicity
 _atom_site_fract_x
 _atom_site_fract_y
 _atom_site_fract_z
 _atom_site_occupancy
  Ho  Ho0  1  0.500861  0.679244  0.592882  1
  Ho  Ho1  1  0.001082  0.820656  0.907114  1
  Ho  Ho2  1  0.499341  0.320432  0.093158  1
  Ho  Ho3  1  0.998732  0.179141  0.406869  1
  Ho  Ho4  1  0.499341  0.320432  0.406842  1
  Ho  Ho5  1  0.998732  0.179141  0.093131  1
  Ho  Ho6  1  0.500861  0.679244  0.907118  1
  Ho  Ho7  1  0.001082  0.820656  0.592886  1
  Er  Er8  1  0.655240  0.167717  0.622205  1
  Er  Er9  1  0.155199  0.332391  0.877802  1
  Er  Er10  1  0.344773  0.832230  0.122355  1
  Er  Er11  1  0.844824  0.667953  0.377614  1
  Er  Er12  1  0.344773  0.832230  0.377645  1
  Er  Er13  1  0.844824  0.667953  0.122386  1
  Er  Er14  1  0.655240  0.167717  0.877795  1
  Er  Er15  1  0.155199  0.332391  0.622198  1
  Er  Er16  1  0.818227  0.510957  0.750000  1
  Er  Er17  1  0.318364  0.989139  0.750000  1
  Er  Er18  1  0.181799  0.488777  0.250000  1
  Tm  Tm19  1  0.681639  0.010544  0.250000  1
  Pt  Pt20  1  0.683956  0.967738  0.457922  1
  Pt  Pt21  1  0.184484  0.532184  0.041959  1
  Pt  Pt22  1  0.315676  0.032611  0.958567  1
  Pt  Pt23  1  0.815623  0.467538  0.541560  1
  Pt  Pt24  1  0.315676  0.032611  0.541433  1
  Pt  Pt25  1  0.815623  0.467538  0.958440  1
  Pt  Pt26  1  0.683956  0.967738  0.042078  1
  Pt  Pt27  1  0.184484  0.532184  0.458041  1
  Pt  Pt28  1  0.452547  0.386703  0.750000  1
  Pt  Pt29  1  0.952568  0.113786  0.750000  1
  Pt  Pt30  1  0.548242  0.613881  0.250000  1
  Pt  Pt31  1  0.047395  0.887705  0.250000  1
  Pt  Pt32  1  0.680670  0.856223  0.750000  1
  Pt  Pt33  1  0.180306  0.644028  0.750000  1
  Pt  Pt34  1  0.319930  0.143076  0.250000  1
  Pt  Pt35  1  0.818729  0.355511  0.250000  1
