# generated using pymatgen
data_Tb3PrNdDyTa2O14
_symmetry_space_group_name_H-M   'P 1'
_cell_length_a   6.53133038
_cell_length_b   6.53477837
_cell_length_c   7.63544106
_cell_angle_alpha   89.99360320
_cell_angle_beta   90.00505404
_cell_angle_gamma   109.33156909
_symmetry_Int_Tables_number   1
_chemical_formula_structural   Tb3PrNdDyTa2O14
_chemical_formula_sum   'Tb3 Pr1 Nd1 Dy1 Ta2 O14'
_cell_volume   307.51278781
_cell_formula_units_Z   1
loop_
 _symmetry_equiv_pos_site_id
 _symmetry_equiv_pos_as_xyz
  1  'x, y, z'
loop_
 _atom_site_type_symbol
 _atom_site_label
 _atom_site_symmetry_multiplicity
 _atom_site_fract_x
 _atom_site_fract_y
 _atom_site_fract_z
 _atom_site_occupancy
  Tb  Tb0  1  0.999529  0.466186  0.750375  1
  Tb  Tb1  1  0.533831  0.000461  0.750373  1
  Tb  Tb2  1  0.466101  0.999468  0.249626  1
  Pr  Pr3  1  0.500043  0.500020  0.499954  1
  Nd  Nd4  1  0.500044  0.500022  0.000043  1
  Dy  Dy5  1  0.000808  0.533468  0.249617  1
  Ta  Ta6  1  0.000004  0.000010  0.499915  1
  Ta  Ta7  1  0.000004  0.000011  0.000085  1
  O  O8  1  0.937649  0.062385  0.749964  1
  O  O9  1  0.062342  0.937338  0.250036  1
  O  O10  1  0.356849  0.641740  0.248807  1
  O  O11  1  0.641959  0.358004  0.751196  1
  O  O12  1  0.364400  0.635638  0.751454  1
  O  O13  1  0.636724  0.364887  0.248552  1
  O  O14  1  0.318987  0.068704  0.968544  1
  O  O15  1  0.681021  0.931877  0.468495  1
  O  O16  1  0.318954  0.068139  0.531516  1
  O  O17  1  0.680985  0.931310  0.031446  1
  O  O18  1  0.067892  0.319263  0.468008  1
  O  O19  1  0.931426  0.680870  0.968914  1
  O  O20  1  0.931990  0.680905  0.531145  1
  O  O21  1  0.068456  0.319296  0.031934  1
