# generated using pymatgen
data_TbMg2P4Pd7
_symmetry_space_group_name_H-M   'P 1'
_cell_length_a   7.69098483
_cell_length_b   7.69098458
_cell_length_c   9.18215961
_cell_angle_alpha   56.96963460
_cell_angle_beta   56.96963357
_cell_angle_gamma   30.29038904
_symmetry_Int_Tables_number   1
_chemical_formula_structural   TbMg2P4Pd7
_chemical_formula_sum   'Tb1 Mg2 P4 Pd7'
_cell_volume   226.08923820
_cell_formula_units_Z   1
loop_
 _symmetry_equiv_pos_site_id
 _symmetry_equiv_pos_as_xyz
  1  'x, y, z'
loop_
 _atom_site_type_symbol
 _atom_site_label
 _atom_site_symmetry_multiplicity
 _atom_site_fract_x
 _atom_site_fract_y
 _atom_site_fract_z
 _atom_site_occupancy
  Tb  Tb0  1  0.000000  0.000000  0.000000  1
  Mg  Mg1  1  0.671252  0.671252  0.334126  1
  Mg  Mg2  1  0.328748  0.328748  0.665874  1
  P  P3  1  0.339051  0.339051  0.259292  1
  P  P4  1  0.660949  0.660949  0.740708  1
  P  P5  1  0.892749  0.892749  0.817188  1
  P  P6  1  0.107251  0.107251  0.182812  1
  Pd  Pd7  1  0.300571  0.300571  0.043195  1
  Pd  Pd8  1  0.699429  0.699429  0.956805  1
  Pd  Pd9  1  0.508168  0.508168  0.711607  1
  Pd  Pd10  1  0.825199  0.825199  0.418923  1
  Pd  Pd11  1  0.491832  0.491832  0.288393  1
  Pd  Pd12  1  0.174801  0.174801  0.581077  1
  Pd  Pd13  1  0.000000  0.000000  0.500000  1
