# generated using pymatgen
data_LiTa5Re5Si6Mo
_symmetry_space_group_name_H-M   'P 1'
_cell_length_a   7.63646179
_cell_length_b   7.58457872
_cell_length_c   7.63348630
_cell_angle_alpha   126.02954999
_cell_angle_beta   129.00852892
_cell_angle_gamma   77.55431362
_symmetry_Int_Tables_number   1
_chemical_formula_structural   LiTa5Re5Si6Mo
_chemical_formula_sum   'Li1 Ta5 Re5 Si6 Mo1'
_cell_volume   269.28514071
_cell_formula_units_Z   1
loop_
 _symmetry_equiv_pos_site_id
 _symmetry_equiv_pos_as_xyz
  1  'x, y, z'
loop_
 _atom_site_type_symbol
 _atom_site_label
 _atom_site_symmetry_multiplicity
 _atom_site_fract_x
 _atom_site_fract_y
 _atom_site_fract_z
 _atom_site_occupancy
  Li  Li0  1  0.556038  0.107332  0.051970  1
  Ta  Ta1  1  0.448499  0.490530  0.542336  1
  Ta  Ta2  1  0.948842  0.489458  0.039289  1
  Ta  Ta3  1  0.049672  0.092681  0.544284  1
  Ta  Ta4  1  0.753389  0.908567  0.653875  1
  Ta  Ta5  1  0.242482  0.890232  0.148549  1
  Re  Re6  1  0.004257  0.238898  0.238569  1
  Re  Re7  1  0.122778  0.753141  0.619898  1
  Re  Re8  1  0.874830  0.500775  0.634665  1
  Re  Re9  1  0.633284  0.754465  0.130111  1
  Re  Re10  1  0.365703  0.500853  0.126573  1
  Si  Si11  1  0.745728  0.491096  0.244902  1
  Si  Si12  1  0.251108  0.497631  0.747339  1
  Si  Si13  1  0.342743  0.834069  0.515349  1
  Si  Si14  1  0.658073  0.159089  0.475665  1
  Si  Si15  1  0.818838  0.836615  0.992543  1
  Si  Si16  1  0.183408  0.159328  0.001963  1
  Mo  Mo17  1  0.500328  0.237437  0.734320  1
