# generated using pymatgen
data_CaNd4Ga2Sn
_symmetry_space_group_name_H-M   'P 1'
_cell_length_a   9.16202409
_cell_length_b   9.16202409
_cell_length_c   9.16202386
_cell_angle_alpha   127.58080411
_cell_angle_beta   127.58080821
_cell_angle_gamma   77.30509880
_symmetry_Int_Tables_number   1
_chemical_formula_structural   CaNd4Ga2Sn
_chemical_formula_sum   'Ca2 Nd8 Ga4 Sn2'
_cell_volume   468.62439400
_cell_formula_units_Z   2
loop_
 _symmetry_equiv_pos_site_id
 _symmetry_equiv_pos_as_xyz
  1  'x, y, z'
loop_
 _atom_site_type_symbol
 _atom_site_label
 _atom_site_symmetry_multiplicity
 _atom_site_fract_x
 _atom_site_fract_y
 _atom_site_fract_z
 _atom_site_occupancy
  Ca  Ca0  1  0.500000  0.500000  0.000000  1
  Ca  Ca1  1  0.000000  0.000000  0.000000  1
  Nd  Nd2  1  0.524537  0.024537  0.839051  1
  Nd  Nd3  1  0.185484  0.685484  0.160949  1
  Nd  Nd4  1  0.024537  0.185484  0.500000  1
  Nd  Nd5  1  0.685484  0.524537  0.500000  1
  Nd  Nd6  1  0.475463  0.975463  0.160949  1
  Nd  Nd7  1  0.814516  0.314516  0.839051  1
  Nd  Nd8  1  0.975463  0.814516  0.500000  1
  Nd  Nd9  1  0.314516  0.475463  0.500000  1
  Ga  Ga10  1  0.880300  0.380300  0.260599  1
  Ga  Ga11  1  0.119700  0.619700  0.739401  1
  Ga  Ga12  1  0.380300  0.119700  0.500000  1
  Ga  Ga13  1  0.619700  0.880300  0.500000  1
  Sn  Sn14  1  0.250000  0.250000  0.000000  1
  Sn  Sn15  1  0.750000  0.750000  0.000000  1
