# generated using pymatgen
data_Er4As6Ir4Ru3
_symmetry_space_group_name_H-M   'P 1'
_cell_length_a   7.23876226
_cell_length_b   7.23843227
_cell_length_c   7.23843200
_cell_angle_alpha   109.42920620
_cell_angle_beta   109.49131168
_cell_angle_gamma   109.49130055
_symmetry_Int_Tables_number   1
_chemical_formula_structural   Er4As6Ir4Ru3
_chemical_formula_sum   'Er4 As6 Ir4 Ru3'
_cell_volume   291.97198943
_cell_formula_units_Z   1
loop_
 _symmetry_equiv_pos_site_id
 _symmetry_equiv_pos_as_xyz
  1  'x, y, z'
loop_
 _atom_site_type_symbol
 _atom_site_label
 _atom_site_symmetry_multiplicity
 _atom_site_fract_x
 _atom_site_fract_y
 _atom_site_fract_z
 _atom_site_occupancy
  Er  Er0  1  0.000000  0.000001  0.499902  1
  Er  Er1  1  0.500000  0.999917  0.000083  1
  Er  Er2  1  0.000000  0.500098  0.999999  1
  Er  Er3  1  0.500000  0.499917  0.500083  1
  As  As4  1  0.679802  0.682902  0.996900  1
  As  As5  1  0.313784  0.316825  0.996959  1
  As  As6  1  0.000000  0.678425  0.684610  1
  As  As7  1  0.000000  0.315390  0.321575  1
  As  As8  1  0.686216  0.003041  0.683175  1
  As  As9  1  0.320198  0.003100  0.317098  1
  Ir  Ir10  1  0.500000  0.250777  0.749223  1
  Ir  Ir11  1  0.500000  0.750777  0.249223  1
  Ir  Ir12  1  0.748322  0.499028  0.249293  1
  Ir  Ir13  1  0.251678  0.750707  0.500972  1
  Ru  Ru14  1  0.000000  0.999824  0.000176  1
  Ru  Ru15  1  0.250528  0.499900  0.750629  1
  Ru  Ru16  1  0.749472  0.249371  0.500100  1
