# generated using pymatgen
data_SmHoBi2(Rh2O7)2
_symmetry_space_group_name_H-M   'P 1'
_cell_length_a   7.25432755
_cell_length_b   7.30047738
_cell_length_c   7.30047744
_cell_angle_alpha   60.49202642
_cell_angle_beta   60.21634509
_cell_angle_gamma   60.21633715
_symmetry_Int_Tables_number   1
_chemical_formula_structural   SmHoBi2(Rh2O7)2
_chemical_formula_sum   'Sm1 Ho1 Bi2 Rh4 O14'
_cell_volume   275.29392287
_cell_formula_units_Z   1
loop_
 _symmetry_equiv_pos_site_id
 _symmetry_equiv_pos_as_xyz
  1  'x, y, z'
loop_
 _atom_site_type_symbol
 _atom_site_label
 _atom_site_symmetry_multiplicity
 _atom_site_fract_x
 _atom_site_fract_y
 _atom_site_fract_z
 _atom_site_occupancy
  Sm  Sm0  1  0.125000  0.125000  0.125000  1
  Ho  Ho1  1  0.625000  0.125000  0.125000  1
  Bi  Bi2  1  0.125000  0.625000  0.125000  1
  Bi  Bi3  1  0.125000  0.125000  0.625000  1
  Rh  Rh4  1  0.625000  0.625000  0.625000  1
  Rh  Rh5  1  0.625000  0.625000  0.125000  1
  Rh  Rh6  1  0.125000  0.625000  0.625000  1
  Rh  Rh7  1  0.625000  0.125000  0.625000  1
  O  O8  1  0.258148  0.248215  0.248215  1
  O  O9  1  0.289901  0.711737  0.290098  1
  O  O10  1  0.960099  0.959902  0.538263  1
  O  O11  1  0.544318  0.960210  0.534006  1
  O  O12  1  0.705682  0.715994  0.289790  1
  O  O13  1  0.956369  0.543225  0.543225  1
  O  O14  1  0.705682  0.289790  0.715994  1
  O  O15  1  0.289901  0.290098  0.711737  1
  O  O16  1  0.706649  0.289143  0.289143  1
  O  O17  1  0.293631  0.706775  0.706775  1
  O  O18  1  0.960099  0.538263  0.959902  1
  O  O19  1  0.544318  0.534006  0.960210  1
  O  O20  1  0.991852  0.001785  0.001785  1
  O  O21  1  0.543351  0.960857  0.960857  1
