# generated using pymatgen
data_Dy3Ho5Re3RuC8
_symmetry_space_group_name_H-M   'P 1'
_cell_length_a   5.09709500
_cell_length_b   6.55043954
_cell_length_c   9.81446912
_cell_angle_alpha   90.12983720
_cell_angle_beta   90.00000000
_cell_angle_gamma   90.00000000
_symmetry_Int_Tables_number   1
_chemical_formula_structural   Dy3Ho5Re3RuC8
_chemical_formula_sum   'Dy3 Ho5 Re3 Ru1 C8'
_cell_volume   327.68674061
_cell_formula_units_Z   1
loop_
 _symmetry_equiv_pos_site_id
 _symmetry_equiv_pos_as_xyz
  1  'x, y, z'
loop_
 _atom_site_type_symbol
 _atom_site_label
 _atom_site_symmetry_multiplicity
 _atom_site_fract_x
 _atom_site_fract_y
 _atom_site_fract_z
 _atom_site_occupancy
  Dy  Dy0  1  0.250000  0.467593  0.784455  1
  Dy  Dy1  1  0.750000  0.033298  0.284559  1
  Dy  Dy2  1  0.750000  0.531295  0.213400  1
  Ho  Ho3  1  0.250000  0.968208  0.717081  1
  Ho  Ho4  1  0.250000  0.825718  0.055289  1
  Ho  Ho5  1  0.750000  0.678812  0.556706  1
  Ho  Ho6  1  0.250000  0.320567  0.442957  1
  Ho  Ho7  1  0.750000  0.178695  0.942627  1
  Re  Re8  1  0.750000  0.220363  0.632798  1
  Re  Re9  1  0.250000  0.780209  0.365926  1
  Re  Re10  1  0.750000  0.720955  0.866615  1
  Ru  Ru11  1  0.250000  0.279277  0.134044  1
  C  C12  1  0.250000  0.172851  0.950139  1
  C  C13  1  0.750000  0.823218  0.051963  1
  C  C14  1  0.250000  0.675994  0.550749  1
  C  C15  1  0.750000  0.323345  0.448219  1
  C  C16  1  0.250000  0.045076  0.259882  1
  C  C17  1  0.750000  0.453755  0.759031  1
  C  C18  1  0.250000  0.547519  0.243169  1
  C  C19  1  0.750000  0.953253  0.740391  1
