# generated using pymatgen
data_Yb4SiGe(B2O7)2
_symmetry_space_group_name_H-M   'P 1'
_cell_length_a   7.18658100
_cell_length_b   7.18658100
_cell_length_c   4.76597400
_cell_angle_alpha   90.00000000
_cell_angle_beta   90.00000000
_cell_angle_gamma   90.00000000
_symmetry_Int_Tables_number   1
_chemical_formula_structural   Yb4SiGe(B2O7)2
_chemical_formula_sum   'Yb4 Si1 Ge1 B4 O14'
_cell_volume   246.14800405
_cell_formula_units_Z   1
loop_
 _symmetry_equiv_pos_site_id
 _symmetry_equiv_pos_as_xyz
  1  'x, y, z'
loop_
 _atom_site_type_symbol
 _atom_site_label
 _atom_site_symmetry_multiplicity
 _atom_site_fract_x
 _atom_site_fract_y
 _atom_site_fract_z
 _atom_site_occupancy
  Yb  Yb0  1  0.656043  0.161026  0.490634  1
  Yb  Yb1  1  0.161026  0.343957  0.509366  1
  Yb  Yb2  1  0.838974  0.656043  0.509366  1
  Yb  Yb3  1  0.343957  0.838974  0.490634  1
  Si  Si4  1  0.500000  0.500000  0.000000  1
  Ge  Ge5  1  0.000000  0.000000  0.000000  1
  B  B6  1  0.368682  0.133621  0.958199  1
  B  B7  1  0.866379  0.368682  0.041801  1
  B  B8  1  0.133621  0.631318  0.041801  1
  B  B9  1  0.631318  0.866379  0.958199  1
  O  O10  1  0.500000  0.000000  0.838427  1
  O  O11  1  0.186202  0.083546  0.793033  1
  O  O12  1  0.353815  0.143480  0.249012  1
  O  O13  1  0.916454  0.186202  0.206967  1
  O  O14  1  0.425396  0.323833  0.806721  1
  O  O15  1  0.856520  0.353815  0.750988  1
  O  O16  1  0.676167  0.425396  0.193279  1
  O  O17  1  0.000000  0.500000  0.161573  1
  O  O18  1  0.323833  0.574604  0.193279  1
  O  O19  1  0.143480  0.646185  0.750988  1
  O  O20  1  0.574604  0.676167  0.806721  1
  O  O21  1  0.083546  0.813798  0.206967  1
  O  O22  1  0.646185  0.856520  0.249012  1
  O  O23  1  0.813798  0.916454  0.793033  1
