# generated using pymatgen
data_Y4Al5CuPt8
_symmetry_space_group_name_H-M   'P 1'
_cell_length_a   8.12217656
_cell_length_b   8.12217895
_cell_length_c   7.59557300
_cell_angle_alpha   89.97875264
_cell_angle_beta   89.97874558
_cell_angle_gamma   139.98440134
_symmetry_Int_Tables_number   1
_chemical_formula_structural   Y4Al5CuPt8
_chemical_formula_sum   'Y4 Al5 Cu1 Pt8'
_cell_volume   322.19116855
_cell_formula_units_Z   1
loop_
 _symmetry_equiv_pos_site_id
 _symmetry_equiv_pos_as_xyz
  1  'x, y, z'
loop_
 _atom_site_type_symbol
 _atom_site_label
 _atom_site_symmetry_multiplicity
 _atom_site_fract_x
 _atom_site_fract_y
 _atom_site_fract_z
 _atom_site_occupancy
  Y  Y0  1  0.605509  0.385781  0.904741  1
  Y  Y1  1  0.394199  0.610108  0.089324  1
  Y  Y2  1  0.889892  0.105801  0.410676  1
  Y  Y3  1  0.114219  0.894491  0.595259  1
  Al  Al4  1  0.499219  0.498186  0.500351  1
  Al  Al5  1  0.001814  0.000781  0.999649  1
  Al  Al6  1  0.976673  0.523327  0.250000  1
  Al  Al7  1  0.477067  0.022933  0.250000  1
  Al  Al8  1  0.024059  0.475941  0.750000  1
  Cu  Cu9  1  0.520317  0.979683  0.750000  1
  Pt  Pt10  1  0.692954  0.807046  0.750000  1
  Pt  Pt11  1  0.808050  0.691950  0.250000  1
  Pt  Pt12  1  0.309665  0.190335  0.250000  1
  Pt  Pt13  1  0.190411  0.309589  0.750000  1
  Pt  Pt14  1  0.692177  0.330374  0.521983  1
  Pt  Pt15  1  0.312033  0.677885  0.468146  1
  Pt  Pt16  1  0.822115  0.187967  0.031854  1
  Pt  Pt17  1  0.169626  0.807823  0.978017  1
