# generated using pymatgen
data_Cr20P(WC3)2
_symmetry_space_group_name_H-M   'P 1'
_cell_length_a   7.52040941
_cell_length_b   7.52040882
_cell_length_c   7.52040900
_cell_angle_alpha   60.00000362
_cell_angle_beta   60.00000619
_cell_angle_gamma   59.99999648
_symmetry_Int_Tables_number   1
_chemical_formula_structural   Cr20P(WC3)2
_chemical_formula_sum   'Cr20 P1 W2 C6'
_cell_volume   300.75261876
_cell_formula_units_Z   1
loop_
 _symmetry_equiv_pos_site_id
 _symmetry_equiv_pos_as_xyz
  1  'x, y, z'
loop_
 _atom_site_type_symbol
 _atom_site_label
 _atom_site_symmetry_multiplicity
 _atom_site_fract_x
 _atom_site_fract_y
 _atom_site_fract_z
 _atom_site_occupancy
  Cr  Cr0  1  0.616189  0.616189  0.151432  1
  Cr  Cr1  1  0.616189  0.151432  0.616189  1
  Cr  Cr2  1  0.151432  0.616189  0.616189  1
  Cr  Cr3  1  0.616189  0.616189  0.616189  1
  Cr  Cr4  1  0.383811  0.383811  0.848568  1
  Cr  Cr5  1  0.383811  0.848568  0.383811  1
  Cr  Cr6  1  0.848568  0.383811  0.383811  1
  Cr  Cr7  1  0.383811  0.383811  0.383811  1
  Cr  Cr8  1  0.000000  0.000000  0.336379  1
  Cr  Cr9  1  0.663621  0.000000  0.336379  1
  Cr  Cr10  1  0.000000  0.663621  0.336379  1
  Cr  Cr11  1  0.663621  0.336379  0.000000  1
  Cr  Cr12  1  0.000000  0.336379  0.000000  1
  Cr  Cr13  1  0.000000  0.336379  0.663621  1
  Cr  Cr14  1  0.336379  0.663621  0.000000  1
  Cr  Cr15  1  0.336379  0.000000  0.663621  1
  Cr  Cr16  1  0.336379  0.000000  0.000000  1
  Cr  Cr17  1  0.000000  0.000000  0.663621  1
  Cr  Cr18  1  0.000000  0.663621  0.000000  1
  Cr  Cr19  1  0.663621  0.000000  0.000000  1
  P  P20  1  0.000000  0.000000  0.000000  1
  W  W21  1  0.750000  0.750000  0.750000  1
  W  W22  1  0.250000  0.250000  0.250000  1
  C  C23  1  0.720467  0.720467  0.279533  1
  C  C24  1  0.279533  0.720467  0.279533  1
  C  C25  1  0.720467  0.279533  0.279533  1
  C  C26  1  0.279533  0.279533  0.720467  1
  C  C27  1  0.720467  0.279533  0.720467  1
  C  C28  1  0.279533  0.720467  0.720467  1
