# generated using pymatgen
data_Zr5Nb(B2Ru5)2
_symmetry_space_group_name_H-M   'P 1'
_cell_length_a   9.53647700
_cell_length_b   9.53647700
_cell_length_c   3.14003600
_cell_angle_alpha   90.00000000
_cell_angle_beta   90.00000000
_cell_angle_gamma   90.00000000
_symmetry_Int_Tables_number   1
_chemical_formula_structural   Zr5Nb(B2Ru5)2
_chemical_formula_sum   'Zr5 Nb1 B4 Ru10'
_cell_volume   285.56866981
_cell_formula_units_Z   1
loop_
 _symmetry_equiv_pos_site_id
 _symmetry_equiv_pos_as_xyz
  1  'x, y, z'
loop_
 _atom_site_type_symbol
 _atom_site_label
 _atom_site_symmetry_multiplicity
 _atom_site_fract_x
 _atom_site_fract_y
 _atom_site_fract_z
 _atom_site_occupancy
  Zr  Zr0  1  0.824427  0.675933  0.000000  1
  Zr  Zr1  1  0.175573  0.324067  0.000000  1
  Zr  Zr2  1  0.324067  0.824427  0.000000  1
  Zr  Zr3  1  0.675933  0.175573  0.000000  1
  Zr  Zr4  1  0.500000  0.500000  0.000000  1
  Nb  Nb5  1  0.000000  0.000000  0.000000  1
  B  B6  1  0.620771  0.878030  0.000000  1
  B  B7  1  0.379229  0.121970  0.000000  1
  B  B8  1  0.121970  0.620771  0.000000  1
  B  B9  1  0.878030  0.379229  0.000000  1
  Ru  Ru10  1  0.573440  0.722455  0.500000  1
  Ru  Ru11  1  0.426560  0.277545  0.500000  1
  Ru  Ru12  1  0.069214  0.782471  0.500000  1
  Ru  Ru13  1  0.930786  0.217529  0.500000  1
  Ru  Ru14  1  0.277545  0.573440  0.500000  1
  Ru  Ru15  1  0.722455  0.426560  0.500000  1
  Ru  Ru16  1  0.217529  0.069214  0.500000  1
  Ru  Ru17  1  0.782471  0.930786  0.500000  1
  Ru  Ru18  1  0.500000  0.000000  0.500000  1
  Ru  Ru19  1  0.000000  0.500000  0.500000  1
