# generated using pymatgen
data_ErPaTlNi2
_symmetry_space_group_name_H-M   'P 1'
_cell_length_a   7.45282600
_cell_length_b   7.45282553
_cell_length_c   3.54117800
_cell_angle_alpha   90.00000000
_cell_angle_beta   90.00000000
_cell_angle_gamma   93.72812694
_symmetry_Int_Tables_number   1
_chemical_formula_structural   ErPaTlNi2
_chemical_formula_sum   'Er2 Pa2 Tl2 Ni4'
_cell_volume   196.27711882
_cell_formula_units_Z   2
loop_
 _symmetry_equiv_pos_site_id
 _symmetry_equiv_pos_as_xyz
  1  'x, y, z'
loop_
 _atom_site_type_symbol
 _atom_site_label
 _atom_site_symmetry_multiplicity
 _atom_site_fract_x
 _atom_site_fract_y
 _atom_site_fract_z
 _atom_site_occupancy
  Er  Er0  1  0.169734  0.330266  0.500000  1
  Er  Er1  1  0.830266  0.669734  0.500000  1
  Pa  Pa2  1  0.671940  0.171940  0.500000  1
  Pa  Pa3  1  0.328060  0.828060  0.500000  1
  Tl  Tl4  1  0.500000  0.500000  0.000000  1
  Tl  Tl5  1  0.000000  0.000000  0.000000  1
  Ni  Ni6  1  0.132421  0.632421  0.000000  1
  Ni  Ni7  1  0.867579  0.367579  0.000000  1
  Ni  Ni8  1  0.616085  0.883915  0.000000  1
  Ni  Ni9  1  0.383915  0.116085  0.000000  1
