# generated using pymatgen
data_Er12TlFeCo3Rh
_symmetry_space_group_name_H-M   'P 1'
_cell_length_a   8.24497086
_cell_length_b   8.24497117
_cell_length_c   8.24497116
_cell_angle_alpha   110.36969005
_cell_angle_beta   110.52052485
_cell_angle_gamma   107.54056332
_symmetry_Int_Tables_number   1
_chemical_formula_structural   Er12TlFeCo3Rh
_chemical_formula_sum   'Er12 Tl1 Fe1 Co3 Rh1'
_cell_volume   431.09827934
_cell_formula_units_Z   1
loop_
 _symmetry_equiv_pos_site_id
 _symmetry_equiv_pos_as_xyz
  1  'x, y, z'
loop_
 _atom_site_type_symbol
 _atom_site_label
 _atom_site_symmetry_multiplicity
 _atom_site_fract_x
 _atom_site_fract_y
 _atom_site_fract_z
 _atom_site_occupancy
  Er  Er0  1  0.312736  0.617282  0.304546  1
  Er  Er1  1  0.685441  0.381739  0.696298  1
  Er  Er2  1  0.312736  0.008190  0.695454  1
  Er  Er3  1  0.685441  0.989143  0.303702  1
  Er  Er4  1  0.410651  0.214026  0.196625  1
  Er  Er5  1  0.590440  0.787140  0.803300  1
  Er  Er6  1  0.017401  0.214026  0.803375  1
  Er  Er7  1  0.983840  0.787140  0.196700  1
  Er  Er8  1  0.186710  0.292296  0.476899  1
  Er  Er9  1  0.815397  0.709811  0.523101  1
  Er  Er10  1  0.186710  0.709811  0.894414  1
  Er  Er11  1  0.815397  0.292296  0.105586  1
  Tl  Tl12  1  0.500544  0.500544  0.000000  1
  Fe  Fe13  1  0.107906  0.607906  0.500000  1
  Co  Co14  1  0.885526  0.385526  0.500000  1
  Co  Co15  1  0.380956  0.000736  0.380220  1
  Co  Co16  1  0.620515  0.000736  0.619780  1
  Rh  Rh17  1  0.001655  0.001655  0.000000  1
