# generated using pymatgen
data_Eu3Pb(CO3)4
_symmetry_space_group_name_H-M   'P 1'
_cell_length_a   5.17960300
_cell_length_b   6.14677732
_cell_length_c   8.54268789
_cell_angle_alpha   90.07562466
_cell_angle_beta   90.00000000
_cell_angle_gamma   90.00000000
_symmetry_Int_Tables_number   1
_chemical_formula_structural   Eu3Pb(CO3)4
_chemical_formula_sum   'Eu3 Pb1 C4 O12'
_cell_volume   271.98071740
_cell_formula_units_Z   1
loop_
 _symmetry_equiv_pos_site_id
 _symmetry_equiv_pos_as_xyz
  1  'x, y, z'
loop_
 _atom_site_type_symbol
 _atom_site_label
 _atom_site_symmetry_multiplicity
 _atom_site_fract_x
 _atom_site_fract_y
 _atom_site_fract_z
 _atom_site_occupancy
  Eu  Eu0  1  0.750000  0.243001  0.416136  1
  Eu  Eu1  1  0.750000  0.742142  0.083258  1
  Eu  Eu2  1  0.250000  0.755609  0.584685  1
  Pb  Pb3  1  0.250000  0.253837  0.915863  1
  C  C4  1  0.250000  0.417466  0.262111  1
  C  C5  1  0.750000  0.590007  0.739497  1
  C  C6  1  0.750000  0.080522  0.755988  1
  C  C7  1  0.250000  0.913099  0.242446  1
  O  O8  1  0.966931  0.082127  0.678601  1
  O  O9  1  0.468492  0.417130  0.186324  1
  O  O10  1  0.467950  0.916906  0.318763  1
  O  O11  1  0.750000  0.588874  0.587283  1
  O  O12  1  0.750000  0.087952  0.908001  1
  O  O13  1  0.533069  0.082127  0.678601  1
  O  O14  1  0.250000  0.893867  0.090696  1
  O  O15  1  0.250000  0.407221  0.414199  1
  O  O16  1  0.532492  0.597038  0.816231  1
  O  O17  1  0.967508  0.597038  0.816231  1
  O  O18  1  0.031508  0.417130  0.186324  1
  O  O19  1  0.032050  0.916906  0.318763  1
