# generated using pymatgen
data_Lu4Zn2(ReOs)3
_symmetry_space_group_name_H-M   'P 1'
_cell_length_a   5.35873783
_cell_length_b   5.24425291
_cell_length_c   8.80457000
_cell_angle_alpha   90.00000000
_cell_angle_beta   90.00000000
_cell_angle_gamma   119.29573563
_symmetry_Int_Tables_number   1
_chemical_formula_structural   Lu4Zn2(ReOs)3
_chemical_formula_sum   'Lu4 Zn2 Re3 Os3'
_cell_volume   215.78607254
_cell_formula_units_Z   1
loop_
 _symmetry_equiv_pos_site_id
 _symmetry_equiv_pos_as_xyz
  1  'x, y, z'
loop_
 _atom_site_type_symbol
 _atom_site_label
 _atom_site_symmetry_multiplicity
 _atom_site_fract_x
 _atom_site_fract_y
 _atom_site_fract_z
 _atom_site_occupancy
  Lu  Lu0  1  0.343577  0.671789  0.443552  1
  Lu  Lu1  1  0.675582  0.337791  0.565177  1
  Lu  Lu2  1  0.675582  0.337791  0.934823  1
  Lu  Lu3  1  0.343577  0.671789  0.056448  1
  Zn  Zn4  1  0.804774  0.647656  0.250000  1
  Zn  Zn5  1  0.804774  0.157117  0.250000  1
  Re  Re6  1  0.167189  0.336305  0.750000  1
  Re  Re7  1  0.167189  0.830884  0.750000  1
  Re  Re8  1  0.305042  0.152521  0.250000  1
  Os  Os9  1  0.649936  0.824968  0.750000  1
  Os  Os10  1  0.031389  0.015695  0.005490  1
  Os  Os11  1  0.031389  0.015695  0.494510  1
