# generated using pymatgen
data_PrNd3DyRu2
_symmetry_space_group_name_H-M   'P 1'
_cell_length_a   8.80303934
_cell_length_b   8.80304217
_cell_length_c   7.35746760
_cell_angle_alpha   83.89388403
_cell_angle_beta   83.89389036
_cell_angle_gamma   44.01213557
_symmetry_Int_Tables_number   1
_chemical_formula_structural   PrNd3DyRu2
_chemical_formula_sum   'Pr2 Nd6 Dy2 Ru4'
_cell_volume   393.53473271
_cell_formula_units_Z   2
loop_
 _symmetry_equiv_pos_site_id
 _symmetry_equiv_pos_as_xyz
  1  'x, y, z'
loop_
 _atom_site_type_symbol
 _atom_site_label
 _atom_site_symmetry_multiplicity
 _atom_site_fract_x
 _atom_site_fract_y
 _atom_site_fract_z
 _atom_site_occupancy
  Pr  Pr0  1  0.978396  0.204714  0.083902  1
  Pr  Pr1  1  0.795286  0.021604  0.416098  1
  Nd  Nd2  1  0.204738  0.978094  0.584862  1
  Nd  Nd3  1  0.021906  0.795262  0.915138  1
  Nd  Nd4  1  0.208298  0.361394  0.313325  1
  Nd  Nd5  1  0.638606  0.791702  0.186675  1
  Nd  Nd6  1  0.791065  0.638921  0.687005  1
  Nd  Nd7  1  0.361079  0.208935  0.812995  1
  Dy  Dy8  1  0.570398  0.429602  0.750000  1
  Dy  Dy9  1  0.428771  0.571229  0.250000  1
  Ru  Ru10  1  0.184174  0.600778  0.572639  1
  Ru  Ru11  1  0.399222  0.815826  0.927361  1
  Ru  Ru12  1  0.816851  0.398791  0.428760  1
  Ru  Ru13  1  0.601209  0.183149  0.071240  1
