# generated using pymatgen
data_Nd5Ho3(MoO6)4
_symmetry_space_group_name_H-M   'P 1'
_cell_length_a   10.13653779
_cell_length_b   10.13653796
_cell_length_c   5.49211012
_cell_angle_alpha   75.11277834
_cell_angle_beta   75.11277990
_cell_angle_gamma   68.40163931
_symmetry_Int_Tables_number   1
_chemical_formula_structural   Nd5Ho3(MoO6)4
_chemical_formula_sum   'Nd5 Ho3 Mo4 O24'
_cell_volume   498.73240035
_cell_formula_units_Z   1
loop_
 _symmetry_equiv_pos_site_id
 _symmetry_equiv_pos_as_xyz
  1  'x, y, z'
loop_
 _atom_site_type_symbol
 _atom_site_label
 _atom_site_symmetry_multiplicity
 _atom_site_fract_x
 _atom_site_fract_y
 _atom_site_fract_z
 _atom_site_occupancy
  Nd  Nd0  1  0.786943  0.552721  0.619170  1
  Nd  Nd1  1  0.447279  0.213057  0.880830  1
  Nd  Nd2  1  0.213372  0.449500  0.379919  1
  Nd  Nd3  1  0.550500  0.786628  0.120081  1
  Nd  Nd4  1  0.865258  0.134742  0.750000  1
  Ho  Ho5  1  0.137551  0.862449  0.250000  1
  Ho  Ho6  1  0.395371  0.604629  0.750000  1
  Ho  Ho7  1  0.602141  0.397859  0.250000  1
  Mo  Mo8  1  0.992184  0.706142  0.934731  1
  Mo  Mo9  1  0.293858  0.007816  0.565269  1
  Mo  Mo10  1  0.009071  0.294751  0.065619  1
  Mo  Mo11  1  0.705249  0.990929  0.434381  1
  O  O12  1  0.429263  0.395355  0.075690  1
  O  O13  1  0.604645  0.570737  0.424310  1
  O  O14  1  0.570139  0.605462  0.922525  1
  O  O15  1  0.394538  0.429861  0.577475  1
  O  O16  1  0.193747  0.668800  0.070957  1
  O  O17  1  0.331200  0.806253  0.429043  1
  O  O18  1  0.807408  0.336536  0.938896  1
  O  O19  1  0.663464  0.192592  0.561104  1
  O  O20  1  0.112724  0.676256  0.623582  1
  O  O21  1  0.323744  0.887276  0.876418  1
  O  O22  1  0.889094  0.328995  0.375206  1
  O  O23  1  0.671005  0.110906  0.124794  1
  O  O24  1  0.711717  0.820556  0.365042  1
  O  O25  1  0.179444  0.288283  0.134958  1
  O  O26  1  0.286461  0.177834  0.635548  1
  O  O27  1  0.822166  0.713539  0.864452  1
  O  O28  1  0.889404  0.952059  0.475114  1
  O  O29  1  0.047941  0.110596  0.024886  1
  O  O30  1  0.113060  0.043761  0.513933  1
  O  O31  1  0.956239  0.886940  0.986067  1
  O  O32  1  0.573641  0.975026  0.736622  1
  O  O33  1  0.024974  0.426359  0.763378  1
  O  O34  1  0.427356  0.022154  0.266928  1
  O  O35  1  0.977846  0.572644  0.233072  1
