# generated using pymatgen
data_Pr5As10P2Ru9Rh10
_symmetry_space_group_name_H-M   'P 1'
_cell_length_a   13.10475390
_cell_length_b   13.08586434
_cell_length_c   4.07078700
_cell_angle_alpha   90.00000000
_cell_angle_beta   90.00000000
_cell_angle_gamma   119.98607690
_symmetry_Int_Tables_number   1
_chemical_formula_structural   Pr5As10P2Ru9Rh10
_chemical_formula_sum   'Pr5 As10 P2 Ru9 Rh10'
_cell_volume   604.64603271
_cell_formula_units_Z   1
loop_
 _symmetry_equiv_pos_site_id
 _symmetry_equiv_pos_as_xyz
  1  'x, y, z'
loop_
 _atom_site_type_symbol
 _atom_site_label
 _atom_site_symmetry_multiplicity
 _atom_site_fract_x
 _atom_site_fract_y
 _atom_site_fract_z
 _atom_site_occupancy
  Pr  Pr0  1  0.813325  0.000015  0.500000  1
  Pr  Pr1  1  0.999160  0.811715  0.500000  1
  Pr  Pr2  1  0.186797  0.187811  0.500000  1
  Pr  Pr3  1  0.333402  0.666512  0.000000  1
  Pr  Pr4  1  0.670274  0.335571  0.000000  1
  As  As5  1  0.183593  0.001752  0.000000  1
  As  As6  1  0.997971  0.183535  0.000000  1
  As  As7  1  0.816319  0.813652  0.000000  1
  As  As8  1  0.518382  0.686566  0.500000  1
  As  As9  1  0.312609  0.830625  0.500000  1
  As  As10  1  0.168501  0.482303  0.500000  1
  As  As11  1  0.485368  0.172869  0.500000  1
  As  As12  1  0.630816  0.001808  0.000000  1
  As  As13  1  0.998031  0.627996  0.000000  1
  As  As14  1  0.371656  0.371614  0.000000  1
  P  P15  1  0.692573  0.517087  0.500000  1
  P  P16  1  0.827067  0.308745  0.500000  1
  Ru  Ru17  1  0.287933  0.002191  0.500000  1
  Ru  Ru18  1  0.993896  0.288113  0.500000  1
  Ru  Ru19  1  0.712360  0.704968  0.500000  1
  Ru  Ru20  1  0.516681  0.877200  0.500000  1
  Ru  Ru21  1  0.120810  0.638759  0.500000  1
  Ru  Ru22  1  0.360377  0.482675  0.500000  1
  Ru  Ru23  1  0.495105  0.369116  0.500000  1
  Ru  Ru24  1  0.870097  0.505727  0.500000  1
  Ru  Ru25  1  0.643379  0.127225  0.500000  1
  Rh  Rh26  1  0.447706  0.002736  0.000000  1
  Rh  Rh27  1  0.997296  0.445172  0.000000  1
  Rh  Rh28  1  0.554437  0.554388  0.000000  1
  Rh  Rh29  1  0.624758  0.804771  0.000000  1
  Rh  Rh30  1  0.195038  0.819263  0.000000  1
  Rh  Rh31  1  0.179724  0.376401  0.000000  1
  Rh  Rh32  1  0.379363  0.184884  0.000000  1
  Rh  Rh33  1  0.797807  0.614370  0.000000  1
  Rh  Rh34  1  0.818952  0.202356  0.000000  1
  Rh  Rh35  1  0.998437  0.999508  0.000000  1
