# generated using pymatgen
data_Sc4Cr3Os5
_symmetry_space_group_name_H-M   'P 1'
_cell_length_a   5.06943900
_cell_length_b   5.16973450
_cell_length_c   8.52461600
_cell_angle_alpha   90.00000000
_cell_angle_beta   90.00000000
_cell_angle_gamma   120.65667971
_symmetry_Int_Tables_number   1
_chemical_formula_structural   Sc4Cr3Os5
_chemical_formula_sum   'Sc4 Cr3 Os5'
_cell_volume   192.18593825
_cell_formula_units_Z   1
loop_
 _symmetry_equiv_pos_site_id
 _symmetry_equiv_pos_as_xyz
  1  'x, y, z'
loop_
 _atom_site_type_symbol
 _atom_site_label
 _atom_site_symmetry_multiplicity
 _atom_site_fract_x
 _atom_site_fract_y
 _atom_site_fract_z
 _atom_site_occupancy
  Sc  Sc0  1  0.337065  0.668534  0.434830  1
  Sc  Sc1  1  0.664570  0.332284  0.562135  1
  Sc  Sc2  1  0.664570  0.332284  0.937865  1
  Sc  Sc3  1  0.337065  0.668534  0.065170  1
  Cr  Cr4  1  0.165265  0.342591  0.750000  1
  Cr  Cr5  1  0.165265  0.822674  0.750000  1
  Cr  Cr6  1  0.343902  0.171951  0.250000  1
  Os  Os7  1  0.827420  0.656725  0.250000  1
  Os  Os8  1  0.632633  0.816316  0.750000  1
  Os  Os9  1  0.017412  0.008706  0.991845  1
  Os  Os10  1  0.827420  0.170696  0.250000  1
  Os  Os11  1  0.017412  0.008706  0.508155  1
