# generated using pymatgen
data_Dy2YHo2CoSb2
_symmetry_space_group_name_H-M   'P 1'
_cell_length_a   7.88635900
_cell_length_b   8.75162400
_cell_length_c   12.21576100
_cell_angle_alpha   90.00000000
_cell_angle_beta   90.00000000
_cell_angle_gamma   90.00000000
_symmetry_Int_Tables_number   1
_chemical_formula_structural   Dy2YHo2CoSb2
_chemical_formula_sum   'Dy8 Y4 Ho8 Co4 Sb8'
_cell_volume   843.11287387
_cell_formula_units_Z   4
loop_
 _symmetry_equiv_pos_site_id
 _symmetry_equiv_pos_as_xyz
  1  'x, y, z'
loop_
 _atom_site_type_symbol
 _atom_site_label
 _atom_site_symmetry_multiplicity
 _atom_site_fract_x
 _atom_site_fract_y
 _atom_site_fract_z
 _atom_site_occupancy
  Dy  Dy0  1  0.453866  0.750000  0.998337  1
  Dy  Dy1  1  0.046134  0.750000  0.498337  1
  Dy  Dy2  1  0.546134  0.250000  0.001663  1
  Dy  Dy3  1  0.953866  0.250000  0.501663  1
  Dy  Dy4  1  0.621249  0.750000  0.306907  1
  Dy  Dy5  1  0.878751  0.750000  0.806907  1
  Dy  Dy6  1  0.378751  0.250000  0.693093  1
  Dy  Dy7  1  0.121249  0.250000  0.193093  1
  Y  Y8  1  0.155441  0.750000  0.203978  1
  Y  Y9  1  0.344559  0.750000  0.703978  1
  Y  Y10  1  0.844559  0.250000  0.796022  1
  Y  Y11  1  0.655441  0.250000  0.296022  1
  Ho  Ho12  1  0.821928  0.535840  0.064955  1
  Ho  Ho13  1  0.678072  0.964160  0.564955  1
  Ho  Ho14  1  0.178072  0.035840  0.935045  1
  Ho  Ho15  1  0.321928  0.464160  0.435045  1
  Ho  Ho16  1  0.178072  0.464160  0.935045  1
  Ho  Ho17  1  0.321928  0.035840  0.435045  1
  Ho  Ho18  1  0.821928  0.964160  0.064955  1
  Ho  Ho19  1  0.678072  0.535840  0.564955  1
  Co  Co20  1  0.433976  0.750000  0.489864  1
  Co  Co21  1  0.066024  0.750000  0.989864  1
  Co  Co22  1  0.566024  0.250000  0.510136  1
  Co  Co23  1  0.933976  0.250000  0.010136  1
  Sb  Sb24  1  0.928559  0.508787  0.327007  1
  Sb  Sb25  1  0.571441  0.991213  0.827007  1
  Sb  Sb26  1  0.071441  0.008787  0.672993  1
  Sb  Sb27  1  0.428559  0.491213  0.172993  1
  Sb  Sb28  1  0.071441  0.491213  0.672993  1
  Sb  Sb29  1  0.428559  0.008787  0.172993  1
  Sb  Sb30  1  0.928559  0.991213  0.327007  1
  Sb  Sb31  1  0.571441  0.508787  0.827007  1
