# generated using pymatgen
data_Zr3V3Re2Tc
_symmetry_space_group_name_H-M   'P 1'
_cell_length_a   5.24998259
_cell_length_b   5.25998352
_cell_length_c   12.87655675
_cell_angle_alpha   89.99768565
_cell_angle_beta   89.63204854
_cell_angle_gamma   120.03073108
_symmetry_Int_Tables_number   1
_chemical_formula_structural   Zr3V3Re2Tc
_chemical_formula_sum   'Zr6 V6 Re4 Tc2'
_cell_volume   307.84069526
_cell_formula_units_Z   2
loop_
 _symmetry_equiv_pos_site_id
 _symmetry_equiv_pos_as_xyz
  1  'x, y, z'
loop_
 _atom_site_type_symbol
 _atom_site_label
 _atom_site_symmetry_multiplicity
 _atom_site_fract_x
 _atom_site_fract_y
 _atom_site_fract_z
 _atom_site_occupancy
  Zr  Zr0  1  0.335230  0.666176  0.916788  1
  Zr  Zr1  1  0.001209  0.001431  0.249253  1
  Zr  Zr2  1  0.668131  0.333967  0.582781  1
  Zr  Zr3  1  0.331869  0.666033  0.667219  1
  Zr  Zr4  1  0.998791  0.998569  0.000746  1
  Zr  Zr5  1  0.664770  0.333824  0.333212  1
  V  V6  1  0.332948  0.668346  0.292099  1
  V  V7  1  0.000000  0.000000  0.625000  1
  V  V8  1  0.667052  0.331654  0.957901  1
  V  V9  1  0.000000  0.500000  0.125000  1
  V  V10  1  0.666463  0.834146  0.458250  1
  V  V11  1  0.333537  0.165854  0.791750  1
  Re  Re12  1  0.500000  0.500000  0.125000  1
  Re  Re13  1  0.166262  0.834436  0.458461  1
  Re  Re14  1  0.833738  0.165564  0.791539  1
  Re  Re15  1  0.500000  0.000000  0.125000  1
  Tc  Tc16  1  0.166335  0.334050  0.458246  1
  Tc  Tc17  1  0.833665  0.665950  0.791754  1
