# generated using pymatgen
data_NaSr17YbIn8N7
_symmetry_space_group_name_H-M   'P 1'
_cell_length_a   11.00437824
_cell_length_b   11.11054522
_cell_length_c   11.00437615
_cell_angle_alpha   59.68033369
_cell_angle_beta   60.63931624
_cell_angle_gamma   59.68033478
_symmetry_Int_Tables_number   1
_chemical_formula_structural   NaSr17YbIn8N7
_chemical_formula_sum   'Na1 Sr17 Yb1 In8 N7'
_cell_volume   951.19512489
_cell_formula_units_Z   1
loop_
 _symmetry_equiv_pos_site_id
 _symmetry_equiv_pos_as_xyz
  1  'x, y, z'
loop_
 _atom_site_type_symbol
 _atom_site_label
 _atom_site_symmetry_multiplicity
 _atom_site_fract_x
 _atom_site_fract_y
 _atom_site_fract_z
 _atom_site_occupancy
  Na  Na0  1  0.168430  0.831570  0.168430  1
  Sr  Sr1  1  0.825156  0.501694  0.171457  1
  Sr  Sr2  1  0.826970  0.498309  0.501691  1
  Sr  Sr3  1  0.841632  0.158368  0.172686  1
  Sr  Sr4  1  0.826970  0.173030  0.501691  1
  Sr  Sr5  1  0.834759  0.165241  0.834759  1
  Sr  Sr6  1  0.171457  0.501694  0.825156  1
  Sr  Sr7  1  0.501691  0.498309  0.826970  1
  Sr  Sr8  1  0.172686  0.158368  0.841632  1
  Sr  Sr9  1  0.492854  0.507146  0.170598  1
  Sr  Sr10  1  0.498306  0.174844  0.498306  1
  Sr  Sr11  1  0.498306  0.828543  0.498306  1
  Sr  Sr12  1  0.170598  0.829402  0.492854  1
  Sr  Sr13  1  0.170598  0.507146  0.492854  1
  Sr  Sr14  1  0.172686  0.827314  0.841632  1
  Sr  Sr15  1  0.501691  0.173030  0.826970  1
  Sr  Sr16  1  0.492854  0.829402  0.170598  1
  Sr  Sr17  1  0.841632  0.827314  0.172686  1
  Yb  Yb18  1  0.498017  0.501983  0.498017  1
  In  In19  1  0.178146  0.178554  0.464746  1
  In  In20  1  0.818868  0.822591  0.535950  1
  In  In21  1  0.821446  0.535254  0.821446  1
  In  In22  1  0.177409  0.464050  0.177409  1
  In  In23  1  0.177409  0.181132  0.177409  1
  In  In24  1  0.464746  0.178554  0.178146  1
  In  In25  1  0.821446  0.821854  0.821446  1
  In  In26  1  0.535950  0.822591  0.818868  1
  N  N27  1  0.328194  0.328916  0.671084  1
  N  N28  1  0.671084  0.671806  0.328194  1
  N  N29  1  0.669162  0.330838  0.669162  1
  N  N30  1  0.333376  0.666624  0.333376  1
  N  N31  1  0.671084  0.328916  0.328194  1
  N  N32  1  0.328194  0.671806  0.671084  1
  N  N33  1  0.996195  0.003805  0.996195  1
