# generated using pymatgen
data_Pu5SbO20
_symmetry_space_group_name_H-M   'P 1'
_cell_length_a   7.94412556
_cell_length_b   7.95817907
_cell_length_c   7.81557700
_cell_angle_alpha   88.92271660
_cell_angle_beta   90.96321807
_cell_angle_gamma   119.41529941
_symmetry_Int_Tables_number   1
_chemical_formula_structural   Pu5SbO20
_chemical_formula_sum   'Pu5 Sb1 O20'
_cell_volume   430.31554475
_cell_formula_units_Z   1
loop_
 _symmetry_equiv_pos_site_id
 _symmetry_equiv_pos_as_xyz
  1  'x, y, z'
loop_
 _atom_site_type_symbol
 _atom_site_label
 _atom_site_symmetry_multiplicity
 _atom_site_fract_x
 _atom_site_fract_y
 _atom_site_fract_z
 _atom_site_occupancy
  Pu  Pu0  1  0.014648  0.985929  0.492004  1
  Pu  Pu1  1  0.518166  0.480241  0.007374  1
  Pu  Pu2  1  0.268973  0.734820  0.749321  1
  Pu  Pu3  1  0.263930  0.732068  0.249152  1
  Pu  Pu4  1  0.769673  0.234107  0.751537  1
  Sb  Sb5  1  0.764358  0.231898  0.251025  1
  O  O6  1  0.131497  0.864143  0.289174  1
  O  O7  1  0.123463  0.882633  0.674417  1
  O  O8  1  0.622856  0.369775  0.189003  1
  O  O9  1  0.639209  0.365256  0.804211  1
  O  O10  1  0.902046  0.104594  0.699658  1
  O  O11  1  0.903963  0.092009  0.312492  1
  O  O12  1  0.415991  0.587839  0.822793  1
  O  O13  1  0.394420  0.598410  0.207773  1
  O  O14  1  0.029135  0.495047  0.748149  1
  O  O15  1  0.513044  0.980350  0.248754  1
  O  O16  1  0.509717  0.973739  0.752485  1
  O  O17  1  0.014691  0.484238  0.251248  1
  O  O18  1  0.312831  0.692768  0.517582  1
  O  O19  1  0.804379  0.199030  0.004810  1
  O  O20  1  0.730833  0.266407  0.498342  1
  O  O21  1  0.222474  0.776333  0.980502  1
  O  O22  1  0.236999  0.206140  0.489184  1
  O  O23  1  0.793348  0.764658  0.497985  1
  O  O24  1  0.738642  0.702260  0.009845  1
  O  O25  1  0.296714  0.259306  0.001175  1
