# generated using pymatgen
data_LaPr5IrO12
_symmetry_space_group_name_H-M   'P 1'
_cell_length_a   6.79048814
_cell_length_b   6.80472475
_cell_length_c   6.80196809
_cell_angle_alpha   98.65961494
_cell_angle_beta   98.38766765
_cell_angle_gamma   98.38771054
_symmetry_Int_Tables_number   1
_chemical_formula_structural   LaPr5IrO12
_chemical_formula_sum   'La1 Pr5 Ir1 O12'
_cell_volume   302.83488826
_cell_formula_units_Z   1
loop_
 _symmetry_equiv_pos_site_id
 _symmetry_equiv_pos_as_xyz
  1  'x, y, z'
loop_
 _atom_site_type_symbol
 _atom_site_label
 _atom_site_symmetry_multiplicity
 _atom_site_fract_x
 _atom_site_fract_y
 _atom_site_fract_z
 _atom_site_occupancy
  La  La0  1  0.855505  0.692159  0.393482  1
  Pr  Pr1  1  0.144744  0.307521  0.611166  1
  Pr  Pr2  1  0.389596  0.856061  0.693118  1
  Pr  Pr3  1  0.692101  0.388560  0.856346  1
  Pr  Pr4  1  0.307000  0.609481  0.143419  1
  Pr  Pr5  1  0.609607  0.143735  0.307656  1
  Ir  Ir6  1  0.000540  0.000805  0.000137  1
  O  O7  1  0.067396  0.287746  0.967589  1
  O  O8  1  0.036560  0.935965  0.714036  1
  O  O9  1  0.407386  0.559581  0.822458  1
  O  O10  1  0.176451  0.592589  0.441144  1
  O  O11  1  0.713440  0.032824  0.931716  1
  O  O12  1  0.441302  0.176730  0.593489  1
  O  O13  1  0.558254  0.821163  0.405752  1
  O  O14  1  0.287026  0.967299  0.068333  1
  O  O15  1  0.822084  0.404297  0.559314  1
  O  O16  1  0.590884  0.439019  0.177328  1
  O  O17  1  0.967583  0.070087  0.285675  1
  O  O18  1  0.932542  0.714376  0.027842  1
