# generated using pymatgen
data_Y3Zr5(Ta3Si4)4
_symmetry_space_group_name_H-M   'P 1'
_cell_length_a   6.93602460
_cell_length_b   6.93470397
_cell_length_c   12.85681981
_cell_angle_alpha   89.97137950
_cell_angle_beta   90.08344340
_cell_angle_gamma   89.86583715
_symmetry_Int_Tables_number   1
_chemical_formula_structural   Y3Zr5(Ta3Si4)4
_chemical_formula_sum   'Y3 Zr5 Ta12 Si16'
_cell_volume   618.40131189
_cell_formula_units_Z   1
loop_
 _symmetry_equiv_pos_site_id
 _symmetry_equiv_pos_as_xyz
  1  'x, y, z'
loop_
 _atom_site_type_symbol
 _atom_site_label
 _atom_site_symmetry_multiplicity
 _atom_site_fract_x
 _atom_site_fract_y
 _atom_site_fract_z
 _atom_site_occupancy
  Y  Y0  1  0.998445  0.660242  0.031510  1
  Y  Y1  1  0.002077  0.338654  0.530793  1
  Y  Y2  1  0.660362  0.998517  0.968626  1
  Zr  Zr3  1  0.160668  0.497654  0.781360  1
  Zr  Zr4  1  0.839606  0.502019  0.282597  1
  Zr  Zr5  1  0.497808  0.161068  0.219048  1
  Zr  Zr6  1  0.501819  0.840423  0.717948  1
  Zr  Zr7  1  0.343316  0.995180  0.468141  1
  Ta  Ta8  1  0.347469  0.507147  0.375664  1
  Ta  Ta9  1  0.844404  0.995993  0.373496  1
  Ta  Ta10  1  0.005569  0.155412  0.128433  1
  Ta  Ta11  1  0.994957  0.847095  0.625572  1
  Ta  Ta12  1  0.651850  0.492653  0.874059  1
  Ta  Ta13  1  0.504434  0.347790  0.623569  1
  Ta  Ta14  1  0.492841  0.652217  0.126135  1
  Ta  Ta15  1  0.155765  0.004614  0.871898  1
  Ta  Ta16  1  0.667998  0.671607  0.500048  1
  Ta  Ta17  1  0.830022  0.169712  0.749074  1
  Ta  Ta18  1  0.170614  0.831005  0.251312  1
  Ta  Ta19  1  0.330465  0.330607  0.000168  1
  Si  Si20  1  0.044339  0.705415  0.436041  1
  Si  Si21  1  0.957757  0.296119  0.935702  1
  Si  Si22  1  0.699963  0.043428  0.563591  1
  Si  Si23  1  0.202708  0.454982  0.188063  1
  Si  Si24  1  0.797428  0.544127  0.686993  1
  Si  Si25  1  0.455122  0.202807  0.812354  1
  Si  Si26  1  0.543408  0.798833  0.313496  1
  Si  Si27  1  0.296709  0.957739  0.064239  1
  Si  Si28  1  0.867050  0.791929  0.817953  1
  Si  Si29  1  0.136264  0.205465  0.320992  1
  Si  Si30  1  0.791889  0.867154  0.182217  1
  Si  Si31  1  0.295109  0.638185  0.572431  1
  Si  Si32  1  0.704719  0.364940  0.073253  1
  Si  Si33  1  0.632071  0.292945  0.426583  1
  Si  Si34  1  0.364950  0.704353  0.926959  1
  Si  Si35  1  0.210026  0.131968  0.679680  1
