# generated using pymatgen
data_Tm2Zr2IrPt
_symmetry_space_group_name_H-M   'P 1'
_cell_length_a   4.67956600
_cell_length_b   7.02666800
_cell_length_c   8.16534200
_cell_angle_alpha   90.00000000
_cell_angle_beta   90.00000000
_cell_angle_gamma   90.00000000
_symmetry_Int_Tables_number   1
_chemical_formula_structural   Tm2Zr2IrPt
_chemical_formula_sum   'Tm4 Zr4 Ir2 Pt2'
_cell_volume   268.49078874
_cell_formula_units_Z   2
loop_
 _symmetry_equiv_pos_site_id
 _symmetry_equiv_pos_as_xyz
  1  'x, y, z'
loop_
 _atom_site_type_symbol
 _atom_site_label
 _atom_site_symmetry_multiplicity
 _atom_site_fract_x
 _atom_site_fract_y
 _atom_site_fract_z
 _atom_site_occupancy
  Tm  Tm0  1  0.250000  0.015725  0.677664  1
  Tm  Tm1  1  0.250000  0.515725  0.822336  1
  Tm  Tm2  1  0.750000  0.985626  0.324668  1
  Tm  Tm3  1  0.750000  0.485626  0.175332  1
  Zr  Zr4  1  0.250000  0.143524  0.083358  1
  Zr  Zr5  1  0.250000  0.643524  0.416642  1
  Zr  Zr6  1  0.750000  0.852026  0.923939  1
  Zr  Zr7  1  0.750000  0.352026  0.576061  1
  Ir  Ir8  1  0.250000  0.268194  0.411347  1
  Ir  Ir9  1  0.250000  0.768194  0.088653  1
  Pt  Pt10  1  0.750000  0.734906  0.592840  1
  Pt  Pt11  1  0.750000  0.234906  0.907160  1
