# generated using pymatgen
data_Er8Cu3Si12Pt
_symmetry_space_group_name_H-M   'P 1'
_cell_length_a   7.99889700
_cell_length_b   7.99889675
_cell_length_c   8.01390100
_cell_angle_alpha   90.00000000
_cell_angle_beta   90.00000000
_cell_angle_gamma   119.99999691
_symmetry_Int_Tables_number   1
_chemical_formula_structural   Er8Cu3Si12Pt
_chemical_formula_sum   'Er8 Cu3 Si12 Pt1'
_cell_volume   444.05300515
_cell_formula_units_Z   1
loop_
 _symmetry_equiv_pos_site_id
 _symmetry_equiv_pos_as_xyz
  1  'x, y, z'
loop_
 _atom_site_type_symbol
 _atom_site_label
 _atom_site_symmetry_multiplicity
 _atom_site_fract_x
 _atom_site_fract_y
 _atom_site_fract_z
 _atom_site_occupancy
  Er  Er0  1  0.500681  0.001362  0.249245  1
  Er  Er1  1  0.499975  0.999949  0.750613  1
  Er  Er2  1  0.998638  0.499319  0.249245  1
  Er  Er3  1  0.000051  0.500025  0.750613  1
  Er  Er4  1  0.500681  0.499319  0.249245  1
  Er  Er5  1  0.499975  0.500025  0.750613  1
  Er  Er6  1  0.000000  0.000000  0.248090  1
  Er  Er7  1  0.000000  0.000000  0.751411  1
  Cu  Cu8  1  0.333333  0.666667  0.002396  1
  Cu  Cu9  1  0.666667  0.333333  0.000663  1
  Cu  Cu10  1  0.666667  0.333333  0.501109  1
  Si  Si11  1  0.169501  0.339004  0.999630  1
  Si  Si12  1  0.831139  0.662279  0.999823  1
  Si  Si13  1  0.660996  0.830499  0.999630  1
  Si  Si14  1  0.830929  0.661859  0.500235  1
  Si  Si15  1  0.337721  0.168861  0.999823  1
  Si  Si16  1  0.165299  0.330599  0.499576  1
  Si  Si17  1  0.169501  0.830499  0.999630  1
  Si  Si18  1  0.338141  0.169071  0.500235  1
  Si  Si19  1  0.831139  0.168861  0.999823  1
  Si  Si20  1  0.669401  0.834701  0.499576  1
  Si  Si21  1  0.830929  0.169071  0.500235  1
  Si  Si22  1  0.165299  0.834701  0.499576  1
  Pt  Pt23  1  0.333333  0.666667  0.498969  1
