# generated using pymatgen
data_Ca8Ag4SnPb3
_symmetry_space_group_name_H-M   'P 1'
_cell_length_a   7.74704100
_cell_length_b   5.34071200
_cell_length_c   10.67796900
_cell_angle_alpha   90.00000000
_cell_angle_beta   90.00217021
_cell_angle_gamma   90.00000000
_symmetry_Int_Tables_number   1
_chemical_formula_structural   Ca8Ag4SnPb3
_chemical_formula_sum   'Ca8 Ag4 Sn1 Pb3'
_cell_volume   441.79792222
_cell_formula_units_Z   1
loop_
 _symmetry_equiv_pos_site_id
 _symmetry_equiv_pos_as_xyz
  1  'x, y, z'
loop_
 _atom_site_type_symbol
 _atom_site_label
 _atom_site_symmetry_multiplicity
 _atom_site_fract_x
 _atom_site_fract_y
 _atom_site_fract_z
 _atom_site_occupancy
  Ca  Ca0  1  0.998967  0.750000  0.124301  1
  Ca  Ca1  1  0.501535  0.750000  0.124359  1
  Ca  Ca2  1  0.000346  0.250000  0.374059  1
  Ca  Ca3  1  0.500167  0.250000  0.374122  1
  Ca  Ca4  1  0.501041  0.750000  0.627463  1
  Ca  Ca5  1  0.998486  0.750000  0.627540  1
  Ca  Ca6  1  0.502219  0.250000  0.874109  1
  Ca  Ca7  1  0.997304  0.250000  0.874161  1
  Ag  Ag8  1  0.750385  0.250000  0.122614  1
  Ag  Ag9  1  0.250386  0.750000  0.377128  1
  Ag  Ag10  1  0.749633  0.250000  0.623115  1
  Ag  Ag11  1  0.249655  0.750000  0.877090  1
  Sn  Sn12  1  0.749639  0.750000  0.876499  1
  Pb  Pb13  1  0.250197  0.250000  0.123327  1
  Pb  Pb14  1  0.750217  0.750000  0.376640  1
  Pb  Pb15  1  0.249822  0.250000  0.623473  1
