# generated using pymatgen
data_NdFe2(Re4Tc)2
_symmetry_space_group_name_H-M   'P 1'
_cell_length_a   4.99339490
_cell_length_b   6.86716420
_cell_length_c   6.86716408
_cell_angle_alpha   97.70058042
_cell_angle_beta   111.21219305
_cell_angle_gamma   68.78781561
_symmetry_Int_Tables_number   1
_chemical_formula_structural   NdFe2(Re4Tc)2
_chemical_formula_sum   'Nd1 Fe2 Re8 Tc2'
_cell_volume   204.64912419
_cell_formula_units_Z   1
loop_
 _symmetry_equiv_pos_site_id
 _symmetry_equiv_pos_as_xyz
  1  'x, y, z'
loop_
 _atom_site_type_symbol
 _atom_site_label
 _atom_site_symmetry_multiplicity
 _atom_site_fract_x
 _atom_site_fract_y
 _atom_site_fract_z
 _atom_site_occupancy
  Nd  Nd0  1  0.000000  0.000000  0.000000  1
  Fe  Fe1  1  0.500000  0.000000  0.500000  1
  Fe  Fe2  1  0.500000  0.500000  0.000000  1
  Re  Re3  1  0.707117  0.782628  0.217372  1
  Re  Re4  1  0.292883  0.217372  0.782628  1
  Re  Re5  1  0.500000  0.778579  0.778579  1
  Re  Re6  1  0.500000  0.221421  0.221421  1
  Re  Re7  1  0.000000  0.000000  0.500000  1
  Re  Re8  1  0.000000  0.500000  0.000000  1
  Re  Re9  1  0.636170  0.358146  0.641854  1
  Re  Re10  1  0.363830  0.641854  0.358146  1
  Tc  Tc11  1  0.000000  0.360516  0.360516  1
  Tc  Tc12  1  0.000000  0.639484  0.639484  1
