# generated using pymatgen
data_Ho16Mg2In2IrPd3
_symmetry_space_group_name_H-M   'P 1'
_cell_length_a   9.66318194
_cell_length_b   9.66318124
_cell_length_c   9.71725703
_cell_angle_alpha   60.11778800
_cell_angle_beta   60.11778895
_cell_angle_gamma   59.90091355
_symmetry_Int_Tables_number   1
_chemical_formula_structural   Ho16Mg2In2IrPd3
_chemical_formula_sum   'Ho16 Mg2 In2 Ir1 Pd3'
_cell_volume   642.26235071
_cell_formula_units_Z   1
loop_
 _symmetry_equiv_pos_site_id
 _symmetry_equiv_pos_as_xyz
  1  'x, y, z'
loop_
 _atom_site_type_symbol
 _atom_site_label
 _atom_site_symmetry_multiplicity
 _atom_site_fract_x
 _atom_site_fract_y
 _atom_site_fract_z
 _atom_site_occupancy
  Ho  Ho0  1  0.433180  0.433180  0.065390  1
  Ho  Ho1  1  0.643857  0.643857  0.063658  1
  Ho  Ho2  1  0.184619  0.810900  0.192473  1
  Ho  Ho3  1  0.064395  0.436506  0.063509  1
  Ho  Ho4  1  0.189387  0.810620  0.810040  1
  Ho  Ho5  1  0.064854  0.438212  0.432023  1
  Ho  Ho6  1  0.810900  0.184619  0.192473  1
  Ho  Ho7  1  0.653007  0.653007  0.646199  1
  Ho  Ho8  1  0.810620  0.189387  0.810040  1
  Ho  Ho9  1  0.187404  0.187404  0.812069  1
  Ho  Ho10  1  0.053109  0.651632  0.643208  1
  Ho  Ho11  1  0.436506  0.064395  0.063509  1
  Ho  Ho12  1  0.063503  0.063503  0.433693  1
  Ho  Ho13  1  0.651632  0.053109  0.643208  1
  Ho  Ho14  1  0.808609  0.808609  0.196144  1
  Ho  Ho15  1  0.438212  0.064854  0.432023  1
  Mg  Mg16  1  0.420812  0.420812  0.420053  1
  Mg  Mg17  1  0.421914  0.421914  0.737235  1
  In  In18  1  0.416179  0.747566  0.418874  1
  In  In19  1  0.747566  0.416179  0.418874  1
  Ir  Ir20  1  0.857913  0.857913  0.427732  1
  Pd  Pd21  1  0.430978  0.855905  0.859905  1
  Pd  Pd22  1  0.854938  0.854938  0.857760  1
  Pd  Pd23  1  0.855905  0.430978  0.859905  1
