# generated using pymatgen
data_Nb12Al3Pt5N4
_symmetry_space_group_name_H-M   'P 1'
_cell_length_a   7.07077063
_cell_length_b   7.07077063
_cell_length_c   7.07077063
_cell_angle_alpha   90.24962941
_cell_angle_beta   89.75037059
_cell_angle_gamma   89.75037059
_symmetry_Int_Tables_number   1
_chemical_formula_structural   Nb12Al3Pt5N4
_chemical_formula_sum   'Nb12 Al3 Pt5 N4'
_cell_volume   353.49872004
_cell_formula_units_Z   1
loop_
 _symmetry_equiv_pos_site_id
 _symmetry_equiv_pos_as_xyz
  1  'x, y, z'
loop_
 _atom_site_type_symbol
 _atom_site_label
 _atom_site_symmetry_multiplicity
 _atom_site_fract_x
 _atom_site_fract_y
 _atom_site_fract_z
 _atom_site_occupancy
  Nb  Nb0  1  0.790610  0.958611  0.375947  1
  Nb  Nb1  1  0.708022  0.049035  0.880713  1
  Nb  Nb2  1  0.212519  0.454045  0.125471  1
  Nb  Nb3  1  0.295915  0.539446  0.628895  1
  Nb  Nb4  1  0.950965  0.380713  0.791978  1
  Nb  Nb5  1  0.041389  0.875947  0.709390  1
  Nb  Nb6  1  0.460554  0.128895  0.204085  1
  Nb  Nb7  1  0.545955  0.625471  0.287481  1
  Nb  Nb8  1  0.374529  0.787481  0.954045  1
  Nb  Nb9  1  0.871105  0.704085  0.039446  1
  Nb  Nb10  1  0.124053  0.209390  0.458611  1
  Nb  Nb11  1  0.619287  0.291978  0.549035  1
  Al  Al12  1  0.427263  0.926738  0.567666  1
  Al  Al13  1  0.932334  0.572737  0.426738  1
  Al  Al14  1  0.073262  0.067666  0.072737  1
  Pt  Pt15  1  0.178585  0.821415  0.321415  1
  Pt  Pt16  1  0.312024  0.167917  0.816538  1
  Pt  Pt17  1  0.832083  0.316538  0.187976  1
  Pt  Pt18  1  0.683462  0.687976  0.667917  1
  Pt  Pt19  1  0.566526  0.433474  0.933474  1
  N  N20  1  0.872635  0.127365  0.627365  1
  N  N21  1  0.623038  0.874360  0.121755  1
  N  N22  1  0.125640  0.621755  0.876962  1
  N  N23  1  0.378245  0.376962  0.374360  1
