# generated using pymatgen
data_Eu2Sn2PdRh
_symmetry_space_group_name_H-M   'P 1'
_cell_length_a   4.64325400
_cell_length_b   7.49089100
_cell_length_c   8.11239400
_cell_angle_alpha   90.00000000
_cell_angle_beta   90.00000000
_cell_angle_gamma   90.00000000
_symmetry_Int_Tables_number   1
_chemical_formula_structural   Eu2Sn2PdRh
_chemical_formula_sum   'Eu4 Sn4 Pd2 Rh2'
_cell_volume   282.16617722
_cell_formula_units_Z   2
loop_
 _symmetry_equiv_pos_site_id
 _symmetry_equiv_pos_as_xyz
  1  'x, y, z'
loop_
 _atom_site_type_symbol
 _atom_site_label
 _atom_site_symmetry_multiplicity
 _atom_site_fract_x
 _atom_site_fract_y
 _atom_site_fract_z
 _atom_site_occupancy
  Eu  Eu0  1  0.250000  0.522112  0.183015  1
  Eu  Eu1  1  0.750000  0.471036  0.817025  1
  Eu  Eu2  1  0.250000  0.028964  0.317025  1
  Eu  Eu3  1  0.750000  0.977888  0.683015  1
  Sn  Sn4  1  0.250000  0.164304  0.927695  1
  Sn  Sn5  1  0.750000  0.335696  0.427695  1
  Sn  Sn6  1  0.250000  0.655058  0.572543  1
  Sn  Sn7  1  0.750000  0.844942  0.072543  1
  Pd  Pd8  1  0.750000  0.712697  0.390328  1
  Pd  Pd9  1  0.250000  0.787303  0.890328  1
  Rh  Rh10  1  0.750000  0.214630  0.109393  1
  Rh  Rh11  1  0.250000  0.285370  0.609393  1
