# generated using pymatgen
data_Gd4Er4Tc(B8Os)3
_symmetry_space_group_name_H-M   'P 1'
_cell_length_a   3.66337500
_cell_length_b   9.15330514
_cell_length_c   11.55033204
_cell_angle_alpha   89.94064260
_cell_angle_beta   90.00000000
_cell_angle_gamma   90.00000000
_symmetry_Int_Tables_number   1
_chemical_formula_structural   Gd4Er4Tc(B8Os)3
_chemical_formula_sum   'Gd4 Er4 Tc1 B24 Os3'
_cell_volume   387.30540179
_cell_formula_units_Z   1
loop_
 _symmetry_equiv_pos_site_id
 _symmetry_equiv_pos_as_xyz
  1  'x, y, z'
loop_
 _atom_site_type_symbol
 _atom_site_label
 _atom_site_symmetry_multiplicity
 _atom_site_fract_x
 _atom_site_fract_y
 _atom_site_fract_z
 _atom_site_occupancy
  Gd  Gd0  1  0.000000  0.323591  0.413096  1
  Gd  Gd1  1  0.000000  0.677565  0.583804  1
  Gd  Gd2  1  0.000000  0.820475  0.087797  1
  Gd  Gd3  1  0.000000  0.177633  0.914887  1
  Er  Er4  1  0.000000  0.942631  0.372256  1
  Er  Er5  1  0.000000  0.056816  0.627808  1
  Er  Er6  1  0.000000  0.444833  0.128367  1
  Er  Er7  1  0.000000  0.556472  0.871966  1
  Tc  Tc8  1  0.000000  0.638422  0.320323  1
  B  B9  1  0.500000  0.553815  0.432308  1
  B  B10  1  0.500000  0.445737  0.567904  1
  B  B11  1  0.500000  0.054351  0.067781  1
  B  B12  1  0.500000  0.945475  0.932495  1
  B  B13  1  0.500000  0.748706  0.418548  1
  B  B14  1  0.500000  0.251371  0.581390  1
  B  B15  1  0.500000  0.248940  0.081073  1
  B  B16  1  0.500000  0.751016  0.918821  1
  B  B17  1  0.500000  0.791357  0.266136  1
  B  B18  1  0.500000  0.208918  0.733951  1
  B  B19  1  0.500000  0.290952  0.233271  1
  B  B20  1  0.500000  0.709365  0.766176  1
  B  B21  1  0.500000  0.631120  0.185492  1
  B  B22  1  0.500000  0.368742  0.815046  1
  B  B23  1  0.500000  0.130887  0.314251  1
  B  B24  1  0.500000  0.869318  0.685265  1
  B  B25  1  0.500000  0.983439  0.213060  1
  B  B26  1  0.500000  0.016426  0.787263  1
  B  B27  1  0.500000  0.483205  0.286808  1
  B  B28  1  0.500000  0.516155  0.713188  1
  B  B29  1  0.500000  0.604730  0.028385  1
  B  B30  1  0.500000  0.395145  0.970868  1
  B  B31  1  0.500000  0.104697  0.471251  1
  B  B32  1  0.500000  0.896229  0.529200  1
  Os  Os33  1  0.000000  0.361298  0.680288  1
  Os  Os34  1  0.000000  0.138342  0.179015  1
  Os  Os35  1  0.000000  0.861827  0.820464  1
