# generated using pymatgen
data_Tb7Nd3In8(PtAu)2
_symmetry_space_group_name_H-M   'P 1'
_cell_length_a   3.71718600
_cell_length_b   8.25070863
_cell_length_c   18.59629814
_cell_angle_alpha   89.85935841
_cell_angle_beta   90.00000000
_cell_angle_gamma   90.00000000
_symmetry_Int_Tables_number   1
_chemical_formula_structural   Tb7Nd3In8(PtAu)2
_chemical_formula_sum   'Tb7 Nd3 In8 Pt2 Au2'
_cell_volume   570.33593411
_cell_formula_units_Z   1
loop_
 _symmetry_equiv_pos_site_id
 _symmetry_equiv_pos_as_xyz
  1  'x, y, z'
loop_
 _atom_site_type_symbol
 _atom_site_label
 _atom_site_symmetry_multiplicity
 _atom_site_fract_x
 _atom_site_fract_y
 _atom_site_fract_z
 _atom_site_occupancy
  Tb  Tb0  1  0.000000  0.122961  0.419590  1
  Tb  Tb1  1  0.000000  0.877898  0.582011  1
  Tb  Tb2  1  0.000000  0.381895  0.915329  1
  Tb  Tb3  1  0.000000  0.617671  0.083596  1
  Tb  Tb4  1  0.000000  0.253348  0.217004  1
  Tb  Tb5  1  0.000000  0.745289  0.782089  1
  Tb  Tb6  1  0.000000  0.272193  0.721057  1
  Nd  Nd7  1  0.000000  0.728173  0.279959  1
  Nd  Nd8  1  0.000000  0.000330  0.999386  1
  Nd  Nd9  1  0.000000  0.499829  0.500158  1
  In  In10  1  0.500000  0.419016  0.351070  1
  In  In11  1  0.500000  0.575865  0.649501  1
  In  In12  1  0.500000  0.078180  0.849961  1
  In  In13  1  0.500000  0.925270  0.148814  1
  In  In14  1  0.500000  0.295446  0.067099  1
  In  In15  1  0.500000  0.703844  0.932094  1
  In  In16  1  0.500000  0.206158  0.569891  1
  In  In17  1  0.500000  0.795834  0.432827  1
  Pt  Pt18  1  0.500000  0.472770  0.804130  1
  Pt  Pt19  1  0.500000  0.520801  0.193599  1
  Au  Au20  1  0.500000  0.034238  0.302561  1
  Au  Au21  1  0.500000  0.972992  0.698274  1
