# generated using pymatgen
data_Zr3Nb2Ge3N
_symmetry_space_group_name_H-M   'P 1'
_cell_length_a   7.91297900
_cell_length_b   7.91297889
_cell_length_c   5.51909600
_cell_angle_alpha   90.00000000
_cell_angle_beta   90.00000000
_cell_angle_gamma   119.99999626
_symmetry_Int_Tables_number   1
_chemical_formula_structural   Zr3Nb2Ge3N
_chemical_formula_sum   'Zr6 Nb4 Ge6 N2'
_cell_volume   299.28063516
_cell_formula_units_Z   2
loop_
 _symmetry_equiv_pos_site_id
 _symmetry_equiv_pos_as_xyz
  1  'x, y, z'
loop_
 _atom_site_type_symbol
 _atom_site_label
 _atom_site_symmetry_multiplicity
 _atom_site_fract_x
 _atom_site_fract_y
 _atom_site_fract_z
 _atom_site_occupancy
  Zr  Zr0  1  0.234639  0.000000  0.750000  1
  Zr  Zr1  1  0.765361  0.000000  0.250000  1
  Zr  Zr2  1  0.000000  0.234639  0.750000  1
  Zr  Zr3  1  0.000000  0.765361  0.250000  1
  Zr  Zr4  1  0.765361  0.765361  0.750000  1
  Zr  Zr5  1  0.234639  0.234639  0.250000  1
  Nb  Nb6  1  0.333333  0.666667  0.500000  1
  Nb  Nb7  1  0.666667  0.333333  0.500000  1
  Nb  Nb8  1  0.666667  0.333333  0.000000  1
  Nb  Nb9  1  0.333333  0.666667  0.000000  1
  Ge  Ge10  1  0.592227  0.000000  0.750000  1
  Ge  Ge11  1  0.407773  0.000000  0.250000  1
  Ge  Ge12  1  0.000000  0.592227  0.750000  1
  Ge  Ge13  1  0.000000  0.407773  0.250000  1
  Ge  Ge14  1  0.407773  0.407773  0.750000  1
  Ge  Ge15  1  0.592227  0.592227  0.250000  1
  N  N16  1  0.000000  0.000000  0.500000  1
  N  N17  1  0.000000  0.000000  0.000000  1
