# generated using pymatgen
data_YbThB12
_symmetry_space_group_name_H-M   'P 1'
_cell_length_a   5.81307334
_cell_length_b   5.81307399
_cell_length_c   5.81307400
_cell_angle_alpha   59.99999992
_cell_angle_beta   59.99999626
_cell_angle_gamma   59.99999788
_symmetry_Int_Tables_number   1
_chemical_formula_structural   YbThB12
_chemical_formula_sum   'Yb1 Th1 B12'
_cell_volume   138.90007722
_cell_formula_units_Z   1
loop_
 _symmetry_equiv_pos_site_id
 _symmetry_equiv_pos_as_xyz
  1  'x, y, z'
loop_
 _atom_site_type_symbol
 _atom_site_label
 _atom_site_symmetry_multiplicity
 _atom_site_fract_x
 _atom_site_fract_y
 _atom_site_fract_z
 _atom_site_occupancy
  Yb  Yb0  1  0.500000  0.500000  0.500000  1
  Th  Th1  1  0.000000  0.000000  0.000000  1
  B  B2  1  0.400649  0.099351  0.099351  1
  B  B3  1  0.900649  0.599351  0.599351  1
  B  B4  1  0.400649  0.400649  0.099351  1
  B  B5  1  0.900649  0.900649  0.599351  1
  B  B6  1  0.099351  0.400649  0.099351  1
  B  B7  1  0.599351  0.900649  0.599351  1
  B  B8  1  0.099351  0.099351  0.400649  1
  B  B9  1  0.599351  0.599351  0.900649  1
  B  B10  1  0.400649  0.099351  0.400649  1
  B  B11  1  0.900649  0.599351  0.900649  1
  B  B12  1  0.099351  0.400649  0.400649  1
  B  B13  1  0.599351  0.900649  0.900649  1
