# generated using pymatgen
data_Y3Sc3Ti4(Co2Si5)4
_symmetry_space_group_name_H-M   'P 1'
_cell_length_a   11.98122504
_cell_length_b   11.98122504
_cell_length_c   3.91867900
_cell_angle_alpha   90.00000000
_cell_angle_beta   90.00000000
_cell_angle_gamma   89.99039748
_symmetry_Int_Tables_number   1
_chemical_formula_structural   Y3Sc3Ti4(Co2Si5)4
_chemical_formula_sum   'Y3 Sc3 Ti4 Co8 Si20'
_cell_volume   562.52539663
_cell_formula_units_Z   1
loop_
 _symmetry_equiv_pos_site_id
 _symmetry_equiv_pos_as_xyz
  1  'x, y, z'
loop_
 _atom_site_type_symbol
 _atom_site_label
 _atom_site_symmetry_multiplicity
 _atom_site_fract_x
 _atom_site_fract_y
 _atom_site_fract_z
 _atom_site_occupancy
  Y  Y0  1  0.886358  0.386358  0.500000  1
  Y  Y1  1  0.385156  0.114600  0.500000  1
  Y  Y2  1  0.614600  0.885156  0.500000  1
  Sc  Sc3  1  0.000201  0.999212  0.000000  1
  Sc  Sc4  1  0.499212  0.500201  0.000000  1
  Sc  Sc5  1  0.113678  0.613678  0.500000  1
  Ti  Ti6  1  0.675065  0.175065  0.500000  1
  Ti  Ti7  1  0.174922  0.326543  0.500000  1
  Ti  Ti8  1  0.826543  0.674922  0.500000  1
  Ti  Ti9  1  0.323715  0.823715  0.500000  1
  Co  Co10  1  0.522700  0.255834  0.000000  1
  Co  Co11  1  0.253554  0.478261  0.000000  1
  Co  Co12  1  0.745576  0.523271  0.000000  1
  Co  Co13  1  0.475907  0.743733  0.000000  1
  Co  Co14  1  0.978261  0.753554  0.000000  1
  Co  Co15  1  0.023271  0.245576  0.000000  1
  Co  Co16  1  0.755834  0.022700  0.000000  1
  Co  Co17  1  0.243733  0.975907  0.000000  1
  Si  Si18  1  0.571415  0.071415  0.000000  1
  Si  Si19  1  0.071813  0.431057  0.000000  1
  Si  Si20  1  0.931057  0.571813  0.000000  1
  Si  Si21  1  0.428012  0.928012  0.000000  1
  Si  Si22  1  0.193987  0.160471  0.000000  1
  Si  Si23  1  0.159698  0.803032  0.000000  1
  Si  Si24  1  0.839886  0.194421  0.000000  1
  Si  Si25  1  0.806681  0.838879  0.000000  1
  Si  Si26  1  0.303032  0.659698  0.000000  1
  Si  Si27  1  0.694421  0.339886  0.000000  1
  Si  Si28  1  0.660471  0.693987  0.000000  1
  Si  Si29  1  0.338879  0.306681  0.000000  1
  Si  Si30  1  0.015577  0.162193  0.500000  1
  Si  Si31  1  0.161543  0.985223  0.500000  1
  Si  Si32  1  0.838200  0.014525  0.500000  1
  Si  Si33  1  0.989937  0.835165  0.500000  1
  Si  Si34  1  0.485223  0.661543  0.500000  1
  Si  Si35  1  0.514525  0.338200  0.500000  1
  Si  Si36  1  0.662193  0.515577  0.500000  1
  Si  Si37  1  0.335165  0.489937  0.500000  1
