# generated using pymatgen
data_Zr10Ga2SnBi5
_symmetry_space_group_name_H-M   'P 1'
_cell_length_a   8.85870671
_cell_length_b   8.85870782
_cell_length_c   5.94875100
_cell_angle_alpha   90.00000000
_cell_angle_beta   90.00000000
_cell_angle_gamma   120.11813246
_symmetry_Int_Tables_number   1
_chemical_formula_structural   Zr10Ga2SnBi5
_chemical_formula_sum   'Zr10 Ga2 Sn1 Bi5'
_cell_volume   403.81171692
_cell_formula_units_Z   1
loop_
 _symmetry_equiv_pos_site_id
 _symmetry_equiv_pos_as_xyz
  1  'x, y, z'
loop_
 _atom_site_type_symbol
 _atom_site_label
 _atom_site_symmetry_multiplicity
 _atom_site_fract_x
 _atom_site_fract_y
 _atom_site_fract_z
 _atom_site_occupancy
  Zr  Zr0  1  0.001083  0.263473  0.250000  1
  Zr  Zr1  1  0.732600  0.994899  0.750000  1
  Zr  Zr2  1  0.735908  0.735908  0.250000  1
  Zr  Zr3  1  0.665766  0.336187  0.502879  1
  Zr  Zr4  1  0.994899  0.732600  0.750000  1
  Zr  Zr5  1  0.267491  0.267491  0.750000  1
  Zr  Zr6  1  0.336187  0.665766  0.997121  1
  Zr  Zr7  1  0.665766  0.336187  0.997121  1
  Zr  Zr8  1  0.336187  0.665766  0.502879  1
  Zr  Zr9  1  0.263473  0.001083  0.250000  1
  Ga  Ga10  1  0.000302  0.000302  0.998958  1
  Ga  Ga11  1  0.000302  0.000302  0.501042  1
  Sn  Sn12  1  0.610909  0.610909  0.750000  1
  Bi  Bi13  1  0.610404  0.000660  0.250000  1
  Bi  Bi14  1  0.387047  0.999509  0.750000  1
  Bi  Bi15  1  0.391505  0.391505  0.250000  1
  Bi  Bi16  1  0.000660  0.610404  0.250000  1
  Bi  Bi17  1  0.999509  0.387047  0.750000  1
