# generated using pymatgen
data_Nd3In2HgPt3
_symmetry_space_group_name_H-M   'P 1'
_cell_length_a   7.83839801
_cell_length_b   7.94593289
_cell_length_c   3.93359700
_cell_angle_alpha   90.00000000
_cell_angle_beta   90.00000000
_cell_angle_gamma   120.45486464
_symmetry_Int_Tables_number   1
_chemical_formula_structural   Nd3In2HgPt3
_chemical_formula_sum   'Nd3 In2 Hg1 Pt3'
_cell_volume   211.19508176
_cell_formula_units_Z   1
loop_
 _symmetry_equiv_pos_site_id
 _symmetry_equiv_pos_as_xyz
  1  'x, y, z'
loop_
 _atom_site_type_symbol
 _atom_site_label
 _atom_site_symmetry_multiplicity
 _atom_site_fract_x
 _atom_site_fract_y
 _atom_site_fract_z
 _atom_site_occupancy
  Nd  Nd0  1  0.000000  0.586598  0.500000  1
  Nd  Nd1  1  0.599571  0.004582  0.500000  1
  Nd  Nd2  1  0.400429  0.405012  0.500000  1
  In  In3  1  0.255967  0.998590  0.000000  1
  In  In4  1  0.744033  0.742623  0.000000  1
  Hg  Hg5  1  0.000000  0.260250  0.000000  1
  Pt  Pt6  1  0.000000  0.986990  0.500000  1
  Pt  Pt7  1  0.657522  0.336438  0.000000  1
  Pt  Pt8  1  0.342478  0.678917  0.000000  1
