# generated using pymatgen
data_Nd2Er2TmSi4
_symmetry_space_group_name_H-M   'P 1'
_cell_length_a   7.72478900
_cell_length_b   7.72478900
_cell_length_c   14.21159300
_cell_angle_alpha   90.00000000
_cell_angle_beta   90.00000000
_cell_angle_gamma   90.00000000
_symmetry_Int_Tables_number   1
_chemical_formula_structural   Nd2Er2TmSi4
_chemical_formula_sum   'Nd8 Er8 Tm4 Si16'
_cell_volume   848.03936607
_cell_formula_units_Z   4
loop_
 _symmetry_equiv_pos_site_id
 _symmetry_equiv_pos_as_xyz
  1  'x, y, z'
loop_
 _atom_site_type_symbol
 _atom_site_label
 _atom_site_symmetry_multiplicity
 _atom_site_fract_x
 _atom_site_fract_y
 _atom_site_fract_z
 _atom_site_occupancy
  Nd  Nd0  1  0.642419  0.993024  0.459006  1
  Nd  Nd1  1  0.357581  0.006976  0.959006  1
  Nd  Nd2  1  0.993024  0.642419  0.540994  1
  Nd  Nd3  1  0.493024  0.857581  0.209006  1
  Nd  Nd4  1  0.506976  0.142419  0.709006  1
  Nd  Nd5  1  0.857581  0.493024  0.790994  1
  Nd  Nd6  1  0.142419  0.506976  0.290994  1
  Nd  Nd7  1  0.006976  0.357581  0.040994  1
  Er  Er8  1  0.493172  0.360072  0.124228  1
  Er  Er9  1  0.993172  0.139928  0.625772  1
  Er  Er10  1  0.860072  0.006828  0.874228  1
  Er  Er11  1  0.139928  0.993172  0.374228  1
  Er  Er12  1  0.506828  0.639928  0.624228  1
  Er  Er13  1  0.360072  0.493172  0.875772  1
  Er  Er14  1  0.639928  0.506828  0.375772  1
  Er  Er15  1  0.006828  0.860072  0.125772  1
  Tm  Tm16  1  0.318048  0.318048  0.500000  1
  Tm  Tm17  1  0.181952  0.818048  0.750000  1
  Tm  Tm18  1  0.818048  0.181952  0.250000  1
  Tm  Tm19  1  0.681952  0.681952  0.000000  1
  Si  Si20  1  0.289585  0.937521  0.561756  1
  Si  Si21  1  0.710415  0.062479  0.061756  1
  Si  Si22  1  0.937521  0.289585  0.438244  1
  Si  Si23  1  0.437521  0.210415  0.311756  1
  Si  Si24  1  0.562479  0.789585  0.811756  1
  Si  Si25  1  0.210415  0.437521  0.688244  1
  Si  Si26  1  0.789585  0.562479  0.188244  1
  Si  Si27  1  0.062479  0.710415  0.938244  1
  Si  Si28  1  0.795729  0.848703  0.687873  1
  Si  Si29  1  0.204271  0.151297  0.187873  1
  Si  Si30  1  0.848703  0.795729  0.312127  1
  Si  Si31  1  0.348703  0.704271  0.437873  1
  Si  Si32  1  0.651297  0.295729  0.937873  1
  Si  Si33  1  0.704271  0.348703  0.562127  1
  Si  Si34  1  0.295729  0.651297  0.062127  1
  Si  Si35  1  0.151297  0.204271  0.812127  1
