# generated using pymatgen
data_Pr2Ga9Co2Pt
_symmetry_space_group_name_H-M   'P 1'
_cell_length_a   7.57907239
_cell_length_b   7.57907149
_cell_length_c   9.60328700
_cell_angle_alpha   90.00000000
_cell_angle_beta   90.00000000
_cell_angle_gamma   119.69092528
_symmetry_Int_Tables_number   1
_chemical_formula_structural   Pr2Ga9Co2Pt
_chemical_formula_sum   'Pr4 Ga18 Co4 Pt2'
_cell_volume   479.21099687
_cell_formula_units_Z   2
loop_
 _symmetry_equiv_pos_site_id
 _symmetry_equiv_pos_as_xyz
  1  'x, y, z'
loop_
 _atom_site_type_symbol
 _atom_site_label
 _atom_site_symmetry_multiplicity
 _atom_site_fract_x
 _atom_site_fract_y
 _atom_site_fract_z
 _atom_site_occupancy
  Pr  Pr0  1  0.503259  0.834996  0.250818  1
  Pr  Pr1  1  0.496741  0.165004  0.750818  1
  Pr  Pr2  1  0.165004  0.496741  0.749182  1
  Pr  Pr3  1  0.834996  0.503259  0.249182  1
  Ga  Ga4  1  0.160344  0.957613  0.241816  1
  Ga  Ga5  1  0.839656  0.042387  0.741816  1
  Ga  Ga6  1  0.042388  0.839656  0.758184  1
  Ga  Ga7  1  0.957612  0.160344  0.258184  1
  Ga  Ga8  1  0.619803  0.619803  0.750000  1
  Ga  Ga9  1  0.380197  0.380197  0.250000  1
  Ga  Ga10  1  0.168279  0.173899  0.556605  1
  Ga  Ga11  1  0.831721  0.826101  0.056605  1
  Ga  Ga12  1  0.826101  0.831721  0.443395  1
  Ga  Ga13  1  0.173899  0.168279  0.943395  1
  Ga  Ga14  1  0.511547  0.832659  0.574012  1
  Ga  Ga15  1  0.488453  0.167341  0.074012  1
  Ga  Ga16  1  0.167341  0.488453  0.425988  1
  Ga  Ga17  1  0.832659  0.511547  0.925988  1
  Ga  Ga18  1  0.508045  0.176050  0.426619  1
  Ga  Ga19  1  0.491955  0.823950  0.926619  1
  Ga  Ga20  1  0.823950  0.491955  0.573381  1
  Ga  Ga21  1  0.176050  0.508045  0.073381  1
  Co  Co22  1  0.500314  0.499686  0.500000  1
  Co  Co23  1  0.499686  0.500314  0.000000  1
  Co  Co24  1  0.830664  0.169336  0.500000  1
  Co  Co25  1  0.169336  0.830664  0.000000  1
  Pt  Pt26  1  0.170760  0.829240  0.500000  1
  Pt  Pt27  1  0.829240  0.170760  0.000000  1
