# generated using pymatgen
data_Nd10Ir3Pt2Rh
_symmetry_space_group_name_H-M   'P 1'
_cell_length_a   11.35558900
_cell_length_b   11.35558900
_cell_length_c   6.57108400
_cell_angle_alpha   90.00000000
_cell_angle_beta   90.00000000
_cell_angle_gamma   90.00000000
_symmetry_Int_Tables_number   1
_chemical_formula_structural   Nd10Ir3Pt2Rh
_chemical_formula_sum   'Nd20 Ir6 Pt4 Rh2'
_cell_volume   847.33734925
_cell_formula_units_Z   2
loop_
 _symmetry_equiv_pos_site_id
 _symmetry_equiv_pos_as_xyz
  1  'x, y, z'
loop_
 _atom_site_type_symbol
 _atom_site_label
 _atom_site_symmetry_multiplicity
 _atom_site_fract_x
 _atom_site_fract_y
 _atom_site_fract_z
 _atom_site_occupancy
  Nd  Nd0  1  0.090581  0.292452  0.113141  1
  Nd  Nd1  1  0.792452  0.409419  0.113141  1
  Nd  Nd2  1  0.207548  0.590581  0.113141  1
  Nd  Nd3  1  0.909419  0.707548  0.113141  1
  Nd  Nd4  1  0.409419  0.792452  0.386859  1
  Nd  Nd5  1  0.590581  0.207548  0.386859  1
  Nd  Nd6  1  0.292452  0.090581  0.386859  1
  Nd  Nd7  1  0.707548  0.909419  0.386859  1
  Nd  Nd8  1  0.409958  0.205907  0.878506  1
  Nd  Nd9  1  0.705907  0.090042  0.878506  1
  Nd  Nd10  1  0.294093  0.909958  0.878506  1
  Nd  Nd11  1  0.590042  0.794093  0.878506  1
  Nd  Nd12  1  0.090042  0.705907  0.621494  1
  Nd  Nd13  1  0.909958  0.294093  0.621494  1
  Nd  Nd14  1  0.205907  0.409958  0.621494  1
  Nd  Nd15  1  0.794093  0.590042  0.621494  1
  Nd  Nd16  1  0.000000  0.000000  0.998208  1
  Nd  Nd17  1  0.500000  0.500000  0.998208  1
  Nd  Nd18  1  0.500000  0.500000  0.501792  1
  Nd  Nd19  1  0.000000  0.000000  0.501792  1
  Ir  Ir20  1  0.346708  0.653292  0.750000  1
  Ir  Ir21  1  0.153292  0.153292  0.750000  1
  Ir  Ir22  1  0.846708  0.846708  0.750000  1
  Ir  Ir23  1  0.653292  0.346708  0.750000  1
  Ir  Ir24  1  0.500000  0.000000  0.621221  1
  Ir  Ir25  1  0.000000  0.500000  0.878779  1
  Pt  Pt26  1  0.154449  0.845551  0.250000  1
  Pt  Pt27  1  0.345551  0.345551  0.250000  1
  Pt  Pt28  1  0.654449  0.654449  0.250000  1
  Pt  Pt29  1  0.845551  0.154449  0.250000  1
  Rh  Rh30  1  0.000000  0.500000  0.379001  1
  Rh  Rh31  1  0.500000  0.000000  0.120999  1
