# generated using pymatgen
data_Y7Th(CdNi)2
_symmetry_space_group_name_H-M   'P 1'
_cell_length_a   9.62445168
_cell_length_b   9.62445266
_cell_length_c   9.64466200
_cell_angle_alpha   59.93051512
_cell_angle_beta   59.93051174
_cell_angle_gamma   59.90223714
_symmetry_Int_Tables_number   1
_chemical_formula_structural   Y7Th(CdNi)2
_chemical_formula_sum   'Y14 Th2 Cd4 Ni4'
_cell_volume   630.58827146
_cell_formula_units_Z   2
loop_
 _symmetry_equiv_pos_site_id
 _symmetry_equiv_pos_as_xyz
  1  'x, y, z'
loop_
 _atom_site_type_symbol
 _atom_site_label
 _atom_site_symmetry_multiplicity
 _atom_site_fract_x
 _atom_site_fract_y
 _atom_site_fract_z
 _atom_site_occupancy
  Y  Y0  1  0.599186  0.198993  0.600910  1
  Y  Y1  1  0.198993  0.599186  0.600910  1
  Y  Y2  1  0.061770  0.439846  0.437799  1
  Y  Y3  1  0.439846  0.061770  0.060585  1
  Y  Y4  1  0.439846  0.061770  0.437799  1
  Y  Y5  1  0.061770  0.439846  0.060585  1
  Y  Y6  1  0.439093  0.439093  0.060907  1
  Y  Y7  1  0.061692  0.061692  0.438308  1
  Y  Y8  1  0.187023  0.814055  0.815637  1
  Y  Y9  1  0.814055  0.187023  0.183285  1
  Y  Y10  1  0.814055  0.187023  0.815637  1
  Y  Y11  1  0.187023  0.814055  0.183285  1
  Y  Y12  1  0.813867  0.813867  0.186133  1
  Y  Y13  1  0.185400  0.185400  0.814600  1
  Th  Th14  1  0.593692  0.593692  0.600385  1
  Th  Th15  1  0.593692  0.593692  0.212231  1
  Cd  Cd16  1  0.832490  0.832490  0.830119  1
  Cd  Cd17  1  0.832490  0.832490  0.504899  1
  Cd  Cd18  1  0.833039  0.504944  0.831008  1
  Cd  Cd19  1  0.504944  0.833039  0.831008  1
  Ni  Ni20  1  0.394680  0.394680  0.389981  1
  Ni  Ni21  1  0.394680  0.394680  0.820660  1
  Ni  Ni22  1  0.398641  0.818030  0.391665  1
  Ni  Ni23  1  0.818030  0.398641  0.391665  1
