# generated using pymatgen
data_TbDy4P12Ir6Ru13
_symmetry_space_group_name_H-M   'P 1'
_cell_length_a   12.58638200
_cell_length_b   12.54640062
_cell_length_c   3.97232000
_cell_angle_alpha   90.00000000
_cell_angle_beta   90.00000000
_cell_angle_gamma   119.84931199
_symmetry_Int_Tables_number   1
_chemical_formula_structural   TbDy4P12Ir6Ru13
_chemical_formula_sum   'Tb1 Dy4 P12 Ir6 Ru13'
_cell_volume   544.06697393
_cell_formula_units_Z   1
loop_
 _symmetry_equiv_pos_site_id
 _symmetry_equiv_pos_as_xyz
  1  'x, y, z'
loop_
 _atom_site_type_symbol
 _atom_site_label
 _atom_site_symmetry_multiplicity
 _atom_site_fract_x
 _atom_site_fract_y
 _atom_site_fract_z
 _atom_site_occupancy
  Tb  Tb0  1  0.666634  0.332939  0.000000  1
  Dy  Dy1  1  0.332963  0.666453  0.000000  1
  Dy  Dy2  1  0.813411  0.001539  0.500000  1
  Dy  Dy3  1  0.185846  0.186735  0.500000  1
  Dy  Dy4  1  0.000063  0.813314  0.500000  1
  P  P5  1  0.630200  0.003411  0.000000  1
  P  P6  1  0.372043  0.371607  0.000000  1
  P  P7  1  0.999880  0.628023  0.000000  1
  P  P8  1  0.688854  0.517864  0.500000  1
  P  P9  1  0.828516  0.307395  0.500000  1
  P  P10  1  0.312167  0.830303  0.500000  1
  P  P11  1  0.518248  0.687730  0.500000  1
  P  P12  1  0.181788  0.000617  0.000000  1
  P  P13  1  0.817045  0.818051  0.000000  1
  P  P14  1  0.997332  0.183366  0.000000  1
  P  P15  1  0.481435  0.168884  0.500000  1
  P  P16  1  0.170267  0.482146  0.500000  1
  Ir  Ir17  1  0.624520  0.808231  0.000000  1
  Ir  Ir18  1  0.184432  0.375322  0.000000  1
  Ir  Ir19  1  0.374766  0.182740  0.000000  1
  Ir  Ir20  1  0.191166  0.817414  0.000000  1
  Ir  Ir21  1  0.807903  0.624787  0.000000  1
  Ir  Ir22  1  0.999271  0.000407  0.000000  1
  Ru  Ru23  1  0.872901  0.509198  0.500000  1
  Ru  Ru24  1  0.490176  0.361710  0.500000  1
  Ru  Ru25  1  0.636012  0.124026  0.500000  1
  Ru  Ru26  1  0.128481  0.639044  0.500000  1
  Ru  Ru27  1  0.362309  0.489657  0.500000  1
  Ru  Ru28  1  0.509259  0.870551  0.500000  1
  Ru  Ru29  1  0.715788  0.715780  0.500000  1
  Ru  Ru30  1  0.002185  0.285520  0.500000  1
  Ru  Ru31  1  0.445806  0.997865  0.000000  1
  Ru  Ru32  1  0.552791  0.552321  0.000000  1
  Ru  Ru33  1  0.003395  0.449067  0.000000  1
  Ru  Ru34  1  0.818115  0.195887  0.000000  1
  Ru  Ru35  1  0.284032  0.000098  0.500000  1
