# generated using pymatgen
data_YbTmLu2(B4Ru)4
_symmetry_space_group_name_H-M   'P 1'
_cell_length_a   3.52513200
_cell_length_b   5.93299046
_cell_length_c   11.46169104
_cell_angle_alpha   89.92698455
_cell_angle_beta   90.00000000
_cell_angle_gamma   90.00000000
_symmetry_Int_Tables_number   1
_chemical_formula_structural   YbTmLu2(B4Ru)4
_chemical_formula_sum   'Yb1 Tm1 Lu2 B16 Ru4'
_cell_volume   239.71619695
_cell_formula_units_Z   1
loop_
 _symmetry_equiv_pos_site_id
 _symmetry_equiv_pos_as_xyz
  1  'x, y, z'
loop_
 _atom_site_type_symbol
 _atom_site_label
 _atom_site_symmetry_multiplicity
 _atom_site_fract_x
 _atom_site_fract_y
 _atom_site_fract_z
 _atom_site_occupancy
  Yb  Yb0  1  0.500000  0.870103  0.649610  1
  Tm  Tm1  1  0.500000  0.628537  0.149992  1
  Lu  Lu2  1  0.500000  0.370705  0.848958  1
  Lu  Lu3  1  0.500000  0.128828  0.351056  1
  B  B4  1  0.000000  0.976650  0.192831  1
  B  B5  1  0.000000  0.025160  0.808125  1
  B  B6  1  0.000000  0.475430  0.307619  1
  B  B7  1  0.000000  0.523282  0.692180  1
  B  B8  1  0.000000  0.791189  0.314468  1
  B  B9  1  0.000000  0.210928  0.685815  1
  B  B10  1  0.000000  0.290005  0.186220  1
  B  B11  1  0.000000  0.710300  0.814302  1
  B  B12  1  0.000000  0.864551  0.469202  1
  B  B13  1  0.000000  0.135129  0.529747  1
  B  B14  1  0.000000  0.364593  0.030255  1
  B  B15  1  0.000000  0.634778  0.970102  1
  B  B16  1  0.000000  0.887406  0.047548  1
  B  B17  1  0.000000  0.112810  0.952850  1
  B  B18  1  0.000000  0.386965  0.452708  1
  B  B19  1  0.000000  0.613073  0.546734  1
  Ru  Ru20  1  0.500000  0.640231  0.406632  1
  Ru  Ru21  1  0.500000  0.360015  0.591110  1
  Ru  Ru22  1  0.500000  0.141143  0.092951  1
  Ru  Ru23  1  0.500000  0.858193  0.908983  1
