# generated using pymatgen
data_Y2Lu2Re3Os5
_symmetry_space_group_name_H-M   'P 1'
_cell_length_a   5.32347691
_cell_length_b   5.33132250
_cell_length_c   8.89041801
_cell_angle_alpha   90.00000069
_cell_angle_beta   90.00476064
_cell_angle_gamma   120.04873872
_symmetry_Int_Tables_number   1
_chemical_formula_structural   Y2Lu2Re3Os5
_chemical_formula_sum   'Y2 Lu2 Re3 Os5'
_cell_volume   218.40855101
_cell_formula_units_Z   1
loop_
 _symmetry_equiv_pos_site_id
 _symmetry_equiv_pos_as_xyz
  1  'x, y, z'
loop_
 _atom_site_type_symbol
 _atom_site_label
 _atom_site_symmetry_multiplicity
 _atom_site_fract_x
 _atom_site_fract_y
 _atom_site_fract_z
 _atom_site_occupancy
  Y  Y0  1  0.337714  0.668857  0.434714  1
  Y  Y1  1  0.668434  0.334217  0.563640  1
  Lu  Lu2  1  0.668137  0.334068  0.937301  1
  Lu  Lu3  1  0.338135  0.669068  0.064122  1
  Re  Re4  1  0.163695  0.336453  0.752657  1
  Re  Re5  1  0.163695  0.827243  0.752657  1
  Re  Re6  1  0.332041  0.166021  0.247699  1
  Os  Os7  1  0.820488  0.649152  0.246981  1
  Os  Os8  1  0.644440  0.822220  0.753149  1
  Os  Os9  1  0.021791  0.010896  0.000985  1
  Os  Os10  1  0.820488  0.171334  0.246981  1
  Os  Os11  1  0.020940  0.010471  0.499114  1
