# generated using pymatgen
data_Er15Tm(ZrIr3)4
_symmetry_space_group_name_H-M   'P 1'
_cell_length_a   10.76913502
_cell_length_b   10.77084301
_cell_length_c   6.22574901
_cell_angle_alpha   90.00111984
_cell_angle_beta   89.99396477
_cell_angle_gamma   89.99633991
_symmetry_Int_Tables_number   1
_chemical_formula_structural   Er15Tm(ZrIr3)4
_chemical_formula_sum   'Er15 Tm1 Zr4 Ir12'
_cell_volume   722.14119870
_cell_formula_units_Z   1
loop_
 _symmetry_equiv_pos_site_id
 _symmetry_equiv_pos_as_xyz
  1  'x, y, z'
loop_
 _atom_site_type_symbol
 _atom_site_label
 _atom_site_symmetry_multiplicity
 _atom_site_fract_x
 _atom_site_fract_y
 _atom_site_fract_z
 _atom_site_occupancy
  Er  Er0  1  0.290207  0.913212  0.873331  1
  Er  Er1  1  0.709823  0.086829  0.873265  1
  Er  Er2  1  0.709787  0.913091  0.373355  1
  Er  Er3  1  0.586923  0.790248  0.873288  1
  Er  Er4  1  0.586762  0.209714  0.373286  1
  Er  Er5  1  0.413035  0.790353  0.373245  1
  Er  Er6  1  0.413037  0.209691  0.873287  1
  Er  Er7  1  0.209769  0.413091  0.626693  1
  Er  Er8  1  0.209748  0.586920  0.126725  1
  Er  Er9  1  0.790233  0.413105  0.126724  1
  Er  Er10  1  0.790222  0.586935  0.626731  1
  Er  Er11  1  0.913097  0.709818  0.126659  1
  Er  Er12  1  0.913102  0.290205  0.626733  1
  Er  Er13  1  0.086869  0.709823  0.626682  1
  Er  Er14  1  0.086982  0.290099  0.126843  1
  Tm  Tm15  1  0.290400  0.086763  0.373505  1
  Zr  Zr16  1  0.000208  0.000090  0.499876  1
  Zr  Zr17  1  0.000035  0.000028  0.999975  1
  Zr  Zr18  1  0.499968  0.499983  0.000013  1
  Zr  Zr19  1  0.499982  0.500010  0.499962  1
  Ir  Ir20  1  0.853386  0.146585  0.249984  1
  Ir  Ir21  1  0.853433  0.853415  0.750019  1
  Ir  Ir22  1  0.146783  0.146491  0.749579  1
  Ir  Ir23  1  0.146716  0.853600  0.250116  1
  Ir  Ir24  1  0.646578  0.353391  0.750012  1
  Ir  Ir25  1  0.646599  0.646581  0.250007  1
  Ir  Ir26  1  0.353353  0.353156  0.250136  1
  Ir  Ir27  1  0.353410  0.646582  0.750003  1
  Ir  Ir28  1  0.499781  0.000102  0.120824  1
  Ir  Ir29  1  0.499758  0.000120  0.620391  1
  Ir  Ir30  1  0.000005  0.499997  0.879377  1
  Ir  Ir31  1  0.000011  0.499972  0.379375  1
