# generated using pymatgen
data_Tb16Hg4PdRu3
_symmetry_space_group_name_H-M   'P 1'
_cell_length_a   9.63957699
_cell_length_b   9.63957747
_cell_length_c   9.63957711
_cell_angle_alpha   59.95006393
_cell_angle_beta   59.95006256
_cell_angle_gamma   59.95006898
_symmetry_Int_Tables_number   1
_chemical_formula_structural   Tb16Hg4PdRu3
_chemical_formula_sum   'Tb16 Hg4 Pd1 Ru3'
_cell_volume   632.65484780
_cell_formula_units_Z   1
loop_
 _symmetry_equiv_pos_site_id
 _symmetry_equiv_pos_as_xyz
  1  'x, y, z'
loop_
 _atom_site_type_symbol
 _atom_site_label
 _atom_site_symmetry_multiplicity
 _atom_site_fract_x
 _atom_site_fract_y
 _atom_site_fract_z
 _atom_site_occupancy
  Tb  Tb0  1  0.598584  0.598584  0.598584  1
  Tb  Tb1  1  0.604133  0.604133  0.196359  1
  Tb  Tb2  1  0.604133  0.196359  0.604133  1
  Tb  Tb3  1  0.196359  0.604133  0.604133  1
  Tb  Tb4  1  0.052808  0.440895  0.440895  1
  Tb  Tb5  1  0.438517  0.059857  0.059857  1
  Tb  Tb6  1  0.440895  0.052808  0.440895  1
  Tb  Tb7  1  0.059857  0.438517  0.059857  1
  Tb  Tb8  1  0.440895  0.440895  0.052808  1
  Tb  Tb9  1  0.059857  0.059857  0.438517  1
  Tb  Tb10  1  0.188957  0.811892  0.811892  1
  Tb  Tb11  1  0.815266  0.187992  0.187992  1
  Tb  Tb12  1  0.811892  0.188957  0.811892  1
  Tb  Tb13  1  0.187992  0.815266  0.187992  1
  Tb  Tb14  1  0.811892  0.811892  0.188957  1
  Tb  Tb15  1  0.187992  0.187992  0.815266  1
  Hg  Hg16  1  0.834157  0.834157  0.834157  1
  Hg  Hg17  1  0.833924  0.833924  0.497178  1
  Hg  Hg18  1  0.833924  0.497178  0.833924  1
  Hg  Hg19  1  0.497178  0.833924  0.833924  1
  Pd  Pd20  1  0.391735  0.391735  0.391735  1
  Ru  Ru21  1  0.390846  0.390846  0.827365  1
  Ru  Ru22  1  0.390846  0.827365  0.390846  1
  Ru  Ru23  1  0.827365  0.390846  0.390846  1
