# generated using pymatgen
data_Nd2PaSn3PtRh2
_symmetry_space_group_name_H-M   'P 1'
_cell_length_a   7.54839077
_cell_length_b   7.61994762
_cell_length_c   4.06847100
_cell_angle_alpha   90.00000000
_cell_angle_beta   90.00000000
_cell_angle_gamma   120.08282434
_symmetry_Int_Tables_number   1
_chemical_formula_structural   Nd2PaSn3PtRh2
_chemical_formula_sum   'Nd2 Pa1 Sn3 Pt1 Rh2'
_cell_volume   202.49073300
_cell_formula_units_Z   1
loop_
 _symmetry_equiv_pos_site_id
 _symmetry_equiv_pos_as_xyz
  1  'x, y, z'
loop_
 _atom_site_type_symbol
 _atom_site_label
 _atom_site_symmetry_multiplicity
 _atom_site_fract_x
 _atom_site_fract_y
 _atom_site_fract_z
 _atom_site_occupancy
  Nd  Nd0  1  0.409424  0.410581  0.000000  1
  Nd  Nd1  1  0.589161  0.999161  0.000000  1
  Pa  Pa2  1  0.008824  0.591665  0.000000  1
  Sn  Sn3  1  0.738724  0.749601  0.500000  1
  Sn  Sn4  1  0.003499  0.242551  0.500000  1
  Sn  Sn5  1  0.259297  0.007465  0.500000  1
  Pt  Pt6  1  0.696617  0.359645  0.500000  1
  Rh  Rh7  1  0.998915  0.977116  0.000000  1
  Rh  Rh8  1  0.295539  0.662216  0.500000  1
