# generated using pymatgen
data_Y3Th(CBr)2
_symmetry_space_group_name_H-M   'P 1'
_cell_length_a   3.70118900
_cell_length_b   3.70118765
_cell_length_c   14.58979100
_cell_angle_alpha   90.00000000
_cell_angle_beta   90.00000000
_cell_angle_gamma   119.99998529
_symmetry_Int_Tables_number   1
_chemical_formula_structural   Y3Th(CBr)2
_chemical_formula_sum   'Y3 Th1 C2 Br2'
_cell_volume   173.08607641
_cell_formula_units_Z   1
loop_
 _symmetry_equiv_pos_site_id
 _symmetry_equiv_pos_as_xyz
  1  'x, y, z'
loop_
 _atom_site_type_symbol
 _atom_site_label
 _atom_site_symmetry_multiplicity
 _atom_site_fract_x
 _atom_site_fract_y
 _atom_site_fract_z
 _atom_site_occupancy
  Y  Y0  1  0.666667  0.333333  0.404551  1
  Y  Y1  1  0.666667  0.333333  0.089182  1
  Y  Y2  1  0.333333  0.666667  0.914471  1
  Th  Th3  1  0.333333  0.666667  0.589762  1
  C  C4  1  0.000000  0.000000  0.002512  1
  C  C5  1  0.000000  0.000000  0.489643  1
  Br  Br6  1  0.333333  0.666667  0.248307  1
  Br  Br7  1  0.666667  0.333333  0.761572  1
