# generated using pymatgen
data_Mn2Nb4CrNiP4
_symmetry_space_group_name_H-M   'P 1'
_cell_length_a   3.60720600
_cell_length_b   6.18327501
_cell_length_c   7.13969212
_cell_angle_alpha   90.09856391
_cell_angle_beta   90.00000000
_cell_angle_gamma   90.00000000
_symmetry_Int_Tables_number   1
_chemical_formula_structural   Mn2Nb4CrNiP4
_chemical_formula_sum   'Mn2 Nb4 Cr1 Ni1 P4'
_cell_volume   159.24593280
_cell_formula_units_Z   1
loop_
 _symmetry_equiv_pos_site_id
 _symmetry_equiv_pos_as_xyz
  1  'x, y, z'
loop_
 _atom_site_type_symbol
 _atom_site_label
 _atom_site_symmetry_multiplicity
 _atom_site_fract_x
 _atom_site_fract_y
 _atom_site_fract_z
 _atom_site_occupancy
  Mn  Mn0  1  0.250000  0.137302  0.442871  1
  Mn  Mn1  1  0.250000  0.642881  0.057944  1
  Nb  Nb2  1  0.250000  0.523645  0.674574  1
  Nb  Nb3  1  0.750000  0.473927  0.324999  1
  Nb  Nb4  1  0.250000  0.033120  0.825843  1
  Nb  Nb5  1  0.750000  0.975658  0.173412  1
  Cr  Cr6  1  0.750000  0.353653  0.936787  1
  Ni  Ni7  1  0.750000  0.853790  0.563491  1
  P  P8  1  0.250000  0.276196  0.132349  1
  P  P9  1  0.750000  0.727461  0.880031  1
  P  P10  1  0.250000  0.775748  0.371152  1
  P  P11  1  0.750000  0.226622  0.616548  1
