# generated using pymatgen
data_Y10CdHg2Rh
_symmetry_space_group_name_H-M   'P 1'
_cell_length_a   9.71519745
_cell_length_b   9.71519688
_cell_length_c   9.71412400
_cell_angle_alpha   90.00000000
_cell_angle_beta   90.00000000
_cell_angle_gamma   119.93730375
_symmetry_Int_Tables_number   1
_chemical_formula_structural   Y10CdHg2Rh
_chemical_formula_sum   'Y20 Cd2 Hg4 Rh2'
_cell_volume   794.53226812
_cell_formula_units_Z   2
loop_
 _symmetry_equiv_pos_site_id
 _symmetry_equiv_pos_as_xyz
  1  'x, y, z'
loop_
 _atom_site_type_symbol
 _atom_site_label
 _atom_site_symmetry_multiplicity
 _atom_site_fract_x
 _atom_site_fract_y
 _atom_site_fract_z
 _atom_site_occupancy
  Y  Y0  1  0.001490  0.998510  0.492773  1
  Y  Y1  1  0.001490  0.998510  0.007227  1
  Y  Y2  1  0.208785  0.791215  0.438193  1
  Y  Y3  1  0.208472  0.417393  0.439139  1
  Y  Y4  1  0.582607  0.791528  0.439139  1
  Y  Y5  1  0.791433  0.208567  0.560613  1
  Y  Y6  1  0.790482  0.582253  0.560472  1
  Y  Y7  1  0.417747  0.209518  0.560472  1
  Y  Y8  1  0.791433  0.208567  0.939387  1
  Y  Y9  1  0.790482  0.582253  0.939528  1
  Y  Y10  1  0.417747  0.209518  0.939528  1
  Y  Y11  1  0.208785  0.791215  0.061807  1
  Y  Y12  1  0.208472  0.417393  0.060861  1
  Y  Y13  1  0.582607  0.791528  0.060861  1
  Y  Y14  1  0.541861  0.458139  0.250000  1
  Y  Y15  1  0.542179  0.084012  0.250000  1
  Y  Y16  1  0.915988  0.457821  0.250000  1
  Y  Y17  1  0.457512  0.542488  0.750000  1
  Y  Y18  1  0.455084  0.916176  0.750000  1
  Y  Y19  1  0.083824  0.544916  0.750000  1
  Cd  Cd20  1  0.114432  0.230661  0.750000  1
  Cd  Cd21  1  0.769339  0.885568  0.750000  1
  Hg  Hg22  1  0.879324  0.120676  0.250000  1
  Hg  Hg23  1  0.879320  0.757466  0.250000  1
  Hg  Hg24  1  0.242534  0.120680  0.250000  1
  Hg  Hg25  1  0.116677  0.883323  0.750000  1
  Rh  Rh26  1  0.333560  0.666440  0.250000  1
  Rh  Rh27  1  0.666332  0.333668  0.750000  1
