# generated using pymatgen
data_Dy3Ho(AlGa2)2
_symmetry_space_group_name_H-M   'P 1'
_cell_length_a   6.99665673
_cell_length_b   6.99665673
_cell_length_c   4.47205900
_cell_angle_alpha   90.00000000
_cell_angle_beta   90.00000000
_cell_angle_gamma   90.08051448
_symmetry_Int_Tables_number   1
_chemical_formula_structural   Dy3Ho(AlGa2)2
_chemical_formula_sum   'Dy3 Ho1 Al2 Ga4'
_cell_volume   218.92140644
_cell_formula_units_Z   1
loop_
 _symmetry_equiv_pos_site_id
 _symmetry_equiv_pos_as_xyz
  1  'x, y, z'
loop_
 _atom_site_type_symbol
 _atom_site_label
 _atom_site_symmetry_multiplicity
 _atom_site_fract_x
 _atom_site_fract_y
 _atom_site_fract_z
 _atom_site_occupancy
  Dy  Dy0  1  0.826448  0.673684  0.500000  1
  Dy  Dy1  1  0.173684  0.326448  0.500000  1
  Dy  Dy2  1  0.673435  0.173435  0.500000  1
  Ho  Ho3  1  0.326382  0.826382  0.500000  1
  Al  Al4  1  0.499948  0.500084  0.000000  1
  Al  Al5  1  0.000084  0.999948  0.000000  1
  Ga  Ga6  1  0.869270  0.369270  0.000000  1
  Ga  Ga7  1  0.369150  0.130543  0.000000  1
  Ga  Ga8  1  0.131056  0.631056  0.000000  1
  Ga  Ga9  1  0.630543  0.869150  0.000000  1
