# generated using pymatgen
data_Ta4Ti9MoP8
_symmetry_space_group_name_H-M   'P 1'
_cell_length_a   7.57852014
_cell_length_b   7.57852146
_cell_length_c   13.64745556
_cell_angle_alpha   75.95016299
_cell_angle_beta   75.95016012
_cell_angle_gamma   25.94744954
_symmetry_Int_Tables_number   1
_chemical_formula_structural   Ta4Ti9MoP8
_chemical_formula_sum   'Ta4 Ti9 Mo1 P8'
_cell_volume   332.14800912
_cell_formula_units_Z   1
loop_
 _symmetry_equiv_pos_site_id
 _symmetry_equiv_pos_as_xyz
  1  'x, y, z'
loop_
 _atom_site_type_symbol
 _atom_site_label
 _atom_site_symmetry_multiplicity
 _atom_site_fract_x
 _atom_site_fract_y
 _atom_site_fract_z
 _atom_site_occupancy
  Ta  Ta0  1  0.999332  0.999332  0.000912  1
  Ta  Ta1  1  0.427704  0.427704  0.174971  1
  Ta  Ta2  1  0.571625  0.571625  0.827071  1
  Ta  Ta3  1  0.197827  0.197827  0.687853  1
  Ti  Ti4  1  0.802104  0.802104  0.311036  1
  Ti  Ti5  1  0.207421  0.207421  0.206941  1
  Ti  Ti6  1  0.792952  0.792952  0.794278  1
  Ti  Ti7  1  0.339200  0.339200  0.969403  1
  Ti  Ti8  1  0.660661  0.660661  0.031265  1
  Ti  Ti9  1  0.003982  0.003982  0.339490  1
  Ti  Ti10  1  0.995916  0.995916  0.661443  1
  Ti  Ti11  1  0.176569  0.176569  0.458607  1
  Ti  Ti12  1  0.824331  0.824331  0.539304  1
  Mo  Mo13  1  0.499761  0.499761  0.499391  1
  P  P14  1  0.180176  0.180176  0.891025  1
  P  P15  1  0.819799  0.819799  0.111234  1
  P  P16  1  0.373715  0.373715  0.394852  1
  P  P17  1  0.625064  0.625064  0.599904  1
  P  P18  1  0.371743  0.371743  0.659361  1
  P  P19  1  0.630563  0.630563  0.340425  1
  P  P20  1  0.064030  0.064030  0.154458  1
  P  P21  1  0.935525  0.935525  0.846776  1
