# generated using pymatgen
data_NdY4Bi2Te
_symmetry_space_group_name_H-M   'P 1'
_cell_length_a   12.49211200
_cell_length_b   9.46242600
_cell_length_c   8.38103000
_cell_angle_alpha   90.00000000
_cell_angle_beta   90.00000000
_cell_angle_gamma   90.00000000
_symmetry_Int_Tables_number   1
_chemical_formula_structural   NdY4Bi2Te
_chemical_formula_sum   'Nd4 Y16 Bi8 Te4'
_cell_volume   990.68539537
_cell_formula_units_Z   4
loop_
 _symmetry_equiv_pos_site_id
 _symmetry_equiv_pos_as_xyz
  1  'x, y, z'
loop_
 _atom_site_type_symbol
 _atom_site_label
 _atom_site_symmetry_multiplicity
 _atom_site_fract_x
 _atom_site_fract_y
 _atom_site_fract_z
 _atom_site_occupancy
  Nd  Nd0  1  0.719208  0.250000  0.660617  1
  Nd  Nd1  1  0.219208  0.250000  0.839383  1
  Nd  Nd2  1  0.280792  0.750000  0.339383  1
  Nd  Nd3  1  0.780792  0.750000  0.160617  1
  Y  Y4  1  0.564186  0.061709  0.314802  1
  Y  Y5  1  0.064186  0.438291  0.185198  1
  Y  Y6  1  0.435814  0.561709  0.685198  1
  Y  Y7  1  0.935814  0.938291  0.814802  1
  Y  Y8  1  0.435814  0.938291  0.685198  1
  Y  Y9  1  0.935814  0.561709  0.814802  1
  Y  Y10  1  0.564186  0.438291  0.314802  1
  Y  Y11  1  0.064186  0.061709  0.185198  1
  Y  Y12  1  0.501672  0.250000  0.976774  1
  Y  Y13  1  0.001672  0.250000  0.523226  1
  Y  Y14  1  0.498328  0.750000  0.023226  1
  Y  Y15  1  0.998328  0.750000  0.476774  1
  Y  Y16  1  0.789925  0.250000  0.154184  1
  Y  Y17  1  0.289925  0.250000  0.345816  1
  Y  Y18  1  0.210075  0.750000  0.845816  1
  Y  Y19  1  0.710075  0.750000  0.654184  1
  Bi  Bi20  1  0.829996  0.006697  0.427990  1
  Bi  Bi21  1  0.329996  0.493303  0.072010  1
  Bi  Bi22  1  0.170004  0.506697  0.572010  1
  Bi  Bi23  1  0.670004  0.993303  0.927990  1
  Bi  Bi24  1  0.170004  0.993303  0.572010  1
  Bi  Bi25  1  0.670004  0.506697  0.927990  1
  Bi  Bi26  1  0.829996  0.493303  0.427990  1
  Bi  Bi27  1  0.329996  0.006697  0.072010  1
  Te  Te28  1  0.970516  0.250000  0.902988  1
  Te  Te29  1  0.470516  0.250000  0.597012  1
  Te  Te30  1  0.029484  0.750000  0.097012  1
  Te  Te31  1  0.529484  0.750000  0.402988  1
