# generated using pymatgen
data_Tb4RuRh3F28
_symmetry_space_group_name_H-M   'P 1'
_cell_length_a   5.57387819
_cell_length_b   8.92169442
_cell_length_c   11.98460056
_cell_angle_alpha   62.46039326
_cell_angle_beta   89.73444806
_cell_angle_gamma   90.14513481
_symmetry_Int_Tables_number   1
_chemical_formula_structural   Tb4RuRh3F28
_chemical_formula_sum   'Tb4 Ru1 Rh3 F28'
_cell_volume   528.43331285
_cell_formula_units_Z   1
loop_
 _symmetry_equiv_pos_site_id
 _symmetry_equiv_pos_as_xyz
  1  'x, y, z'
loop_
 _atom_site_type_symbol
 _atom_site_label
 _atom_site_symmetry_multiplicity
 _atom_site_fract_x
 _atom_site_fract_y
 _atom_site_fract_z
 _atom_site_occupancy
  Tb  Tb0  1  0.258340  0.813122  0.270978  1
  Tb  Tb1  1  0.738830  0.193869  0.729476  1
  Tb  Tb2  1  0.758999  0.182359  0.237338  1
  Tb  Tb3  1  0.236712  0.815143  0.756353  1
  Ru  Ru4  1  0.758389  0.725315  0.044501  1
  Rh  Rh5  1  0.242278  0.272212  0.957728  1
  Rh  Rh6  1  0.255810  0.276161  0.453874  1
  Rh  Rh7  1  0.741398  0.728010  0.542438  1
  F  F8  1  0.935323  0.707045  0.413468  1
  F  F9  1  0.054972  0.296135  0.580740  1
  F  F10  1  0.446521  0.292043  0.082620  1
  F  F11  1  0.564881  0.703532  0.922199  1
  F  F12  1  0.474742  0.727965  0.135019  1
  F  F13  1  0.526645  0.266434  0.862480  1
  F  F14  1  0.970065  0.274246  0.359895  1
  F  F15  1  0.032591  0.730077  0.632516  1
  F  F16  1  0.950061  0.742643  0.171320  1
  F  F17  1  0.042223  0.251771  0.830704  1
  F  F18  1  0.453916  0.258144  0.324737  1
  F  F19  1  0.554310  0.747180  0.674551  1
  F  F20  1  0.770187  0.484815  0.139745  1
  F  F21  1  0.232729  0.520027  0.860439  1
  F  F22  1  0.268925  0.522575  0.354891  1
  F  F23  1  0.730170  0.483861  0.640045  1
  F  F24  1  0.950869  0.281694  0.047944  1
  F  F25  1  0.049403  0.719430  0.958261  1
  F  F26  1  0.442284  0.720155  0.458540  1
  F  F27  1  0.548399  0.283999  0.542135  1
  F  F28  1  0.739376  0.972425  0.449219  1
  F  F29  1  0.255409  0.030090  0.548319  1
  F  F30  1  0.239665  0.025346  0.054936  1
  F  F31  1  0.756151  0.965137  0.953311  1
  F  F32  1  0.590998  0.963890  0.231863  1
  F  F33  1  0.423034  0.022904  0.769442  1
  F  F34  1  0.088986  0.030113  0.273094  1
  F  F35  1  0.916412  0.970130  0.734881  1
