# generated using pymatgen
data_Li3Tb3Ir2Pd
_symmetry_space_group_name_H-M   'P 1'
_cell_length_a   7.18458300
_cell_length_b   7.18458328
_cell_length_c   3.92868000
_cell_angle_alpha   90.00000000
_cell_angle_beta   90.00000000
_cell_angle_gamma   119.99999413
_symmetry_Int_Tables_number   1
_chemical_formula_structural   Li3Tb3Ir2Pd
_chemical_formula_sum   'Li3 Tb3 Ir2 Pd1'
_cell_volume   175.62262439
_cell_formula_units_Z   1
loop_
 _symmetry_equiv_pos_site_id
 _symmetry_equiv_pos_as_xyz
  1  'x, y, z'
loop_
 _atom_site_type_symbol
 _atom_site_label
 _atom_site_symmetry_multiplicity
 _atom_site_fract_x
 _atom_site_fract_y
 _atom_site_fract_z
 _atom_site_occupancy
  Li  Li0  1  0.000000  0.760012  0.500000  1
  Li  Li1  1  0.239988  0.239988  0.500000  1
  Li  Li2  1  0.760012  0.000000  0.500000  1
  Tb  Tb3  1  0.000000  0.419175  0.000000  1
  Tb  Tb4  1  0.580825  0.580825  0.000000  1
  Tb  Tb5  1  0.419175  0.000000  0.000000  1
  Ir  Ir6  1  0.333333  0.666667  0.500000  1
  Ir  Ir7  1  0.666667  0.333333  0.500000  1
  Pd  Pd8  1  0.000000  0.000000  0.000000  1
