# generated using pymatgen
data_Hf4Al4V3Pd
_symmetry_space_group_name_H-M   'P 1'
_cell_length_a   5.22198138
_cell_length_b   5.22198139
_cell_length_c   8.64538800
_cell_angle_alpha   90.00000000
_cell_angle_beta   90.00000000
_cell_angle_gamma   119.26655560
_symmetry_Int_Tables_number   1
_chemical_formula_structural   Hf4Al4V3Pd
_chemical_formula_sum   'Hf4 Al4 V3 Pd1'
_cell_volume   205.65926284
_cell_formula_units_Z   1
loop_
 _symmetry_equiv_pos_site_id
 _symmetry_equiv_pos_as_xyz
  1  'x, y, z'
loop_
 _atom_site_type_symbol
 _atom_site_label
 _atom_site_symmetry_multiplicity
 _atom_site_fract_x
 _atom_site_fract_y
 _atom_site_fract_z
 _atom_site_occupancy
  Hf  Hf0  1  0.665361  0.334639  0.303860  1
  Hf  Hf1  1  0.332743  0.667257  0.175699  1
  Hf  Hf2  1  0.332743  0.667257  0.824301  1
  Hf  Hf3  1  0.665361  0.334639  0.696140  1
  Al  Al4  1  0.002368  0.997632  0.245795  1
  Al  Al5  1  0.002368  0.997632  0.754205  1
  Al  Al6  1  0.654070  0.831941  0.500000  1
  Al  Al7  1  0.168059  0.345930  0.500000  1
  V  V8  1  0.359422  0.171320  0.000000  1
  V  V9  1  0.828680  0.640578  0.000000  1
  V  V10  1  0.822908  0.177092  0.000000  1
  Pd  Pd11  1  0.165769  0.834231  0.500000  1
