# generated using pymatgen
data_CaPr5(HfBi5)2
_symmetry_space_group_name_H-M   'P 1'
_cell_length_a   9.79475712
_cell_length_b   9.79475577
_cell_length_c   6.56159700
_cell_angle_alpha   90.00000000
_cell_angle_beta   90.00000000
_cell_angle_gamma   120.19456605
_symmetry_Int_Tables_number   1
_chemical_formula_structural   CaPr5(HfBi5)2
_chemical_formula_sum   'Ca1 Pr5 Hf2 Bi10'
_cell_volume   544.09239706
_cell_formula_units_Z   1
loop_
 _symmetry_equiv_pos_site_id
 _symmetry_equiv_pos_as_xyz
  1  'x, y, z'
loop_
 _atom_site_type_symbol
 _atom_site_label
 _atom_site_symmetry_multiplicity
 _atom_site_fract_x
 _atom_site_fract_y
 _atom_site_fract_z
 _atom_site_occupancy
  Ca  Ca0  1  0.619552  0.619552  0.750000  1
  Pr  Pr1  1  0.382003  0.999996  0.750000  1
  Pr  Pr2  1  0.619125  0.999613  0.250000  1
  Pr  Pr3  1  0.999996  0.382003  0.750000  1
  Pr  Pr4  1  0.383747  0.383747  0.250000  1
  Pr  Pr5  1  0.999613  0.619125  0.250000  1
  Hf  Hf6  1  0.999137  0.999137  0.998484  1
  Hf  Hf7  1  0.999137  0.999137  0.501516  1
  Bi  Bi8  1  0.262529  0.000205  0.250000  1
  Bi  Bi9  1  0.000205  0.262529  0.250000  1
  Bi  Bi10  1  0.998719  0.737212  0.750000  1
  Bi  Bi11  1  0.332702  0.666183  0.499738  1
  Bi  Bi12  1  0.332702  0.666183  0.000262  1
  Bi  Bi13  1  0.262827  0.262827  0.750000  1
  Bi  Bi14  1  0.666183  0.332702  0.499738  1
  Bi  Bi15  1  0.738425  0.738425  0.250000  1
  Bi  Bi16  1  0.737212  0.998719  0.750000  1
  Bi  Bi17  1  0.666183  0.332702  0.000262  1
