# generated using pymatgen
data_Ba3Tm2(PS4)4
_symmetry_space_group_name_H-M   'P 1'
_cell_length_a   10.39632400
_cell_length_b   12.72353600
_cell_length_c   19.42011800
_cell_angle_alpha   90.00000000
_cell_angle_beta   90.00000000
_cell_angle_gamma   90.00000000
_symmetry_Int_Tables_number   1
_chemical_formula_structural   Ba3Tm2(PS4)4
_chemical_formula_sum   'Ba12 Tm8 P16 S64'
_cell_volume   2568.85442088
_cell_formula_units_Z   4
loop_
 _symmetry_equiv_pos_site_id
 _symmetry_equiv_pos_as_xyz
  1  'x, y, z'
loop_
 _atom_site_type_symbol
 _atom_site_label
 _atom_site_symmetry_multiplicity
 _atom_site_fract_x
 _atom_site_fract_y
 _atom_site_fract_z
 _atom_site_occupancy
  Ba  Ba0  1  0.382897  0.750000  0.500000  1
  Ba  Ba1  1  0.882897  0.750000  0.000000  1
  Ba  Ba2  1  0.789464  0.391160  0.772848  1
  Ba  Ba3  1  0.617103  0.250000  0.500000  1
  Ba  Ba4  1  0.789464  0.108840  0.227152  1
  Ba  Ba5  1  0.710536  0.608840  0.272848  1
  Ba  Ba6  1  0.210536  0.608840  0.227152  1
  Ba  Ba7  1  0.210536  0.891160  0.772848  1
  Ba  Ba8  1  0.289464  0.108840  0.272848  1
  Ba  Ba9  1  0.289464  0.391160  0.727152  1
  Ba  Ba10  1  0.710536  0.891160  0.727152  1
  Ba  Ba11  1  0.117103  0.250000  0.000000  1
  Tm  Tm12  1  0.371170  0.612562  0.926558  1
  Tm  Tm13  1  0.628830  0.112562  0.926558  1
  Tm  Tm14  1  0.871170  0.887438  0.426558  1
  Tm  Tm15  1  0.128830  0.112562  0.573442  1
  Tm  Tm16  1  0.128830  0.387438  0.426558  1
  Tm  Tm17  1  0.371170  0.887438  0.073442  1
  Tm  Tm18  1  0.871170  0.612562  0.573442  1
  Tm  Tm19  1  0.628830  0.387438  0.073442  1
  P  P20  1  0.004509  0.860024  0.601592  1
  P  P21  1  0.436200  0.451612  0.369117  1
  P  P22  1  0.936200  0.048388  0.869117  1
  P  P23  1  0.995491  0.139976  0.398408  1
  P  P24  1  0.563800  0.548388  0.630883  1
  P  P25  1  0.436200  0.048388  0.630883  1
  P  P26  1  0.063800  0.951612  0.130883  1
  P  P27  1  0.495491  0.139976  0.101592  1
  P  P28  1  0.936200  0.451612  0.130883  1
  P  P29  1  0.995491  0.360024  0.601592  1
  P  P30  1  0.063800  0.548388  0.869117  1
  P  P31  1  0.504509  0.639976  0.101592  1
  P  P32  1  0.563800  0.951612  0.369117  1
  P  P33  1  0.504509  0.860024  0.898408  1
  P  P34  1  0.004509  0.639976  0.398408  1
  P  P35  1  0.495491  0.360024  0.898408  1
  S  S36  1  0.064655  0.729534  0.650039  1
  S  S37  1  0.069963  0.387664  0.852762  1
  S  S38  1  0.930037  0.612336  0.147238  1
  S  S39  1  0.003320  0.014359  0.333534  1
  S  S40  1  0.569963  0.112336  0.352762  1
  S  S41  1  0.388635  0.402558  0.983769  1
  S  S42  1  0.789296  0.113828  0.809593  1
  S  S43  1  0.179193  0.170991  0.432572  1
  S  S44  1  0.564655  0.729534  0.849961  1
  S  S45  1  0.496680  0.985641  0.833534  1
  S  S46  1  0.888635  0.402558  0.516231  1
  S  S47  1  0.385665  0.605437  0.649498  1
  S  S48  1  0.435345  0.270466  0.150039  1
  S  S49  1  0.679193  0.329009  0.932572  1
  S  S50  1  0.877824  0.085195  0.967504  1
  S  S51  1  0.611365  0.597442  0.016231  1
  S  S52  1  0.710704  0.613828  0.690407  1
  S  S53  1  0.377824  0.414805  0.467504  1
  S  S54  1  0.496680  0.514359  0.166466  1
  S  S55  1  0.430037  0.887664  0.647238  1
  S  S56  1  0.888635  0.097442  0.483769  1
  S  S57  1  0.930037  0.887664  0.852762  1
  S  S58  1  0.289296  0.113828  0.690407  1
  S  S59  1  0.114335  0.394563  0.149498  1
  S  S60  1  0.622176  0.914805  0.467504  1
  S  S61  1  0.377824  0.085195  0.532496  1
  S  S62  1  0.388635  0.097442  0.016231  1
  S  S63  1  0.289296  0.386172  0.309593  1
  S  S64  1  0.877824  0.414805  0.032496  1
  S  S65  1  0.320807  0.670991  0.067428  1
  S  S66  1  0.385665  0.894563  0.350502  1
  S  S67  1  0.122176  0.914805  0.032496  1
  S  S68  1  0.069963  0.112336  0.147238  1
  S  S69  1  0.614335  0.394563  0.350502  1
  S  S70  1  0.122176  0.585195  0.967504  1
  S  S71  1  0.996680  0.985641  0.666466  1
  S  S72  1  0.885665  0.605437  0.850502  1
  S  S73  1  0.885665  0.894563  0.149498  1
  S  S74  1  0.820807  0.670991  0.432572  1
  S  S75  1  0.564655  0.770466  0.150039  1
  S  S76  1  0.320807  0.829009  0.932572  1
  S  S77  1  0.430037  0.612336  0.352762  1
  S  S78  1  0.611365  0.902558  0.983769  1
  S  S79  1  0.679193  0.170991  0.067428  1
  S  S80  1  0.820807  0.829009  0.567428  1
  S  S81  1  0.111365  0.902558  0.516231  1
  S  S82  1  0.210704  0.886172  0.190407  1
  S  S83  1  0.503320  0.485641  0.833534  1
  S  S84  1  0.935345  0.229534  0.650039  1
  S  S85  1  0.789296  0.386172  0.190407  1
  S  S86  1  0.064655  0.770466  0.349961  1
  S  S87  1  0.179193  0.329009  0.567428  1
  S  S88  1  0.003320  0.485641  0.666466  1
  S  S89  1  0.114335  0.105437  0.850502  1
  S  S90  1  0.111365  0.597442  0.483769  1
  S  S91  1  0.710704  0.886172  0.309593  1
  S  S92  1  0.996680  0.514359  0.333534  1
  S  S93  1  0.935345  0.270466  0.349961  1
  S  S94  1  0.569963  0.387664  0.647238  1
  S  S95  1  0.614335  0.105437  0.649498  1
  S  S96  1  0.435345  0.229534  0.849961  1
  S  S97  1  0.503320  0.014359  0.166466  1
  S  S98  1  0.210704  0.613828  0.809593  1
  S  S99  1  0.622176  0.585195  0.532496  1
