# generated using pymatgen
data_Ac(Nd2Ag3)2
_symmetry_space_group_name_H-M   'P 1'
_cell_length_a   17.45351599
_cell_length_b   17.45351541
_cell_length_c   4.18911400
_cell_angle_alpha   90.00000000
_cell_angle_beta   90.00000000
_cell_angle_gamma   166.28305630
_symmetry_Int_Tables_number   1
_chemical_formula_structural   Ac(Nd2Ag3)2
_chemical_formula_sum   'Ac1 Nd4 Ag6'
_cell_volume   302.59808895
_cell_formula_units_Z   1
loop_
 _symmetry_equiv_pos_site_id
 _symmetry_equiv_pos_as_xyz
  1  'x, y, z'
loop_
 _atom_site_type_symbol
 _atom_site_label
 _atom_site_symmetry_multiplicity
 _atom_site_fract_x
 _atom_site_fract_y
 _atom_site_fract_z
 _atom_site_occupancy
  Ac  Ac0  1  0.000000  0.000000  0.000000  1
  Nd  Nd1  1  0.623360  0.376638  0.000000  1
  Nd  Nd2  1  0.376638  0.623360  0.000000  1
  Nd  Nd3  1  0.807474  0.192524  0.500001  1
  Nd  Nd4  1  0.192524  0.807474  0.500001  1
  Ag  Ag5  1  0.722651  0.277347  0.000000  1
  Ag  Ag6  1  0.277347  0.722651  0.000000  1
  Ag  Ag7  1  0.905355  0.094644  0.500001  1
  Ag  Ag8  1  0.541779  0.458219  0.500001  1
  Ag  Ag9  1  0.458219  0.541779  0.500001  1
  Ag  Ag10  1  0.094644  0.905355  0.500001  1
