# generated using pymatgen
data_Dy3V(P3Rh4)2
_symmetry_space_group_name_H-M   'P 1'
_cell_length_a   3.90833300
_cell_length_b   11.19301200
_cell_length_c   12.79954700
_cell_angle_alpha   90.00000000
_cell_angle_beta   90.00000000
_cell_angle_gamma   90.00000000
_symmetry_Int_Tables_number   1
_chemical_formula_structural   Dy3V(P3Rh4)2
_chemical_formula_sum   'Dy6 V2 P12 Rh16'
_cell_volume   559.92921562
_cell_formula_units_Z   2
loop_
 _symmetry_equiv_pos_site_id
 _symmetry_equiv_pos_as_xyz
  1  'x, y, z'
loop_
 _atom_site_type_symbol
 _atom_site_label
 _atom_site_symmetry_multiplicity
 _atom_site_fract_x
 _atom_site_fract_y
 _atom_site_fract_z
 _atom_site_occupancy
  Dy  Dy0  1  0.000000  0.500000  0.519947  1
  Dy  Dy1  1  0.500000  0.000000  0.480053  1
  Dy  Dy2  1  0.500000  0.816732  0.201770  1
  Dy  Dy3  1  0.500000  0.183268  0.201770  1
  Dy  Dy4  1  0.000000  0.683268  0.798230  1
  Dy  Dy5  1  0.000000  0.316732  0.798230  1
  V  V6  1  0.500000  0.500000  0.157570  1
  V  V7  1  0.000000  0.000000  0.842430  1
  P  P8  1  0.500000  0.500000  0.877314  1
  P  P9  1  0.000000  0.000000  0.122686  1
  P  P10  1  0.500000  0.500000  0.344441  1
  P  P11  1  0.000000  0.000000  0.655559  1
  P  P12  1  0.500000  0.313846  0.617302  1
  P  P13  1  0.500000  0.686154  0.617302  1
  P  P14  1  0.000000  0.186154  0.382698  1
  P  P15  1  0.000000  0.813846  0.382698  1
  P  P16  1  0.500000  0.847334  0.888693  1
  P  P17  1  0.500000  0.152666  0.888693  1
  P  P18  1  0.000000  0.652666  0.111307  1
  P  P19  1  0.000000  0.347334  0.111307  1
  Rh  Rh20  1  0.500000  0.500000  0.698630  1
  Rh  Rh21  1  0.000000  0.000000  0.301370  1
  Rh  Rh22  1  0.000000  0.500000  0.987273  1
  Rh  Rh23  1  0.500000  0.000000  0.012727  1
  Rh  Rh24  1  0.500000  0.332327  0.989289  1
  Rh  Rh25  1  0.500000  0.667673  0.989289  1
  Rh  Rh26  1  0.000000  0.167673  0.010711  1
  Rh  Rh27  1  0.000000  0.832327  0.010711  1
  Rh  Rh28  1  0.500000  0.292877  0.430793  1
  Rh  Rh29  1  0.500000  0.707123  0.430793  1
  Rh  Rh30  1  0.000000  0.207123  0.569207  1
  Rh  Rh31  1  0.000000  0.792877  0.569207  1
  Rh  Rh32  1  0.500000  0.875171  0.709395  1
  Rh  Rh33  1  0.500000  0.124829  0.709395  1
  Rh  Rh34  1  0.000000  0.624829  0.290605  1
  Rh  Rh35  1  0.000000  0.375171  0.290605  1
