# generated using pymatgen
data_Y5Tm3Np4O24
_symmetry_space_group_name_H-M   'P 1'
_cell_length_a   5.53013246
_cell_length_b   7.83292113
_cell_length_c   11.79246493
_cell_angle_alpha   73.91792615
_cell_angle_beta   89.93550671
_cell_angle_gamma   89.93226207
_symmetry_Int_Tables_number   1
_chemical_formula_structural   Y5Tm3Np4O24
_chemical_formula_sum   'Y5 Tm3 Np4 O24'
_cell_volume   490.82445710
_cell_formula_units_Z   1
loop_
 _symmetry_equiv_pos_site_id
 _symmetry_equiv_pos_as_xyz
  1  'x, y, z'
loop_
 _atom_site_type_symbol
 _atom_site_label
 _atom_site_symmetry_multiplicity
 _atom_site_fract_x
 _atom_site_fract_y
 _atom_site_fract_z
 _atom_site_occupancy
  Y  Y0  1  0.253209  0.000999  0.751525  1
  Y  Y1  1  0.746766  0.000318  0.248852  1
  Y  Y2  1  0.301125  0.499436  0.751193  1
  Y  Y3  1  0.698058  0.499253  0.249654  1
  Y  Y4  1  0.814964  0.794732  0.579704  1
  Tm  Tm5  1  0.183004  0.793032  0.080383  1
  Tm  Tm6  1  0.185566  0.207160  0.419439  1
  Tm  Tm7  1  0.815788  0.207186  0.919459  1
  Np  Np8  1  0.741797  0.721037  0.888233  1
  Np  Np9  1  0.256460  0.720846  0.385555  1
  Np  Np10  1  0.743428  0.278955  0.612861  1
  Np  Np11  1  0.257282  0.278793  0.113011  1
  O  O12  1  0.877170  0.372633  0.444609  1
  O  O13  1  0.440587  0.845567  0.934565  1
  O  O14  1  0.876729  0.626630  0.055560  1
  O  O15  1  0.033992  0.285360  0.735269  1
  O  O16  1  0.965691  0.284504  0.234301  1
  O  O17  1  0.123169  0.372110  0.945262  1
  O  O18  1  0.615270  0.480104  0.883496  1
  O  O19  1  0.560088  0.155858  0.066678  1
  O  O20  1  0.127018  0.626052  0.554264  1
  O  O21  1  0.034959  0.715017  0.767812  1
  O  O22  1  0.447766  0.198359  0.274570  1
  O  O23  1  0.050189  0.946044  0.396897  1
  O  O24  1  0.443409  0.153460  0.566394  1
  O  O25  1  0.963999  0.715231  0.265065  1
  O  O26  1  0.955057  0.057984  0.602256  1
  O  O27  1  0.553221  0.197620  0.775001  1
  O  O28  1  0.550125  0.801890  0.727632  1
  O  O29  1  0.050381  0.054908  0.101709  1
  O  O30  1  0.611452  0.517535  0.616607  1
  O  O31  1  0.384771  0.519686  0.116334  1
  O  O32  1  0.446275  0.801708  0.223981  1
  O  O33  1  0.384751  0.479551  0.382304  1
  O  O34  1  0.556610  0.845438  0.430242  1
  O  O35  1  0.949873  0.945005  0.899325  1
