# generated using pymatgen
data_Ba2Li3SiAs4
_symmetry_space_group_name_H-M   'P 1'
_cell_length_a   6.92565024
_cell_length_b   6.92564945
_cell_length_c   6.08633000
_cell_angle_alpha   90.00000000
_cell_angle_beta   90.00000000
_cell_angle_gamma   127.18044201
_symmetry_Int_Tables_number   1
_chemical_formula_structural   Ba2Li3SiAs4
_chemical_formula_sum   'Ba2 Li3 Si1 As4'
_cell_volume   232.59005153
_cell_formula_units_Z   1
loop_
 _symmetry_equiv_pos_site_id
 _symmetry_equiv_pos_as_xyz
  1  'x, y, z'
loop_
 _atom_site_type_symbol
 _atom_site_label
 _atom_site_symmetry_multiplicity
 _atom_site_fract_x
 _atom_site_fract_y
 _atom_site_fract_z
 _atom_site_occupancy
  Ba  Ba0  1  0.500000  0.000000  0.247243  1
  Ba  Ba1  1  0.000000  0.500000  0.752757  1
  Li  Li2  1  0.500000  0.500000  0.500000  1
  Li  Li3  1  0.500000  0.500000  0.000000  1
  Li  Li4  1  0.000000  0.000000  0.500000  1
  Si  Si5  1  0.000000  0.000000  0.000000  1
  As  As6  1  0.656236  0.883702  0.768326  1
  As  As7  1  0.116298  0.343764  0.231674  1
  As  As8  1  0.883702  0.656236  0.231674  1
  As  As9  1  0.343764  0.116298  0.768326  1
