# generated using pymatgen
data_LiY2Si4Pd
_symmetry_space_group_name_H-M   'P 1'
_cell_length_a   3.84789900
_cell_length_b   7.37371900
_cell_length_c   10.11229300
_cell_angle_alpha   90.00000000
_cell_angle_beta   90.00000000
_cell_angle_gamma   90.00000000
_symmetry_Int_Tables_number   1
_chemical_formula_structural   LiY2Si4Pd
_chemical_formula_sum   'Li2 Y4 Si8 Pd2'
_cell_volume   286.91938556
_cell_formula_units_Z   2
loop_
 _symmetry_equiv_pos_site_id
 _symmetry_equiv_pos_as_xyz
  1  'x, y, z'
loop_
 _atom_site_type_symbol
 _atom_site_label
 _atom_site_symmetry_multiplicity
 _atom_site_fract_x
 _atom_site_fract_y
 _atom_site_fract_z
 _atom_site_occupancy
  Li  Li0  1  0.750000  0.004237  0.604989  1
  Li  Li1  1  0.750000  0.504237  0.895011  1
  Y  Y2  1  0.250000  0.143623  0.871764  1
  Y  Y3  1  0.250000  0.643623  0.628236  1
  Y  Y4  1  0.750000  0.862576  0.132357  1
  Y  Y5  1  0.750000  0.362576  0.367643  1
  Si  Si6  1  0.250000  0.223179  0.570789  1
  Si  Si7  1  0.250000  0.723179  0.929211  1
  Si  Si8  1  0.750000  0.771309  0.428924  1
  Si  Si9  1  0.750000  0.271309  0.071076  1
  Si  Si10  1  0.250000  0.659115  0.316543  1
  Si  Si11  1  0.250000  0.159115  0.183457  1
  Si  Si12  1  0.750000  0.341356  0.678926  1
  Si  Si13  1  0.750000  0.841356  0.821074  1
  Pd  Pd14  1  0.250000  0.994605  0.391712  1
  Pd  Pd15  1  0.250000  0.494605  0.108288  1
