# generated using pymatgen
data_Pa6FeAs2
_symmetry_space_group_name_H-M   'P 1'
_cell_length_a   8.01662766
_cell_length_b   3.52844800
_cell_length_c   8.01642500
_cell_angle_alpha   90.00000000
_cell_angle_beta   120.00083209
_cell_angle_gamma   90.00000000
_symmetry_Int_Tables_number   1
_chemical_formula_structural   Pa6FeAs2
_chemical_formula_sum   'Pa6 Fe1 As2'
_cell_volume   196.37362564
_cell_formula_units_Z   1
loop_
 _symmetry_equiv_pos_site_id
 _symmetry_equiv_pos_as_xyz
  1  'x, y, z'
loop_
 _atom_site_type_symbol
 _atom_site_label
 _atom_site_symmetry_multiplicity
 _atom_site_fract_x
 _atom_site_fract_y
 _atom_site_fract_z
 _atom_site_occupancy
  Pa  Pa0  1  0.575652  0.000000  0.000000  1
  Pa  Pa1  1  0.250287  0.500000  0.000000  1
  Pa  Pa2  1  0.999994  0.500000  0.250269  1
  Pa  Pa3  1  0.424373  0.000000  0.424374  1
  Pa  Pa4  1  0.000000  0.000000  0.575626  1
  Pa  Pa5  1  0.749723  0.500000  0.749729  1
  Fe  Fe6  1  0.000006  0.000000  0.000000  1
  As  As7  1  0.666666  0.500000  0.333324  1
  As  As8  1  0.333341  0.500000  0.666676  1
