# generated using pymatgen
data_Ho9TmSi5As
_symmetry_space_group_name_H-M   'P 1'
_cell_length_a   8.38686601
_cell_length_b   8.40126241
_cell_length_c   6.27430002
_cell_angle_alpha   89.99005126
_cell_angle_beta   90.00443237
_cell_angle_gamma   119.94059515
_symmetry_Int_Tables_number   1
_chemical_formula_structural   Ho9TmSi5As
_chemical_formula_sum   'Ho9 Tm1 Si5 As1'
_cell_volume   383.08912209
_cell_formula_units_Z   1
loop_
 _symmetry_equiv_pos_site_id
 _symmetry_equiv_pos_as_xyz
  1  'x, y, z'
loop_
 _atom_site_type_symbol
 _atom_site_label
 _atom_site_symmetry_multiplicity
 _atom_site_fract_x
 _atom_site_fract_y
 _atom_site_fract_z
 _atom_site_occupancy
  Ho  Ho0  1  0.996702  0.753925  0.749890  1
  Ho  Ho1  1  0.000336  0.243902  0.250108  1
  Ho  Ho2  1  0.756297  0.756224  0.250120  1
  Ho  Ho3  1  0.758359  0.999902  0.749907  1
  Ho  Ho4  1  0.242704  0.246207  0.749905  1
  Ho  Ho5  1  0.242826  0.999894  0.250078  1
  Ho  Ho6  1  0.669071  0.336091  0.001101  1
  Ho  Ho7  1  0.669028  0.336018  0.498931  1
  Ho  Ho8  1  0.332996  0.663931  0.001197  1
  Tm  Tm9  1  0.332959  0.663778  0.498684  1
  Si  Si10  1  0.393956  0.393291  0.250360  1
  Si  Si11  1  0.001470  0.607134  0.250362  1
  Si  Si12  1  0.000187  0.394275  0.749653  1
  Si  Si13  1  0.605552  0.606174  0.749663  1
  Si  Si14  1  0.606634  0.999613  0.250309  1
  As  As15  1  0.390923  0.999640  0.749730  1
