# generated using pymatgen
data_LaSm(GaPt4)2
_symmetry_space_group_name_H-M   'P 1'
_cell_length_a   4.44414600
_cell_length_b   5.61955200
_cell_length_c   8.98873000
_cell_angle_alpha   90.00000000
_cell_angle_beta   90.00000000
_cell_angle_gamma   90.00000000
_symmetry_Int_Tables_number   1
_chemical_formula_structural   LaSm(GaPt4)2
_chemical_formula_sum   'La1 Sm1 Ga2 Pt8'
_cell_volume   224.48552767
_cell_formula_units_Z   1
loop_
 _symmetry_equiv_pos_site_id
 _symmetry_equiv_pos_as_xyz
  1  'x, y, z'
loop_
 _atom_site_type_symbol
 _atom_site_label
 _atom_site_symmetry_multiplicity
 _atom_site_fract_x
 _atom_site_fract_y
 _atom_site_fract_z
 _atom_site_occupancy
  La  La0  1  0.000000  0.500000  0.500000  1
  Sm  Sm1  1  0.000000  0.000000  0.000000  1
  Ga  Ga2  1  0.500000  0.500000  0.000000  1
  Ga  Ga3  1  0.500000  0.000000  0.500000  1
  Pt  Pt4  1  0.000000  0.000000  0.335972  1
  Pt  Pt5  1  0.000000  0.500000  0.838080  1
  Pt  Pt6  1  0.000000  0.500000  0.161920  1
  Pt  Pt7  1  0.000000  0.000000  0.664028  1
  Pt  Pt8  1  0.500000  0.247161  0.245945  1
  Pt  Pt9  1  0.500000  0.752839  0.754055  1
  Pt  Pt10  1  0.500000  0.752839  0.245945  1
  Pt  Pt11  1  0.500000  0.247161  0.754055  1
