# generated using pymatgen
data_Ta6Be11Co6(Si2Ni)2
_symmetry_space_group_name_H-M   'P 1'
_cell_length_a   7.63958579
_cell_length_b   7.68769424
_cell_length_c   7.68769300
_cell_angle_alpha   60.00000105
_cell_angle_beta   59.79146983
_cell_angle_gamma   59.79148140
_symmetry_Int_Tables_number   1
_chemical_formula_structural   Ta6Be11Co6(Si2Ni)2
_chemical_formula_sum   'Ta6 Be11 Co6 Si4 Ni2'
_cell_volume   318.25182891
_cell_formula_units_Z   1
loop_
 _symmetry_equiv_pos_site_id
 _symmetry_equiv_pos_as_xyz
  1  'x, y, z'
loop_
 _atom_site_type_symbol
 _atom_site_label
 _atom_site_symmetry_multiplicity
 _atom_site_fract_x
 _atom_site_fract_y
 _atom_site_fract_z
 _atom_site_occupancy
  Ta  Ta0  1  0.710213  0.295876  0.295876  1
  Ta  Ta1  1  0.289787  0.704124  0.704124  1
  Ta  Ta2  1  0.289787  0.704124  0.301964  1
  Ta  Ta3  1  0.710213  0.295876  0.698036  1
  Ta  Ta4  1  0.289787  0.301964  0.704124  1
  Ta  Ta5  1  0.710213  0.698036  0.295876  1
  Be  Be6  1  0.313417  0.334097  0.334097  1
  Be  Be7  1  0.686583  0.665903  0.665903  1
  Be  Be8  1  0.313417  0.334097  0.018386  1
  Be  Be9  1  0.313417  0.018386  0.334097  1
  Be  Be10  1  0.686583  0.665903  0.981614  1
  Be  Be11  1  0.686583  0.981614  0.665903  1
  Be  Be12  1  0.019510  0.326829  0.326829  1
  Be  Be13  1  0.980490  0.673171  0.673171  1
  Be  Be14  1  0.000000  0.500000  0.500000  1
  Be  Be15  1  0.000000  0.500000  0.000000  1
  Be  Be16  1  0.000000  0.000000  0.500000  1
  Co  Co17  1  0.122516  0.123697  0.123697  1
  Co  Co18  1  0.877484  0.876304  0.876303  1
  Co  Co19  1  0.122516  0.123697  0.630091  1
  Co  Co20  1  0.122516  0.630091  0.123696  1
  Co  Co21  1  0.877484  0.876304  0.369909  1
  Co  Co22  1  0.877484  0.369909  0.876303  1
  Si  Si23  1  0.500000  0.000000  0.000000  1
  Si  Si24  1  0.500000  0.000000  0.500000  1
  Si  Si25  1  0.500000  0.500000  0.000000  1
  Si  Si26  1  0.000000  0.000000  0.000000  1
  Ni  Ni27  1  0.626423  0.124526  0.124526  1
  Ni  Ni28  1  0.373577  0.875474  0.875474  1
