# generated using pymatgen
data_Sm2HoSn6Ru
_symmetry_space_group_name_H-M   'P 1'
_cell_length_a   8.56502597
_cell_length_b   8.56502553
_cell_length_c   13.36567500
_cell_angle_alpha   90.00000000
_cell_angle_beta   90.00000000
_cell_angle_gamma   148.36228930
_symmetry_Int_Tables_number   1
_chemical_formula_structural   Sm2HoSn6Ru
_chemical_formula_sum   'Sm4 Ho2 Sn12 Ru2'
_cell_volume   514.31848737
_cell_formula_units_Z   2
loop_
 _symmetry_equiv_pos_site_id
 _symmetry_equiv_pos_as_xyz
  1  'x, y, z'
loop_
 _atom_site_type_symbol
 _atom_site_label
 _atom_site_symmetry_multiplicity
 _atom_site_fract_x
 _atom_site_fract_y
 _atom_site_fract_z
 _atom_site_occupancy
  Sm  Sm0  1  0.399979  0.600021  0.403743  1
  Sm  Sm1  1  0.600021  0.399979  0.596257  1
  Sm  Sm2  1  0.399979  0.600021  0.096257  1
  Sm  Sm3  1  0.600021  0.399979  0.903743  1
  Ho  Ho4  1  0.602718  0.397282  0.250000  1
  Ho  Ho5  1  0.397282  0.602718  0.750000  1
  Sn  Sn6  1  0.925974  0.074026  0.923670  1
  Sn  Sn7  1  0.074026  0.925974  0.076330  1
  Sn  Sn8  1  0.925974  0.074026  0.576330  1
  Sn  Sn9  1  0.074026  0.925974  0.423670  1
  Sn  Sn10  1  0.960880  0.039120  0.250000  1
  Sn  Sn11  1  0.039120  0.960880  0.750000  1
  Sn  Sn12  1  0.744344  0.255657  0.433369  1
  Sn  Sn13  1  0.255657  0.744343  0.566631  1
  Sn  Sn14  1  0.744344  0.255657  0.066631  1
  Sn  Sn15  1  0.255657  0.744343  0.933369  1
  Sn  Sn16  1  0.230253  0.769747  0.250000  1
  Sn  Sn17  1  0.769747  0.230253  0.750000  1
  Ru  Ru18  1  0.800513  0.199487  0.250000  1
  Ru  Ru19  1  0.199487  0.800513  0.750000  1
