# generated using pymatgen
data_Nd4ZnGa3Pd4
_symmetry_space_group_name_H-M   'P 1'
_cell_length_a   4.54181000
_cell_length_b   7.13717001
_cell_length_c   7.86612321
_cell_angle_alpha   90.27820656
_cell_angle_beta   90.00000000
_cell_angle_gamma   90.00000000
_symmetry_Int_Tables_number   1
_chemical_formula_structural   Nd4ZnGa3Pd4
_chemical_formula_sum   'Nd4 Zn1 Ga3 Pd4'
_cell_volume   254.98264920
_cell_formula_units_Z   1
loop_
 _symmetry_equiv_pos_site_id
 _symmetry_equiv_pos_as_xyz
  1  'x, y, z'
loop_
 _atom_site_type_symbol
 _atom_site_label
 _atom_site_symmetry_multiplicity
 _atom_site_fract_x
 _atom_site_fract_y
 _atom_site_fract_z
 _atom_site_occupancy
  Nd  Nd0  1  0.250000  0.023842  0.696950  1
  Nd  Nd1  1  0.250000  0.525612  0.804772  1
  Nd  Nd2  1  0.750000  0.975820  0.304623  1
  Nd  Nd3  1  0.750000  0.473909  0.193828  1
  Zn  Zn4  1  0.250000  0.169248  0.075229  1
  Ga  Ga5  1  0.250000  0.671434  0.426571  1
  Ga  Ga6  1  0.750000  0.832801  0.927251  1
  Ga  Ga7  1  0.750000  0.332470  0.572258  1
  Pd  Pd8  1  0.250000  0.284983  0.403745  1
  Pd  Pd9  1  0.250000  0.776343  0.101002  1
  Pd  Pd10  1  0.750000  0.717066  0.599097  1
  Pd  Pd11  1  0.750000  0.216473  0.894675  1
