# generated using pymatgen
data_ScGa7(NiRu)4
_symmetry_space_group_name_H-M   'P 1'
_cell_length_a   5.92402072
_cell_length_b   5.92812066
_cell_length_c   6.17337608
_cell_angle_alpha   89.93631696
_cell_angle_beta   90.02397360
_cell_angle_gamma   90.50989203
_symmetry_Int_Tables_number   1
_chemical_formula_structural   ScGa7(NiRu)4
_chemical_formula_sum   'Sc1 Ga7 Ni4 Ru4'
_cell_volume   216.78979556
_cell_formula_units_Z   1
loop_
 _symmetry_equiv_pos_site_id
 _symmetry_equiv_pos_as_xyz
  1  'x, y, z'
loop_
 _atom_site_type_symbol
 _atom_site_label
 _atom_site_symmetry_multiplicity
 _atom_site_fract_x
 _atom_site_fract_y
 _atom_site_fract_z
 _atom_site_occupancy
  Sc  Sc0  1  0.999908  0.499935  0.750210  1
  Ga  Ga1  1  0.000110  0.000026  0.249968  1
  Ga  Ga2  1  0.000049  0.500018  0.249892  1
  Ga  Ga3  1  0.499900  0.999911  0.250104  1
  Ga  Ga4  1  0.500036  0.500087  0.249934  1
  Ga  Ga5  1  0.500012  0.000002  0.749857  1
  Ga  Ga6  1  0.500048  0.500031  0.749935  1
  Ga  Ga7  1  0.000024  0.000076  0.749945  1
  Ni  Ni8  1  0.253970  0.754235  0.008349  1
  Ni  Ni9  1  0.745822  0.246304  0.491532  1
  Ni  Ni10  1  0.253609  0.754075  0.491272  1
  Ni  Ni11  1  0.746225  0.245106  0.009081  1
  Ru  Ru12  1  0.742397  0.757501  0.004468  1
  Ru  Ru13  1  0.257512  0.242610  0.495496  1
  Ru  Ru14  1  0.742493  0.757611  0.495558  1
  Ru  Ru15  1  0.257883  0.242471  0.004404  1
