# generated using pymatgen
data_LiTb8YS10
_symmetry_space_group_name_H-M   'P 1'
_cell_length_a   6.76541260
_cell_length_b   7.82493778
_cell_length_c   8.78383300
_cell_angle_alpha   103.16595256
_cell_angle_beta   97.18425913
_cell_angle_gamma   106.80415648
_symmetry_Int_Tables_number   1
_chemical_formula_structural   LiTb8YS10
_chemical_formula_sum   'Li1 Tb8 Y1 S10'
_cell_volume   424.26094581
_cell_formula_units_Z   1
loop_
 _symmetry_equiv_pos_site_id
 _symmetry_equiv_pos_as_xyz
  1  'x, y, z'
loop_
 _atom_site_type_symbol
 _atom_site_label
 _atom_site_symmetry_multiplicity
 _atom_site_fract_x
 _atom_site_fract_y
 _atom_site_fract_z
 _atom_site_occupancy
  Li  Li0  1  0.000000  0.500000  0.000000  1
  Tb  Tb1  1  0.799790  0.600291  0.599486  1
  Tb  Tb2  1  0.600999  0.200830  0.203964  1
  Tb  Tb3  1  0.399001  0.799170  0.796036  1
  Tb  Tb4  1  0.600419  0.702465  0.203682  1
  Tb  Tb5  1  0.200210  0.399709  0.400514  1
  Tb  Tb6  1  0.399581  0.297535  0.796318  1
  Tb  Tb7  1  0.201254  0.901107  0.403274  1
  Tb  Tb8  1  0.798746  0.098893  0.596726  1
  Y  Y9  1  0.000000  0.000000  0.000000  1
  S  S10  1  0.705062  0.647602  0.903617  1
  S  S11  1  0.500620  0.251173  0.499837  1
  S  S12  1  0.705830  0.156983  0.903814  1
  S  S13  1  0.294170  0.843017  0.096186  1
  S  S14  1  0.499380  0.748827  0.500163  1
  S  S15  1  0.096754  0.451098  0.707118  1
  S  S16  1  0.294938  0.352398  0.096383  1
  S  S17  1  0.902487  0.050080  0.298195  1
  S  S18  1  0.097513  0.949920  0.701805  1
  S  S19  1  0.903246  0.548902  0.292882  1
