# generated using pymatgen
data_Tb2PdPbAu
_symmetry_space_group_name_H-M   'P 1'
_cell_length_a   8.06876600
_cell_length_b   8.08140400
_cell_length_c   3.67343000
_cell_angle_alpha   90.00000000
_cell_angle_beta   90.00000000
_cell_angle_gamma   90.00008514
_symmetry_Int_Tables_number   1
_chemical_formula_structural   Tb2PdPbAu
_chemical_formula_sum   'Tb4 Pd2 Pb2 Au2'
_cell_volume   239.53319509
_cell_formula_units_Z   2
loop_
 _symmetry_equiv_pos_site_id
 _symmetry_equiv_pos_as_xyz
  1  'x, y, z'
loop_
 _atom_site_type_symbol
 _atom_site_label
 _atom_site_symmetry_multiplicity
 _atom_site_fract_x
 _atom_site_fract_y
 _atom_site_fract_z
 _atom_site_occupancy
  Tb  Tb0  1  0.675578  0.170858  0.500000  1
  Tb  Tb1  1  0.164657  0.329101  0.500000  1
  Tb  Tb2  1  0.824421  0.670858  0.500000  1
  Tb  Tb3  1  0.335343  0.829102  0.500000  1
  Pd  Pd4  1  0.626243  0.874152  0.000000  1
  Pd  Pd5  1  0.873757  0.374152  0.000000  1
  Pb  Pb6  1  0.995170  0.002309  0.000000  1
  Pb  Pb7  1  0.504831  0.502309  0.000000  1
  Au  Au8  1  0.377336  0.123579  0.000000  1
  Au  Au9  1  0.122664  0.623579  0.000000  1
