# generated using pymatgen
data_Ce2Mn3Co9As7
_symmetry_space_group_name_H-M   'P 1'
_cell_length_a   3.79948500
_cell_length_b   9.46857023
_cell_length_c   9.46857100
_cell_angle_alpha   119.99999221
_cell_angle_beta   90.00000000
_cell_angle_gamma   90.00000000
_symmetry_Int_Tables_number   1
_chemical_formula_structural   Ce2Mn3Co9As7
_chemical_formula_sum   'Ce2 Mn3 Co9 As7'
_cell_volume   295.00151403
_cell_formula_units_Z   1
loop_
 _symmetry_equiv_pos_site_id
 _symmetry_equiv_pos_as_xyz
  1  'x, y, z'
loop_
 _atom_site_type_symbol
 _atom_site_label
 _atom_site_symmetry_multiplicity
 _atom_site_fract_x
 _atom_site_fract_y
 _atom_site_fract_z
 _atom_site_occupancy
  Ce  Ce0  1  0.000000  0.666667  0.333333  1
  Ce  Ce1  1  0.500000  0.333333  0.666667  1
  Mn  Mn2  1  0.500000  0.781567  0.893931  1
  Mn  Mn3  1  0.500000  0.112363  0.218433  1
  Mn  Mn4  1  0.500000  0.106069  0.887637  1
  Co  Co5  1  0.000000  0.568385  0.938704  1
  Co  Co6  1  0.000000  0.370319  0.431615  1
  Co  Co7  1  0.000000  0.061296  0.629681  1
  Co  Co8  1  0.000000  0.878904  0.156239  1
  Co  Co9  1  0.000000  0.277335  0.121096  1
  Co  Co10  1  0.000000  0.843761  0.722665  1
  Co  Co11  1  0.500000  0.947663  0.382494  1
  Co  Co12  1  0.500000  0.434830  0.052337  1
  Co  Co13  1  0.500000  0.617506  0.565170  1
  As  As14  1  0.000000  0.000000  0.000000  1
  As  As15  1  0.500000  0.708539  0.113502  1
  As  As16  1  0.500000  0.404964  0.291461  1
  As  As17  1  0.500000  0.886498  0.595036  1
  As  As18  1  0.000000  0.589270  0.699267  1
  As  As19  1  0.000000  0.109998  0.410730  1
  As  As20  1  0.000000  0.300733  0.890002  1
