# generated using pymatgen
data_Ce2ErIn3PdRh2
_symmetry_space_group_name_H-M   'P 1'
_cell_length_a   7.49996100
_cell_length_b   7.64160740
_cell_length_c   3.96925600
_cell_angle_alpha   90.00000000
_cell_angle_beta   90.00000000
_cell_angle_gamma   119.38869413
_symmetry_Int_Tables_number   1
_chemical_formula_structural   Ce2ErIn3PdRh2
_chemical_formula_sum   'Ce2 Er1 In3 Pd1 Rh2'
_cell_volume   198.21013832
_cell_formula_units_Z   1
loop_
 _symmetry_equiv_pos_site_id
 _symmetry_equiv_pos_as_xyz
  1  'x, y, z'
loop_
 _atom_site_type_symbol
 _atom_site_label
 _atom_site_symmetry_multiplicity
 _atom_site_fract_x
 _atom_site_fract_y
 _atom_site_fract_z
 _atom_site_occupancy
  Ce  Ce0  1  0.998430  0.415816  0.500000  1
  Ce  Ce1  1  0.582614  0.584184  0.500000  1
  Er  Er2  1  0.410042  0.000000  0.500000  1
  In  In3  1  0.735725  0.000000  0.000000  1
  In  In4  1  0.008902  0.753258  0.000000  1
  In  In5  1  0.255644  0.246742  0.000000  1
  Pd  Pd6  1  0.997561  0.000000  0.500000  1
  Rh  Rh7  1  0.331017  0.650952  0.000000  1
  Rh  Rh8  1  0.680066  0.349048  0.000000  1
