# generated using pymatgen
data_Y4Tm4B24MoRu3
_symmetry_space_group_name_H-M   'P 1'
_cell_length_a   3.64431000
_cell_length_b   9.13679461
_cell_length_c   11.53774105
_cell_angle_alpha   89.87484974
_cell_angle_beta   90.00000000
_cell_angle_gamma   90.00000000
_symmetry_Int_Tables_number   1
_chemical_formula_structural   Y4Tm4B24MoRu3
_chemical_formula_sum   'Y4 Tm4 B24 Mo1 Ru3'
_cell_volume   384.17484669
_cell_formula_units_Z   1
loop_
 _symmetry_equiv_pos_site_id
 _symmetry_equiv_pos_as_xyz
  1  'x, y, z'
loop_
 _atom_site_type_symbol
 _atom_site_label
 _atom_site_symmetry_multiplicity
 _atom_site_fract_x
 _atom_site_fract_y
 _atom_site_fract_z
 _atom_site_occupancy
  Y  Y0  1  0.000000  0.321998  0.413473  1
  Y  Y1  1  0.000000  0.677773  0.584625  1
  Y  Y2  1  0.000000  0.820257  0.087160  1
  Y  Y3  1  0.000000  0.177469  0.914810  1
  Tm  Tm4  1  0.000000  0.945310  0.372332  1
  Tm  Tm5  1  0.000000  0.057981  0.629225  1
  Tm  Tm6  1  0.000000  0.442882  0.127033  1
  Tm  Tm7  1  0.000000  0.556983  0.870421  1
  B  B8  1  0.500000  0.551548  0.435151  1
  B  B9  1  0.500000  0.445672  0.568499  1
  B  B10  1  0.500000  0.053832  0.067465  1
  B  B11  1  0.500000  0.945607  0.932764  1
  B  B12  1  0.500000  0.751676  0.420962  1
  B  B13  1  0.500000  0.251397  0.581828  1
  B  B14  1  0.500000  0.248784  0.080802  1
  B  B15  1  0.500000  0.750661  0.918335  1
  B  B16  1  0.500000  0.794456  0.264776  1
  B  B17  1  0.500000  0.208733  0.734637  1
  B  B18  1  0.500000  0.290725  0.232927  1
  B  B19  1  0.500000  0.709355  0.765625  1
  B  B20  1  0.500000  0.630804  0.183072  1
  B  B21  1  0.500000  0.368816  0.815107  1
  B  B22  1  0.500000  0.130849  0.314049  1
  B  B23  1  0.500000  0.870141  0.685507  1
  B  B24  1  0.500000  0.983430  0.212987  1
  B  B25  1  0.500000  0.017076  0.787837  1
  B  B26  1  0.500000  0.478543  0.286139  1
  B  B27  1  0.500000  0.516387  0.713220  1
  B  B28  1  0.500000  0.603530  0.027019  1
  B  B29  1  0.500000  0.395600  0.970341  1
  B  B30  1  0.500000  0.104939  0.471876  1
  B  B31  1  0.500000  0.898255  0.529734  1
  Mo  Mo32  1  0.000000  0.637959  0.320678  1
  Ru  Ru33  1  0.000000  0.360564  0.681039  1
  Ru  Ru34  1  0.000000  0.138110  0.178298  1
  Ru  Ru35  1  0.000000  0.861899  0.820246  1
