# generated using pymatgen
data_GeAs3Rh4
_symmetry_space_group_name_H-M   'P 1'
_cell_length_a   3.63490500
_cell_length_b   5.67231307
_cell_length_c   6.17254706
_cell_angle_alpha   90.01711191
_cell_angle_beta   90.00000000
_cell_angle_gamma   90.00000000
_symmetry_Int_Tables_number   1
_chemical_formula_structural   GeAs3Rh4
_chemical_formula_sum   'Ge1 As3 Rh4'
_cell_volume   127.26753955
_cell_formula_units_Z   1
loop_
 _symmetry_equiv_pos_site_id
 _symmetry_equiv_pos_as_xyz
  1  'x, y, z'
loop_
 _atom_site_type_symbol
 _atom_site_label
 _atom_site_symmetry_multiplicity
 _atom_site_fract_x
 _atom_site_fract_y
 _atom_site_fract_z
 _atom_site_occupancy
  Ge  Ge0  1  0.250000  0.693916  0.086989  1
  As  As1  1  0.750000  0.311219  0.917124  1
  As  As2  1  0.250000  0.192330  0.413687  1
  As  As3  1  0.750000  0.804683  0.585632  1
  Rh  Rh4  1  0.250000  0.500226  0.693882  1
  Rh  Rh5  1  0.750000  0.497169  0.304792  1
  Rh  Rh6  1  0.250000  0.001243  0.804000  1
  Rh  Rh7  1  0.750000  0.999213  0.193894  1
