# generated using pymatgen
data_Ca4Sn4Sb2Rh7
_symmetry_space_group_name_H-M   'P 1'
_cell_length_a   7.63890453
_cell_length_b   7.64347408
_cell_length_c   7.63890571
_cell_angle_alpha   109.53639182
_cell_angle_beta   109.31668195
_cell_angle_gamma   109.53638779
_symmetry_Int_Tables_number   1
_chemical_formula_structural   Ca4Sn4Sb2Rh7
_chemical_formula_sum   'Ca4 Sn4 Sb2 Rh7'
_cell_volume   343.44656957
_cell_formula_units_Z   1
loop_
 _symmetry_equiv_pos_site_id
 _symmetry_equiv_pos_as_xyz
  1  'x, y, z'
loop_
 _atom_site_type_symbol
 _atom_site_label
 _atom_site_symmetry_multiplicity
 _atom_site_fract_x
 _atom_site_fract_y
 _atom_site_fract_z
 _atom_site_occupancy
  Ca  Ca0  1  0.499747  0.999495  0.999747  1
  Ca  Ca1  1  0.999937  0.493190  0.999937  1
  Ca  Ca2  1  0.999747  0.999495  0.499747  1
  Ca  Ca3  1  0.493252  0.493190  0.493252  1
  Sn  Sn4  1  0.316761  0.994904  0.316761  1
  Sn  Sn5  1  0.997189  0.685012  0.687823  1
  Sn  Sn6  1  0.687823  0.685012  0.997189  1
  Sn  Sn7  1  0.678142  0.994904  0.678142  1
  Sb  Sb8  1  0.997450  0.321458  0.324008  1
  Sb  Sb9  1  0.324008  0.321458  0.997450  1
  Rh  Rh10  1  0.250989  0.501977  0.750989  1
  Rh  Rh11  1  0.501265  0.250126  0.748860  1
  Rh  Rh12  1  0.748860  0.250126  0.501265  1
  Rh  Rh13  1  0.501240  0.747838  0.246598  1
  Rh  Rh14  1  0.006000  0.012000  0.006000  1
  Rh  Rh15  1  0.246598  0.747838  0.501240  1
  Rh  Rh16  1  0.750989  0.501977  0.250989  1
