# generated using pymatgen
data_Cs3PuI6
_symmetry_space_group_name_H-M   'P 1'
_cell_length_a   10.77500901
_cell_length_b   10.77500901
_cell_length_c   8.87443600
_cell_angle_alpha   90.00000000
_cell_angle_beta   90.00000000
_cell_angle_gamma   90.00000000
_symmetry_Int_Tables_number   1
_chemical_formula_structural   Cs3PuI6
_chemical_formula_sum   'Cs6 Pu2 I12'
_cell_volume   1030.32928862
_cell_formula_units_Z   2
loop_
 _symmetry_equiv_pos_site_id
 _symmetry_equiv_pos_as_xyz
  1  'x, y, z'
loop_
 _atom_site_type_symbol
 _atom_site_label
 _atom_site_symmetry_multiplicity
 _atom_site_fract_x
 _atom_site_fract_y
 _atom_site_fract_z
 _atom_site_occupancy
  Cs  Cs0  1  0.000000  0.000000  0.500000  1
  Cs  Cs1  1  0.000000  0.000000  0.000000  1
  Cs  Cs2  1  0.233005  0.586411  0.500000  1
  Cs  Cs3  1  0.766995  0.413589  0.500000  1
  Cs  Cs4  1  0.413589  0.233005  0.000000  1
  Cs  Cs5  1  0.586411  0.766995  0.000000  1
  Pu  Pu6  1  0.500000  0.000000  0.500000  1
  Pu  Pu7  1  0.000000  0.500000  0.000000  1
  I  I8  1  0.696730  0.059323  0.745526  1
  I  I9  1  0.303270  0.940677  0.745526  1
  I  I10  1  0.940677  0.696730  0.245526  1
  I  I11  1  0.059323  0.303270  0.245526  1
  I  I12  1  0.303270  0.940677  0.254474  1
  I  I13  1  0.696730  0.059323  0.254474  1
  I  I14  1  0.059323  0.303270  0.754474  1
  I  I15  1  0.940677  0.696730  0.754474  1
  I  I16  1  0.569675  0.720013  0.500000  1
  I  I17  1  0.430325  0.279987  0.500000  1
  I  I18  1  0.279987  0.569675  0.000000  1
  I  I19  1  0.720013  0.430325  0.000000  1
