# generated using pymatgen
data_Zr3Pa5Co12
_symmetry_space_group_name_H-M   'P 1'
_cell_length_a   5.32066400
_cell_length_b   7.33765442
_cell_length_c   8.30027488
_cell_angle_alpha   89.12026510
_cell_angle_beta   90.00000000
_cell_angle_gamma   90.00000000
_symmetry_Int_Tables_number   1
_chemical_formula_structural   Zr3Pa5Co12
_chemical_formula_sum   'Zr3 Pa5 Co12'
_cell_volume   324.01444163
_cell_formula_units_Z   1
loop_
 _symmetry_equiv_pos_site_id
 _symmetry_equiv_pos_as_xyz
  1  'x, y, z'
loop_
 _atom_site_type_symbol
 _atom_site_label
 _atom_site_symmetry_multiplicity
 _atom_site_fract_x
 _atom_site_fract_y
 _atom_site_fract_z
 _atom_site_occupancy
  Zr  Zr0  1  0.750000  0.442861  0.090408  1
  Zr  Zr1  1  0.250000  0.064280  0.604131  1
  Zr  Zr2  1  0.250000  0.557737  0.901435  1
  Pa  Pa3  1  0.750000  0.890682  0.860154  1
  Pa  Pa4  1  0.750000  0.389365  0.646734  1
  Pa  Pa5  1  0.250000  0.111430  0.140027  1
  Pa  Pa6  1  0.250000  0.602015  0.350366  1
  Pa  Pa7  1  0.750000  0.938072  0.406878  1
  Co  Co8  1  0.750000  0.592883  0.376195  1
  Co  Co9  1  0.750000  0.086114  0.135557  1
  Co  Co10  1  0.250000  0.413921  0.615898  1
  Co  Co11  1  0.250000  0.911265  0.880712  1
  Co  Co12  1  0.991514  0.264601  0.373001  1
  Co  Co13  1  0.504732  0.766131  0.126818  1
  Co  Co14  1  0.494115  0.736624  0.623484  1
  Co  Co15  1  0.006975  0.232332  0.872450  1
  Co  Co16  1  0.005885  0.736624  0.623484  1
  Co  Co17  1  0.493025  0.232332  0.872450  1
  Co  Co18  1  0.508486  0.264601  0.373001  1
  Co  Co19  1  0.995268  0.766131  0.126818  1
