# generated using pymatgen
data_AcS23
_symmetry_space_group_name_H-M   'P 1'
_cell_length_a   5.59544714
_cell_length_b   9.59366147
_cell_length_c   16.29899500
_cell_angle_alpha   82.42591977
_cell_angle_beta   85.98404499
_cell_angle_gamma   91.36398319
_symmetry_Int_Tables_number   1
_chemical_formula_structural   AcS23
_chemical_formula_sum   'Ac1 S23'
_cell_volume   864.69732289
_cell_formula_units_Z   1
loop_
 _symmetry_equiv_pos_site_id
 _symmetry_equiv_pos_as_xyz
  1  'x, y, z'
loop_
 _atom_site_type_symbol
 _atom_site_label
 _atom_site_symmetry_multiplicity
 _atom_site_fract_x
 _atom_site_fract_y
 _atom_site_fract_z
 _atom_site_occupancy
  Ac  Ac0  1  0.630374  0.176178  0.430091  1
  S  S1  1  0.745698  0.897065  0.396871  1
  S  S2  1  0.018504  0.301958  0.099642  1
  S  S3  1  0.778611  0.226127  0.589341  1
  S  S4  1  0.474621  0.871623  0.489679  1
  S  S5  1  0.171925  0.279313  0.983421  1
  S  S6  1  0.815748  0.741051  0.026221  1
  S  S7  1  0.145046  0.201271  0.359597  1
  S  S8  1  0.588338  0.437490  0.299195  1
  S  S9  1  0.854351  0.112311  0.152123  1
  S  S10  1  0.267047  0.874837  0.118184  1
  S  S11  1  0.701115  0.643528  0.635241  1
  S  S12  1  0.305007  0.434785  0.568726  1
  S  S13  1  0.149003  0.901844  0.861038  1
  S  S14  1  0.733448  0.140253  0.886333  1
  S  S15  1  0.063681  0.694021  0.112980  1
  S  S16  1  0.611996  0.849599  0.607516  1
  S  S17  1  0.412417  0.226617  0.600549  1
  S  S18  1  0.968602  0.715871  0.910288  1
  S  S19  1  0.924793  0.323559  0.896071  1
  S  S20  1  0.237534  0.399966  0.301126  1
  S  S21  1  0.108996  0.985077  0.206797  1
  S  S22  1  0.380175  0.531995  0.669049  1
  S  S23  1  0.912968  0.033661  0.799922  1
