# generated using pymatgen
data_YHfAgS4
_symmetry_space_group_name_H-M   'P 1'
_cell_length_a   7.79110688
_cell_length_b   7.79110768
_cell_length_c   7.79110733
_cell_angle_alpha   118.73406431
_cell_angle_beta   121.52908044
_cell_angle_gamma   89.78937541
_symmetry_Int_Tables_number   1
_chemical_formula_structural   YHfAgS4
_chemical_formula_sum   'Y2 Hf2 Ag2 S8'
_cell_volume   333.49567600
_cell_formula_units_Z   2
loop_
 _symmetry_equiv_pos_site_id
 _symmetry_equiv_pos_as_xyz
  1  'x, y, z'
loop_
 _atom_site_type_symbol
 _atom_site_label
 _atom_site_symmetry_multiplicity
 _atom_site_fract_x
 _atom_site_fract_y
 _atom_site_fract_z
 _atom_site_occupancy
  Y  Y0  1  0.000000  0.000000  0.500000  1
  Y  Y1  1  0.000000  0.500000  0.000000  1
  Hf  Hf2  1  0.000000  0.000000  0.000000  1
  Hf  Hf3  1  0.500000  0.000000  0.500000  1
  Ag  Ag4  1  0.373496  0.623496  0.750000  1
  Ag  Ag5  1  0.626504  0.376504  0.250000  1
  S  S6  1  0.249895  0.778811  0.028916  1
  S  S7  1  0.750105  0.779021  0.528916  1
  S  S8  1  0.222836  0.230250  0.992586  1
  S  S9  1  0.737663  0.230250  0.507414  1
  S  S10  1  0.777164  0.769750  0.007414  1
  S  S11  1  0.262337  0.769750  0.492586  1
  S  S12  1  0.750105  0.221189  0.971084  1
  S  S13  1  0.249895  0.220979  0.471084  1
