# generated using pymatgen
data_LaPr19(Ir3Ru)3
_symmetry_space_group_name_H-M   'P 1'
_cell_length_a   11.31327938
_cell_length_b   11.32182325
_cell_length_c   6.65805484
_cell_angle_alpha   90.00173832
_cell_angle_beta   89.91469207
_cell_angle_gamma   89.94624133
_symmetry_Int_Tables_number   1
_chemical_formula_structural   LaPr19(Ir3Ru)3
_chemical_formula_sum   'La1 Pr19 Ir9 Ru3'
_cell_volume   852.80861363
_cell_formula_units_Z   1
loop_
 _symmetry_equiv_pos_site_id
 _symmetry_equiv_pos_as_xyz
  1  'x, y, z'
loop_
 _atom_site_type_symbol
 _atom_site_label
 _atom_site_symmetry_multiplicity
 _atom_site_fract_x
 _atom_site_fract_y
 _atom_site_fract_z
 _atom_site_occupancy
  La  La0  1  0.294284  0.088233  0.383951  1
  Pr  Pr1  1  0.293532  0.911778  0.883244  1
  Pr  Pr2  1  0.706266  0.087477  0.882974  1
  Pr  Pr3  1  0.706711  0.911700  0.382782  1
  Pr  Pr4  1  0.587843  0.793728  0.882837  1
  Pr  Pr5  1  0.589054  0.206892  0.382215  1
  Pr  Pr6  1  0.412085  0.792843  0.382307  1
  Pr  Pr7  1  0.412803  0.206962  0.882868  1
  Pr  Pr8  1  0.207926  0.411317  0.619328  1
  Pr  Pr9  1  0.207730  0.589135  0.116099  1
  Pr  Pr10  1  0.792194  0.410916  0.115987  1
  Pr  Pr11  1  0.791875  0.589008  0.618965  1
  Pr  Pr12  1  0.910658  0.707877  0.116196  1
  Pr  Pr13  1  0.910675  0.291964  0.618951  1
  Pr  Pr14  1  0.089052  0.708069  0.619350  1
  Pr  Pr15  1  0.088905  0.292356  0.115679  1
  Pr  Pr16  1  0.999494  0.999713  0.498819  1
  Pr  Pr17  1  0.999775  0.000096  0.998629  1
  Pr  Pr18  1  0.499947  0.499906  0.999095  1
  Pr  Pr19  1  0.500225  0.499994  0.498670  1
  Ir  Ir20  1  0.847239  0.153549  0.249982  1
  Ir  Ir21  1  0.847042  0.846613  0.749765  1
  Ir  Ir22  1  0.153569  0.153152  0.748468  1
  Ir  Ir23  1  0.152652  0.846249  0.249905  1
  Ir  Ir24  1  0.653463  0.347146  0.749788  1
  Ir  Ir25  1  0.653424  0.652706  0.249954  1
  Ir  Ir26  1  0.346428  0.347148  0.250360  1
  Ir  Ir27  1  0.346635  0.652927  0.749855  1
  Ir  Ir28  1  0.999995  0.500129  0.383664  1
  Ru  Ru29  1  0.499052  0.000291  0.117846  1
  Ru  Ru30  1  0.499421  0.000217  0.614962  1
  Ru  Ru31  1  0.000048  0.499910  0.886509  1
