# generated using pymatgen
data_Ba4Sb4SeS7F4
_symmetry_space_group_name_H-M   'P 1'
_cell_length_a   6.15699743
_cell_length_b   6.31012598
_cell_length_c   13.97435444
_cell_angle_alpha   85.51813579
_cell_angle_beta   86.88776804
_cell_angle_gamma   90.00004392
_symmetry_Int_Tables_number   1
_chemical_formula_structural   Ba4Sb4SeS7F4
_chemical_formula_sum   'Ba4 Sb4 Se1 S7 F4'
_cell_volume   540.46023111
_cell_formula_units_Z   1
loop_
 _symmetry_equiv_pos_site_id
 _symmetry_equiv_pos_as_xyz
  1  'x, y, z'
loop_
 _atom_site_type_symbol
 _atom_site_label
 _atom_site_symmetry_multiplicity
 _atom_site_fract_x
 _atom_site_fract_y
 _atom_site_fract_z
 _atom_site_occupancy
  Ba  Ba0  1  0.264942  0.522826  0.387315  1
  Ba  Ba1  1  0.765225  0.016470  0.387570  1
  Ba  Ba2  1  0.233941  0.983285  0.610515  1
  Ba  Ba3  1  0.734055  0.478102  0.610582  1
  Sb  Sb4  1  0.760827  0.610926  0.133993  1
  Sb  Sb5  1  0.258909  0.026857  0.133186  1
  Sb  Sb6  1  0.748100  0.964697  0.866664  1
  Sb  Sb7  1  0.225496  0.387259  0.865096  1
  Se  Se8  1  0.656217  0.370923  0.888618  1
  S  S9  1  0.350440  0.642504  0.122642  1
  S  S10  1  0.846410  0.000279  0.128219  1
  S  S11  1  0.773182  0.530033  0.304143  1
  S  S12  1  0.275151  0.040101  0.303829  1
  S  S13  1  0.724662  0.964533  0.695686  1
  S  S14  1  0.225300  0.468057  0.694915  1
  S  S15  1  0.160113  0.994418  0.869679  1
  F  F16  1  0.999274  0.251518  0.498038  1
  F  F17  1  0.499544  0.249158  0.498084  1
  F  F18  1  0.498952  0.750189  0.500712  1
  F  F19  1  0.999260  0.747865  0.500512  1
