# generated using pymatgen
data_La8Ga2CoHg
_symmetry_space_group_name_H-M   'P 1'
_cell_length_a   10.72965860
_cell_length_b   10.66475876
_cell_length_c   7.20966962
_cell_angle_alpha   89.95195166
_cell_angle_beta   90.09550479
_cell_angle_gamma   120.20151938
_symmetry_Int_Tables_number   1
_chemical_formula_structural   La8Ga2CoHg
_chemical_formula_sum   'La16 Ga4 Co2 Hg2'
_cell_volume   713.01201503
_cell_formula_units_Z   2
loop_
 _symmetry_equiv_pos_site_id
 _symmetry_equiv_pos_as_xyz
  1  'x, y, z'
loop_
 _atom_site_type_symbol
 _atom_site_label
 _atom_site_symmetry_multiplicity
 _atom_site_fract_x
 _atom_site_fract_y
 _atom_site_fract_z
 _atom_site_occupancy
  La  La0  1  0.168562  0.822945  0.992003  1
  La  La1  1  0.345616  0.177055  0.492003  1
  La  La2  1  0.824949  0.657138  0.489710  1
  La  La3  1  0.167811  0.342862  0.989710  1
  La  La4  1  0.657945  0.828665  0.988189  1
  La  La5  1  0.829278  0.171335  0.488189  1
  La  La6  1  0.336375  0.664174  0.684115  1
  La  La7  1  0.672203  0.335826  0.184115  1
  La  La8  1  0.458801  0.541292  0.285972  1
  La  La9  1  0.917510  0.458708  0.785972  1
  La  La10  1  0.544309  0.080256  0.783963  1
  La  La11  1  0.464053  0.919744  0.283963  1
  La  La12  1  0.078620  0.535061  0.287538  1
  La  La13  1  0.543560  0.464939  0.787538  1
  La  La14  1  0.991356  0.997754  0.282683  1
  La  La15  1  0.993602  0.002246  0.782683  1
  Ga  Ga16  1  0.835648  0.672611  0.036898  1
  Ga  Ga17  1  0.163039  0.327389  0.536898  1
  Ga  Ga18  1  0.671282  0.836373  0.539156  1
  Ga  Ga19  1  0.834907  0.163627  0.039156  1
  Co  Co20  1  0.332375  0.664917  0.055226  1
  Co  Co21  1  0.667459  0.335083  0.555226  1
  Hg  Hg22  1  0.167308  0.833878  0.537548  1
  Hg  Hg23  1  0.333430  0.166122  0.037548  1
