# generated using pymatgen
data_Tm9Lu(GePb3)2
_symmetry_space_group_name_H-M   'P 1'
_cell_length_a   9.22514100
_cell_length_b   9.22513999
_cell_length_c   6.44595000
_cell_angle_alpha   90.00000000
_cell_angle_beta   90.00000000
_cell_angle_gamma   120.00000722
_symmetry_Int_Tables_number   1
_chemical_formula_structural   Tm9Lu(GePb3)2
_chemical_formula_sum   'Tm9 Lu1 Ge2 Pb6'
_cell_volume   475.07645854
_cell_formula_units_Z   1
loop_
 _symmetry_equiv_pos_site_id
 _symmetry_equiv_pos_as_xyz
  1  'x, y, z'
loop_
 _atom_site_type_symbol
 _atom_site_label
 _atom_site_symmetry_multiplicity
 _atom_site_fract_x
 _atom_site_fract_y
 _atom_site_fract_z
 _atom_site_occupancy
  Tm  Tm0  1  0.251635  0.999912  0.749905  1
  Tm  Tm1  1  0.748277  0.999912  0.250095  1
  Tm  Tm2  1  0.000088  0.251723  0.749905  1
  Tm  Tm3  1  0.000088  0.748365  0.250095  1
  Tm  Tm4  1  0.748277  0.748365  0.749905  1
  Tm  Tm5  1  0.251635  0.251723  0.250095  1
  Tm  Tm6  1  0.333333  0.666667  0.500000  1
  Tm  Tm7  1  0.666667  0.333333  0.500000  1
  Tm  Tm8  1  0.666667  0.333333  0.000000  1
  Lu  Lu9  1  0.333333  0.666667  0.000000  1
  Ge  Ge10  1  0.000000  0.000000  0.500000  1
  Ge  Ge11  1  0.000000  0.000000  0.000000  1
  Pb  Pb12  1  0.606836  0.999735  0.750108  1
  Pb  Pb13  1  0.392900  0.999735  0.249892  1
  Pb  Pb14  1  0.000265  0.607100  0.750108  1
  Pb  Pb15  1  0.000265  0.393164  0.249892  1
  Pb  Pb16  1  0.392900  0.393164  0.750108  1
  Pb  Pb17  1  0.606836  0.607100  0.249892  1
