# generated using pymatgen
data_Dy4HoGa5P7Ir19
_symmetry_space_group_name_H-M   'P 1'
_cell_length_a   12.93962534
_cell_length_b   12.92059149
_cell_length_c   3.96946900
_cell_angle_alpha   90.00000000
_cell_angle_beta   90.00000000
_cell_angle_gamma   119.93965902
_symmetry_Int_Tables_number   1
_chemical_formula_structural   Dy4HoGa5P7Ir19
_chemical_formula_sum   'Dy4 Ho1 Ga5 P7 Ir19'
_cell_volume   575.08347627
_cell_formula_units_Z   1
loop_
 _symmetry_equiv_pos_site_id
 _symmetry_equiv_pos_as_xyz
  1  'x, y, z'
loop_
 _atom_site_type_symbol
 _atom_site_label
 _atom_site_symmetry_multiplicity
 _atom_site_fract_x
 _atom_site_fract_y
 _atom_site_fract_z
 _atom_site_occupancy
  Dy  Dy0  1  0.335038  0.666037  0.500000  1
  Dy  Dy1  1  0.665152  0.333322  0.500000  1
  Dy  Dy2  1  0.182268  0.183366  0.000000  1
  Dy  Dy3  1  0.813809  0.997429  0.000000  1
  Ho  Ho4  1  0.003429  0.815798  0.000000  1
  Ga  Ga5  1  0.998528  0.638051  0.500000  1
  Ga  Ga6  1  0.360143  0.361019  0.500000  1
  Ga  Ga7  1  0.639205  0.003805  0.500000  1
  Ga  Ga8  1  0.519120  0.679406  0.000000  1
  Ga  Ga9  1  0.321998  0.836144  0.000000  1
  P  P10  1  0.166890  0.479583  0.000000  1
  P  P11  1  0.481028  0.177717  0.000000  1
  P  P12  1  0.693452  0.516442  0.000000  1
  P  P13  1  0.819958  0.304716  0.000000  1
  P  P14  1  0.996381  0.178144  0.500000  1
  P  P15  1  0.824839  0.820278  0.500000  1
  P  P16  1  0.179261  0.000709  0.500000  1
  Ir  Ir17  1  0.525803  0.875739  0.000000  1
  Ir  Ir18  1  0.131141  0.634954  0.000000  1
  Ir  Ir19  1  0.346638  0.478298  0.000000  1
  Ir  Ir20  1  0.498318  0.368823  0.000000  1
  Ir  Ir21  1  0.868113  0.499826  0.000000  1
  Ir  Ir22  1  0.630471  0.132468  0.000000  1
  Ir  Ir23  1  0.000156  0.447828  0.500000  1
  Ir  Ir24  1  0.550024  0.557617  0.500000  1
  Ir  Ir25  1  0.441590  0.995593  0.500000  1
  Ir  Ir26  1  0.995508  0.280561  0.000000  1
  Ir  Ir27  1  0.731135  0.719099  0.000000  1
  Ir  Ir28  1  0.280356  0.008189  0.000000  1
  Ir  Ir29  1  0.639393  0.809560  0.500000  1
  Ir  Ir30  1  0.192408  0.825037  0.500000  1
  Ir  Ir31  1  0.168752  0.374638  0.500000  1
  Ir  Ir32  1  0.383717  0.178781  0.500000  1
  Ir  Ir33  1  0.791654  0.611109  0.500000  1
  Ir  Ir34  1  0.823160  0.207822  0.500000  1
  Ir  Ir35  1  0.001161  0.002092  0.500000  1
