# generated using pymatgen
data_Hf18Ti2BeFeMo6
_symmetry_space_group_name_H-M   'P 1'
_cell_length_a   8.36149300
_cell_length_b   8.70263662
_cell_length_c   8.70263700
_cell_angle_alpha   119.99855661
_cell_angle_beta   90.00000000
_cell_angle_gamma   90.00000000
_symmetry_Int_Tables_number   1
_chemical_formula_structural   Hf18Ti2BeFeMo6
_chemical_formula_sum   'Hf18 Ti2 Be1 Fe1 Mo6'
_cell_volume   548.43163381
_cell_formula_units_Z   1
loop_
 _symmetry_equiv_pos_site_id
 _symmetry_equiv_pos_as_xyz
  1  'x, y, z'
loop_
 _atom_site_type_symbol
 _atom_site_label
 _atom_site_symmetry_multiplicity
 _atom_site_fract_x
 _atom_site_fract_y
 _atom_site_fract_z
 _atom_site_occupancy
  Hf  Hf0  1  0.554329  0.800169  0.600324  1
  Hf  Hf1  1  0.554339  0.800156  0.199844  1
  Hf  Hf2  1  0.554329  0.399676  0.199831  1
  Hf  Hf3  1  0.441138  0.203040  0.406076  1
  Hf  Hf4  1  0.441122  0.203043  0.796957  1
  Hf  Hf5  1  0.441138  0.593924  0.796960  1
  Hf  Hf6  1  0.058862  0.203040  0.406076  1
  Hf  Hf7  1  0.058878  0.203043  0.796957  1
  Hf  Hf8  1  0.058862  0.593924  0.796960  1
  Hf  Hf9  1  0.945671  0.800169  0.600324  1
  Hf  Hf10  1  0.945661  0.800156  0.199844  1
  Hf  Hf11  1  0.945671  0.399676  0.199831  1
  Hf  Hf12  1  0.750000  0.461176  0.922374  1
  Hf  Hf13  1  0.750000  0.461200  0.538800  1
  Hf  Hf14  1  0.750000  0.077626  0.538824  1
  Hf  Hf15  1  0.250000  0.541519  0.083017  1
  Hf  Hf16  1  0.250000  0.541514  0.458486  1
  Hf  Hf17  1  0.250000  0.916983  0.458481  1
  Ti  Ti18  1  0.496548  0.000004  0.999996  1
  Ti  Ti19  1  0.003452  0.000004  0.999996  1
  Be  Be20  1  0.750000  0.666649  0.333351  1
  Fe  Fe21  1  0.250000  0.333287  0.666713  1
  Mo  Mo22  1  0.750000  0.113876  0.227750  1
  Mo  Mo23  1  0.750000  0.113879  0.886121  1
  Mo  Mo24  1  0.750000  0.772250  0.886124  1
  Mo  Mo25  1  0.250000  0.884861  0.769702  1
  Mo  Mo26  1  0.250000  0.884858  0.115142  1
  Mo  Mo27  1  0.250000  0.230298  0.115139  1
