# generated using pymatgen
data_Sr3Yb(Si3Pd5)4
_symmetry_space_group_name_H-M   'P 1'
_cell_length_a   4.06167000
_cell_length_b   19.97685724
_cell_length_c   7.35442446
_cell_angle_alpha   90.04058699
_cell_angle_beta   90.00000000
_cell_angle_gamma   90.00000000
_symmetry_Int_Tables_number   1
_chemical_formula_structural   Sr3Yb(Si3Pd5)4
_chemical_formula_sum   'Sr3 Yb1 Si12 Pd20'
_cell_volume   596.73345165
_cell_formula_units_Z   1
loop_
 _symmetry_equiv_pos_site_id
 _symmetry_equiv_pos_as_xyz
  1  'x, y, z'
loop_
 _atom_site_type_symbol
 _atom_site_label
 _atom_site_symmetry_multiplicity
 _atom_site_fract_x
 _atom_site_fract_y
 _atom_site_fract_z
 _atom_site_occupancy
  Sr  Sr0  1  0.750000  0.642578  0.122083  1
  Sr  Sr1  1  0.250000  0.356669  0.877659  1
  Sr  Sr2  1  0.250000  0.858312  0.622775  1
  Yb  Yb3  1  0.750000  0.143312  0.380003  1
  Si  Si4  1  0.750000  0.737342  0.627211  1
  Si  Si5  1  0.250000  0.259816  0.371933  1
  Si  Si6  1  0.250000  0.763380  0.126812  1
  Si  Si7  1  0.750000  0.236397  0.872565  1
  Si  Si8  1  0.750000  0.925718  0.343523  1
  Si  Si9  1  0.250000  0.075984  0.650485  1
  Si  Si10  1  0.250000  0.574243  0.844385  1
  Si  Si11  1  0.750000  0.424316  0.156510  1
  Si  Si12  1  0.750000  0.918258  0.915855  1
  Si  Si13  1  0.250000  0.084758  0.094684  1
  Si  Si14  1  0.250000  0.583577  0.415856  1
  Si  Si15  1  0.750000  0.415122  0.582880  1
  Pd  Pd16  1  0.750000  0.800125  0.322797  1
  Pd  Pd17  1  0.250000  0.198195  0.670224  1
  Pd  Pd18  1  0.250000  0.700416  0.823366  1
  Pd  Pd19  1  0.750000  0.297868  0.177630  1
  Pd  Pd20  1  0.750000  0.995285  0.625559  1
  Pd  Pd21  1  0.250000  0.008344  0.372983  1
  Pd  Pd22  1  0.250000  0.505200  0.127723  1
  Pd  Pd23  1  0.750000  0.493802  0.872844  1
  Pd  Pd24  1  0.750000  0.512659  0.379498  1
  Pd  Pd25  1  0.250000  0.486425  0.620130  1
  Pd  Pd26  1  0.250000  0.989750  0.880278  1
  Pd  Pd27  1  0.750000  0.015273  0.124258  1
  Pd  Pd28  1  0.750000  0.797086  0.931927  1
  Pd  Pd29  1  0.250000  0.202553  0.069580  1
  Pd  Pd30  1  0.250000  0.704158  0.432316  1
  Pd  Pd31  1  0.750000  0.294096  0.566321  1
  Pd  Pd32  1  0.750000  0.616330  0.642187  1
  Pd  Pd33  1  0.250000  0.381825  0.358559  1
  Pd  Pd34  1  0.250000  0.884662  0.141519  1
  Pd  Pd35  1  0.750000  0.116169  0.855079  1
