# generated using pymatgen
data_Tb12ZnCo4Pb
_symmetry_space_group_name_H-M   'P 1'
_cell_length_a   8.38563068
_cell_length_b   8.38563217
_cell_length_c   8.38563044
_cell_angle_alpha   111.94624923
_cell_angle_beta   109.10048857
_cell_angle_gamma   107.39979400
_symmetry_Int_Tables_number   1
_chemical_formula_structural   Tb12ZnCo4Pb
_chemical_formula_sum   'Tb12 Zn1 Co4 Pb1'
_cell_volume   453.19260710
_cell_formula_units_Z   1
loop_
 _symmetry_equiv_pos_site_id
 _symmetry_equiv_pos_as_xyz
  1  'x, y, z'
loop_
 _atom_site_type_symbol
 _atom_site_label
 _atom_site_symmetry_multiplicity
 _atom_site_fract_x
 _atom_site_fract_y
 _atom_site_fract_z
 _atom_site_occupancy
  Tb  Tb0  1  0.027044  0.727175  0.299869  1
  Tb  Tb1  1  0.972956  0.272825  0.700131  1
  Tb  Tb2  1  0.572693  0.272825  0.299869  1
  Tb  Tb3  1  0.427307  0.727175  0.700131  1
  Tb  Tb4  1  0.676366  0.861727  0.185361  1
  Tb  Tb5  1  0.323634  0.508996  0.185361  1
  Tb  Tb6  1  0.323634  0.138273  0.814639  1
  Tb  Tb7  1  0.676366  0.491004  0.814639  1
  Tb  Tb8  1  0.179869  0.216295  0.396164  1
  Tb  Tb9  1  0.820131  0.216295  0.036425  1
  Tb  Tb10  1  0.179869  0.783705  0.963575  1
  Tb  Tb11  1  0.820131  0.783705  0.603836  1
  Zn  Zn12  1  0.000000  0.500000  0.500000  1
  Co  Co13  1  0.658760  0.500000  0.158760  1
  Co  Co14  1  0.341240  0.500000  0.841240  1
  Co  Co15  1  0.886409  0.886409  0.000000  1
  Co  Co16  1  0.113591  0.113591  0.000000  1
  Pb  Pb17  1  0.500000  0.000000  0.500000  1
