# generated using pymatgen
data_Tb2YEr3PtI10
_symmetry_space_group_name_H-M   'P 1'
_cell_length_a   7.69644777
_cell_length_b   9.72226777
_cell_length_c   9.78759235
_cell_angle_alpha   107.24591649
_cell_angle_beta   97.03084319
_cell_angle_gamma   104.68322038
_symmetry_Int_Tables_number   1
_chemical_formula_structural   Tb2YEr3PtI10
_chemical_formula_sum   'Tb2 Y1 Er3 Pt1 I10'
_cell_volume   660.95596209
_cell_formula_units_Z   1
loop_
 _symmetry_equiv_pos_site_id
 _symmetry_equiv_pos_as_xyz
  1  'x, y, z'
loop_
 _atom_site_type_symbol
 _atom_site_label
 _atom_site_symmetry_multiplicity
 _atom_site_fract_x
 _atom_site_fract_y
 _atom_site_fract_z
 _atom_site_occupancy
  Tb  Tb0  1  0.884485  0.959294  0.242041  1
  Tb  Tb1  1  0.115742  0.041118  0.758131  1
  Y  Y2  1  0.029130  0.711902  0.912998  1
  Er  Er3  1  0.345874  0.125056  0.164444  1
  Er  Er4  1  0.654091  0.875817  0.835756  1
  Er  Er5  1  0.971635  0.285084  0.086523  1
  Pt  Pt6  1  0.000069  0.000778  0.000302  1
  I  I7  1  0.353017  0.451284  0.271295  1
  I  I8  1  0.643798  0.548843  0.727734  1
  I  I9  1  0.914701  0.624986  0.178996  1
  I  I10  1  0.084903  0.373615  0.822314  1
  I  I11  1  0.453516  0.818371  0.091345  1
  I  I12  1  0.547697  0.182522  0.909494  1
  I  I13  1  0.261245  0.087851  0.461094  1
  I  I14  1  0.739005  0.912212  0.538808  1
  I  I15  1  0.776514  0.259597  0.344882  1
  I  I16  1  0.224579  0.741669  0.653842  1
