# generated using pymatgen
data_TbPaRh6C
_symmetry_space_group_name_H-M   'P 1'
_cell_length_a   5.82401447
_cell_length_b   5.82401373
_cell_length_c   5.82403000
_cell_angle_alpha   59.99990757
_cell_angle_beta   59.99991179
_cell_angle_gamma   60.00018468
_symmetry_Int_Tables_number   1
_chemical_formula_structural   TbPaRh6C
_chemical_formula_sum   'Tb1 Pa1 Rh6 C1'
_cell_volume   139.68618424
_cell_formula_units_Z   1
loop_
 _symmetry_equiv_pos_site_id
 _symmetry_equiv_pos_as_xyz
  1  'x, y, z'
loop_
 _atom_site_type_symbol
 _atom_site_label
 _atom_site_symmetry_multiplicity
 _atom_site_fract_x
 _atom_site_fract_y
 _atom_site_fract_z
 _atom_site_occupancy
  Tb  Tb0  1  0.750000  0.750000  0.750000  1
  Pa  Pa1  1  0.250000  0.250000  0.250000  1
  Rh  Rh2  1  0.747951  0.252050  0.252050  1
  Rh  Rh3  1  0.252050  0.747951  0.252050  1
  Rh  Rh4  1  0.747941  0.747941  0.252060  1
  Rh  Rh5  1  0.252059  0.252059  0.747942  1
  Rh  Rh6  1  0.747950  0.252051  0.747950  1
  Rh  Rh7  1  0.252051  0.747950  0.747950  1
  C  C8  1  0.000000  0.000000  0.000000  1
