# generated using pymatgen
data_Hf3AlCo2N
_symmetry_space_group_name_H-M   'P 1'
_cell_length_a   8.29520812
_cell_length_b   8.29520794
_cell_length_c   8.29520800
_cell_angle_alpha   59.99999977
_cell_angle_beta   60.00000049
_cell_angle_gamma   60.00000191
_symmetry_Int_Tables_number   1
_chemical_formula_structural   Hf3AlCo2N
_chemical_formula_sum   'Hf12 Al4 Co8 N4'
_cell_volume   403.61458697
_cell_formula_units_Z   4
loop_
 _symmetry_equiv_pos_site_id
 _symmetry_equiv_pos_as_xyz
  1  'x, y, z'
loop_
 _atom_site_type_symbol
 _atom_site_label
 _atom_site_symmetry_multiplicity
 _atom_site_fract_x
 _atom_site_fract_y
 _atom_site_fract_z
 _atom_site_occupancy
  Hf  Hf0  1  0.808143  0.808143  0.191857  1
  Hf  Hf1  1  0.191857  0.191857  0.808143  1
  Hf  Hf2  1  0.808143  0.191857  0.808143  1
  Hf  Hf3  1  0.191857  0.808143  0.191857  1
  Hf  Hf4  1  0.191857  0.808143  0.808143  1
  Hf  Hf5  1  0.808143  0.191857  0.191857  1
  Hf  Hf6  1  0.441857  0.441857  0.058143  1
  Hf  Hf7  1  0.058143  0.058143  0.441857  1
  Hf  Hf8  1  0.441857  0.058143  0.441857  1
  Hf  Hf9  1  0.058143  0.441857  0.058143  1
  Hf  Hf10  1  0.058143  0.441857  0.441857  1
  Hf  Hf11  1  0.441857  0.058143  0.058143  1
  Al  Al12  1  0.125000  0.625000  0.625000  1
  Al  Al13  1  0.625000  0.125000  0.625000  1
  Al  Al14  1  0.625000  0.625000  0.125000  1
  Al  Al15  1  0.625000  0.625000  0.625000  1
  Co  Co16  1  0.745182  0.418273  0.418273  1
  Co  Co17  1  0.418273  0.745182  0.418273  1
  Co  Co18  1  0.418273  0.418273  0.745182  1
  Co  Co19  1  0.418273  0.418273  0.418273  1
  Co  Co20  1  0.504818  0.831727  0.831727  1
  Co  Co21  1  0.831727  0.504818  0.831727  1
  Co  Co22  1  0.831727  0.831727  0.504818  1
  Co  Co23  1  0.831727  0.831727  0.831727  1
  N  N24  1  0.625000  0.125000  0.125000  1
  N  N25  1  0.125000  0.625000  0.125000  1
  N  N26  1  0.125000  0.125000  0.625000  1
  N  N27  1  0.125000  0.125000  0.125000  1
