# generated using pymatgen
data_TaP2Cl13
_symmetry_space_group_name_H-M   'P 1'
_cell_length_a   10.00856369
_cell_length_b   10.00848948
_cell_length_c   12.22036200
_cell_angle_alpha   90.00000000
_cell_angle_beta   90.00000000
_cell_angle_gamma   115.87629923
_symmetry_Int_Tables_number   1
_chemical_formula_structural   TaP2Cl13
_chemical_formula_sum   'Ta2 P4 Cl26'
_cell_volume   1101.38869734
_cell_formula_units_Z   2
loop_
 _symmetry_equiv_pos_site_id
 _symmetry_equiv_pos_as_xyz
  1  'x, y, z'
loop_
 _atom_site_type_symbol
 _atom_site_label
 _atom_site_symmetry_multiplicity
 _atom_site_fract_x
 _atom_site_fract_y
 _atom_site_fract_z
 _atom_site_occupancy
  Ta  Ta0  1  0.791481  0.208521  0.001242  1
  Ta  Ta1  1  0.208519  0.791479  0.501242  1
  P  P2  1  0.543946  0.456053  0.844450  1
  P  P3  1  0.857862  0.142144  0.537587  1
  P  P4  1  0.456054  0.543947  0.344450  1
  P  P5  1  0.142138  0.857856  0.037587  1
  Cl  Cl6  1  0.061764  0.238872  0.592670  1
  Cl  Cl7  1  0.317692  0.382815  0.867767  1
  Cl  Cl8  1  0.324980  0.675023  0.607008  1
  Cl  Cl9  1  0.675020  0.324977  0.107008  1
  Cl  Cl10  1  0.091575  0.908422  0.392448  1
  Cl  Cl11  1  0.908425  0.091578  0.892448  1
  Cl  Cl12  1  0.310183  0.004036  0.615784  1
  Cl  Cl13  1  0.689817  0.995964  0.115784  1
  Cl  Cl14  1  0.995965  0.689814  0.615786  1
  Cl  Cl15  1  0.004035  0.310186  0.115786  1
  Cl  Cl16  1  0.420882  0.896821  0.386428  1
  Cl  Cl17  1  0.579118  0.103179  0.886428  1
  Cl  Cl18  1  0.103179  0.579115  0.386427  1
  Cl  Cl19  1  0.896821  0.420885  0.886427  1
  Cl  Cl20  1  0.617190  0.682309  0.867766  1
  Cl  Cl21  1  0.238861  0.061759  0.092677  1
  Cl  Cl22  1  0.761139  0.938241  0.592677  1
  Cl  Cl23  1  0.938236  0.761128  0.092670  1
  Cl  Cl24  1  0.748691  0.251313  0.588758  1
  Cl  Cl25  1  0.251309  0.748687  0.088758  1
  Cl  Cl26  1  0.859563  0.140432  0.377585  1
  Cl  Cl27  1  0.140437  0.859568  0.877585  1
  Cl  Cl28  1  0.551466  0.448533  0.674418  1
  Cl  Cl29  1  0.448534  0.551467  0.174418  1
  Cl  Cl30  1  0.382810  0.317691  0.367766  1
  Cl  Cl31  1  0.682308  0.617185  0.367767  1
