# generated using pymatgen
data_Li3Nd8Dy9Si16
_symmetry_space_group_name_H-M   'P 1'
_cell_length_a   7.34377804
_cell_length_b   7.77649505
_cell_length_c   14.79620300
_cell_angle_alpha   90.00000000
_cell_angle_beta   90.00000000
_cell_angle_gamma   89.98817109
_symmetry_Int_Tables_number   1
_chemical_formula_structural   Li3Nd8Dy9Si16
_chemical_formula_sum   'Li3 Nd8 Dy9 Si16'
_cell_volume   844.99417160
_cell_formula_units_Z   1
loop_
 _symmetry_equiv_pos_site_id
 _symmetry_equiv_pos_as_xyz
  1  'x, y, z'
loop_
 _atom_site_type_symbol
 _atom_site_label
 _atom_site_symmetry_multiplicity
 _atom_site_fract_x
 _atom_site_fract_y
 _atom_site_fract_z
 _atom_site_occupancy
  Li  Li0  1  0.649763  0.986192  0.250000  1
  Li  Li1  1  0.149882  0.512480  0.250000  1
  Li  Li2  1  0.850078  0.486714  0.750000  1
  Nd  Nd3  1  0.970084  0.812639  0.104614  1
  Nd  Nd4  1  0.470450  0.687600  0.396108  1
  Nd  Nd5  1  0.531186  0.322537  0.899682  1
  Nd  Nd6  1  0.021160  0.187950  0.600044  1
  Nd  Nd7  1  0.021160  0.187950  0.899956  1
  Nd  Nd8  1  0.531186  0.322537  0.600318  1
  Nd  Nd9  1  0.470450  0.687600  0.103892  1
  Nd  Nd10  1  0.970084  0.812639  0.395386  1
  Dy  Dy11  1  0.352487  0.007898  0.750000  1
  Dy  Dy12  1  0.684301  0.814091  0.875133  1
  Dy  Dy13  1  0.173029  0.675196  0.625276  1
  Dy  Dy14  1  0.822332  0.317770  0.127341  1
  Dy  Dy15  1  0.323940  0.179046  0.373733  1
  Dy  Dy16  1  0.323940  0.179046  0.126267  1
  Dy  Dy17  1  0.822332  0.317770  0.372659  1
  Dy  Dy18  1  0.173029  0.675196  0.874724  1
  Dy  Dy19  1  0.684301  0.814091  0.624867  1
  Si  Si20  1  0.763637  0.616226  0.250000  1
  Si  Si21  1  0.264856  0.883378  0.250000  1
  Si  Si22  1  0.730509  0.116786  0.750000  1
  Si  Si23  1  0.234428  0.378735  0.750000  1
  Si  Si24  1  0.022468  0.093451  0.250000  1
  Si  Si25  1  0.521406  0.405808  0.250000  1
  Si  Si26  1  0.474369  0.604697  0.750000  1
  Si  Si27  1  0.978987  0.903940  0.750000  1
  Si  Si28  1  0.853603  0.534153  0.967757  1
  Si  Si29  1  0.355282  0.971752  0.539861  1
  Si  Si30  1  0.648990  0.033271  0.034661  1
  Si  Si31  1  0.149209  0.465844  0.462926  1
  Si  Si32  1  0.149209  0.465844  0.037074  1
  Si  Si33  1  0.648990  0.033271  0.465339  1
  Si  Si34  1  0.355282  0.971752  0.960139  1
  Si  Si35  1  0.853603  0.534153  0.532243  1
