# generated using pymatgen
data_Gd3SiCl3
_symmetry_space_group_name_H-M   'P 1'
_cell_length_a   9.91011825
_cell_length_b   9.91011835
_cell_length_c   9.91011900
_cell_angle_alpha   109.47122197
_cell_angle_beta   109.47122217
_cell_angle_gamma   109.47121601
_symmetry_Int_Tables_number   1
_chemical_formula_structural   Gd3SiCl3
_chemical_formula_sum   'Gd12 Si4 Cl12'
_cell_volume   749.22914949
_cell_formula_units_Z   4
loop_
 _symmetry_equiv_pos_site_id
 _symmetry_equiv_pos_as_xyz
  1  'x, y, z'
loop_
 _atom_site_type_symbol
 _atom_site_label
 _atom_site_symmetry_multiplicity
 _atom_site_fract_x
 _atom_site_fract_y
 _atom_site_fract_z
 _atom_site_occupancy
  Gd  Gd0  1  0.485696  0.492848  0.242848  1
  Gd  Gd1  1  0.750000  0.242848  0.257152  1
  Gd  Gd2  1  0.750000  0.007152  0.492848  1
  Gd  Gd3  1  0.242848  0.485696  0.492848  1
  Gd  Gd4  1  0.257152  0.750000  0.242848  1
  Gd  Gd5  1  0.014304  0.257152  0.007152  1
  Gd  Gd6  1  0.007152  0.014304  0.257152  1
  Gd  Gd7  1  0.492848  0.750000  0.007152  1
  Gd  Gd8  1  0.492848  0.242848  0.485696  1
  Gd  Gd9  1  0.007152  0.492848  0.750000  1
  Gd  Gd10  1  0.257152  0.007152  0.014304  1
  Gd  Gd11  1  0.242848  0.257152  0.750000  1
  Si  Si12  1  0.250000  0.250000  0.250000  1
  Si  Si13  1  0.500000  0.000000  0.250000  1
  Si  Si14  1  0.000000  0.250000  0.500000  1
  Si  Si15  1  0.250000  0.500000  0.000000  1
  Cl  Cl16  1  0.250000  0.751907  0.748093  1
  Cl  Cl17  1  0.503814  0.501907  0.751907  1
  Cl  Cl18  1  0.996186  0.748093  0.998093  1
  Cl  Cl19  1  0.748093  0.250000  0.751907  1
  Cl  Cl20  1  0.998093  0.996186  0.748093  1
  Cl  Cl21  1  0.250000  0.998093  0.501907  1
  Cl  Cl22  1  0.751907  0.503814  0.501907  1
  Cl  Cl23  1  0.501907  0.250000  0.998093  1
  Cl  Cl24  1  0.751907  0.748093  0.250000  1
  Cl  Cl25  1  0.748093  0.998093  0.996186  1
  Cl  Cl26  1  0.998093  0.501907  0.250000  1
  Cl  Cl27  1  0.501907  0.751907  0.503814  1
