# generated using pymatgen
data_EuSc(Si7Ir3)2
_symmetry_space_group_name_H-M   'P 1'
_cell_length_a   8.01270975
_cell_length_b   8.01270924
_cell_length_c   8.01270966
_cell_angle_alpha   56.77080754
_cell_angle_beta   56.77080728
_cell_angle_gamma   56.77080609
_symmetry_Int_Tables_number   1
_chemical_formula_structural   EuSc(Si7Ir3)2
_chemical_formula_sum   'Eu1 Sc1 Si14 Ir6'
_cell_volume   336.65121879
_cell_formula_units_Z   1
loop_
 _symmetry_equiv_pos_site_id
 _symmetry_equiv_pos_as_xyz
  1  'x, y, z'
loop_
 _atom_site_type_symbol
 _atom_site_label
 _atom_site_symmetry_multiplicity
 _atom_site_fract_x
 _atom_site_fract_y
 _atom_site_fract_z
 _atom_site_occupancy
  Eu  Eu0  1  0.000000  0.000000  0.000000  1
  Sc  Sc1  1  0.500000  0.500000  0.500000  1
  Si  Si2  1  0.750318  0.750318  0.750318  1
  Si  Si3  1  0.249682  0.249682  0.249682  1
  Si  Si4  1  0.849845  0.066991  0.671999  1
  Si  Si5  1  0.671999  0.849845  0.066991  1
  Si  Si6  1  0.066991  0.671999  0.849845  1
  Si  Si7  1  0.648938  0.826485  0.435556  1
  Si  Si8  1  0.435556  0.648938  0.826485  1
  Si  Si9  1  0.826485  0.435556  0.648938  1
  Si  Si10  1  0.173515  0.564444  0.351062  1
  Si  Si11  1  0.564444  0.351062  0.173515  1
  Si  Si12  1  0.351062  0.173515  0.564444  1
  Si  Si13  1  0.933009  0.328001  0.150155  1
  Si  Si14  1  0.328001  0.150155  0.933009  1
  Si  Si15  1  0.150155  0.933009  0.328001  1
  Ir  Ir16  1  0.074484  0.433316  0.745428  1
  Ir  Ir17  1  0.254572  0.925516  0.566684  1
  Ir  Ir18  1  0.566684  0.254572  0.925516  1
  Ir  Ir19  1  0.925516  0.566684  0.254572  1
  Ir  Ir20  1  0.433316  0.745428  0.074484  1
  Ir  Ir21  1  0.745428  0.074484  0.433316  1
