# generated using pymatgen
data_Zr2B4Mo2Ru3
_symmetry_space_group_name_H-M   'P 1'
_cell_length_a   3.10790600
_cell_length_b   8.76811001
_cell_length_c   10.01376101
_cell_angle_alpha   89.99923379
_cell_angle_beta   90.00000000
_cell_angle_gamma   90.00000000
_symmetry_Int_Tables_number   1
_chemical_formula_structural   Zr2B4Mo2Ru3
_chemical_formula_sum   'Zr4 B8 Mo4 Ru6'
_cell_volume   272.87961097
_cell_formula_units_Z   2
loop_
 _symmetry_equiv_pos_site_id
 _symmetry_equiv_pos_as_xyz
  1  'x, y, z'
loop_
 _atom_site_type_symbol
 _atom_site_label
 _atom_site_symmetry_multiplicity
 _atom_site_fract_x
 _atom_site_fract_y
 _atom_site_fract_z
 _atom_site_occupancy
  Zr  Zr0  1  0.500000  0.837463  0.181350  1
  Zr  Zr1  1  0.500000  0.162537  0.818650  1
  Zr  Zr2  1  0.500000  0.662543  0.681346  1
  Zr  Zr3  1  0.500000  0.337457  0.318654  1
  B  B4  1  0.500000  0.967715  0.585759  1
  B  B5  1  0.500000  0.032285  0.414241  1
  B  B6  1  0.500000  0.851069  0.900400  1
  B  B7  1  0.500000  0.148931  0.099600  1
  B  B8  1  0.500000  0.648916  0.400384  1
  B  B9  1  0.500000  0.351084  0.599616  1
  B  B10  1  0.500000  0.467739  0.914229  1
  B  B11  1  0.500000  0.532261  0.085771  1
  Mo  Mo12  1  0.000000  0.663038  0.952570  1
  Mo  Mo13  1  0.000000  0.336962  0.047430  1
  Mo  Mo14  1  0.000000  0.836984  0.452562  1
  Mo  Mo15  1  0.000000  0.163016  0.547438  1
  Ru  Ru16  1  0.000000  0.000000  0.000000  1
  Ru  Ru17  1  0.000000  0.409376  0.760396  1
  Ru  Ru18  1  0.000000  0.590624  0.239604  1
  Ru  Ru19  1  0.000000  0.500000  0.500000  1
  Ru  Ru20  1  0.000000  0.909371  0.739601  1
  Ru  Ru21  1  0.000000  0.090629  0.260399  1
