# generated using pymatgen
data_Na2Dy3P12Ir16Rh3
_symmetry_space_group_name_H-M   'P 1'
_cell_length_a   12.62903300
_cell_length_b   12.69239285
_cell_length_c   3.98151500
_cell_angle_alpha   90.00000000
_cell_angle_beta   90.00000000
_cell_angle_gamma   119.83500700
_symmetry_Int_Tables_number   1
_chemical_formula_structural   Na2Dy3P12Ir16Rh3
_chemical_formula_sum   'Na2 Dy3 P12 Ir16 Rh3'
_cell_volume   553.62060078
_cell_formula_units_Z   1
loop_
 _symmetry_equiv_pos_site_id
 _symmetry_equiv_pos_as_xyz
  1  'x, y, z'
loop_
 _atom_site_type_symbol
 _atom_site_label
 _atom_site_symmetry_multiplicity
 _atom_site_fract_x
 _atom_site_fract_y
 _atom_site_fract_z
 _atom_site_occupancy
  Na  Na0  1  0.000286  0.817657  0.000000  1
  Na  Na1  1  0.182629  0.182343  0.000000  1
  Dy  Dy2  1  0.334538  0.667192  0.500000  1
  Dy  Dy3  1  0.667347  0.332808  0.500000  1
  Dy  Dy4  1  0.818110  0.000000  0.000000  1
  P  P5  1  0.999775  0.641532  0.500000  1
  P  P6  1  0.358244  0.358468  0.500000  1
  P  P7  1  0.640582  0.000000  0.500000  1
  P  P8  1  0.518179  0.687160  0.000000  1
  P  P9  1  0.310578  0.829562  0.000000  1
  P  P10  1  0.169830  0.482277  0.000000  1
  P  P11  1  0.481016  0.170438  0.000000  1
  P  P12  1  0.687553  0.517723  0.000000  1
  P  P13  1  0.831018  0.312840  0.000000  1
  P  P14  1  0.002946  0.180918  0.500000  1
  P  P15  1  0.822029  0.819082  0.500000  1
  P  P16  1  0.178853  0.000000  0.500000  1
  Ir  Ir17  1  0.506040  0.865908  0.000000  1
  Ir  Ir18  1  0.131359  0.639198  0.000000  1
  Ir  Ir19  1  0.360487  0.492920  0.000000  1
  Ir  Ir20  1  0.492162  0.360802  0.000000  1
  Ir  Ir21  1  0.867567  0.507080  0.000000  1
  Ir  Ir22  1  0.640133  0.134092  0.000000  1
  Ir  Ir23  1  0.000152  0.282205  0.000000  1
  Ir  Ir24  1  0.717947  0.717795  0.000000  1
  Ir  Ir25  1  0.282845  0.000000  0.000000  1
  Ir  Ir26  1  0.625883  0.806356  0.500000  1
  Ir  Ir27  1  0.196989  0.818742  0.500000  1
  Ir  Ir28  1  0.181520  0.380026  0.500000  1
  Ir  Ir29  1  0.378249  0.181258  0.500000  1
  Ir  Ir30  1  0.801494  0.619974  0.500000  1
  Ir  Ir31  1  0.819527  0.193644  0.500000  1
  Ir  Ir32  1  0.996576  0.000000  0.500000  1
  Rh  Rh33  1  0.998859  0.460495  0.500000  1
  Rh  Rh34  1  0.538365  0.539505  0.500000  1
  Rh  Rh35  1  0.460331  0.000000  0.500000  1
