# generated using pymatgen
data_La18Dy2Ir5Pt7
_symmetry_space_group_name_H-M   'P 1'
_cell_length_a   11.56158498
_cell_length_b   11.56158475
_cell_length_c   6.57194200
_cell_angle_alpha   90.05826421
_cell_angle_beta   90.05826421
_cell_angle_gamma   90.08511936
_symmetry_Int_Tables_number   1
_chemical_formula_structural   La18Dy2Ir5Pt7
_chemical_formula_sum   'La18 Dy2 Ir5 Pt7'
_cell_volume   878.47121554
_cell_formula_units_Z   1
loop_
 _symmetry_equiv_pos_site_id
 _symmetry_equiv_pos_as_xyz
  1  'x, y, z'
loop_
 _atom_site_type_symbol
 _atom_site_label
 _atom_site_symmetry_multiplicity
 _atom_site_fract_x
 _atom_site_fract_y
 _atom_site_fract_z
 _atom_site_occupancy
  La  La0  1  0.295481  0.088400  0.376219  1
  La  La1  1  0.296568  0.906608  0.876339  1
  La  La2  1  0.703455  0.087916  0.875783  1
  La  La3  1  0.703241  0.910017  0.375242  1
  La  La4  1  0.585288  0.788463  0.877727  1
  La  La5  1  0.588322  0.209106  0.378974  1
  La  La6  1  0.409485  0.788311  0.384485  1
  La  La7  1  0.411006  0.207394  0.879275  1
  La  La8  1  0.211537  0.414712  0.622273  1
  La  La9  1  0.211689  0.590515  0.115515  1
  La  La10  1  0.790894  0.411678  0.121026  1
  La  La11  1  0.792606  0.588994  0.620725  1
  La  La12  1  0.911600  0.704519  0.123781  1
  La  La13  1  0.912084  0.296545  0.624217  1
  La  La14  1  0.093392  0.703432  0.623661  1
  La  La15  1  0.089983  0.296759  0.124758  1
  La  La16  1  0.998895  0.999453  0.500601  1
  La  La17  1  0.000547  0.001105  0.999399  1
  Dy  Dy18  1  0.497867  0.500992  0.999058  1
  Dy  Dy19  1  0.499008  0.502133  0.500942  1
  Ir  Ir20  1  0.353829  0.646171  0.750000  1
  Ir  Ir21  1  0.500172  0.999751  0.116306  1
  Ir  Ir22  1  0.499859  0.000905  0.614631  1
  Ir  Ir23  1  0.999095  0.500141  0.885369  1
  Ir  Ir24  1  0.000249  0.499828  0.383694  1
  Pt  Pt25  1  0.844263  0.155737  0.250000  1
  Pt  Pt26  1  0.843527  0.845006  0.750794  1
  Pt  Pt27  1  0.154994  0.156473  0.749206  1
  Pt  Pt28  1  0.154868  0.845132  0.250000  1
  Pt  Pt29  1  0.644992  0.355008  0.750000  1
  Pt  Pt30  1  0.646382  0.645175  0.250185  1
  Pt  Pt31  1  0.354825  0.353618  0.249815  1
