# generated using pymatgen
data_La2PrSn2Hg3
_symmetry_space_group_name_H-M   'P 1'
_cell_length_a   6.56684630
_cell_length_b   6.56684641
_cell_length_c   10.88419000
_cell_angle_alpha   90.00000000
_cell_angle_beta   90.00000000
_cell_angle_gamma   101.89202758
_symmetry_Int_Tables_number   1
_chemical_formula_structural   La2PrSn2Hg3
_chemical_formula_sum   'La4 Pr2 Sn4 Hg6'
_cell_volume   459.29040516
_cell_formula_units_Z   2
loop_
 _symmetry_equiv_pos_site_id
 _symmetry_equiv_pos_as_xyz
  1  'x, y, z'
loop_
 _atom_site_type_symbol
 _atom_site_label
 _atom_site_symmetry_multiplicity
 _atom_site_fract_x
 _atom_site_fract_y
 _atom_site_fract_z
 _atom_site_occupancy
  La  La0  1  0.200151  0.799849  0.500000  1
  La  La1  1  0.200151  0.799849  0.000000  1
  La  La2  1  0.799849  0.200151  0.500000  1
  La  La3  1  0.799849  0.200151  0.000000  1
  Pr  Pr4  1  0.635568  0.635568  0.250000  1
  Pr  Pr5  1  0.364432  0.364432  0.750000  1
  Sn  Sn6  1  0.317311  0.317311  0.046735  1
  Sn  Sn7  1  0.682689  0.682689  0.953265  1
  Sn  Sn8  1  0.317311  0.317311  0.453265  1
  Sn  Sn9  1  0.682689  0.682689  0.546735  1
  Hg  Hg10  1  0.019659  0.019659  0.250000  1
  Hg  Hg11  1  0.980341  0.980341  0.750000  1
  Hg  Hg12  1  0.505111  0.080805  0.250000  1
  Hg  Hg13  1  0.919195  0.494889  0.750000  1
  Hg  Hg14  1  0.494889  0.919195  0.750000  1
  Hg  Hg15  1  0.080805  0.505111  0.250000  1
