# generated using pymatgen
data_Tb8OsRu3C8
_symmetry_space_group_name_H-M   'P 1'
_cell_length_a   5.16629400
_cell_length_b   6.46440197
_cell_length_c   9.83006100
_cell_angle_alpha   90.08947959
_cell_angle_beta   90.00000000
_cell_angle_gamma   90.00000000
_symmetry_Int_Tables_number   1
_chemical_formula_structural   Tb8OsRu3C8
_chemical_formula_sum   'Tb8 Os1 Ru3 C8'
_cell_volume   328.29415773
_cell_formula_units_Z   1
loop_
 _symmetry_equiv_pos_site_id
 _symmetry_equiv_pos_as_xyz
  1  'x, y, z'
loop_
 _atom_site_type_symbol
 _atom_site_label
 _atom_site_symmetry_multiplicity
 _atom_site_fract_x
 _atom_site_fract_y
 _atom_site_fract_z
 _atom_site_occupancy
  Tb  Tb0  1  0.750000  0.816472  0.053536  1
  Tb  Tb1  1  0.250000  0.680406  0.553321  1
  Tb  Tb2  1  0.750000  0.319743  0.447290  1
  Tb  Tb3  1  0.250000  0.181501  0.947446  1
  Tb  Tb4  1  0.750000  0.475444  0.782138  1
  Tb  Tb5  1  0.250000  0.025802  0.282967  1
  Tb  Tb6  1  0.750000  0.974562  0.716428  1
  Tb  Tb7  1  0.250000  0.524976  0.217640  1
  Os  Os8  1  0.750000  0.277477  0.135229  1
  Ru  Ru9  1  0.250000  0.221441  0.635668  1
  Ru  Ru10  1  0.750000  0.777864  0.365209  1
  Ru  Ru11  1  0.250000  0.722441  0.864665  1
  C  C12  1  0.750000  0.177433  0.948621  1
  C  C13  1  0.250000  0.824493  0.052129  1
  C  C14  1  0.750000  0.675675  0.551974  1
  C  C15  1  0.250000  0.324674  0.447873  1
  C  C16  1  0.750000  0.042398  0.255687  1
  C  C17  1  0.250000  0.458136  0.756944  1
  C  C18  1  0.750000  0.540602  0.241509  1
  C  C19  1  0.250000  0.958459  0.743727  1
