# generated using pymatgen
data_La3TlGe
_symmetry_space_group_name_H-M   'P 1'
_cell_length_a   12.35165123
_cell_length_b   11.95936517
_cell_length_c   11.95003100
_cell_angle_alpha   62.20922380
_cell_angle_beta   58.93245819
_cell_angle_gamma   58.85831770
_symmetry_Int_Tables_number   1
_chemical_formula_structural   La3TlGe
_chemical_formula_sum   'La24 Tl8 Ge8'
_cell_volume   1245.35985496
_cell_formula_units_Z   8
loop_
 _symmetry_equiv_pos_site_id
 _symmetry_equiv_pos_as_xyz
  1  'x, y, z'
loop_
 _atom_site_type_symbol
 _atom_site_label
 _atom_site_symmetry_multiplicity
 _atom_site_fract_x
 _atom_site_fract_y
 _atom_site_fract_z
 _atom_site_occupancy
  La  La0  1  0.641862  0.358138  0.358138  1
  La  La1  1  0.140066  0.859934  0.859934  1
  La  La2  1  0.354423  0.645577  0.645577  1
  La  La3  1  0.859235  0.140765  0.140765  1
  La  La4  1  0.700465  0.063246  0.668300  1
  La  La5  1  0.567989  0.668300  0.063246  1
  La  La6  1  0.069680  0.562346  0.161693  1
  La  La7  1  0.206282  0.161693  0.562346  1
  La  La8  1  0.838306  0.793718  0.930320  1
  La  La9  1  0.437654  0.930320  0.793718  1
  La  La10  1  0.331700  0.432011  0.299535  1
  La  La11  1  0.936754  0.299535  0.432011  1
  La  La12  1  0.300767  0.936293  0.335663  1
  La  La13  1  0.427277  0.335663  0.936293  1
  La  La14  1  0.935431  0.438417  0.832198  1
  La  La15  1  0.793955  0.832198  0.438417  1
  La  La16  1  0.167802  0.206045  0.064569  1
  La  La17  1  0.561583  0.064569  0.206045  1
  La  La18  1  0.664337  0.572723  0.699233  1
  La  La19  1  0.063707  0.699233  0.572723  1
  La  La20  1  0.664229  0.671090  0.335771  1
  La  La21  1  0.328910  0.335771  0.671090  1
  La  La22  1  0.832765  0.167235  0.832425  1
  La  La23  1  0.167575  0.832425  0.167235  1
  Tl  Tl24  1  0.500029  0.999971  0.999971  1
  Tl  Tl25  1  0.000029  0.499971  0.499971  1
  Tl  Tl26  1  0.624109  0.375891  0.027711  1
  Tl  Tl27  1  0.972289  0.027711  0.375891  1
  Tl  Tl28  1  0.527773  0.122800  0.472227  1
  Tl  Tl29  1  0.877200  0.472227  0.122800  1
  Tl  Tl30  1  0.376247  0.623753  0.970646  1
  Tl  Tl31  1  0.029354  0.970646  0.623753  1
  Ge  Ge32  1  0.120675  0.120495  0.879325  1
  Ge  Ge33  1  0.879505  0.879325  0.120495  1
  Ge  Ge34  1  0.379248  0.620752  0.380759  1
  Ge  Ge35  1  0.619241  0.380759  0.620752  1
  Ge  Ge36  1  0.750039  0.749961  0.749961  1
  Ge  Ge37  1  0.250039  0.249961  0.249961  1
  Ge  Ge38  1  0.476535  0.874771  0.523465  1
  Ge  Ge39  1  0.125229  0.523465  0.874771  1
