# generated using pymatgen
data_La14Pr6Si15P
_symmetry_space_group_name_H-M   'P 1'
_cell_length_a   7.98722767
_cell_length_b   7.98938726
_cell_length_c   15.49669573
_cell_angle_alpha   89.86176065
_cell_angle_beta   89.75075105
_cell_angle_gamma   90.08285769
_symmetry_Int_Tables_number   1
_chemical_formula_structural   La14Pr6Si15P
_chemical_formula_sum   'La14 Pr6 Si15 P1'
_cell_volume   988.87821250
_cell_formula_units_Z   1
loop_
 _symmetry_equiv_pos_site_id
 _symmetry_equiv_pos_as_xyz
  1  'x, y, z'
loop_
 _atom_site_type_symbol
 _atom_site_label
 _atom_site_symmetry_multiplicity
 _atom_site_fract_x
 _atom_site_fract_y
 _atom_site_fract_z
 _atom_site_occupancy
  La  La0  1  0.310790  0.310006  0.999884  1
  La  La1  1  0.189665  0.808899  0.249823  1
  La  La2  1  0.808266  0.190816  0.750085  1
  La  La3  1  0.689462  0.689272  0.499201  1
  La  La4  1  0.380595  0.009434  0.444924  1
  La  La5  1  0.487898  0.879184  0.697452  1
  La  La6  1  0.511903  0.122524  0.197315  1
  La  La7  1  0.877672  0.487806  0.302561  1
  La  La8  1  0.123397  0.508170  0.802035  1
  La  La9  1  0.623266  0.988368  0.946729  1
  La  La10  1  0.010692  0.376001  0.553476  1
  La  La11  1  0.989001  0.620852  0.052422  1
  La  La12  1  0.128729  0.985337  0.874565  1
  La  La13  1  0.518083  0.627470  0.126143  1
  Pr  Pr14  1  0.477643  0.368463  0.627392  1
  Pr  Pr15  1  0.627297  0.517376  0.872673  1
  Pr  Pr16  1  0.371140  0.480585  0.375041  1
  Pr  Pr17  1  0.873881  0.018121  0.377215  1
  Pr  Pr18  1  0.981866  0.128019  0.124059  1
  Pr  Pr19  1  0.021528  0.877851  0.624455  1
  Si  Si20  1  0.331823  0.697166  0.951312  1
  Si  Si21  1  0.668134  0.303155  0.453635  1
  Si  Si22  1  0.699209  0.332008  0.046963  1
  Si  Si23  1  0.301725  0.667534  0.549033  1
  Si  Si24  1  0.803621  0.833551  0.202956  1
  Si  Si25  1  0.167991  0.197109  0.297281  1
  Si  Si26  1  0.833341  0.801626  0.796444  1
  Si  Si27  1  0.287862  0.920596  0.058497  1
  Si  Si28  1  0.579624  0.788611  0.309161  1
  Si  Si29  1  0.425057  0.211595  0.810753  1
  Si  Si30  1  0.788694  0.580520  0.689644  1
  Si  Si31  1  0.210522  0.420725  0.191190  1
  Si  Si32  1  0.709377  0.077910  0.559669  1
  Si  Si33  1  0.921513  0.288906  0.940661  1
  Si  Si34  1  0.079006  0.711004  0.442141  1
  P  P35  1  0.189726  0.173427  0.703214  1
