# generated using pymatgen
data_Lu4Al18Co5Pt
_symmetry_space_group_name_H-M   'P 1'
_cell_length_a   7.37588560
_cell_length_b   7.37588611
_cell_length_c   9.24615461
_cell_angle_alpha   89.84328683
_cell_angle_beta   89.84328333
_cell_angle_gamma   119.16429527
_symmetry_Int_Tables_number   1
_chemical_formula_structural   Lu4Al18Co5Pt
_chemical_formula_sum   'Lu4 Al18 Co5 Pt1'
_cell_volume   439.24801668
_cell_formula_units_Z   1
loop_
 _symmetry_equiv_pos_site_id
 _symmetry_equiv_pos_as_xyz
  1  'x, y, z'
loop_
 _atom_site_type_symbol
 _atom_site_label
 _atom_site_symmetry_multiplicity
 _atom_site_fract_x
 _atom_site_fract_y
 _atom_site_fract_z
 _atom_site_occupancy
  Lu  Lu0  1  0.994511  0.675468  0.251464  1
  Lu  Lu1  1  0.005489  0.324532  0.748536  1
  Lu  Lu2  1  0.675468  0.994511  0.251464  1
  Lu  Lu3  1  0.324532  0.005489  0.748536  1
  Al  Al4  1  0.130981  0.130981  0.258535  1
  Al  Al5  1  0.869019  0.869019  0.741465  1
  Al  Al6  1  0.331424  0.331424  0.543323  1
  Al  Al7  1  0.660498  0.660498  0.048089  1
  Al  Al8  1  0.339502  0.339502  0.951911  1
  Al  Al9  1  0.668576  0.668576  0.456677  1
  Al  Al10  1  0.339819  0.557440  0.251298  1
  Al  Al11  1  0.660181  0.442560  0.748702  1
  Al  Al12  1  0.557440  0.339819  0.251298  1
  Al  Al13  1  0.442560  0.660181  0.748702  1
  Al  Al14  1  0.998653  0.344376  0.075030  1
  Al  Al15  1  0.003798  0.663805  0.571267  1
  Al  Al16  1  0.336195  0.996202  0.428733  1
  Al  Al17  1  0.655624  0.001347  0.924970  1
  Al  Al18  1  0.001347  0.655624  0.924970  1
  Al  Al19  1  0.996202  0.336195  0.428733  1
  Al  Al20  1  0.663805  0.003798  0.571267  1
  Al  Al21  1  0.344376  0.998653  0.075030  1
  Co  Co22  1  0.000000  0.000000  0.500000  1
  Co  Co23  1  0.671232  0.328768  0.000000  1
  Co  Co24  1  0.328693  0.671307  0.500000  1
  Co  Co25  1  0.328768  0.671232  0.000000  1
  Co  Co26  1  0.671307  0.328693  0.500000  1
  Pt  Pt27  1  0.000000  0.000000  0.000000  1
