# generated using pymatgen
data_Dy4Lu(FeTe)2
_symmetry_space_group_name_H-M   'P 1'
_cell_length_a   7.77576811
_cell_length_b   7.77576730
_cell_length_c   15.12283673
_cell_angle_alpha   90.03322247
_cell_angle_beta   89.96677729
_cell_angle_gamma   150.64994194
_symmetry_Int_Tables_number   1
_chemical_formula_structural   Dy4Lu(FeTe)2
_chemical_formula_sum   'Dy8 Lu2 Fe4 Te4'
_cell_volume   448.17082843
_cell_formula_units_Z   2
loop_
 _symmetry_equiv_pos_site_id
 _symmetry_equiv_pos_as_xyz
  1  'x, y, z'
loop_
 _atom_site_type_symbol
 _atom_site_label
 _atom_site_symmetry_multiplicity
 _atom_site_fract_x
 _atom_site_fract_y
 _atom_site_fract_z
 _atom_site_occupancy
  Dy  Dy0  1  0.962680  0.037320  0.378910  1
  Dy  Dy1  1  0.037238  0.962762  0.621088  1
  Dy  Dy2  1  0.037394  0.962606  0.878643  1
  Dy  Dy3  1  0.962516  0.037484  0.121324  1
  Dy  Dy4  1  0.743000  0.257000  0.629484  1
  Dy  Dy5  1  0.257182  0.742818  0.370464  1
  Dy  Dy6  1  0.257127  0.742873  0.129669  1
  Dy  Dy7  1  0.742949  0.257051  0.870338  1
  Lu  Lu8  1  0.396965  0.603035  0.749971  1
  Lu  Lu9  1  0.602941  0.397059  0.250072  1
  Fe  Fe10  1  0.830542  0.169458  0.250225  1
  Fe  Fe11  1  0.169443  0.830557  0.749925  1
  Fe  Fe12  1  0.405918  0.594082  0.250275  1
  Fe  Fe13  1  0.594035  0.405965  0.749600  1
  Te  Te14  1  0.618317  0.381683  0.039914  1
  Te  Te15  1  0.381665  0.618335  0.960128  1
  Te  Te16  1  0.381637  0.618363  0.539896  1
  Te  Te17  1  0.618452  0.381548  0.460073  1
