# generated using pymatgen
data_Dy5ScNbP12Ir17
_symmetry_space_group_name_H-M   'P 1'
_cell_length_a   12.61959360
_cell_length_b   12.82666372
_cell_length_c   3.98340200
_cell_angle_alpha   90.00000000
_cell_angle_beta   90.00000000
_cell_angle_gamma   119.50282494
_symmetry_Int_Tables_number   1
_chemical_formula_structural   Dy5ScNbP12Ir17
_chemical_formula_sum   'Dy5 Sc1 Nb1 P12 Ir17'
_cell_volume   561.17443194
_cell_formula_units_Z   1
loop_
 _symmetry_equiv_pos_site_id
 _symmetry_equiv_pos_as_xyz
  1  'x, y, z'
loop_
 _atom_site_type_symbol
 _atom_site_label
 _atom_site_symmetry_multiplicity
 _atom_site_fract_x
 _atom_site_fract_y
 _atom_site_fract_z
 _atom_site_occupancy
  Dy  Dy0  1  0.330660  0.661363  0.500000  1
  Dy  Dy1  1  0.668878  0.338622  0.500000  1
  Dy  Dy2  1  0.999607  0.813726  0.000000  1
  Dy  Dy3  1  0.186779  0.186507  0.000000  1
  Dy  Dy4  1  0.813354  0.999131  0.000000  1
  Sc  Sc5  1  0.997546  0.444078  0.500000  1
  Nb  Nb6  1  0.547545  0.549182  0.500000  1
  P  P7  1  0.003272  0.648248  0.500000  1
  P  P8  1  0.361689  0.358066  0.500000  1
  P  P9  1  0.644636  0.998731  0.500000  1
  P  P10  1  0.514312  0.683241  0.000000  1
  P  P11  1  0.308953  0.824245  0.000000  1
  P  P12  1  0.165141  0.481522  0.000000  1
  P  P13  1  0.485107  0.175901  0.000000  1
  P  P14  1  0.682492  0.519573  0.000000  1
  P  P15  1  0.829241  0.315074  0.000000  1
  P  P16  1  0.000094  0.176085  0.500000  1
  P  P17  1  0.824707  0.825370  0.500000  1
  P  P18  1  0.181008  0.000242  0.500000  1
  Ir  Ir19  1  0.504934  0.863436  0.000000  1
  Ir  Ir20  1  0.126137  0.643008  0.000000  1
  Ir  Ir21  1  0.355942  0.493543  0.000000  1
  Ir  Ir22  1  0.486858  0.358548  0.000000  1
  Ir  Ir23  1  0.860665  0.506803  0.000000  1
  Ir  Ir24  1  0.640176  0.134793  0.000000  1
  Ir  Ir25  1  0.464496  0.999897  0.500000  1
  Ir  Ir26  1  0.997176  0.279157  0.000000  1
  Ir  Ir27  1  0.714785  0.718270  0.000000  1
  Ir  Ir28  1  0.291122  0.000511  0.000000  1
  Ir  Ir29  1  0.624227  0.806625  0.500000  1
  Ir  Ir30  1  0.203004  0.825766  0.500000  1
  Ir  Ir31  1  0.179429  0.368334  0.500000  1
  Ir  Ir32  1  0.378190  0.175867  0.500000  1
  Ir  Ir33  1  0.809533  0.634087  0.500000  1
  Ir  Ir34  1  0.815078  0.191425  0.500000  1
  Ir  Ir35  1  0.003226  0.001024  0.500000  1
