# generated using pymatgen
data_Tb7HoHf9Nb3Si16
_symmetry_space_group_name_H-M   'P 1'
_cell_length_a   7.24198643
_cell_length_b   7.24096828
_cell_length_c   13.28641228
_cell_angle_alpha   90.05608709
_cell_angle_beta   90.03880941
_cell_angle_gamma   90.04368187
_symmetry_Int_Tables_number   1
_chemical_formula_structural   Tb7HoHf9Nb3Si16
_chemical_formula_sum   'Tb7 Ho1 Hf9 Nb3 Si16'
_cell_volume   696.72539716
_cell_formula_units_Z   1
loop_
 _symmetry_equiv_pos_site_id
 _symmetry_equiv_pos_as_xyz
  1  'x, y, z'
loop_
 _atom_site_type_symbol
 _atom_site_label
 _atom_site_symmetry_multiplicity
 _atom_site_fract_x
 _atom_site_fract_y
 _atom_site_fract_z
 _atom_site_occupancy
  Tb  Tb0  1  0.003059  0.657235  0.714226  1
  Tb  Tb1  1  0.155831  0.498105  0.464298  1
  Tb  Tb2  1  0.501797  0.844072  0.035636  1
  Tb  Tb3  1  0.844138  0.502761  0.966707  1
  Tb  Tb4  1  0.497154  0.155908  0.533373  1
  Tb  Tb5  1  0.342757  0.996947  0.785769  1
  Tb  Tb6  1  0.655962  0.001528  0.285405  1
  Ho  Ho7  1  0.999265  0.344499  0.214300  1
  Hf  Hf8  1  0.675035  0.324975  0.750000  1
  Hf  Hf9  1  0.148153  0.993584  0.374852  1
  Hf  Hf10  1  0.852807  0.004501  0.876337  1
  Hf  Hf11  1  0.506469  0.649880  0.622685  1
  Hf  Hf12  1  0.350022  0.493555  0.877367  1
  Hf  Hf13  1  0.493180  0.351752  0.125112  1
  Hf  Hf14  1  0.648339  0.506652  0.374850  1
  Hf  Hf15  1  0.995569  0.147215  0.623696  1
  Hf  Hf16  1  0.006388  0.851903  0.125115  1
  Nb  Nb17  1  0.175310  0.175011  0.000757  1
  Nb  Nb18  1  0.825113  0.824565  0.499344  1
  Nb  Nb19  1  0.324095  0.675451  0.249983  1
  Si  Si20  1  0.362427  0.295868  0.316538  1
  Si  Si21  1  0.636605  0.704788  0.816958  1
  Si  Si22  1  0.204176  0.862639  0.566294  1
  Si  Si23  1  0.137310  0.795817  0.933711  1
  Si  Si24  1  0.796042  0.137402  0.067393  1
  Si  Si25  1  0.863086  0.204511  0.432866  1
  Si  Si26  1  0.295186  0.363421  0.683076  1
  Si  Si27  1  0.704704  0.636599  0.183264  1
  Si  Si28  1  0.295245  0.049072  0.185376  1
  Si  Si29  1  0.704752  0.950206  0.684332  1
  Si  Si30  1  0.450703  0.795799  0.434397  1
  Si  Si31  1  0.203840  0.548868  0.065835  1
  Si  Si32  1  0.547570  0.203359  0.936258  1
  Si  Si33  1  0.796712  0.452495  0.563741  1
  Si  Si34  1  0.049783  0.295256  0.815689  1
  Si  Si35  1  0.951415  0.703799  0.314463  1
