# generated using pymatgen
data_Be4VFe
_symmetry_space_group_name_H-M   'P 1'
_cell_length_a   4.22099620
_cell_length_b   4.22099546
_cell_length_c   4.22099500
_cell_angle_alpha   59.99999580
_cell_angle_beta   60.00000159
_cell_angle_gamma   59.99999074
_symmetry_Int_Tables_number   1
_chemical_formula_structural   Be4VFe
_chemical_formula_sum   'Be4 V1 Fe1'
_cell_volume   53.17771203
_cell_formula_units_Z   1
loop_
 _symmetry_equiv_pos_site_id
 _symmetry_equiv_pos_as_xyz
  1  'x, y, z'
loop_
 _atom_site_type_symbol
 _atom_site_label
 _atom_site_symmetry_multiplicity
 _atom_site_fract_x
 _atom_site_fract_y
 _atom_site_fract_z
 _atom_site_occupancy
  Be  Be0  1  0.625309  0.625309  0.124074  1
  Be  Be1  1  0.625309  0.124074  0.625309  1
  Be  Be2  1  0.124074  0.625309  0.625309  1
  Be  Be3  1  0.625309  0.625309  0.625309  1
  V  V4  1  0.000000  0.000000  0.000000  1
  Fe  Fe5  1  0.250000  0.250000  0.250000  1
