# generated using pymatgen
data_Dy4Ho3Tm13Bi12
_symmetry_space_group_name_H-M   'P 1'
_cell_length_a   8.19705904
_cell_length_b   9.43906200
_cell_length_c   11.94807206
_cell_angle_alpha   90.00000000
_cell_angle_beta   90.01129893
_cell_angle_gamma   90.00000000
_symmetry_Int_Tables_number   1
_chemical_formula_structural   Dy4Ho3Tm13Bi12
_chemical_formula_sum   'Dy4 Ho3 Tm13 Bi12'
_cell_volume   924.45276676
_cell_formula_units_Z   1
loop_
 _symmetry_equiv_pos_site_id
 _symmetry_equiv_pos_as_xyz
  1  'x, y, z'
loop_
 _atom_site_type_symbol
 _atom_site_label
 _atom_site_symmetry_multiplicity
 _atom_site_fract_x
 _atom_site_fract_y
 _atom_site_fract_z
 _atom_site_occupancy
  Dy  Dy0  1  0.312430  0.250000  0.218287  1
  Dy  Dy1  1  0.812454  0.250000  0.281743  1
  Dy  Dy2  1  0.687505  0.750000  0.781648  1
  Dy  Dy3  1  0.187645  0.750000  0.718282  1
  Ho  Ho4  1  0.352365  0.750000  0.216772  1
  Ho  Ho5  1  0.852515  0.750000  0.283187  1
  Ho  Ho6  1  0.647423  0.250000  0.783123  1
  Tm  Tm7  1  0.147502  0.250000  0.717063  1
  Tm  Tm8  1  0.692524  0.565584  0.059006  1
  Tm  Tm9  1  0.192532  0.934360  0.441026  1
  Tm  Tm10  1  0.307376  0.065713  0.940768  1
  Tm  Tm11  1  0.807522  0.434374  0.559040  1
  Tm  Tm12  1  0.307376  0.434287  0.940768  1
  Tm  Tm13  1  0.807522  0.065626  0.559040  1
  Tm  Tm14  1  0.692524  0.934416  0.059006  1
  Tm  Tm15  1  0.192532  0.565640  0.441026  1
  Tm  Tm16  1  0.476199  0.250000  0.488812  1
  Tm  Tm17  1  0.976353  0.250000  0.010992  1
  Tm  Tm18  1  0.523743  0.750000  0.511275  1
  Tm  Tm19  1  0.023891  0.750000  0.988734  1
  Bi  Bi20  1  0.405268  0.750000  0.957834  1
  Bi  Bi21  1  0.905249  0.750000  0.542124  1
  Bi  Bi22  1  0.594716  0.250000  0.042188  1
  Bi  Bi23  1  0.094914  0.250000  0.458493  1
  Bi  Bi24  1  0.565251  0.995265  0.326186  1
  Bi  Bi25  1  0.065267  0.504758  0.173838  1
  Bi  Bi26  1  0.434435  0.495088  0.673858  1
  Bi  Bi27  1  0.935007  0.005125  0.825999  1
  Bi  Bi28  1  0.434435  0.004912  0.673858  1
  Bi  Bi29  1  0.935007  0.494875  0.825999  1
  Bi  Bi30  1  0.565251  0.504735  0.326186  1
  Bi  Bi31  1  0.065267  0.995242  0.173838  1
