# generated using pymatgen
data_TaNb5(ReSi)6
_symmetry_space_group_name_H-M   'P 1'
_cell_length_a   7.59448659
_cell_length_b   7.59094272
_cell_length_c   7.59448697
_cell_angle_alpha   127.27924520
_cell_angle_beta   125.32249764
_cell_angle_gamma   79.41574179
_symmetry_Int_Tables_number   1
_chemical_formula_structural   TaNb5(ReSi)6
_chemical_formula_sum   'Ta1 Nb5 Re6 Si6'
_cell_volume   274.72792580
_cell_formula_units_Z   1
loop_
 _symmetry_equiv_pos_site_id
 _symmetry_equiv_pos_as_xyz
  1  'x, y, z'
loop_
 _atom_site_type_symbol
 _atom_site_label
 _atom_site_symmetry_multiplicity
 _atom_site_fract_x
 _atom_site_fract_y
 _atom_site_fract_z
 _atom_site_occupancy
  Ta  Ta0  1  0.246235  0.901315  0.155079  1
  Nb  Nb1  1  0.555501  0.094966  0.039465  1
  Nb  Nb2  1  0.447300  0.489728  0.542428  1
  Nb  Nb3  1  0.961027  0.500365  0.039337  1
  Nb  Nb4  1  0.037815  0.077344  0.539530  1
  Nb  Nb5  1  0.753492  0.910634  0.657141  1
  Re  Re6  1  0.493414  0.243591  0.737122  1
  Re  Re7  1  0.006469  0.243591  0.250177  1
  Re  Re8  1  0.159572  0.749792  0.656404  1
  Re  Re9  1  0.840060  0.496717  0.589712  1
  Re  Re10  1  0.593387  0.749792  0.090220  1
  Re  Re11  1  0.407005  0.496717  0.156658  1
  Si  Si12  1  0.773846  0.527924  0.254077  1
  Si  Si13  1  0.225225  0.483748  0.758523  1
  Si  Si14  1  0.334541  0.826172  0.496684  1
  Si  Si15  1  0.663832  0.161815  0.490025  1
  Si  Si16  1  0.829488  0.826172  0.991631  1
  Si  Si17  1  0.171790  0.161815  0.997983  1
