# generated using pymatgen
data_Sc4Pa(Sn3Os)6
_symmetry_space_group_name_H-M   'P 1'
_cell_length_a   9.76098304
_cell_length_b   9.76098303
_cell_length_c   9.76098400
_cell_angle_alpha   59.99999670
_cell_angle_beta   59.99999674
_cell_angle_gamma   59.99999778
_symmetry_Int_Tables_number   1
_chemical_formula_structural   Sc4Pa(Sn3Os)6
_chemical_formula_sum   'Sc4 Pa1 Sn18 Os6'
_cell_volume   657.60588318
_cell_formula_units_Z   1
loop_
 _symmetry_equiv_pos_site_id
 _symmetry_equiv_pos_as_xyz
  1  'x, y, z'
loop_
 _atom_site_type_symbol
 _atom_site_label
 _atom_site_symmetry_multiplicity
 _atom_site_fract_x
 _atom_site_fract_y
 _atom_site_fract_z
 _atom_site_occupancy
  Sc  Sc0  1  0.373963  0.373964  0.878111  1
  Sc  Sc1  1  0.373964  0.878110  0.373963  1
  Sc  Sc2  1  0.878110  0.373964  0.373963  1
  Sc  Sc3  1  0.373964  0.373963  0.373963  1
  Pa  Pa4  1  0.000000  0.000000  0.000000  1
  Sn  Sn5  1  0.591199  0.591199  0.226405  1
  Sn  Sn6  1  0.591199  0.226405  0.591199  1
  Sn  Sn7  1  0.226405  0.591199  0.591199  1
  Sn  Sn8  1  0.591199  0.591199  0.591199  1
  Sn  Sn9  1  0.750000  0.750000  0.750000  1
  Sn  Sn10  1  0.998162  0.354608  0.649069  1
  Sn  Sn11  1  0.998162  0.998162  0.649069  1
  Sn  Sn12  1  0.354608  0.998162  0.649069  1
  Sn  Sn13  1  0.998162  0.649069  0.354608  1
  Sn  Sn14  1  0.354608  0.649069  0.998162  1
  Sn  Sn15  1  0.998162  0.649069  0.998162  1
  Sn  Sn16  1  0.649069  0.998162  0.998162  1
  Sn  Sn17  1  0.649069  0.354608  0.998162  1
  Sn  Sn18  1  0.649069  0.998162  0.354608  1
  Sn  Sn19  1  0.354608  0.998162  0.998162  1
  Sn  Sn20  1  0.998162  0.998162  0.354608  1
  Sn  Sn21  1  0.998162  0.354608  0.998162  1
  Sn  Sn22  1  0.250000  0.250000  0.250000  1
  Os  Os23  1  0.254679  0.254679  0.745321  1
  Os  Os24  1  0.745321  0.254679  0.745321  1
  Os  Os25  1  0.254679  0.745321  0.745321  1
  Os  Os26  1  0.745321  0.745321  0.254679  1
  Os  Os27  1  0.254679  0.745321  0.254679  1
  Os  Os28  1  0.745321  0.254679  0.254679  1
