# generated using pymatgen
data_Th4Mg2NiPd3
_symmetry_space_group_name_H-M   'P 1'
_cell_length_a   7.85998091
_cell_length_b   7.85998091
_cell_length_c   3.82577800
_cell_angle_alpha   90.00000000
_cell_angle_beta   90.00000000
_cell_angle_gamma   89.39400172
_symmetry_Int_Tables_number   1
_chemical_formula_structural   Th4Mg2NiPd3
_chemical_formula_sum   'Th4 Mg2 Ni1 Pd3'
_cell_volume   236.34066645
_cell_formula_units_Z   1
loop_
 _symmetry_equiv_pos_site_id
 _symmetry_equiv_pos_as_xyz
  1  'x, y, z'
loop_
 _atom_site_type_symbol
 _atom_site_label
 _atom_site_symmetry_multiplicity
 _atom_site_fract_x
 _atom_site_fract_y
 _atom_site_fract_z
 _atom_site_occupancy
  Th  Th0  1  0.324316  0.838650  0.500000  1
  Th  Th1  1  0.830225  0.669775  0.500000  1
  Th  Th2  1  0.185724  0.314276  0.500000  1
  Th  Th3  1  0.661350  0.175684  0.500000  1
  Mg  Mg4  1  0.498420  0.502262  0.000000  1
  Mg  Mg5  1  0.997738  0.001580  0.000000  1
  Ni  Ni6  1  0.371172  0.128828  0.000000  1
  Pd  Pd7  1  0.132863  0.629778  0.000000  1
  Pd  Pd8  1  0.627969  0.872031  0.000000  1
  Pd  Pd9  1  0.870222  0.367137  0.000000  1
