# generated using pymatgen
data_ThScV3Si7Pt9
_symmetry_space_group_name_H-M   'P 1'
_cell_length_a   9.89380700
_cell_length_b   9.89380794
_cell_length_c   3.94025800
_cell_angle_alpha   90.00000000
_cell_angle_beta   90.00000000
_cell_angle_gamma   120.00000020
_symmetry_Int_Tables_number   1
_chemical_formula_structural   ThScV3Si7Pt9
_chemical_formula_sum   'Th1 Sc1 V3 Si7 Pt9'
_cell_volume   334.02748232
_cell_formula_units_Z   1
loop_
 _symmetry_equiv_pos_site_id
 _symmetry_equiv_pos_as_xyz
  1  'x, y, z'
loop_
 _atom_site_type_symbol
 _atom_site_label
 _atom_site_symmetry_multiplicity
 _atom_site_fract_x
 _atom_site_fract_y
 _atom_site_fract_z
 _atom_site_occupancy
  Th  Th0  1  0.333333  0.666667  0.500000  1
  Sc  Sc1  1  0.000000  0.000000  0.000000  1
  V  V2  1  0.879012  0.448569  0.500000  1
  V  V3  1  0.569558  0.120988  0.500000  1
  V  V4  1  0.551431  0.430442  0.500000  1
  Si  Si5  1  0.254917  0.209973  0.500000  1
  Si  Si6  1  0.790027  0.044945  0.500000  1
  Si  Si7  1  0.955055  0.745083  0.500000  1
  Si  Si8  1  0.561408  0.632809  0.000000  1
  Si  Si9  1  0.367191  0.928597  0.000000  1
  Si  Si10  1  0.071403  0.438592  0.000000  1
  Si  Si11  1  0.666667  0.333333  0.000000  1
  Pt  Pt12  1  0.219817  0.946348  0.500000  1
  Pt  Pt13  1  0.053652  0.273471  0.500000  1
  Pt  Pt14  1  0.726529  0.780183  0.500000  1
  Pt  Pt15  1  0.306782  0.411198  0.000000  1
  Pt  Pt16  1  0.588802  0.895584  0.000000  1
  Pt  Pt17  1  0.104416  0.693218  0.000000  1
  Pt  Pt18  1  0.391437  0.181960  0.000000  1
  Pt  Pt19  1  0.818040  0.209477  0.000000  1
  Pt  Pt20  1  0.790523  0.608563  0.000000  1
