# generated using pymatgen
data_La6Pr2TiPd24
_symmetry_space_group_name_H-M   'P 1'
_cell_length_a   8.56662716
_cell_length_b   8.56662716
_cell_length_c   8.56662716
_cell_angle_alpha   90.01551570
_cell_angle_beta   90.01551570
_cell_angle_gamma   90.01551570
_symmetry_Int_Tables_number   1
_chemical_formula_structural   La6Pr2TiPd24
_chemical_formula_sum   'La6 Pr2 Ti1 Pd24'
_cell_volume   628.67986194
_cell_formula_units_Z   1
loop_
 _symmetry_equiv_pos_site_id
 _symmetry_equiv_pos_as_xyz
  1  'x, y, z'
loop_
 _atom_site_type_symbol
 _atom_site_label
 _atom_site_symmetry_multiplicity
 _atom_site_fract_x
 _atom_site_fract_y
 _atom_site_fract_z
 _atom_site_occupancy
  La  La0  1  0.746967  0.746967  0.252986  1
  La  La1  1  0.746967  0.252986  0.746967  1
  La  La2  1  0.253033  0.253033  0.747014  1
  La  La3  1  0.253033  0.747014  0.253033  1
  La  La4  1  0.252986  0.746967  0.746967  1
  La  La5  1  0.747014  0.253033  0.253033  1
  Pr  Pr6  1  0.252475  0.252475  0.252475  1
  Pr  Pr7  1  0.747525  0.747525  0.747525  1
  Ti  Ti8  1  0.000000  0.000000  0.000000  1
  Pd  Pd9  1  0.263462  0.500002  0.000008  1
  Pd  Pd10  1  0.736538  0.499998  0.999992  1
  Pd  Pd11  1  0.000008  0.263462  0.500002  1
  Pd  Pd12  1  0.500002  0.263462  0.000008  1
  Pd  Pd13  1  0.999992  0.736538  0.499998  1
  Pd  Pd14  1  0.499998  0.736538  0.999992  1
  Pd  Pd15  1  0.500002  0.000008  0.263462  1
  Pd  Pd16  1  0.263462  0.000008  0.500002  1
  Pd  Pd17  1  0.499998  0.999992  0.736538  1
  Pd  Pd18  1  0.736538  0.999992  0.499998  1
  Pd  Pd19  1  0.000008  0.500002  0.263462  1
  Pd  Pd20  1  0.999992  0.499998  0.736538  1
  Pd  Pd21  1  0.255143  0.500000  0.500000  1
  Pd  Pd22  1  0.744857  0.500000  0.500000  1
  Pd  Pd23  1  0.500000  0.255143  0.500000  1
  Pd  Pd24  1  0.500000  0.744857  0.500000  1
  Pd  Pd25  1  0.500000  0.500000  0.255143  1
  Pd  Pd26  1  0.500000  0.500000  0.744857  1
  Pd  Pd27  1  0.298277  0.000150  0.000150  1
  Pd  Pd28  1  0.701723  0.999850  0.999850  1
  Pd  Pd29  1  0.000150  0.298277  0.000150  1
  Pd  Pd30  1  0.999850  0.701723  0.999850  1
  Pd  Pd31  1  0.000150  0.000150  0.298277  1
  Pd  Pd32  1  0.999850  0.999850  0.701723  1
