# generated using pymatgen
data_Zr3Sc(SnRh5)2
_symmetry_space_group_name_H-M   'P 1'
_cell_length_a   5.64801884
_cell_length_b   5.64801819
_cell_length_c   8.29041802
_cell_angle_alpha   90.00470489
_cell_angle_beta   90.00470497
_cell_angle_gamma   97.02641787
_symmetry_Int_Tables_number   1
_chemical_formula_structural   Zr3Sc(SnRh5)2
_chemical_formula_sum   'Zr3 Sc1 Sn2 Rh10'
_cell_volume   262.47909811
_cell_formula_units_Z   1
loop_
 _symmetry_equiv_pos_site_id
 _symmetry_equiv_pos_as_xyz
  1  'x, y, z'
loop_
 _atom_site_type_symbol
 _atom_site_label
 _atom_site_symmetry_multiplicity
 _atom_site_fract_x
 _atom_site_fract_y
 _atom_site_fract_z
 _atom_site_occupancy
  Zr  Zr0  1  0.217680  0.782320  0.000000  1
  Zr  Zr1  1  0.217989  0.782011  0.500000  1
  Zr  Zr2  1  0.782098  0.217902  0.000000  1
  Sc  Sc3  1  0.780932  0.219068  0.500000  1
  Sn  Sn4  1  0.502951  0.499905  0.748317  1
  Sn  Sn5  1  0.500095  0.497049  0.251683  1
  Rh  Rh6  1  0.728389  0.729163  0.000702  1
  Rh  Rh7  1  0.730537  0.732616  0.499258  1
  Rh  Rh8  1  0.270837  0.271611  0.999298  1
  Rh  Rh9  1  0.267384  0.269463  0.500742  1
  Rh  Rh10  1  0.500424  0.000792  0.750431  1
  Rh  Rh11  1  0.500318  0.999747  0.249606  1
  Rh  Rh12  1  0.000775  0.999870  0.249437  1
  Rh  Rh13  1  0.000130  0.999225  0.750563  1
  Rh  Rh14  1  0.000253  0.499682  0.750394  1
  Rh  Rh15  1  0.999208  0.499576  0.249569  1
