# generated using pymatgen
data_Sr4Sc2PtWO12
_symmetry_space_group_name_H-M   'P 1'
_cell_length_a   5.72746501
_cell_length_b   5.73608522
_cell_length_c   9.92862381
_cell_angle_alpha   54.57973653
_cell_angle_beta   90.16428457
_cell_angle_gamma   89.94820927
_symmetry_Int_Tables_number   1
_chemical_formula_structural   Sr4Sc2PtWO12
_chemical_formula_sum   'Sr4 Sc2 Pt1 W1 O12'
_cell_volume   265.81511078
_cell_formula_units_Z   1
loop_
 _symmetry_equiv_pos_site_id
 _symmetry_equiv_pos_as_xyz
  1  'x, y, z'
loop_
 _atom_site_type_symbol
 _atom_site_label
 _atom_site_symmetry_multiplicity
 _atom_site_fract_x
 _atom_site_fract_y
 _atom_site_fract_z
 _atom_site_occupancy
  Sr  Sr0  1  0.482118  0.767985  0.235295  1
  Sr  Sr1  1  0.517882  0.232015  0.764705  1
  Sr  Sr2  1  0.977304  0.262462  0.234273  1
  Sr  Sr3  1  0.022696  0.737538  0.765727  1
  Sc  Sc4  1  0.000000  0.000000  0.000000  1
  Sc  Sc5  1  0.500000  0.000000  0.500000  1
  Pt  Pt6  1  0.500000  0.500000  0.000000  1
  W  W7  1  0.000000  0.500000  0.500000  1
  O  O8  1  0.724865  0.198172  0.029106  1
  O  O9  1  0.275135  0.801828  0.970894  1
  O  O10  1  0.213814  0.792531  0.469737  1
  O  O11  1  0.786186  0.207469  0.530263  1
  O  O12  1  0.007397  0.680140  0.262519  1
  O  O13  1  0.992603  0.319860  0.737481  1
  O  O14  1  0.508538  0.308286  0.249959  1
  O  O15  1  0.491462  0.691714  0.750041  1
  O  O16  1  0.226913  0.246686  0.029342  1
  O  O17  1  0.773087  0.753314  0.970658  1
  O  O18  1  0.735495  0.743073  0.468968  1
  O  O19  1  0.264505  0.256927  0.531032  1
