# generated using pymatgen
data_Tb2Dy5HoAu4
_symmetry_space_group_name_H-M   'P 1'
_cell_length_a   4.95420500
_cell_length_b   7.13487015
_cell_length_c   8.97645068
_cell_angle_alpha   90.08417230
_cell_angle_beta   90.00000000
_cell_angle_gamma   90.00000000
_symmetry_Int_Tables_number   1
_chemical_formula_structural   Tb2Dy5HoAu4
_chemical_formula_sum   'Tb2 Dy5 Ho1 Au4'
_cell_volume   317.29572993
_cell_formula_units_Z   1
loop_
 _symmetry_equiv_pos_site_id
 _symmetry_equiv_pos_as_xyz
  1  'x, y, z'
loop_
 _atom_site_type_symbol
 _atom_site_label
 _atom_site_symmetry_multiplicity
 _atom_site_fract_x
 _atom_site_fract_y
 _atom_site_fract_z
 _atom_site_occupancy
  Tb  Tb0  1  0.250000  0.487104  0.176603  1
  Tb  Tb1  1  0.750000  0.513418  0.823316  1
  Dy  Dy2  1  0.250000  0.986848  0.323425  1
  Dy  Dy3  1  0.750000  0.012989  0.676523  1
  Dy  Dy4  1  0.750000  0.648846  0.419332  1
  Dy  Dy5  1  0.250000  0.351209  0.580769  1
  Dy  Dy6  1  0.750000  0.148507  0.080554  1
  Ho  Ho7  1  0.250000  0.851538  0.919337  1
  Au  Au8  1  0.250000  0.256657  0.900784  1
  Au  Au9  1  0.750000  0.742839  0.098802  1
  Au  Au10  1  0.250000  0.757899  0.599515  1
  Au  Au11  1  0.750000  0.242148  0.401040  1
