# generated using pymatgen
data_YbMgCdAs2
_symmetry_space_group_name_H-M   'P 1'
_cell_length_a   4.40853400
_cell_length_b   4.40853362
_cell_length_c   7.09054100
_cell_angle_alpha   90.00000000
_cell_angle_beta   90.00000000
_cell_angle_gamma   120.00000284
_symmetry_Int_Tables_number   1
_chemical_formula_structural   YbMgCdAs2
_chemical_formula_sum   'Yb1 Mg1 Cd1 As2'
_cell_volume   119.34338276
_cell_formula_units_Z   1
loop_
 _symmetry_equiv_pos_site_id
 _symmetry_equiv_pos_as_xyz
  1  'x, y, z'
loop_
 _atom_site_type_symbol
 _atom_site_label
 _atom_site_symmetry_multiplicity
 _atom_site_fract_x
 _atom_site_fract_y
 _atom_site_fract_z
 _atom_site_occupancy
  Yb  Yb0  1  0.000000  0.000000  0.002201  1
  Mg  Mg1  1  0.333333  0.666667  0.635160  1
  Cd  Cd2  1  0.666667  0.333333  0.365994  1
  As  As3  1  0.333333  0.666667  0.236289  1
  As  As4  1  0.666667  0.333333  0.760357  1
