# generated using pymatgen
data_La20Ir10OsRu
_symmetry_space_group_name_H-M   'P 1'
_cell_length_a   11.41369200
_cell_length_b   11.41369200
_cell_length_c   6.68491900
_cell_angle_alpha   90.00000000
_cell_angle_beta   90.00000000
_cell_angle_gamma   90.00000000
_symmetry_Int_Tables_number   1
_chemical_formula_structural   La20Ir10OsRu
_chemical_formula_sum   'La20 Ir10 Os1 Ru1'
_cell_volume   870.86020844
_cell_formula_units_Z   1
loop_
 _symmetry_equiv_pos_site_id
 _symmetry_equiv_pos_as_xyz
  1  'x, y, z'
loop_
 _atom_site_type_symbol
 _atom_site_label
 _atom_site_symmetry_multiplicity
 _atom_site_fract_x
 _atom_site_fract_y
 _atom_site_fract_z
 _atom_site_occupancy
  La  La0  1  0.294697  0.089066  0.387918  1
  La  La1  1  0.295094  0.911003  0.886721  1
  La  La2  1  0.704906  0.088997  0.886721  1
  La  La3  1  0.705303  0.910934  0.387918  1
  La  La4  1  0.588997  0.795094  0.886721  1
  La  La5  1  0.589066  0.205303  0.387918  1
  La  La6  1  0.410934  0.794697  0.387918  1
  La  La7  1  0.411003  0.204906  0.886721  1
  La  La8  1  0.207933  0.408321  0.614318  1
  La  La9  1  0.207923  0.591768  0.114288  1
  La  La10  1  0.792077  0.408232  0.114288  1
  La  La11  1  0.792067  0.591679  0.614318  1
  La  La12  1  0.908232  0.707923  0.114288  1
  La  La13  1  0.908321  0.292067  0.614318  1
  La  La14  1  0.091679  0.707933  0.614318  1
  La  La15  1  0.091768  0.292077  0.114288  1
  La  La16  1  0.000000  0.000000  0.496762  1
  La  La17  1  0.000000  0.000000  0.996852  1
  La  La18  1  0.500000  0.500000  0.996852  1
  La  La19  1  0.500000  0.500000  0.496762  1
  Ir  Ir20  1  0.848566  0.154579  0.249519  1
  Ir  Ir21  1  0.848732  0.845304  0.749745  1
  Ir  Ir22  1  0.151268  0.154696  0.749745  1
  Ir  Ir23  1  0.151434  0.845421  0.249519  1
  Ir  Ir24  1  0.654696  0.348732  0.749745  1
  Ir  Ir25  1  0.654579  0.651434  0.249519  1
  Ir  Ir26  1  0.345421  0.348566  0.249519  1
  Ir  Ir27  1  0.345304  0.651268  0.749745  1
  Ir  Ir28  1  0.000000  0.500000  0.882935  1
  Ir  Ir29  1  0.000000  0.500000  0.383035  1
  Os  Os30  1  0.500000  0.000000  0.619568  1
  Ru  Ru31  1  0.500000  0.000000  0.117187  1
