# generated using pymatgen
data_Lu20SiSb11
_symmetry_space_group_name_H-M   'P 1'
_cell_length_a   7.90643330
_cell_length_b   9.11796200
_cell_length_c   11.57461762
_cell_angle_alpha   90.00000000
_cell_angle_beta   89.84455746
_cell_angle_gamma   90.00000000
_symmetry_Int_Tables_number   1
_chemical_formula_structural   Lu20SiSb11
_chemical_formula_sum   'Lu20 Si1 Sb11'
_cell_volume   834.41757591
_cell_formula_units_Z   1
loop_
 _symmetry_equiv_pos_site_id
 _symmetry_equiv_pos_as_xyz
  1  'x, y, z'
loop_
 _atom_site_type_symbol
 _atom_site_label
 _atom_site_symmetry_multiplicity
 _atom_site_fract_x
 _atom_site_fract_y
 _atom_site_fract_z
 _atom_site_occupancy
  Lu  Lu0  1  0.187038  0.567983  0.442499  1
  Lu  Lu1  1  0.694613  0.937465  0.061192  1
  Lu  Lu2  1  0.807985  0.050570  0.560480  1
  Lu  Lu3  1  0.305550  0.437720  0.939425  1
  Lu  Lu4  1  0.807985  0.449430  0.560480  1
  Lu  Lu5  1  0.305550  0.062280  0.939425  1
  Lu  Lu6  1  0.187038  0.932017  0.442499  1
  Lu  Lu7  1  0.694613  0.562535  0.061192  1
  Lu  Lu8  1  0.028464  0.750000  0.989766  1
  Lu  Lu9  1  0.538357  0.750000  0.510252  1
  Lu  Lu10  1  0.972046  0.250000  0.010126  1
  Lu  Lu11  1  0.473721  0.250000  0.490231  1
  Lu  Lu12  1  0.175692  0.750000  0.712423  1
  Lu  Lu13  1  0.690263  0.750000  0.777575  1
  Lu  Lu14  1  0.813446  0.250000  0.280551  1
  Lu  Lu15  1  0.312943  0.250000  0.219026  1
  Lu  Lu16  1  0.855978  0.750000  0.293069  1
  Lu  Lu17  1  0.354007  0.750000  0.215331  1
  Lu  Lu18  1  0.146024  0.250000  0.715572  1
  Lu  Lu19  1  0.646626  0.250000  0.784125  1
  Si  Si20  1  0.912516  0.750000  0.537511  1
  Sb  Sb21  1  0.934164  0.496495  0.826160  1
  Sb  Sb22  1  0.433895  0.002386  0.673898  1
  Sb  Sb23  1  0.066005  0.996320  0.173928  1
  Sb  Sb24  1  0.565535  0.502669  0.325868  1
  Sb  Sb25  1  0.066005  0.503680  0.173928  1
  Sb  Sb26  1  0.565535  0.997331  0.325868  1
  Sb  Sb27  1  0.934164  0.003505  0.826160  1
  Sb  Sb28  1  0.433895  0.497614  0.673898  1
  Sb  Sb29  1  0.411063  0.750000  0.957859  1
  Sb  Sb30  1  0.089445  0.250000  0.458876  1
  Sb  Sb31  1  0.589844  0.250000  0.040804  1
