# generated using pymatgen
data_Tb2Dy2Al3ZnPt4
_symmetry_space_group_name_H-M   'P 1'
_cell_length_a   4.43827000
_cell_length_b   6.84196407
_cell_length_c   7.82200208
_cell_angle_alpha   89.78028671
_cell_angle_beta   90.00000000
_cell_angle_gamma   90.00000000
_symmetry_Int_Tables_number   1
_chemical_formula_structural   Tb2Dy2Al3ZnPt4
_chemical_formula_sum   'Tb2 Dy2 Al3 Zn1 Pt4'
_cell_volume   237.52495340
_cell_formula_units_Z   1
loop_
 _symmetry_equiv_pos_site_id
 _symmetry_equiv_pos_as_xyz
  1  'x, y, z'
loop_
 _atom_site_type_symbol
 _atom_site_label
 _atom_site_symmetry_multiplicity
 _atom_site_fract_x
 _atom_site_fract_y
 _atom_site_fract_z
 _atom_site_occupancy
  Tb  Tb0  1  0.750000  0.533102  0.821011  1
  Tb  Tb1  1  0.750000  0.029102  0.683291  1
  Dy  Dy2  1  0.250000  0.471815  0.181690  1
  Dy  Dy3  1  0.250000  0.971022  0.314157  1
  Al  Al4  1  0.750000  0.145631  0.063423  1
  Al  Al5  1  0.750000  0.644069  0.439200  1
  Al  Al6  1  0.250000  0.351531  0.561873  1
  Zn  Zn7  1  0.250000  0.849447  0.934271  1
  Pt  Pt8  1  0.250000  0.725238  0.608417  1
  Pt  Pt9  1  0.750000  0.272165  0.382626  1
  Pt  Pt10  1  0.750000  0.771145  0.126179  1
  Pt  Pt11  1  0.250000  0.235735  0.883860  1
