# generated using pymatgen
data_LiNb6Ga4FeN2
_symmetry_space_group_name_H-M   'P 1'
_cell_length_a   8.28828181
_cell_length_b   8.23090504
_cell_length_c   8.23090527
_cell_angle_alpha   59.52301834
_cell_angle_beta   59.76914509
_cell_angle_gamma   59.76913846
_symmetry_Int_Tables_number   1
_chemical_formula_structural   LiNb6Ga4FeN2
_chemical_formula_sum   'Li2 Nb12 Ga8 Fe2 N4'
_cell_volume   394.22241562
_cell_formula_units_Z   2
loop_
 _symmetry_equiv_pos_site_id
 _symmetry_equiv_pos_as_xyz
  1  'x, y, z'
loop_
 _atom_site_type_symbol
 _atom_site_label
 _atom_site_symmetry_multiplicity
 _atom_site_fract_x
 _atom_site_fract_y
 _atom_site_fract_z
 _atom_site_occupancy
  Li  Li0  1  0.625000  0.125000  0.625000  1
  Li  Li1  1  0.625000  0.625000  0.125000  1
  Nb  Nb2  1  0.807704  0.807900  0.192886  1
  Nb  Nb3  1  0.191509  0.192886  0.807900  1
  Nb  Nb4  1  0.807704  0.192886  0.807900  1
  Nb  Nb5  1  0.191509  0.807900  0.192886  1
  Nb  Nb6  1  0.191557  0.808443  0.808443  1
  Nb  Nb7  1  0.808360  0.191640  0.191640  1
  Nb  Nb8  1  0.442296  0.442100  0.057114  1
  Nb  Nb9  1  0.058491  0.057114  0.442100  1
  Nb  Nb10  1  0.442296  0.057114  0.442100  1
  Nb  Nb11  1  0.058491  0.442100  0.057114  1
  Nb  Nb12  1  0.058443  0.441557  0.441557  1
  Nb  Nb13  1  0.441640  0.058360  0.058360  1
  Ga  Ga14  1  0.755815  0.414313  0.414313  1
  Ga  Ga15  1  0.415431  0.753406  0.415735  1
  Ga  Ga16  1  0.415431  0.415735  0.753406  1
  Ga  Ga17  1  0.415559  0.414313  0.414313  1
  Ga  Ga18  1  0.494185  0.835687  0.835687  1
  Ga  Ga19  1  0.834569  0.496594  0.834265  1
  Ga  Ga20  1  0.834569  0.834265  0.496594  1
  Ga  Ga21  1  0.834441  0.835687  0.835687  1
  Fe  Fe22  1  0.125000  0.625000  0.625000  1
  Fe  Fe23  1  0.625000  0.625000  0.625000  1
  N  N24  1  0.625000  0.125000  0.125000  1
  N  N25  1  0.125000  0.625000  0.125000  1
  N  N26  1  0.125000  0.125000  0.625000  1
  N  N27  1  0.125000  0.125000  0.125000  1
