# generated using pymatgen
data_Be3FeRe2
_symmetry_space_group_name_H-M   'P 1'
_cell_length_a   4.47220900
_cell_length_b   4.47220873
_cell_length_c   7.15107200
_cell_angle_alpha   90.00000000
_cell_angle_beta   90.00000000
_cell_angle_gamma   120.00000942
_symmetry_Int_Tables_number   1
_chemical_formula_structural   Be3FeRe2
_chemical_formula_sum   'Be6 Fe2 Re4'
_cell_volume   123.86422712
_cell_formula_units_Z   2
loop_
 _symmetry_equiv_pos_site_id
 _symmetry_equiv_pos_as_xyz
  1  'x, y, z'
loop_
 _atom_site_type_symbol
 _atom_site_label
 _atom_site_symmetry_multiplicity
 _atom_site_fract_x
 _atom_site_fract_y
 _atom_site_fract_z
 _atom_site_occupancy
  Be  Be0  1  0.831662  0.663323  0.250000  1
  Be  Be1  1  0.168338  0.831662  0.750000  1
  Be  Be2  1  0.663323  0.831662  0.750000  1
  Be  Be3  1  0.336677  0.168338  0.250000  1
  Be  Be4  1  0.831662  0.168338  0.250000  1
  Be  Be5  1  0.168338  0.336677  0.750000  1
  Fe  Fe6  1  0.000000  0.000000  0.000000  1
  Fe  Fe7  1  0.000000  0.000000  0.500000  1
  Re  Re8  1  0.333333  0.666667  0.071445  1
  Re  Re9  1  0.666667  0.333333  0.571445  1
  Re  Re10  1  0.666667  0.333333  0.928555  1
  Re  Re11  1  0.333333  0.666667  0.428555  1
