# generated using pymatgen
data_HoMg(ZnPt)2
_symmetry_space_group_name_H-M   'P 1'
_cell_length_a   4.17108000
_cell_length_b   6.63037004
_cell_length_c   8.01587621
_cell_angle_alpha   92.02453567
_cell_angle_beta   90.00000000
_cell_angle_gamma   90.00000000
_symmetry_Int_Tables_number   1
_chemical_formula_structural   HoMg(ZnPt)2
_chemical_formula_sum   'Ho2 Mg2 Zn4 Pt4'
_cell_volume   221.54712207
_cell_formula_units_Z   2
loop_
 _symmetry_equiv_pos_site_id
 _symmetry_equiv_pos_as_xyz
  1  'x, y, z'
loop_
 _atom_site_type_symbol
 _atom_site_label
 _atom_site_symmetry_multiplicity
 _atom_site_fract_x
 _atom_site_fract_y
 _atom_site_fract_z
 _atom_site_occupancy
  Ho  Ho0  1  0.750000  0.962634  0.687072  1
  Ho  Ho1  1  0.250000  0.037366  0.312928  1
  Mg  Mg2  1  0.250000  0.534458  0.174462  1
  Mg  Mg3  1  0.750000  0.465542  0.825538  1
  Zn  Zn4  1  0.250000  0.640810  0.558993  1
  Zn  Zn5  1  0.750000  0.359190  0.441007  1
  Zn  Zn6  1  0.750000  0.846698  0.060803  1
  Zn  Zn7  1  0.250000  0.153302  0.939197  1
  Pt  Pt8  1  0.250000  0.749055  0.876812  1
  Pt  Pt9  1  0.750000  0.250945  0.123188  1
  Pt  Pt10  1  0.750000  0.739131  0.371295  1
  Pt  Pt11  1  0.250000  0.260869  0.628705  1
