# generated using pymatgen
data_NdZnInNi
_symmetry_space_group_name_H-M   'P 1'
_cell_length_a   4.20533900
_cell_length_b   5.25648400
_cell_length_c   7.37852800
_cell_angle_alpha   90.00000000
_cell_angle_beta   90.00000000
_cell_angle_gamma   90.00000000
_symmetry_Int_Tables_number   1
_chemical_formula_structural   NdZnInNi
_chemical_formula_sum   'Nd2 Zn2 In2 Ni2'
_cell_volume   163.10455410
_cell_formula_units_Z   2
loop_
 _symmetry_equiv_pos_site_id
 _symmetry_equiv_pos_as_xyz
  1  'x, y, z'
loop_
 _atom_site_type_symbol
 _atom_site_label
 _atom_site_symmetry_multiplicity
 _atom_site_fract_x
 _atom_site_fract_y
 _atom_site_fract_z
 _atom_site_occupancy
  Nd  Nd0  1  0.500000  0.750000  0.711847  1
  Nd  Nd1  1  0.500000  0.250000  0.288153  1
  Zn  Zn2  1  0.000000  0.000000  0.000000  1
  Zn  Zn3  1  0.000000  0.500000  0.000000  1
  In  In4  1  0.000000  0.750000  0.352621  1
  In  In5  1  0.000000  0.250000  0.647379  1
  Ni  Ni6  1  0.500000  0.750000  0.104937  1
  Ni  Ni7  1  0.500000  0.250000  0.895063  1
