# generated using pymatgen
data_TbTh7TiS17
_symmetry_space_group_name_H-M   'P 1'
_cell_length_a   8.08601602
_cell_length_b   8.06627944
_cell_length_c   10.71385488
_cell_angle_alpha   80.72211796
_cell_angle_beta   80.84299459
_cell_angle_gamma   65.06937306
_symmetry_Int_Tables_number   1
_chemical_formula_structural   TbTh7TiS17
_chemical_formula_sum   'Tb1 Th7 Ti1 S17'
_cell_volume   622.14180579
_cell_formula_units_Z   1
loop_
 _symmetry_equiv_pos_site_id
 _symmetry_equiv_pos_as_xyz
  1  'x, y, z'
loop_
 _atom_site_type_symbol
 _atom_site_label
 _atom_site_symmetry_multiplicity
 _atom_site_fract_x
 _atom_site_fract_y
 _atom_site_fract_z
 _atom_site_occupancy
  Tb  Tb0  1  0.811971  0.301180  0.297518  1
  Th  Th1  1  0.299471  0.811882  0.293554  1
  Th  Th2  1  0.187301  0.700243  0.703346  1
  Th  Th3  1  0.700419  0.189066  0.702578  1
  Th  Th4  1  0.205696  0.205479  0.541857  1
  Th  Th5  1  0.793486  0.796522  0.453650  1
  Th  Th6  1  0.684109  0.680640  0.980568  1
  Th  Th7  1  0.317541  0.315529  0.024492  1
  Ti  Ti8  1  0.999367  0.002931  0.001503  1
  S  S9  1  0.825215  0.429343  0.529387  1
  S  S10  1  0.430833  0.822448  0.529656  1
  S  S11  1  0.176007  0.569669  0.469333  1
  S  S12  1  0.571027  0.176900  0.470181  1
  S  S13  1  0.941703  0.320945  0.030083  1
  S  S14  1  0.323347  0.941184  0.027051  1
  S  S15  1  0.058785  0.678570  0.971126  1
  S  S16  1  0.677647  0.058914  0.971083  1
  S  S17  1  0.205588  0.204989  0.277893  1
  S  S18  1  0.793422  0.792693  0.722812  1
  S  S19  1  0.061358  0.060605  0.773611  1
  S  S20  1  0.936884  0.944055  0.227376  1
  S  S21  1  0.304214  0.305656  0.755466  1
  S  S22  1  0.693990  0.693557  0.244571  1
  S  S23  1  0.520071  0.521631  0.833159  1
  S  S24  1  0.478728  0.479361  0.165103  1
  S  S25  1  0.001818  0.996008  0.503042  1
