# generated using pymatgen
data_Zr3BeGe2Ru3
_symmetry_space_group_name_H-M   'P 1'
_cell_length_a   6.89209100
_cell_length_b   6.89209258
_cell_length_c   3.48657600
_cell_angle_alpha   90.00000000
_cell_angle_beta   90.00000000
_cell_angle_gamma   119.99998763
_symmetry_Int_Tables_number   1
_chemical_formula_structural   Zr3BeGe2Ru3
_chemical_formula_sum   'Zr3 Be1 Ge2 Ru3'
_cell_volume   143.42733455
_cell_formula_units_Z   1
loop_
 _symmetry_equiv_pos_site_id
 _symmetry_equiv_pos_as_xyz
  1  'x, y, z'
loop_
 _atom_site_type_symbol
 _atom_site_label
 _atom_site_symmetry_multiplicity
 _atom_site_fract_x
 _atom_site_fract_y
 _atom_site_fract_z
 _atom_site_occupancy
  Zr  Zr0  1  0.000000  0.392584  0.500000  1
  Zr  Zr1  1  0.607416  0.607416  0.500000  1
  Zr  Zr2  1  0.392584  0.000000  0.500000  1
  Be  Be3  1  0.000000  0.000000  0.500000  1
  Ge  Ge4  1  0.333333  0.666667  0.000000  1
  Ge  Ge5  1  0.666667  0.333333  0.000000  1
  Ru  Ru6  1  0.000000  0.761578  0.000000  1
  Ru  Ru7  1  0.238422  0.238422  0.000000  1
  Ru  Ru8  1  0.761578  0.000000  0.000000  1
