# generated using pymatgen
data_AcYb(SbPd)2
_symmetry_space_group_name_H-M   'P 1'
_cell_length_a   4.70225500
_cell_length_b   7.96895255
_cell_length_c   8.02629353
_cell_angle_alpha   89.43144130
_cell_angle_beta   90.00000000
_cell_angle_gamma   90.00000000
_symmetry_Int_Tables_number   1
_chemical_formula_structural   AcYb(SbPd)2
_chemical_formula_sum   'Ac2 Yb2 Sb4 Pd4'
_cell_volume   300.74684038
_cell_formula_units_Z   2
loop_
 _symmetry_equiv_pos_site_id
 _symmetry_equiv_pos_as_xyz
  1  'x, y, z'
loop_
 _atom_site_type_symbol
 _atom_site_label
 _atom_site_symmetry_multiplicity
 _atom_site_fract_x
 _atom_site_fract_y
 _atom_site_fract_z
 _atom_site_occupancy
  Ac  Ac0  1  0.250000  0.495365  0.234117  1
  Ac  Ac1  1  0.750000  0.504635  0.765883  1
  Yb  Yb2  1  0.250000  0.998967  0.286012  1
  Yb  Yb3  1  0.750000  0.001033  0.713988  1
  Sb  Sb4  1  0.250000  0.261551  0.590276  1
  Sb  Sb5  1  0.750000  0.203749  0.083728  1
  Sb  Sb6  1  0.250000  0.796251  0.916272  1
  Sb  Sb7  1  0.750000  0.738449  0.409724  1
  Pd  Pd8  1  0.750000  0.242409  0.419211  1
  Pd  Pd9  1  0.250000  0.170096  0.921107  1
  Pd  Pd10  1  0.750000  0.829904  0.078893  1
  Pd  Pd11  1  0.250000  0.757591  0.580789  1
