# generated using pymatgen
data_Lu9UPt18
_symmetry_space_group_name_H-M   'P 1'
_cell_length_a   9.61196700
_cell_length_b   9.61196711
_cell_length_c   5.70284800
_cell_angle_alpha   90.00000000
_cell_angle_beta   90.00000000
_cell_angle_gamma   90.19401508
_symmetry_Int_Tables_number   1
_chemical_formula_structural   Lu9UPt18
_chemical_formula_sum   'Lu9 U1 Pt18'
_cell_volume   526.88259638
_cell_formula_units_Z   1
loop_
 _symmetry_equiv_pos_site_id
 _symmetry_equiv_pos_as_xyz
  1  'x, y, z'
loop_
 _atom_site_type_symbol
 _atom_site_label
 _atom_site_symmetry_multiplicity
 _atom_site_fract_x
 _atom_site_fract_y
 _atom_site_fract_z
 _atom_site_occupancy
  Lu  Lu0  1  0.452111  0.809372  0.000000  1
  Lu  Lu1  1  0.547889  0.190628  0.000000  1
  Lu  Lu2  1  0.190628  0.547889  0.000000  1
  Lu  Lu3  1  0.809372  0.452111  0.000000  1
  Lu  Lu4  1  0.308324  0.046691  0.500000  1
  Lu  Lu5  1  0.691676  0.953309  0.500000  1
  Lu  Lu6  1  0.953309  0.691676  0.500000  1
  Lu  Lu7  1  0.046691  0.308324  0.500000  1
  Lu  Lu8  1  0.000000  0.000000  0.000000  1
  U  U9  1  0.500000  0.500000  0.500000  1
  Pt  Pt10  1  0.192163  0.807837  0.250069  1
  Pt  Pt11  1  0.807837  0.192163  0.749931  1
  Pt  Pt12  1  0.807837  0.192163  0.250069  1
  Pt  Pt13  1  0.192163  0.807837  0.749931  1
  Pt  Pt14  1  0.441844  0.778052  0.500000  1
  Pt  Pt15  1  0.558156  0.221948  0.500000  1
  Pt  Pt16  1  0.221948  0.558156  0.500000  1
  Pt  Pt17  1  0.778052  0.441844  0.500000  1
  Pt  Pt18  1  0.308865  0.308865  0.249841  1
  Pt  Pt19  1  0.691135  0.691135  0.750159  1
  Pt  Pt20  1  0.691135  0.691135  0.249841  1
  Pt  Pt21  1  0.308865  0.308865  0.750159  1
  Pt  Pt22  1  0.282439  0.057658  0.000000  1
  Pt  Pt23  1  0.717561  0.942342  0.000000  1
  Pt  Pt24  1  0.942342  0.717561  0.000000  1
  Pt  Pt25  1  0.057658  0.282439  0.000000  1
  Pt  Pt26  1  0.000000  0.000000  0.500000  1
  Pt  Pt27  1  0.500000  0.500000  0.000000  1
