# generated using pymatgen
data_ZrGaNi3Pt
_symmetry_space_group_name_H-M   'P 1'
_cell_length_a   4.84638566
_cell_length_b   4.84638553
_cell_length_c   4.84638640
_cell_angle_alpha   60.79479141
_cell_angle_beta   60.79480732
_cell_angle_gamma   60.79479847
_symmetry_Int_Tables_number   1
_chemical_formula_structural   ZrGaNi3Pt
_chemical_formula_sum   'Zr1 Ga1 Ni3 Pt1'
_cell_volume   81.93242255
_cell_formula_units_Z   1
loop_
 _symmetry_equiv_pos_site_id
 _symmetry_equiv_pos_as_xyz
  1  'x, y, z'
loop_
 _atom_site_type_symbol
 _atom_site_label
 _atom_site_symmetry_multiplicity
 _atom_site_fract_x
 _atom_site_fract_y
 _atom_site_fract_z
 _atom_site_occupancy
  Zr  Zr0  1  0.003658  0.003658  0.003658  1
  Ga  Ga1  1  0.622240  0.622240  0.622240  1
  Ni  Ni2  1  0.623404  0.125429  0.623404  1
  Ni  Ni3  1  0.125429  0.623404  0.623404  1
  Ni  Ni4  1  0.623404  0.623404  0.125429  1
  Pt  Pt5  1  0.251867  0.251867  0.251867  1
