# generated using pymatgen
data_TbCe2Tm(SnRu)4
_symmetry_space_group_name_H-M   'P 1'
_cell_length_a   6.21639728
_cell_length_b   6.21639686
_cell_length_c   10.09052207
_cell_angle_alpha   78.39385144
_cell_angle_beta   78.39385336
_cell_angle_gamma   45.34483028
_symmetry_Int_Tables_number   1
_chemical_formula_structural   TbCe2Tm(SnRu)4
_chemical_formula_sum   'Tb1 Ce2 Tm1 Sn4 Ru4'
_cell_volume   270.70613824
_cell_formula_units_Z   1
loop_
 _symmetry_equiv_pos_site_id
 _symmetry_equiv_pos_as_xyz
  1  'x, y, z'
loop_
 _atom_site_type_symbol
 _atom_site_label
 _atom_site_symmetry_multiplicity
 _atom_site_fract_x
 _atom_site_fract_y
 _atom_site_fract_z
 _atom_site_occupancy
  Tb  Tb0  1  0.875871  0.875871  0.407465  1
  Ce  Ce1  1  0.862227  0.862227  0.911558  1
  Ce  Ce2  1  0.140022  0.140022  0.087100  1
  Tm  Tm3  1  0.122172  0.122172  0.593573  1
  Sn  Sn4  1  0.426005  0.426005  0.159195  1
  Sn  Sn5  1  0.405331  0.405331  0.643280  1
  Sn  Sn6  1  0.574888  0.574888  0.840132  1
  Sn  Sn7  1  0.593959  0.593959  0.359592  1
  Ru  Ru8  1  0.816315  0.816315  0.149316  1
  Ru  Ru9  1  0.196323  0.196323  0.309034  1
  Ru  Ru10  1  0.183072  0.183072  0.848158  1
  Ru  Ru11  1  0.803815  0.803815  0.691595  1
