# generated using pymatgen
data_Dy2NiB8Ir
_symmetry_space_group_name_H-M   'P 1'
_cell_length_a   6.92029334
_cell_length_b   6.92029400
_cell_length_c   6.92029836
_cell_angle_alpha   111.23403502
_cell_angle_beta   113.24877903
_cell_angle_gamma   104.06945043
_symmetry_Int_Tables_number   1
_chemical_formula_structural   Dy2NiB8Ir
_chemical_formula_sum   'Dy4 Ni2 B16 Ir2'
_cell_volume   253.35821985
_cell_formula_units_Z   2
loop_
 _symmetry_equiv_pos_site_id
 _symmetry_equiv_pos_as_xyz
  1  'x, y, z'
loop_
 _atom_site_type_symbol
 _atom_site_label
 _atom_site_symmetry_multiplicity
 _atom_site_fract_x
 _atom_site_fract_y
 _atom_site_fract_z
 _atom_site_occupancy
  Dy  Dy0  1  0.790367  0.790367  0.000000  1
  Dy  Dy1  1  0.209633  0.209633  0.000000  1
  Dy  Dy2  1  0.751687  0.251687  0.500000  1
  Dy  Dy3  1  0.248313  0.748313  0.500000  1
  Ni  Ni4  1  0.500000  0.745308  0.245307  1
  Ni  Ni5  1  0.500000  0.254692  0.754693  1
  B  B6  1  0.273068  0.108333  0.381402  1
  B  B7  1  0.726932  0.891667  0.618598  1
  B  B8  1  0.273069  0.891666  0.164735  1
  B  B9  1  0.726931  0.108334  0.835265  1
  B  B10  1  0.110606  0.730820  0.841427  1
  B  B11  1  0.889394  0.269180  0.158573  1
  B  B12  1  0.110606  0.269179  0.379785  1
  B  B13  1  0.889394  0.730821  0.620215  1
  B  B14  1  0.115126  0.109645  0.528926  1
  B  B15  1  0.580718  0.586199  0.471074  1
  B  B16  1  0.115126  0.586200  0.005481  1
  B  B17  1  0.580718  0.109645  0.994519  1
  B  B18  1  0.884874  0.890355  0.471074  1
  B  B19  1  0.419282  0.413801  0.528926  1
  B  B20  1  0.884874  0.413800  0.994519  1
  B  B21  1  0.419282  0.890355  0.005481  1
  Ir  Ir22  1  0.276304  0.500000  0.776304  1
  Ir  Ir23  1  0.723696  0.500000  0.223696  1
