# generated using pymatgen
data_Tb4YbPr2CoI12
_symmetry_space_group_name_H-M   'P 1'
_cell_length_a   9.87826665
_cell_length_b   9.80030608
_cell_length_c   9.93307149
_cell_angle_alpha   106.93202509
_cell_angle_beta   106.79902387
_cell_angle_gamma   107.04074228
_symmetry_Int_Tables_number   1
_chemical_formula_structural   Tb4YbPr2CoI12
_chemical_formula_sum   'Tb4 Yb1 Pr2 Co1 I12'
_cell_volume   802.50044342
_cell_formula_units_Z   1
loop_
 _symmetry_equiv_pos_site_id
 _symmetry_equiv_pos_as_xyz
  1  'x, y, z'
loop_
 _atom_site_type_symbol
 _atom_site_label
 _atom_site_symmetry_multiplicity
 _atom_site_fract_x
 _atom_site_fract_y
 _atom_site_fract_z
 _atom_site_occupancy
  Tb  Tb0  1  0.296437  0.024255  0.094940  1
  Tb  Tb1  1  0.975303  0.901345  0.704882  1
  Tb  Tb2  1  0.907622  0.718795  0.975518  1
  Tb  Tb3  1  0.701772  0.974596  0.900322  1
  Yb  Yb4  1  0.501420  0.499988  0.500575  1
  Pr  Pr5  1  0.023322  0.097666  0.304388  1
  Pr  Pr6  1  0.094601  0.290882  0.024512  1
  Co  Co7  1  0.999167  0.000067  0.998539  1
  I  I8  1  0.160467  0.467568  0.386981  1
  I  I9  1  0.464204  0.379313  0.157976  1
  I  I10  1  0.385767  0.151613  0.454696  1
  I  I11  1  0.847499  0.543381  0.624772  1
  I  I12  1  0.546199  0.621719  0.847023  1
  I  I13  1  0.623779  0.848407  0.544483  1
  I  I14  1  0.669830  0.067893  0.214570  1
  I  I15  1  0.071911  0.220344  0.678956  1
  I  I16  1  0.220613  0.684427  0.071087  1
  I  I17  1  0.318568  0.927762  0.776703  1
  I  I18  1  0.923492  0.763717  0.314174  1
  I  I19  1  0.768026  0.316262  0.924902  1
