# generated using pymatgen
data_TbTmZr4(SnRh)6
_symmetry_space_group_name_H-M   'P 1'
_cell_length_a   7.50840748
_cell_length_b   7.51103849
_cell_length_c   7.36329300
_cell_angle_alpha   90.00000000
_cell_angle_beta   90.00000000
_cell_angle_gamma   119.91835024
_symmetry_Int_Tables_number   1
_chemical_formula_structural   TbTmZr4(SnRh)6
_chemical_formula_sum   'Tb1 Tm1 Zr4 Sn6 Rh6'
_cell_volume   359.92106579
_cell_formula_units_Z   1
loop_
 _symmetry_equiv_pos_site_id
 _symmetry_equiv_pos_as_xyz
  1  'x, y, z'
loop_
 _atom_site_type_symbol
 _atom_site_label
 _atom_site_symmetry_multiplicity
 _atom_site_fract_x
 _atom_site_fract_y
 _atom_site_fract_z
 _atom_site_occupancy
  Tb  Tb0  1  0.405409  0.402330  0.250000  1
  Tm  Tm1  1  0.596569  0.999924  0.250000  1
  Zr  Zr2  1  0.609065  0.002744  0.750000  1
  Zr  Zr3  1  0.389377  0.395612  0.750000  1
  Zr  Zr4  1  0.001739  0.603524  0.750000  1
  Zr  Zr5  1  0.003157  0.602105  0.250000  1
  Sn  Sn6  1  0.267600  0.999924  0.992150  1
  Sn  Sn7  1  0.733589  0.731888  0.507692  1
  Sn  Sn8  1  0.998494  0.267712  0.496181  1
  Sn  Sn9  1  0.998494  0.267712  0.003819  1
  Sn  Sn10  1  0.733589  0.731888  0.992308  1
  Sn  Sn11  1  0.267600  0.999924  0.507850  1
  Rh  Rh12  1  0.669975  0.335438  0.971605  1
  Rh  Rh13  1  0.669975  0.335438  0.528395  1
  Rh  Rh14  1  0.328436  0.665905  0.977140  1
  Rh  Rh15  1  0.328436  0.665905  0.522860  1
  Rh  Rh16  1  0.999436  0.004343  0.750000  1
  Rh  Rh17  1  0.999061  0.987683  0.250000  1
