# generated using pymatgen
data_Hf6Al3Ga3(Pd2Rh)2
_symmetry_space_group_name_H-M   'P 1'
_cell_length_a   7.28084700
_cell_length_b   7.28084635
_cell_length_c   6.79631100
_cell_angle_alpha   90.00000000
_cell_angle_beta   90.00000000
_cell_angle_gamma   119.99999841
_symmetry_Int_Tables_number   1
_chemical_formula_structural   Hf6Al3Ga3(Pd2Rh)2
_chemical_formula_sum   'Hf6 Al3 Ga3 Pd4 Rh2'
_cell_volume   312.00938220
_cell_formula_units_Z   1
loop_
 _symmetry_equiv_pos_site_id
 _symmetry_equiv_pos_as_xyz
  1  'x, y, z'
loop_
 _atom_site_type_symbol
 _atom_site_label
 _atom_site_symmetry_multiplicity
 _atom_site_fract_x
 _atom_site_fract_y
 _atom_site_fract_z
 _atom_site_occupancy
  Hf  Hf0  1  0.741984  0.055334  0.999318  1
  Hf  Hf1  1  0.313349  0.258016  0.999318  1
  Hf  Hf2  1  0.944666  0.686651  0.999318  1
  Hf  Hf3  1  0.332421  0.266513  0.500792  1
  Hf  Hf4  1  0.733487  0.065909  0.500792  1
  Hf  Hf5  1  0.934091  0.667579  0.500792  1
  Al  Al6  1  0.592583  0.662209  0.250258  1
  Al  Al7  1  0.069627  0.407417  0.250258  1
  Al  Al8  1  0.337791  0.930373  0.250258  1
  Ga  Ga9  1  0.603923  0.662289  0.749549  1
  Ga  Ga10  1  0.058366  0.396077  0.749549  1
  Ga  Ga11  1  0.337711  0.941634  0.749549  1
  Pd  Pd12  1  0.333333  0.666667  0.994848  1
  Pd  Pd13  1  0.333333  0.666667  0.505205  1
  Pd  Pd14  1  0.666667  0.333333  0.768514  1
  Pd  Pd15  1  0.666667  0.333333  0.232749  1
  Rh  Rh16  1  0.000000  0.000000  0.261529  1
  Rh  Rh17  1  0.000000  0.000000  0.737406  1
