# generated using pymatgen
data_Dy11HoCo6Bi
_symmetry_space_group_name_H-M   'P 1'
_cell_length_a   8.37875354
_cell_length_b   8.38163200
_cell_length_c   8.38458600
_cell_angle_alpha   109.62622205
_cell_angle_beta   109.44807899
_cell_angle_gamma   109.33231462
_symmetry_Int_Tables_number   1
_chemical_formula_structural   Dy11HoCo6Bi
_chemical_formula_sum   'Dy11 Ho1 Co6 Bi1'
_cell_volume   453.31837434
_cell_formula_units_Z   1
loop_
 _symmetry_equiv_pos_site_id
 _symmetry_equiv_pos_as_xyz
  1  'x, y, z'
loop_
 _atom_site_type_symbol
 _atom_site_label
 _atom_site_symmetry_multiplicity
 _atom_site_fract_x
 _atom_site_fract_y
 _atom_site_fract_z
 _atom_site_occupancy
  Dy  Dy0  1  0.804541  0.694382  0.498589  1
  Dy  Dy1  1  0.195237  0.305946  0.501679  1
  Dy  Dy2  1  0.195217  0.693563  0.889272  1
  Dy  Dy3  1  0.804555  0.305933  0.110156  1
  Dy  Dy4  1  0.694212  0.498438  0.804454  1
  Dy  Dy5  1  0.305717  0.501276  0.195251  1
  Dy  Dy6  1  0.694197  0.889745  0.195790  1
  Dy  Dy7  1  0.305684  0.110445  0.804444  1
  Dy  Dy8  1  0.498452  0.804585  0.693862  1
  Dy  Dy9  1  0.501943  0.195719  0.306231  1
  Dy  Dy10  1  0.110587  0.804416  0.306173  1
  Ho  Ho11  1  0.889041  0.195545  0.693496  1
  Co  Co12  1  0.886693  0.386655  0.500031  1
  Co  Co13  1  0.112738  0.612912  0.499824  1
  Co  Co14  1  0.386602  0.499662  0.886882  1
  Co  Co15  1  0.613202  0.500097  0.113137  1
  Co  Co16  1  0.500647  0.887073  0.387142  1
  Co  Co17  1  0.500659  0.113483  0.613550  1
  Bi  Bi18  1  0.000075  0.000126  0.000036  1
