# generated using pymatgen
data_Nd7Sm(MoO6)4
_symmetry_space_group_name_H-M   'P 1'
_cell_length_a   10.21836490
_cell_length_b   10.21836453
_cell_length_c   5.57936066
_cell_angle_alpha   75.26745369
_cell_angle_beta   75.26745538
_cell_angle_gamma   68.59574225
_symmetry_Int_Tables_number   1
_chemical_formula_structural   Nd7Sm(MoO6)4
_chemical_formula_sum   'Nd7 Sm1 Mo4 O24'
_cell_volume   516.05001009
_cell_formula_units_Z   1
loop_
 _symmetry_equiv_pos_site_id
 _symmetry_equiv_pos_as_xyz
  1  'x, y, z'
loop_
 _atom_site_type_symbol
 _atom_site_label
 _atom_site_symmetry_multiplicity
 _atom_site_fract_x
 _atom_site_fract_y
 _atom_site_fract_z
 _atom_site_occupancy
  Nd  Nd0  1  0.288018  0.055795  0.618226  1
  Nd  Nd1  1  0.944205  0.711982  0.881774  1
  Nd  Nd2  1  0.711937  0.945145  0.381415  1
  Nd  Nd3  1  0.054855  0.288063  0.118585  1
  Nd  Nd4  1  0.889554  0.110446  0.750000  1
  Nd  Nd5  1  0.109636  0.890364  0.250000  1
  Nd  Nd6  1  0.367949  0.632051  0.750000  1
  Sm  Sm7  1  0.633026  0.366974  0.250000  1
  Mo  Mo8  1  0.796181  0.508144  0.559513  1
  Mo  Mo9  1  0.491856  0.203819  0.940487  1
  Mo  Mo10  1  0.203721  0.491557  0.440340  1
  Mo  Mo11  1  0.508443  0.796279  0.059660  1
  O  O12  1  0.824959  0.385394  0.862333  1
  O  O13  1  0.614606  0.175041  0.637667  1
  O  O14  1  0.173522  0.614447  0.138286  1
  O  O15  1  0.385553  0.826478  0.361714  1
  O  O16  1  0.928821  0.525568  0.266229  1
  O  O17  1  0.474432  0.071179  0.233771  1
  O  O18  1  0.071621  0.473336  0.734870  1
  O  O19  1  0.526664  0.928379  0.765130  1
  O  O20  1  0.786973  0.675659  0.636357  1
  O  O21  1  0.324341  0.213027  0.863643  1
  O  O22  1  0.212484  0.324055  0.363500  1
  O  O23  1  0.675945  0.787516  0.136500  1
  O  O24  1  0.076488  0.108387  0.921235  1
  O  O25  1  0.891613  0.923512  0.578765  1
  O  O26  1  0.923261  0.891968  0.078158  1
  O  O27  1  0.108032  0.076739  0.421842  1
  O  O28  1  0.314239  0.836069  0.916064  1
  O  O29  1  0.163931  0.685761  0.583936  1
  O  O30  1  0.686334  0.165713  0.086661  1
  O  O31  1  0.834287  0.313666  0.413339  1
  O  O32  1  0.546570  0.613539  0.020743  1
  O  O33  1  0.386461  0.453430  0.479257  1
  O  O34  1  0.454799  0.385315  0.983334  1
  O  O35  1  0.614685  0.545201  0.516666  1
