# generated using pymatgen
data_TbY15Cd4NiIr3
_symmetry_space_group_name_H-M   'P 1'
_cell_length_a   9.65445317
_cell_length_b   9.69414168
_cell_length_c   9.69414331
_cell_angle_alpha   59.89945429
_cell_angle_beta   59.68636576
_cell_angle_gamma   59.68633840
_symmetry_Int_Tables_number   1
_chemical_formula_structural   TbY15Cd4NiIr3
_chemical_formula_sum   'Tb1 Y15 Cd4 Ni1 Ir3'
_cell_volume   638.01119488
_cell_formula_units_Z   1
loop_
 _symmetry_equiv_pos_site_id
 _symmetry_equiv_pos_as_xyz
  1  'x, y, z'
loop_
 _atom_site_type_symbol
 _atom_site_label
 _atom_site_symmetry_multiplicity
 _atom_site_fract_x
 _atom_site_fract_y
 _atom_site_fract_z
 _atom_site_occupancy
  Tb  Tb0  1  0.601355  0.596124  0.596122  1
  Y  Y1  1  0.602846  0.598834  0.201776  1
  Y  Y2  1  0.602847  0.201776  0.598834  1
  Y  Y3  1  0.201164  0.600065  0.600064  1
  Y  Y4  1  0.058090  0.439701  0.439702  1
  Y  Y5  1  0.436807  0.060594  0.060595  1
  Y  Y6  1  0.438672  0.059833  0.440768  1
  Y  Y7  1  0.059287  0.438264  0.061465  1
  Y  Y8  1  0.438672  0.440768  0.059833  1
  Y  Y9  1  0.059288  0.061465  0.438264  1
  Y  Y10  1  0.189263  0.812038  0.812038  1
  Y  Y11  1  0.810432  0.186833  0.186833  1
  Y  Y12  1  0.811281  0.188035  0.815839  1
  Y  Y13  1  0.188711  0.811348  0.188159  1
  Y  Y14  1  0.811281  0.815838  0.188035  1
  Y  Y15  1  0.188711  0.188159  0.811349  1
  Cd  Cd16  1  0.828943  0.830706  0.830706  1
  Cd  Cd17  1  0.830028  0.831314  0.506634  1
  Cd  Cd18  1  0.830027  0.506634  0.831314  1
  Cd  Cd19  1  0.506623  0.830941  0.830942  1
  Ni  Ni20  1  0.825271  0.392112  0.392111  1
  Ir  Ir21  1  0.393615  0.391786  0.391785  1
  Ir  Ir22  1  0.393393  0.392820  0.824008  1
  Ir  Ir23  1  0.393393  0.824008  0.392820  1
