# generated using pymatgen
data_Tb2Co9P6Ru
_symmetry_space_group_name_H-M   'P 1'
_cell_length_a   3.68256100
_cell_length_b   10.35703400
_cell_length_c   11.77057900
_cell_angle_alpha   90.00000000
_cell_angle_beta   90.00000000
_cell_angle_gamma   90.00000000
_symmetry_Int_Tables_number   1
_chemical_formula_structural   Tb2Co9P6Ru
_chemical_formula_sum   'Tb4 Co18 P12 Ru2'
_cell_volume   448.93470292
_cell_formula_units_Z   2
loop_
 _symmetry_equiv_pos_site_id
 _symmetry_equiv_pos_as_xyz
  1  'x, y, z'
loop_
 _atom_site_type_symbol
 _atom_site_label
 _atom_site_symmetry_multiplicity
 _atom_site_fract_x
 _atom_site_fract_y
 _atom_site_fract_z
 _atom_site_occupancy
  Tb  Tb0  1  0.250000  0.582472  0.702101  1
  Tb  Tb1  1  0.250000  0.917528  0.202101  1
  Tb  Tb2  1  0.750000  0.413981  0.295638  1
  Tb  Tb3  1  0.750000  0.086019  0.795638  1
  Co  Co4  1  0.750000  0.283835  0.009241  1
  Co  Co5  1  0.750000  0.216165  0.509241  1
  Co  Co6  1  0.250000  0.406456  0.488244  1
  Co  Co7  1  0.250000  0.093544  0.988244  1
  Co  Co8  1  0.750000  0.591346  0.509919  1
  Co  Co9  1  0.750000  0.908654  0.009919  1
  Co  Co10  1  0.250000  0.220714  0.176378  1
  Co  Co11  1  0.250000  0.279286  0.676378  1
  Co  Co12  1  0.750000  0.778353  0.823191  1
  Co  Co13  1  0.750000  0.721647  0.323191  1
  Co  Co14  1  0.250000  0.886550  0.701381  1
  Co  Co15  1  0.250000  0.613450  0.201381  1
  Co  Co16  1  0.750000  0.116977  0.301413  1
  Co  Co17  1  0.750000  0.383023  0.801413  1
  Co  Co18  1  0.250000  0.464270  0.932553  1
  Co  Co19  1  0.250000  0.035730  0.432553  1
  Co  Co20  1  0.750000  0.532814  0.068580  1
  Co  Co21  1  0.750000  0.967186  0.568580  1
  P  P22  1  0.250000  0.417167  0.111746  1
  P  P23  1  0.250000  0.082833  0.611746  1
  P  P24  1  0.750000  0.578342  0.887223  1
  P  P25  1  0.750000  0.921658  0.387223  1
  P  P26  1  0.250000  0.270648  0.869266  1
  P  P27  1  0.250000  0.229352  0.369266  1
  P  P28  1  0.750000  0.727908  0.132807  1
  P  P29  1  0.750000  0.772092  0.632807  1
  P  P30  1  0.250000  0.595356  0.390457  1
  P  P31  1  0.250000  0.904644  0.890457  1
  P  P32  1  0.750000  0.396679  0.608561  1
  P  P33  1  0.750000  0.103321  0.108561  1
  Ru  Ru34  1  0.250000  0.714703  0.991302  1
  Ru  Ru35  1  0.250000  0.785297  0.491302  1
