# generated using pymatgen
data_Sr3Ac5(As7Ir8)2
_symmetry_space_group_name_H-M   'P 1'
_cell_length_a   4.20582100
_cell_length_b   13.49897787
_cell_length_c   13.78154306
_cell_angle_alpha   98.29182763
_cell_angle_beta   90.00000000
_cell_angle_gamma   90.00000000
_symmetry_Int_Tables_number   1
_chemical_formula_structural   Sr3Ac5(As7Ir8)2
_chemical_formula_sum   'Sr3 Ac5 As14 Ir16'
_cell_volume   774.25793782
_cell_formula_units_Z   1
loop_
 _symmetry_equiv_pos_site_id
 _symmetry_equiv_pos_as_xyz
  1  'x, y, z'
loop_
 _atom_site_type_symbol
 _atom_site_label
 _atom_site_symmetry_multiplicity
 _atom_site_fract_x
 _atom_site_fract_y
 _atom_site_fract_z
 _atom_site_occupancy
  Sr  Sr0  1  0.750000  0.211051  0.563908  1
  Sr  Sr1  1  0.250000  0.789762  0.436957  1
  Sr  Sr2  1  0.750000  0.515508  0.708751  1
  Ac  Ac3  1  0.250000  0.484314  0.289906  1
  Ac  Ac4  1  0.750000  0.287347  0.893135  1
  Ac  Ac5  1  0.250000  0.713784  0.105836  1
  Ac  Ac6  1  0.750000  0.101390  0.206707  1
  Ac  Ac7  1  0.250000  0.898466  0.792709  1
  As  As8  1  0.750000  0.743308  0.916050  1
  As  As9  1  0.250000  0.256152  0.083934  1
  As  As10  1  0.750000  0.906346  0.586652  1
  As  As11  1  0.250000  0.093477  0.413587  1
  As  As12  1  0.750000  0.526512  0.124160  1
  As  As13  1  0.250000  0.473300  0.870947  1
  As  As14  1  0.750000  0.848458  0.280333  1
  As  As15  1  0.250000  0.151018  0.719801  1
  As  As16  1  0.750000  0.610246  0.439733  1
  As  As17  1  0.250000  0.390772  0.564080  1
  As  As18  1  0.750000  0.311785  0.316228  1
  As  As19  1  0.250000  0.685909  0.686254  1
  As  As20  1  0.750000  0.059476  0.903428  1
  As  As21  1  0.250000  0.940533  0.096521  1
  Ir  Ir22  1  0.750000  0.343258  0.138189  1
  Ir  Ir23  1  0.250000  0.657415  0.862057  1
  Ir  Ir24  1  0.750000  0.722136  0.600894  1
  Ir  Ir25  1  0.250000  0.278832  0.401432  1
  Ir  Ir26  1  0.750000  0.919632  0.999602  1
  Ir  Ir27  1  0.250000  0.080014  0.999955  1
  Ir  Ir28  1  0.750000  0.428125  0.473211  1
  Ir  Ir29  1  0.250000  0.573075  0.527915  1
  Ir  Ir30  1  0.750000  0.055392  0.721188  1
  Ir  Ir31  1  0.250000  0.944427  0.278778  1
  Ir  Ir32  1  0.750000  0.553447  0.950299  1
  Ir  Ir33  1  0.250000  0.448013  0.046406  1
  Ir  Ir34  1  0.750000  0.664017  0.267104  1
  Ir  Ir35  1  0.250000  0.333569  0.733053  1
  Ir  Ir36  1  0.750000  0.987529  0.425982  1
  Ir  Ir37  1  0.250000  0.012205  0.574319  1
