# generated using pymatgen
data_Y8Cd2RuPt
_symmetry_space_group_name_H-M   'P 1'
_cell_length_a   9.70059003
_cell_length_b   9.70059024
_cell_length_c   9.75499900
_cell_angle_alpha   59.81429139
_cell_angle_beta   59.81429068
_cell_angle_gamma   59.66044405
_symmetry_Int_Tables_number   1
_chemical_formula_structural   Y8Cd2RuPt
_chemical_formula_sum   'Y16 Cd4 Ru2 Pt2'
_cell_volume   645.59942068
_cell_formula_units_Z   2
loop_
 _symmetry_equiv_pos_site_id
 _symmetry_equiv_pos_as_xyz
  1  'x, y, z'
loop_
 _atom_site_type_symbol
 _atom_site_label
 _atom_site_symmetry_multiplicity
 _atom_site_fract_x
 _atom_site_fract_y
 _atom_site_fract_z
 _atom_site_occupancy
  Y  Y0  1  0.349590  0.349590  0.352349  1
  Y  Y1  1  0.349590  0.349590  0.948471  1
  Y  Y2  1  0.347265  0.953229  0.349753  1
  Y  Y3  1  0.953229  0.347265  0.349753  1
  Y  Y4  1  0.814810  0.188362  0.190620  1
  Y  Y5  1  0.188362  0.814810  0.806209  1
  Y  Y6  1  0.188362  0.814810  0.190620  1
  Y  Y7  1  0.814810  0.188362  0.806209  1
  Y  Y8  1  0.188127  0.188127  0.811873  1
  Y  Y9  1  0.808163  0.808163  0.191837  1
  Y  Y10  1  0.937361  0.559556  0.566111  1
  Y  Y11  1  0.559556  0.937361  0.936972  1
  Y  Y12  1  0.559556  0.937361  0.566111  1
  Y  Y13  1  0.937361  0.559556  0.936972  1
  Y  Y14  1  0.563305  0.563305  0.936695  1
  Y  Y15  1  0.938228  0.938228  0.561772  1
  Cd  Cd16  1  0.579927  0.579927  0.581456  1
  Cd  Cd17  1  0.579927  0.579927  0.258690  1
  Cd  Cd18  1  0.580876  0.255568  0.581778  1
  Cd  Cd19  1  0.255568  0.580876  0.581778  1
  Ru  Ru20  1  0.143793  0.143793  0.138168  1
  Ru  Ru21  1  0.143793  0.143793  0.574247  1
  Pt  Pt22  1  0.144313  0.574130  0.140779  1
  Pt  Pt23  1  0.574130  0.144313  0.140779  1
