# generated using pymatgen
data_UCr(Co7B2)3
_symmetry_space_group_name_H-M   'P 1'
_cell_length_a   7.40641316
_cell_length_b   7.40525595
_cell_length_c   7.40565706
_cell_angle_alpha   59.98803152
_cell_angle_beta   59.99294507
_cell_angle_gamma   59.99035708
_symmetry_Int_Tables_number   1
_chemical_formula_structural   UCr(Co7B2)3
_chemical_formula_sum   'U1 Cr1 Co21 B6'
_cell_volume   287.14582264
_cell_formula_units_Z   1
loop_
 _symmetry_equiv_pos_site_id
 _symmetry_equiv_pos_as_xyz
  1  'x, y, z'
loop_
 _atom_site_type_symbol
 _atom_site_label
 _atom_site_symmetry_multiplicity
 _atom_site_fract_x
 _atom_site_fract_y
 _atom_site_fract_z
 _atom_site_occupancy
  U  U0  1  0.249997  0.249952  0.249984  1
  Cr  Cr1  1  0.750008  0.749967  0.749967  1
  Co  Co2  1  0.000035  0.999934  0.999981  1
  Co  Co3  1  0.840301  0.386547  0.386552  1
  Co  Co4  1  0.386584  0.840211  0.386586  1
  Co  Co5  1  0.386593  0.386563  0.840241  1
  Co  Co6  1  0.386582  0.386558  0.386557  1
  Co  Co7  1  0.130014  0.623370  0.623341  1
  Co  Co8  1  0.623316  0.130047  0.623354  1
  Co  Co9  1  0.623310  0.623376  0.130024  1
  Co  Co10  1  0.623270  0.623334  0.623320  1
  Co  Co11  1  0.664879  0.997868  0.997856  1
  Co  Co12  1  0.664895  0.997850  0.339451  1
  Co  Co13  1  0.664906  0.339481  0.997821  1
  Co  Co14  1  0.997872  0.664774  0.339501  1
  Co  Co15  1  0.997914  0.664742  0.997923  1
  Co  Co16  1  0.339430  0.664749  0.997929  1
  Co  Co17  1  0.997845  0.339509  0.664824  1
  Co  Co18  1  0.339433  0.997907  0.664809  1
  Co  Co19  1  0.997894  0.997902  0.664793  1
  Co  Co20  1  0.339414  0.997867  0.997846  1
  Co  Co21  1  0.997798  0.339489  0.997802  1
  Co  Co22  1  0.997809  0.997825  0.339468  1
  B  B23  1  0.725230  0.274788  0.274757  1
  B  B24  1  0.725279  0.274829  0.725209  1
  B  B25  1  0.725281  0.725219  0.274805  1
  B  B26  1  0.274717  0.725253  0.725299  1
  B  B27  1  0.274707  0.725222  0.274793  1
  B  B28  1  0.274691  0.274866  0.725208  1
