# generated using pymatgen
data_RbI2BrO8
_symmetry_space_group_name_H-M   'P 1'
_cell_length_a   6.26473041
_cell_length_b   8.05941629
_cell_length_c   9.92042054
_cell_angle_alpha   107.82307963
_cell_angle_beta   96.11317300
_cell_angle_gamma   88.50572113
_symmetry_Int_Tables_number   1
_chemical_formula_structural   RbI2BrO8
_chemical_formula_sum   'Rb2 I4 Br2 O16'
_cell_volume   474.12063591
_cell_formula_units_Z   2
loop_
 _symmetry_equiv_pos_site_id
 _symmetry_equiv_pos_as_xyz
  1  'x, y, z'
loop_
 _atom_site_type_symbol
 _atom_site_label
 _atom_site_symmetry_multiplicity
 _atom_site_fract_x
 _atom_site_fract_y
 _atom_site_fract_z
 _atom_site_occupancy
  Rb  Rb0  1  0.235813  0.779918  0.071388  1
  Rb  Rb1  1  0.764187  0.220082  0.928612  1
  I  I2  1  0.634774  0.136093  0.446040  1
  I  I3  1  0.695307  0.652318  0.764994  1
  I  I4  1  0.304693  0.347682  0.235006  1
  I  I5  1  0.365226  0.863907  0.553960  1
  Br  Br6  1  0.837777  0.632163  0.308664  1
  Br  Br7  1  0.162223  0.367837  0.691336  1
  O  O8  1  0.405625  0.770358  0.714107  1
  O  O9  1  0.374088  0.013043  0.388255  1
  O  O10  1  0.016246  0.319156  0.532429  1
  O  O11  1  0.182949  0.153928  0.110292  1
  O  O12  1  0.444277  0.436328  0.122977  1
  O  O13  1  0.453349  0.672792  0.422454  1
  O  O14  1  0.008402  0.505486  0.185762  1
  O  O15  1  0.625912  0.986957  0.611745  1
  O  O16  1  0.817051  0.846072  0.889708  1
  O  O17  1  0.546651  0.327208  0.577546  1
  O  O18  1  0.821336  0.814329  0.261573  1
  O  O19  1  0.555723  0.563672  0.877023  1
  O  O20  1  0.991598  0.494514  0.814238  1
  O  O21  1  0.983754  0.680844  0.467571  1
  O  O22  1  0.594375  0.229642  0.285893  1
  O  O23  1  0.178664  0.185671  0.738427  1
