# generated using pymatgen
data_Cs2HfZnTe4
_symmetry_space_group_name_H-M   'P 1'
_cell_length_a   15.93795608
_cell_length_b   14.23503120
_cell_length_c   8.49476893
_cell_angle_alpha   85.07124492
_cell_angle_beta   62.85442003
_cell_angle_gamma   32.07433112
_symmetry_Int_Tables_number   1
_chemical_formula_structural   Cs2HfZnTe4
_chemical_formula_sum   'Cs4 Hf2 Zn2 Te8'
_cell_volume   702.50388201
_cell_formula_units_Z   2
loop_
 _symmetry_equiv_pos_site_id
 _symmetry_equiv_pos_as_xyz
  1  'x, y, z'
loop_
 _atom_site_type_symbol
 _atom_site_label
 _atom_site_symmetry_multiplicity
 _atom_site_fract_x
 _atom_site_fract_y
 _atom_site_fract_z
 _atom_site_occupancy
  Cs  Cs0  1  0.819123  0.819123  0.180877  1
  Cs  Cs1  1  0.180877  0.180877  0.819123  1
  Cs  Cs2  1  0.430877  0.430877  0.069123  1
  Cs  Cs3  1  0.069123  0.069123  0.430877  1
  Hf  Hf4  1  0.250000  0.250000  0.250000  1
  Hf  Hf5  1  0.000000  0.000000  0.000000  1
  Zn  Zn6  1  0.750000  0.750000  0.750000  1
  Zn  Zn7  1  0.500000  0.500000  0.500000  1
  Te  Te8  1  0.407261  0.704182  0.790577  1
  Te  Te9  1  0.097980  0.790577  0.704182  1
  Te  Te10  1  0.790577  0.097980  0.407261  1
  Te  Te11  1  0.704182  0.407261  0.097980  1
  Te  Te12  1  0.842739  0.545818  0.459423  1
  Te  Te13  1  0.152020  0.459423  0.545818  1
  Te  Te14  1  0.459423  0.152020  0.842739  1
  Te  Te15  1  0.545818  0.842739  0.152020  1
