# generated using pymatgen
data_Hf8FeCo3Tc4
_symmetry_space_group_name_H-M   'P 1'
_cell_length_a   6.38735200
_cell_length_b   4.53822300
_cell_length_c   9.07504000
_cell_angle_alpha   90.00000000
_cell_angle_beta   89.99960694
_cell_angle_gamma   90.00000000
_symmetry_Int_Tables_number   1
_chemical_formula_structural   Hf8FeCo3Tc4
_chemical_formula_sum   'Hf8 Fe1 Co3 Tc4'
_cell_volume   263.06025137
_cell_formula_units_Z   1
loop_
 _symmetry_equiv_pos_site_id
 _symmetry_equiv_pos_as_xyz
  1  'x, y, z'
loop_
 _atom_site_type_symbol
 _atom_site_label
 _atom_site_symmetry_multiplicity
 _atom_site_fract_x
 _atom_site_fract_y
 _atom_site_fract_z
 _atom_site_occupancy
  Hf  Hf0  1  0.997943  0.750000  0.125000  1
  Hf  Hf1  1  0.502112  0.750000  0.125009  1
  Hf  Hf2  1  0.999480  0.250000  0.373421  1
  Hf  Hf3  1  0.500586  0.250000  0.373429  1
  Hf  Hf4  1  0.499834  0.750000  0.624992  1
  Hf  Hf5  1  0.000101  0.750000  0.625002  1
  Hf  Hf6  1  0.500534  0.250000  0.876571  1
  Hf  Hf7  1  0.999413  0.250000  0.876583  1
  Fe  Fe8  1  0.750034  0.250000  0.124997  1
  Co  Co9  1  0.250041  0.750000  0.375496  1
  Co  Co10  1  0.749958  0.250000  0.624998  1
  Co  Co11  1  0.249961  0.750000  0.874509  1
  Tc  Tc12  1  0.250025  0.250000  0.125002  1
  Tc  Tc13  1  0.750028  0.750000  0.376198  1
  Tc  Tc14  1  0.249976  0.250000  0.625000  1
  Tc  Tc15  1  0.749973  0.750000  0.873793  1
