# generated using pymatgen
data_Th3Sc2Ir2Ru
_symmetry_space_group_name_H-M   'P 1'
_cell_length_a   6.12423800
_cell_length_b   8.29621753
_cell_length_c   8.31493001
_cell_angle_alpha   119.92558907
_cell_angle_beta   90.00000000
_cell_angle_gamma   90.00000000
_symmetry_Int_Tables_number   1
_chemical_formula_structural   Th3Sc2Ir2Ru
_chemical_formula_sum   'Th6 Sc4 Ir4 Ru2'
_cell_volume   366.13949018
_cell_formula_units_Z   2
loop_
 _symmetry_equiv_pos_site_id
 _symmetry_equiv_pos_as_xyz
  1  'x, y, z'
loop_
 _atom_site_type_symbol
 _atom_site_label
 _atom_site_symmetry_multiplicity
 _atom_site_fract_x
 _atom_site_fract_y
 _atom_site_fract_z
 _atom_site_occupancy
  Th  Th0  1  0.750000  0.739142  0.742633  1
  Th  Th1  1  0.250000  0.260858  0.257367  1
  Th  Th2  1  0.750000  0.996510  0.257367  1
  Th  Th3  1  0.250000  0.003490  0.742633  1
  Th  Th4  1  0.750000  0.264493  0.000000  1
  Th  Th5  1  0.250000  0.735507  0.000000  1
  Sc  Sc6  1  0.000000  0.667771  0.335541  1
  Sc  Sc7  1  0.000000  0.332229  0.664459  1
  Sc  Sc8  1  0.500000  0.332229  0.664459  1
  Sc  Sc9  1  0.500000  0.667771  0.335541  1
  Ir  Ir10  1  0.750000  0.389970  0.390972  1
  Ir  Ir11  1  0.250000  0.610030  0.609028  1
  Ir  Ir12  1  0.750000  0.998998  0.609028  1
  Ir  Ir13  1  0.250000  0.001002  0.390972  1
  Ru  Ru14  1  0.750000  0.614011  0.000000  1
  Ru  Ru15  1  0.250000  0.385989  0.000000  1
