# generated using pymatgen
data_KRb2CrO4
_symmetry_space_group_name_H-M   'P 1'
_cell_length_a   6.33678500
_cell_length_b   6.69343806
_cell_length_c   7.93155852
_cell_angle_alpha   88.31232201
_cell_angle_beta   90.00000000
_cell_angle_gamma   90.00000000
_symmetry_Int_Tables_number   1
_chemical_formula_structural   KRb2CrO4
_chemical_formula_sum   'K2 Rb4 Cr2 O8'
_cell_volume   336.27015456
_cell_formula_units_Z   2
loop_
 _symmetry_equiv_pos_site_id
 _symmetry_equiv_pos_as_xyz
  1  'x, y, z'
loop_
 _atom_site_type_symbol
 _atom_site_label
 _atom_site_symmetry_multiplicity
 _atom_site_fract_x
 _atom_site_fract_y
 _atom_site_fract_z
 _atom_site_occupancy
  K  K0  1  0.750000  0.605167  0.043190  1
  K  K1  1  0.250000  0.394833  0.956810  1
  Rb  Rb2  1  0.750000  0.068176  0.829198  1
  Rb  Rb3  1  0.250000  0.931824  0.170802  1
  Rb  Rb4  1  0.250000  0.320863  0.485934  1
  Rb  Rb5  1  0.750000  0.679137  0.514066  1
  Cr  Cr6  1  0.250000  0.819994  0.721345  1
  Cr  Cr7  1  0.750000  0.180006  0.278655  1
  O  O8  1  0.526507  0.297437  0.193426  1
  O  O9  1  0.026507  0.702563  0.806573  1
  O  O10  1  0.473493  0.702563  0.806573  1
  O  O11  1  0.973493  0.297437  0.193426  1
  O  O12  1  0.750000  0.213915  0.492433  1
  O  O13  1  0.750000  0.935863  0.212269  1
  O  O14  1  0.250000  0.786085  0.507567  1
  O  O15  1  0.250000  0.064137  0.787731  1
