# generated using pymatgen
data_Dy3Y9Ru4
_symmetry_space_group_name_H-M   'P 1'
_cell_length_a   6.36266508
_cell_length_b   7.32307129
_cell_length_c   9.24007400
_cell_angle_alpha   90.00000000
_cell_angle_beta   90.00000000
_cell_angle_gamma   89.93247287
_symmetry_Int_Tables_number   1
_chemical_formula_structural   Dy3Y9Ru4
_chemical_formula_sum   'Dy3 Y9 Ru4'
_cell_volume   430.53401933
_cell_formula_units_Z   1
loop_
 _symmetry_equiv_pos_site_id
 _symmetry_equiv_pos_as_xyz
  1  'x, y, z'
loop_
 _atom_site_type_symbol
 _atom_site_label
 _atom_site_symmetry_multiplicity
 _atom_site_fract_x
 _atom_site_fract_y
 _atom_site_fract_z
 _atom_site_occupancy
  Dy  Dy0  1  0.636503  0.042864  0.250000  1
  Dy  Dy1  1  0.136138  0.457414  0.750000  1
  Dy  Dy2  1  0.363423  0.957193  0.750000  1
  Y  Y3  1  0.328915  0.676588  0.065105  1
  Y  Y4  1  0.171525  0.176199  0.435315  1
  Y  Y5  1  0.671011  0.323425  0.565358  1
  Y  Y6  1  0.828578  0.823847  0.934785  1
  Y  Y7  1  0.671011  0.323425  0.934642  1
  Y  Y8  1  0.828578  0.823847  0.565215  1
  Y  Y9  1  0.328915  0.676588  0.434895  1
  Y  Y10  1  0.171525  0.176199  0.064685  1
  Y  Y11  1  0.865232  0.541368  0.250000  1
  Ru  Ru12  1  0.035506  0.886631  0.250000  1
  Ru  Ru13  1  0.463262  0.384324  0.250000  1
  Ru  Ru14  1  0.966310  0.115075  0.750000  1
  Ru  Ru15  1  0.533568  0.615011  0.750000  1
