# generated using pymatgen
data_Yb2OsRu3
_symmetry_space_group_name_H-M   'P 1'
_cell_length_a   5.30542070
_cell_length_b   5.30542125
_cell_length_c   8.81595000
_cell_angle_alpha   90.00000000
_cell_angle_beta   90.00000000
_cell_angle_gamma   121.82211600
_symmetry_Int_Tables_number   1
_chemical_formula_structural   Yb2OsRu3
_chemical_formula_sum   'Yb4 Os2 Ru6'
_cell_volume   210.84773027
_cell_formula_units_Z   2
loop_
 _symmetry_equiv_pos_site_id
 _symmetry_equiv_pos_as_xyz
  1  'x, y, z'
loop_
 _atom_site_type_symbol
 _atom_site_label
 _atom_site_symmetry_multiplicity
 _atom_site_fract_x
 _atom_site_fract_y
 _atom_site_fract_z
 _atom_site_occupancy
  Yb  Yb0  1  0.332409  0.667591  0.433663  1
  Yb  Yb1  1  0.664928  0.335072  0.563721  1
  Yb  Yb2  1  0.664928  0.335072  0.936279  1
  Yb  Yb3  1  0.332409  0.667591  0.066337  1
  Os  Os4  1  0.176125  0.338351  0.750000  1
  Os  Os5  1  0.661649  0.823875  0.750000  1
  Ru  Ru6  1  0.988309  0.011691  0.500327  1
  Ru  Ru7  1  0.988309  0.011691  0.999673  1
  Ru  Ru8  1  0.835047  0.164953  0.250000  1
  Ru  Ru9  1  0.828353  0.649744  0.250000  1
  Ru  Ru10  1  0.350256  0.171647  0.250000  1
  Ru  Ru11  1  0.177280  0.822720  0.750000  1
