# generated using pymatgen
data_Er3Pa(CdPt2)2
_symmetry_space_group_name_H-M   'P 1'
_cell_length_a   7.74687425
_cell_length_b   7.74687445
_cell_length_c   3.65359800
_cell_angle_alpha   90.00000000
_cell_angle_beta   90.00000000
_cell_angle_gamma   91.51116448
_symmetry_Int_Tables_number   1
_chemical_formula_structural   Er3Pa(CdPt2)2
_chemical_formula_sum   'Er3 Pa1 Cd2 Pt4'
_cell_volume   219.19099777
_cell_formula_units_Z   1
loop_
 _symmetry_equiv_pos_site_id
 _symmetry_equiv_pos_as_xyz
  1  'x, y, z'
loop_
 _atom_site_type_symbol
 _atom_site_label
 _atom_site_symmetry_multiplicity
 _atom_site_fract_x
 _atom_site_fract_y
 _atom_site_fract_z
 _atom_site_occupancy
  Er  Er0  1  0.326945  0.826945  0.500000  1
  Er  Er1  1  0.170508  0.333325  0.500000  1
  Er  Er2  1  0.833325  0.670508  0.500000  1
  Pa  Pa3  1  0.666626  0.166626  0.500000  1
  Cd  Cd4  1  0.005379  0.999268  0.000000  1
  Cd  Cd5  1  0.499268  0.505379  0.000000  1
  Pt  Pt6  1  0.124914  0.624914  0.000000  1
  Pt  Pt7  1  0.860535  0.360535  0.000000  1
  Pt  Pt8  1  0.634906  0.877597  0.000000  1
  Pt  Pt9  1  0.377597  0.134906  0.000000  1
