# generated using pymatgen
data_SmTaSnB2Ru5
_symmetry_space_group_name_H-M   'P 1'
_cell_length_a   9.69956064
_cell_length_b   9.69955971
_cell_length_c   3.09362800
_cell_angle_alpha   90.00000000
_cell_angle_beta   90.00000000
_cell_angle_gamma   92.50642774
_symmetry_Int_Tables_number   1
_chemical_formula_structural   SmTaSnB2Ru5
_chemical_formula_sum   'Sm2 Ta2 Sn2 B4 Ru10'
_cell_volume   290.77461848
_cell_formula_units_Z   2
loop_
 _symmetry_equiv_pos_site_id
 _symmetry_equiv_pos_as_xyz
  1  'x, y, z'
loop_
 _atom_site_type_symbol
 _atom_site_label
 _atom_site_symmetry_multiplicity
 _atom_site_fract_x
 _atom_site_fract_y
 _atom_site_fract_z
 _atom_site_occupancy
  Sm  Sm0  1  0.822588  0.677412  0.000000  1
  Sm  Sm1  1  0.177412  0.322588  0.000000  1
  Ta  Ta2  1  0.326149  0.826149  0.000000  1
  Ta  Ta3  1  0.673851  0.173851  0.000000  1
  Sn  Sn4  1  0.500000  0.500000  0.000000  1
  Sn  Sn5  1  0.000000  0.000000  0.000000  1
  B  B6  1  0.618072  0.881928  0.000000  1
  B  B7  1  0.381928  0.118072  0.000000  1
  B  B8  1  0.123637  0.623637  0.000000  1
  B  B9  1  0.876363  0.376363  0.000000  1
  Ru  Ru10  1  0.551654  0.730548  0.500000  1
  Ru  Ru11  1  0.448346  0.269452  0.500000  1
  Ru  Ru12  1  0.089471  0.783540  0.500000  1
  Ru  Ru13  1  0.910529  0.216460  0.500000  1
  Ru  Ru14  1  0.283540  0.589471  0.500000  1
  Ru  Ru15  1  0.716460  0.410529  0.500000  1
  Ru  Ru16  1  0.230548  0.051654  0.500000  1
  Ru  Ru17  1  0.769452  0.948346  0.500000  1
  Ru  Ru18  1  0.500000  0.000000  0.500000  1
  Ru  Ru19  1  0.000000  0.500000  0.500000  1
