# generated using pymatgen
data_Tm2Np(SnRh)3
_symmetry_space_group_name_H-M   'P 1'
_cell_length_a   7.47032061
_cell_length_b   7.64263246
_cell_length_c   3.81987800
_cell_angle_alpha   90.00000000
_cell_angle_beta   90.00000000
_cell_angle_gamma   120.76600259
_symmetry_Int_Tables_number   1
_chemical_formula_structural   Tm2Np(SnRh)3
_chemical_formula_sum   'Tm2 Np1 Sn3 Rh3'
_cell_volume   187.39504800
_cell_formula_units_Z   1
loop_
 _symmetry_equiv_pos_site_id
 _symmetry_equiv_pos_as_xyz
  1  'x, y, z'
loop_
 _atom_site_type_symbol
 _atom_site_label
 _atom_site_symmetry_multiplicity
 _atom_site_fract_x
 _atom_site_fract_y
 _atom_site_fract_z
 _atom_site_occupancy
  Tm  Tm0  1  0.595545  0.596803  0.000000  1
  Tm  Tm1  1  0.404455  0.001258  0.000000  1
  Np  Np2  1  0.000000  0.412870  0.000000  1
  Sn  Sn3  1  0.273361  0.260532  0.500000  1
  Sn  Sn4  1  0.000000  0.753017  0.500000  1
  Sn  Sn5  1  0.726639  0.987171  0.500000  1
  Rh  Rh6  1  0.697534  0.336703  0.500000  1
  Rh  Rh7  1  0.302466  0.639170  0.500000  1
  Rh  Rh8  1  0.000000  0.012476  0.000000  1
