# generated using pymatgen
data_Pr2DyGePO9
_symmetry_space_group_name_H-M   'P 1'
_cell_length_a   7.05750691
_cell_length_b   9.20114208
_cell_length_c   12.42707800
_cell_angle_alpha   90.00000000
_cell_angle_beta   90.00000000
_cell_angle_gamma   107.59712969
_symmetry_Int_Tables_number   1
_chemical_formula_structural   Pr2DyGePO9
_chemical_formula_sum   'Pr8 Dy4 Ge4 P4 O36'
_cell_volume   769.21679179
_cell_formula_units_Z   4
loop_
 _symmetry_equiv_pos_site_id
 _symmetry_equiv_pos_as_xyz
  1  'x, y, z'
loop_
 _atom_site_type_symbol
 _atom_site_label
 _atom_site_symmetry_multiplicity
 _atom_site_fract_x
 _atom_site_fract_y
 _atom_site_fract_z
 _atom_site_occupancy
  Pr  Pr0  1  0.249278  0.648412  0.868589  1
  Pr  Pr1  1  0.250722  0.851588  0.368589  1
  Pr  Pr2  1  0.750722  0.351588  0.131411  1
  Pr  Pr3  1  0.749278  0.148412  0.631411  1
  Pr  Pr4  1  0.324472  0.368648  0.633334  1
  Pr  Pr5  1  0.175528  0.131352  0.133334  1
  Pr  Pr6  1  0.675528  0.631352  0.366666  1
  Pr  Pr7  1  0.824472  0.868648  0.866666  1
  Dy  Dy8  1  0.994588  0.622022  0.607148  1
  Dy  Dy9  1  0.505412  0.877978  0.107148  1
  Dy  Dy10  1  0.005412  0.377978  0.392852  1
  Dy  Dy11  1  0.494588  0.122022  0.892852  1
  Ge  Ge12  1  0.454708  0.263830  0.396930  1
  Ge  Ge13  1  0.045292  0.236170  0.896930  1
  Ge  Ge14  1  0.545292  0.736170  0.603070  1
  Ge  Ge15  1  0.954708  0.763830  0.103070  1
  P  P16  1  0.194399  0.970834  0.666539  1
  P  P17  1  0.305601  0.529166  0.166539  1
  P  P18  1  0.805601  0.029166  0.333461  1
  P  P19  1  0.694399  0.470834  0.833461  1
  O  O20  1  0.199837  0.383870  0.820969  1
  O  O21  1  0.300163  0.116130  0.320969  1
  O  O22  1  0.800163  0.616130  0.179031  1
  O  O23  1  0.699837  0.883870  0.679031  1
  O  O24  1  0.665173  0.591275  0.577936  1
  O  O25  1  0.834827  0.908725  0.077936  1
  O  O26  1  0.334827  0.408725  0.422064  1
  O  O27  1  0.165173  0.091275  0.922064  1
  O  O28  1  0.997615  0.381069  0.574556  1
  O  O29  1  0.502385  0.118931  0.074556  1
  O  O30  1  0.002385  0.618931  0.425444  1
  O  O31  1  0.497615  0.881069  0.925444  1
  O  O32  1  0.315195  0.634334  0.668049  1
  O  O33  1  0.184805  0.865666  0.168049  1
  O  O34  1  0.684805  0.365666  0.331951  1
  O  O35  1  0.815195  0.134334  0.831951  1
  O  O36  1  0.099579  0.102405  0.659243  1
  O  O37  1  0.400421  0.397595  0.159243  1
  O  O38  1  0.900421  0.897595  0.340757  1
  O  O39  1  0.599579  0.602405  0.840757  1
  O  O40  1  0.681541  0.387144  0.943142  1
  O  O41  1  0.818459  0.112856  0.443142  1
  O  O42  1  0.318459  0.612856  0.056858  1
  O  O43  1  0.181541  0.887144  0.556858  1
  O  O44  1  0.080400  0.837473  0.743762  1
  O  O45  1  0.419600  0.662527  0.243762  1
  O  O46  1  0.919600  0.162527  0.256238  1
  O  O47  1  0.580400  0.337473  0.756238  1
  O  O48  1  0.406980  0.035517  0.712996  1
  O  O49  1  0.093020  0.464483  0.212996  1
  O  O50  1  0.593020  0.964483  0.287004  1
  O  O51  1  0.906980  0.535517  0.787004  1
  O  O52  1  0.001752  0.721293  0.969189  1
  O  O53  1  0.498248  0.778707  0.469189  1
  O  O54  1  0.998248  0.278707  0.030811  1
  O  O55  1  0.501752  0.221293  0.530811  1
