# generated using pymatgen
data_Sm3Er(B4Ir)4
_symmetry_space_group_name_H-M   'P 1'
_cell_length_a   7.09599787
_cell_length_b   7.09599826
_cell_length_c   7.09599800
_cell_angle_alpha   111.72388841
_cell_angle_beta   111.72387230
_cell_angle_gamma   105.05415683
_symmetry_Int_Tables_number   1
_chemical_formula_structural   Sm3Er(B4Ir)4
_chemical_formula_sum   'Sm3 Er1 B16 Ir4'
_cell_volume   273.84079443
_cell_formula_units_Z   1
loop_
 _symmetry_equiv_pos_site_id
 _symmetry_equiv_pos_as_xyz
  1  'x, y, z'
loop_
 _atom_site_type_symbol
 _atom_site_label
 _atom_site_symmetry_multiplicity
 _atom_site_fract_x
 _atom_site_fract_y
 _atom_site_fract_z
 _atom_site_occupancy
  Sm  Sm0  1  0.249170  0.749216  0.500007  1
  Sm  Sm1  1  0.749219  0.249168  0.500009  1
  Sm  Sm2  1  0.786278  0.786275  0.000028  1
  Er  Er3  1  0.219730  0.219716  0.000005  1
  B  B4  1  0.112283  0.112285  0.526939  1
  B  B5  1  0.585332  0.585335  0.473018  1
  B  B6  1  0.886782  0.886786  0.472468  1
  B  B7  1  0.585454  0.112165  0.999999  1
  B  B8  1  0.112162  0.585457  0.999999  1
  B  B9  1  0.886919  0.414192  0.999988  1
  B  B10  1  0.414188  0.886923  0.999988  1
  B  B11  1  0.414312  0.414315  0.527544  1
  B  B12  1  0.108512  0.265009  0.372607  1
  B  B13  1  0.265006  0.892451  0.156540  1
  B  B14  1  0.735906  0.108456  0.843463  1
  B  B15  1  0.108455  0.735905  0.843461  1
  B  B16  1  0.892450  0.265004  0.156538  1
  B  B17  1  0.892391  0.735897  0.627392  1
  B  B18  1  0.735898  0.892392  0.627392  1
  B  B19  1  0.265009  0.108511  0.372607  1
  Ir  Ir20  1  0.498624  0.737360  0.238759  1
  Ir  Ir21  1  0.737361  0.498624  0.238759  1
  Ir  Ir22  1  0.259914  0.498645  0.761246  1
  Ir  Ir23  1  0.498645  0.259913  0.761245  1
