# generated using pymatgen
data_Yb2SmEr(Ru2O7)2
_symmetry_space_group_name_H-M   'P 1'
_cell_length_a   7.23264859
_cell_length_b   7.23264956
_cell_length_c   7.24314607
_cell_angle_alpha   60.02208520
_cell_angle_beta   60.02207758
_cell_angle_gamma   60.00938784
_symmetry_Int_Tables_number   1
_chemical_formula_structural   Yb2SmEr(Ru2O7)2
_chemical_formula_sum   'Yb2 Sm1 Er1 Ru4 O14'
_cell_volume   268.02958031
_cell_formula_units_Z   1
loop_
 _symmetry_equiv_pos_site_id
 _symmetry_equiv_pos_as_xyz
  1  'x, y, z'
loop_
 _atom_site_type_symbol
 _atom_site_label
 _atom_site_symmetry_multiplicity
 _atom_site_fract_x
 _atom_site_fract_y
 _atom_site_fract_z
 _atom_site_occupancy
  Yb  Yb0  1  0.125000  0.625000  0.125000  1
  Yb  Yb1  1  0.625000  0.125000  0.125000  1
  Sm  Sm2  1  0.125000  0.125000  0.125000  1
  Er  Er3  1  0.125000  0.125000  0.625000  1
  Ru  Ru4  1  0.625000  0.625000  0.125000  1
  Ru  Ru5  1  0.625000  0.125000  0.625000  1
  Ru  Ru6  1  0.125000  0.625000  0.625000  1
  Ru  Ru7  1  0.625000  0.625000  0.625000  1
  O  O8  1  0.247077  0.247077  0.261173  1
  O  O9  1  0.002923  0.002923  0.988827  1
  O  O10  1  0.544481  0.952294  0.552137  1
  O  O11  1  0.295406  0.702434  0.297115  1
  O  O12  1  0.552046  0.552046  0.948943  1
  O  O13  1  0.952294  0.544481  0.552137  1
  O  O14  1  0.547566  0.954594  0.952885  1
  O  O15  1  0.955305  0.955305  0.549606  1
  O  O16  1  0.954594  0.547566  0.952885  1
  O  O17  1  0.702434  0.295406  0.297115  1
  O  O18  1  0.297706  0.705519  0.697863  1
  O  O19  1  0.705519  0.297706  0.697863  1
  O  O20  1  0.294695  0.294695  0.700394  1
  O  O21  1  0.697954  0.697954  0.301057  1
