# generated using pymatgen
data_IrOs4PtW2
_symmetry_space_group_name_H-M   'P 1'
_cell_length_a   5.58133800
_cell_length_b   5.55182883
_cell_length_c   4.43852000
_cell_angle_alpha   90.00000000
_cell_angle_beta   90.00000000
_cell_angle_gamma   120.17598225
_symmetry_Int_Tables_number   1
_chemical_formula_structural   IrOs4PtW2
_chemical_formula_sum   'Ir1 Os4 Pt1 W2'
_cell_volume   118.89684464
_cell_formula_units_Z   1
loop_
 _symmetry_equiv_pos_site_id
 _symmetry_equiv_pos_as_xyz
  1  'x, y, z'
loop_
 _atom_site_type_symbol
 _atom_site_label
 _atom_site_symmetry_multiplicity
 _atom_site_fract_x
 _atom_site_fract_y
 _atom_site_fract_z
 _atom_site_occupancy
  Ir  Ir0  1  0.166113  0.332227  0.250000  1
  Os  Os1  1  0.669482  0.840449  0.250000  1
  Os  Os2  1  0.170968  0.840449  0.250000  1
  Os  Os3  1  0.332490  0.161595  0.750000  1
  Os  Os4  1  0.829105  0.161595  0.750000  1
  Pt  Pt5  1  0.833784  0.667569  0.750000  1
  W  W6  1  0.336265  0.672532  0.750000  1
  W  W7  1  0.661793  0.323584  0.250000  1
