# generated using pymatgen
data_Nd2Dy6CdNi2Ag
_symmetry_space_group_name_H-M   'P 1'
_cell_length_a   9.56659534
_cell_length_b   9.56659485
_cell_length_c   9.55840200
_cell_angle_alpha   60.02833242
_cell_angle_beta   60.02833411
_cell_angle_gamma   60.03043057
_symmetry_Int_Tables_number   1
_chemical_formula_structural   Nd2Dy6CdNi2Ag
_chemical_formula_sum   'Nd4 Dy12 Cd2 Ni4 Ag2'
_cell_volume   618.97171184
_cell_formula_units_Z   2
loop_
 _symmetry_equiv_pos_site_id
 _symmetry_equiv_pos_as_xyz
  1  'x, y, z'
loop_
 _atom_site_type_symbol
 _atom_site_label
 _atom_site_symmetry_multiplicity
 _atom_site_fract_x
 _atom_site_fract_y
 _atom_site_fract_z
 _atom_site_occupancy
  Nd  Nd0  1  0.600976  0.600976  0.599346  1
  Nd  Nd1  1  0.600976  0.600976  0.198705  1
  Nd  Nd2  1  0.602501  0.195166  0.601167  1
  Nd  Nd3  1  0.195166  0.602501  0.601167  1
  Dy  Dy4  1  0.063302  0.436657  0.437942  1
  Dy  Dy5  1  0.436657  0.063302  0.062099  1
  Dy  Dy6  1  0.436657  0.063302  0.437942  1
  Dy  Dy7  1  0.063302  0.436657  0.062099  1
  Dy  Dy8  1  0.437658  0.437658  0.062342  1
  Dy  Dy9  1  0.062424  0.062424  0.437576  1
  Dy  Dy10  1  0.182123  0.815137  0.816166  1
  Dy  Dy11  1  0.815137  0.182123  0.186573  1
  Dy  Dy12  1  0.815137  0.182123  0.816166  1
  Dy  Dy13  1  0.182123  0.815137  0.186573  1
  Dy  Dy14  1  0.814825  0.814825  0.185175  1
  Dy  Dy15  1  0.184452  0.184452  0.815548  1
  Cd  Cd16  1  0.832117  0.506667  0.830608  1
  Cd  Cd17  1  0.506667  0.832117  0.830608  1
  Ni  Ni18  1  0.390894  0.390894  0.391780  1
  Ni  Ni19  1  0.390894  0.390894  0.826432  1
  Ni  Ni20  1  0.390223  0.827606  0.391086  1
  Ni  Ni21  1  0.827606  0.390223  0.391086  1
  Ag  Ag22  1  0.834092  0.834092  0.833131  1
  Ag  Ag23  1  0.834092  0.834092  0.498685  1
