# generated using pymatgen
data_Tb3Al12AgRu3
_symmetry_space_group_name_H-M   'P 1'
_cell_length_a   8.83369800
_cell_length_b   8.83369827
_cell_length_c   9.47791800
_cell_angle_alpha   90.00000000
_cell_angle_beta   90.00000000
_cell_angle_gamma   119.54432670
_symmetry_Int_Tables_number   1
_chemical_formula_structural   Tb3Al12AgRu3
_chemical_formula_sum   'Tb6 Al24 Ag2 Ru6'
_cell_volume   643.43482939
_cell_formula_units_Z   2
loop_
 _symmetry_equiv_pos_site_id
 _symmetry_equiv_pos_as_xyz
  1  'x, y, z'
loop_
 _atom_site_type_symbol
 _atom_site_label
 _atom_site_symmetry_multiplicity
 _atom_site_fract_x
 _atom_site_fract_y
 _atom_site_fract_z
 _atom_site_occupancy
  Tb  Tb0  1  0.192219  0.807781  0.250000  1
  Tb  Tb1  1  0.187971  0.383263  0.250000  1
  Tb  Tb2  1  0.616737  0.812029  0.250000  1
  Tb  Tb3  1  0.807781  0.192219  0.750000  1
  Tb  Tb4  1  0.812029  0.616737  0.750000  1
  Tb  Tb5  1  0.383263  0.187971  0.750000  1
  Al  Al6  1  0.565866  0.434134  0.250000  1
  Al  Al7  1  0.560303  0.120817  0.250000  1
  Al  Al8  1  0.879183  0.439697  0.250000  1
  Al  Al9  1  0.434134  0.565866  0.750000  1
  Al  Al10  1  0.439697  0.879183  0.750000  1
  Al  Al11  1  0.120817  0.560303  0.750000  1
  Al  Al12  1  0.321213  0.150197  0.420682  1
  Al  Al13  1  0.836786  0.163214  0.421965  1
  Al  Al14  1  0.849803  0.678787  0.420682  1
  Al  Al15  1  0.678787  0.849803  0.579318  1
  Al  Al16  1  0.163214  0.836786  0.578035  1
  Al  Al17  1  0.150197  0.321213  0.579318  1
  Al  Al18  1  0.678787  0.849803  0.920682  1
  Al  Al19  1  0.163214  0.836786  0.921965  1
  Al  Al20  1  0.150197  0.321213  0.920682  1
  Al  Al21  1  0.321213  0.150197  0.079318  1
  Al  Al22  1  0.836786  0.163214  0.078035  1
  Al  Al23  1  0.849803  0.678787  0.079318  1
  Al  Al24  1  0.672231  0.327769  0.522461  1
  Al  Al25  1  0.327769  0.672231  0.477539  1
  Al  Al26  1  0.327769  0.672231  0.022461  1
  Al  Al27  1  0.672231  0.327769  0.977539  1
  Al  Al28  1  0.997588  0.002412  0.250000  1
  Al  Al29  1  0.002412  0.997588  0.750000  1
  Ag  Ag30  1  0.500000  0.500000  0.500000  1
  Ag  Ag31  1  0.500000  0.500000  0.000000  1
  Ru  Ru32  1  0.000000  0.000000  0.500000  1
  Ru  Ru33  1  0.000000  0.000000  0.000000  1
  Ru  Ru34  1  0.500000  0.000000  0.500000  1
  Ru  Ru35  1  0.000000  0.500000  0.500000  1
  Ru  Ru36  1  0.500000  0.000000  0.000000  1
  Ru  Ru37  1  0.000000  0.500000  0.000000  1
