# generated using pymatgen
data_Ti4RuS8
_symmetry_space_group_name_H-M   'P 1'
_cell_length_a   6.66666730
_cell_length_b   6.66666721
_cell_length_c   8.14222011
_cell_angle_alpha   53.48129673
_cell_angle_beta   53.48130112
_cell_angle_gamma   61.58323808
_symmetry_Int_Tables_number   1
_chemical_formula_structural   Ti4RuS8
_chemical_formula_sum   'Ti4 Ru1 S8'
_cell_volume   229.53598980
_cell_formula_units_Z   1
loop_
 _symmetry_equiv_pos_site_id
 _symmetry_equiv_pos_as_xyz
  1  'x, y, z'
loop_
 _atom_site_type_symbol
 _atom_site_label
 _atom_site_symmetry_multiplicity
 _atom_site_fract_x
 _atom_site_fract_y
 _atom_site_fract_z
 _atom_site_occupancy
  Ti  Ti0  1  0.737556  0.262444  0.500000  1
  Ti  Ti1  1  0.262444  0.737556  0.500000  1
  Ti  Ti2  1  0.740036  0.740036  0.007458  1
  Ti  Ti3  1  0.259964  0.259964  0.992542  1
  Ru  Ru4  1  0.000000  0.000000  0.000000  1
  S  S5  1  0.454258  0.454258  0.332639  1
  S  S6  1  0.545742  0.545742  0.667361  1
  S  S7  1  0.549604  0.040292  0.167868  1
  S  S8  1  0.450396  0.959708  0.832132  1
  S  S9  1  0.959708  0.450396  0.832132  1
  S  S10  1  0.040292  0.549604  0.167868  1
  S  S11  1  0.966393  0.966393  0.326810  1
  S  S12  1  0.033607  0.033607  0.673190  1
