# generated using pymatgen
data_Sc3GaNi11
_symmetry_space_group_name_H-M   'P 1'
_cell_length_a   4.72296317
_cell_length_b   4.73990179
_cell_length_c   10.14983149
_cell_angle_alpha   85.46546184
_cell_angle_beta   80.57959082
_cell_angle_gamma   60.69231034
_symmetry_Int_Tables_number   1
_chemical_formula_structural   Sc3GaNi11
_chemical_formula_sum   'Sc3 Ga1 Ni11'
_cell_volume   195.46269968
_cell_formula_units_Z   1
loop_
 _symmetry_equiv_pos_site_id
 _symmetry_equiv_pos_as_xyz
  1  'x, y, z'
loop_
 _atom_site_type_symbol
 _atom_site_label
 _atom_site_symmetry_multiplicity
 _atom_site_fract_x
 _atom_site_fract_y
 _atom_site_fract_z
 _atom_site_occupancy
  Sc  Sc0  1  0.133400  0.998320  0.631788  1
  Sc  Sc1  1  0.996417  0.000153  0.011075  1
  Sc  Sc2  1  0.870903  0.000657  0.353218  1
  Ga  Ga3  1  0.569777  0.498599  0.803670  1
  Ni  Ni4  1  0.070826  0.499041  0.798489  1
  Ni  Ni5  1  0.432741  0.498996  0.199912  1
  Ni  Ni6  1  0.428491  0.000495  0.202475  1
  Ni  Ni7  1  0.930782  0.501186  0.200864  1
  Ni  Ni8  1  0.670230  0.672766  0.002065  1
  Ni  Ni9  1  0.569888  0.999528  0.797880  1
  Ni  Ni10  1  0.188068  0.341625  0.406683  1
  Ni  Ni11  1  0.805222  0.664864  0.592545  1
  Ni  Ni12  1  0.474747  0.334589  0.592166  1
  Ni  Ni13  1  0.529496  0.661955  0.405256  1
  Ni  Ni14  1  0.329012  0.327227  0.001914  1
