# generated using pymatgen
data_Ca12Nd7YSn16
_symmetry_space_group_name_H-M   'P 1'
_cell_length_a   7.99353706
_cell_length_b   8.52791816
_cell_length_c   16.16315000
_cell_angle_alpha   89.86561418
_cell_angle_beta   90.07057381
_cell_angle_gamma   89.86796337
_symmetry_Int_Tables_number   1
_chemical_formula_structural   Ca12Nd7YSn16
_chemical_formula_sum   'Ca12 Nd7 Y1 Sn16'
_cell_volume   1101.80652521
_cell_formula_units_Z   1
loop_
 _symmetry_equiv_pos_site_id
 _symmetry_equiv_pos_as_xyz
  1  'x, y, z'
loop_
 _atom_site_type_symbol
 _atom_site_label
 _atom_site_symmetry_multiplicity
 _atom_site_fract_x
 _atom_site_fract_y
 _atom_site_fract_z
 _atom_site_occupancy
  Ca  Ca0  1  0.991361  0.185546  0.407556  1
  Ca  Ca1  1  0.326305  0.827862  0.122145  1
  Ca  Ca2  1  0.173476  0.331412  0.624003  1
  Ca  Ca3  1  0.507125  0.683272  0.905448  1
  Ca  Ca4  1  0.828248  0.670706  0.122371  1
  Ca  Ca5  1  0.172372  0.330980  0.876184  1
  Ca  Ca6  1  0.155877  0.495848  0.249300  1
  Ca  Ca7  1  0.658201  0.002152  0.248877  1
  Ca  Ca8  1  0.509374  0.685271  0.595413  1
  Ca  Ca9  1  0.344097  0.996525  0.749053  1
  Ca  Ca10  1  0.674079  0.171336  0.622445  1
  Ca  Ca11  1  0.840531  0.502978  0.749187  1
  Nd  Nd12  1  0.988095  0.185810  0.093359  1
  Nd  Nd13  1  0.012763  0.811025  0.903135  1
  Nd  Nd14  1  0.669649  0.171424  0.875246  1
  Nd  Nd15  1  0.486507  0.313301  0.096285  1
  Nd  Nd16  1  0.329454  0.826614  0.376282  1
  Nd  Nd17  1  0.013323  0.812188  0.597858  1
  Nd  Nd18  1  0.491035  0.312469  0.404336  1
  Y  Y19  1  0.828573  0.671434  0.377789  1
  Sn  Sn20  1  0.832274  0.472494  0.539094  1
  Sn  Sn21  1  0.670509  0.967564  0.457329  1
  Sn  Sn22  1  0.719405  0.862083  0.750929  1
  Sn  Sn23  1  0.166316  0.536934  0.459915  1
  Sn  Sn24  1  0.329866  0.038059  0.961896  1
  Sn  Sn25  1  0.782887  0.361012  0.251555  1
  Sn  Sn26  1  0.831889  0.464204  0.961182  1
  Sn  Sn27  1  0.529206  0.604210  0.251580  1
  Sn  Sn28  1  0.166029  0.531533  0.040384  1
  Sn  Sn29  1  0.471543  0.394746  0.750716  1
  Sn  Sn30  1  0.214838  0.639169  0.750241  1
  Sn  Sn31  1  0.974415  0.103048  0.750594  1
  Sn  Sn32  1  0.332011  0.036988  0.537354  1
  Sn  Sn33  1  0.668925  0.969466  0.040791  1
  Sn  Sn34  1  0.283083  0.136785  0.248912  1
  Sn  Sn35  1  0.026361  0.893558  0.251255  1
