# generated using pymatgen
data_Y8Nb11Si16Ru
_symmetry_space_group_name_H-M   'P 1'
_cell_length_a   7.05369245
_cell_length_b   7.06461793
_cell_length_c   13.06258768
_cell_angle_alpha   89.72629128
_cell_angle_beta   89.97855441
_cell_angle_gamma   90.08781199
_symmetry_Int_Tables_number   1
_chemical_formula_structural   Y8Nb11Si16Ru
_chemical_formula_sum   'Y8 Nb11 Si16 Ru1'
_cell_volume   650.92195542
_cell_formula_units_Z   1
loop_
 _symmetry_equiv_pos_site_id
 _symmetry_equiv_pos_as_xyz
  1  'x, y, z'
loop_
 _atom_site_type_symbol
 _atom_site_label
 _atom_site_symmetry_multiplicity
 _atom_site_fract_x
 _atom_site_fract_y
 _atom_site_fract_z
 _atom_site_occupancy
  Y  Y0  1  0.998696  0.341908  0.219452  1
  Y  Y1  1  0.001656  0.659626  0.716330  1
  Y  Y2  1  0.159078  0.500701  0.467341  1
  Y  Y3  1  0.500513  0.841170  0.033647  1
  Y  Y4  1  0.840510  0.501118  0.967343  1
  Y  Y5  1  0.498517  0.158055  0.531849  1
  Y  Y6  1  0.340599  0.999157  0.781746  1
  Y  Y7  1  0.659625  0.001013  0.282420  1
  Nb  Nb8  1  0.170640  0.171127  0.000965  1
  Nb  Nb9  1  0.824717  0.828413  0.500393  1
  Nb  Nb10  1  0.328602  0.667103  0.248977  1
  Nb  Nb11  1  0.669473  0.329971  0.749981  1
  Nb  Nb12  1  0.845745  0.007547  0.875715  1
  Nb  Nb13  1  0.505375  0.656981  0.624274  1
  Nb  Nb14  1  0.345259  0.492549  0.874183  1
  Nb  Nb15  1  0.489251  0.341541  0.127468  1
  Nb  Nb16  1  0.655605  0.506570  0.374404  1
  Nb  Nb17  1  0.994713  0.153964  0.623310  1
  Nb  Nb18  1  0.006232  0.844765  0.123647  1
  Si  Si19  1  0.290373  0.040280  0.190017  1
  Si  Si20  1  0.707005  0.955994  0.687265  1
  Si  Si21  1  0.451478  0.793104  0.434566  1
  Si  Si22  1  0.206569  0.544747  0.062782  1
  Si  Si23  1  0.544409  0.206028  0.936723  1
  Si  Si24  1  0.791728  0.454192  0.563193  1
  Si  Si25  1  0.044805  0.293568  0.813014  1
  Si  Si26  1  0.961131  0.716790  0.313592  1
  Si  Si27  1  0.368982  0.292197  0.318440  1
  Si  Si28  1  0.631246  0.705872  0.816974  1
  Si  Si29  1  0.200500  0.869863  0.563747  1
  Si  Si30  1  0.131917  0.795616  0.932474  1
  Si  Si31  1  0.796069  0.132617  0.067705  1
  Si  Si32  1  0.875455  0.197357  0.433301  1
  Si  Si33  1  0.295956  0.368068  0.682255  1
  Si  Si34  1  0.704352  0.629501  0.184055  1
  Ru  Ru35  1  0.163219  0.000928  0.376454  1
