# generated using pymatgen
data_Yb2SmUN4
_symmetry_space_group_name_H-M   'P 1'
_cell_length_a   6.92550864
_cell_length_b   9.23516553
_cell_length_c   6.10946828
_cell_angle_alpha   29.06585863
_cell_angle_beta   55.47367280
_cell_angle_gamma   41.41774004
_symmetry_Int_Tables_number   1
_chemical_formula_structural   Yb2SmUN4
_chemical_formula_sum   'Yb2 Sm1 U1 N4'
_cell_volume   120.70721391
_cell_formula_units_Z   1
loop_
 _symmetry_equiv_pos_site_id
 _symmetry_equiv_pos_as_xyz
  1  'x, y, z'
loop_
 _atom_site_type_symbol
 _atom_site_label
 _atom_site_symmetry_multiplicity
 _atom_site_fract_x
 _atom_site_fract_y
 _atom_site_fract_z
 _atom_site_occupancy
  Yb  Yb0  1  0.750000  0.500000  0.000000  1
  Yb  Yb1  1  0.500000  0.000000  0.000000  1
  Sm  Sm2  1  0.250000  0.500000  0.000000  1
  U  U3  1  0.000000  0.000000  0.000000  1
  N  N4  1  0.496439  0.500000  0.507121  1
  N  N5  1  0.210287  0.000000  0.579423  1
  N  N6  1  0.003561  0.500000  0.492879  1
  N  N7  1  0.789713  0.000000  0.420577  1
