# generated using pymatgen
data_Dy4SiBi5Rh7
_symmetry_space_group_name_H-M   'P 1'
_cell_length_a   7.72661581
_cell_length_b   7.72661812
_cell_length_c   7.72661758
_cell_angle_alpha   106.49058663
_cell_angle_beta   110.98177602
_cell_angle_gamma   110.98178727
_symmetry_Int_Tables_number   1
_chemical_formula_structural   Dy4SiBi5Rh7
_chemical_formula_sum   'Dy4 Si1 Bi5 Rh7'
_cell_volume   354.38044816
_cell_formula_units_Z   1
loop_
 _symmetry_equiv_pos_site_id
 _symmetry_equiv_pos_as_xyz
  1  'x, y, z'
loop_
 _atom_site_type_symbol
 _atom_site_label
 _atom_site_symmetry_multiplicity
 _atom_site_fract_x
 _atom_site_fract_y
 _atom_site_fract_z
 _atom_site_occupancy
  Dy  Dy0  1  0.000000  0.982500  0.531241  1
  Dy  Dy1  1  0.000000  0.531241  0.982500  1
  Dy  Dy2  1  0.451258  0.982500  0.982500  1
  Dy  Dy3  1  0.548742  0.531241  0.531241  1
  Si  Si4  1  0.000000  0.639678  0.639678  1
  Bi  Bi5  1  0.689235  0.705145  0.015910  1
  Bi  Bi6  1  0.310765  0.015910  0.326675  1
  Bi  Bi7  1  0.000000  0.307119  0.307119  1
  Bi  Bi8  1  0.310765  0.326675  0.015910  1
  Bi  Bi9  1  0.689235  0.015910  0.705145  1
  Rh  Rh10  1  0.757522  0.266475  0.508953  1
  Rh  Rh11  1  0.757522  0.508953  0.266475  1
  Rh  Rh12  1  0.500000  0.262934  0.762934  1
  Rh  Rh13  1  0.242478  0.508953  0.751430  1
  Rh  Rh14  1  0.242478  0.751430  0.508953  1
  Rh  Rh15  1  0.500000  0.762934  0.262934  1
  Rh  Rh16  1  0.000000  0.900400  0.900400  1
