# generated using pymatgen
data_DyEr5Cr2(Co4P3)4
_symmetry_space_group_name_H-M   'P 1'
_cell_length_a   3.67280900
_cell_length_b   10.50215900
_cell_length_c   12.15226400
_cell_angle_alpha   90.00000000
_cell_angle_beta   90.00000000
_cell_angle_gamma   90.00000000
_symmetry_Int_Tables_number   1
_chemical_formula_structural   DyEr5Cr2(Co4P3)4
_chemical_formula_sum   'Dy1 Er5 Cr2 Co16 P12'
_cell_volume   468.74228072
_cell_formula_units_Z   1
loop_
 _symmetry_equiv_pos_site_id
 _symmetry_equiv_pos_as_xyz
  1  'x, y, z'
loop_
 _atom_site_type_symbol
 _atom_site_label
 _atom_site_symmetry_multiplicity
 _atom_site_fract_x
 _atom_site_fract_y
 _atom_site_fract_z
 _atom_site_occupancy
  Dy  Dy0  1  0.500000  0.000000  0.476638  1
  Er  Er1  1  0.000000  0.500000  0.523189  1
  Er  Er2  1  0.500000  0.817875  0.204625  1
  Er  Er3  1  0.500000  0.182125  0.204625  1
  Er  Er4  1  0.000000  0.682078  0.795325  1
  Er  Er5  1  0.000000  0.317922  0.795325  1
  Cr  Cr6  1  0.500000  0.500000  0.156282  1
  Cr  Cr7  1  0.000000  0.000000  0.843864  1
  Co  Co8  1  0.500000  0.500000  0.702209  1
  Co  Co9  1  0.000000  0.000000  0.297275  1
  Co  Co10  1  0.000000  0.500000  0.986701  1
  Co  Co11  1  0.500000  0.000000  0.013251  1
  Co  Co12  1  0.500000  0.332517  0.992514  1
  Co  Co13  1  0.500000  0.667483  0.992514  1
  Co  Co14  1  0.000000  0.167473  0.007483  1
  Co  Co15  1  0.000000  0.832527  0.007483  1
  Co  Co16  1  0.500000  0.296547  0.430771  1
  Co  Co17  1  0.500000  0.703453  0.430771  1
  Co  Co18  1  0.000000  0.203987  0.569312  1
  Co  Co19  1  0.000000  0.796013  0.569312  1
  Co  Co20  1  0.500000  0.878999  0.708820  1
  Co  Co21  1  0.500000  0.121001  0.708820  1
  Co  Co22  1  0.000000  0.620935  0.291378  1
  Co  Co23  1  0.000000  0.379065  0.291378  1
  P  P24  1  0.500000  0.500000  0.881738  1
  P  P25  1  0.000000  0.000000  0.118279  1
  P  P26  1  0.500000  0.500000  0.345352  1
  P  P27  1  0.000000  0.000000  0.655191  1
  P  P28  1  0.500000  0.311817  0.616445  1
  P  P29  1  0.500000  0.688183  0.616445  1
  P  P30  1  0.000000  0.188619  0.383356  1
  P  P31  1  0.000000  0.811381  0.383356  1
  P  P32  1  0.500000  0.847217  0.891721  1
  P  P33  1  0.500000  0.152783  0.891721  1
  P  P34  1  0.000000  0.652757  0.108265  1
  P  P35  1  0.000000  0.347243  0.108265  1
