# generated using pymatgen
data_Y6Al7Pt16
_symmetry_space_group_name_H-M   'P 1'
_cell_length_a   8.98533046
_cell_length_b   8.98533022
_cell_length_c   8.98533000
_cell_angle_alpha   59.99999344
_cell_angle_beta   59.99999435
_cell_angle_gamma   59.99999745
_symmetry_Int_Tables_number   1
_chemical_formula_structural   Y6Al7Pt16
_chemical_formula_sum   'Y6 Al7 Pt16'
_cell_volume   512.96423032
_cell_formula_units_Z   1
loop_
 _symmetry_equiv_pos_site_id
 _symmetry_equiv_pos_as_xyz
  1  'x, y, z'
loop_
 _atom_site_type_symbol
 _atom_site_label
 _atom_site_symmetry_multiplicity
 _atom_site_fract_x
 _atom_site_fract_y
 _atom_site_fract_z
 _atom_site_occupancy
  Y  Y0  1  0.713000  0.287000  0.287000  1
  Y  Y1  1  0.287000  0.713000  0.713000  1
  Y  Y2  1  0.287000  0.713000  0.287000  1
  Y  Y3  1  0.287000  0.287000  0.713000  1
  Y  Y4  1  0.713000  0.287000  0.713000  1
  Y  Y5  1  0.713000  0.713000  0.287000  1
  Al  Al6  1  0.500000  0.000000  0.000000  1
  Al  Al7  1  0.000000  0.500000  0.500000  1
  Al  Al8  1  0.000000  0.500000  0.000000  1
  Al  Al9  1  0.000000  0.000000  0.500000  1
  Al  Al10  1  0.500000  0.000000  0.500000  1
  Al  Al11  1  0.500000  0.500000  0.000000  1
  Al  Al12  1  0.000000  0.000000  0.000000  1
  Pt  Pt13  1  0.337420  0.337420  0.337420  1
  Pt  Pt14  1  0.337420  0.337420  0.987741  1
  Pt  Pt15  1  0.987741  0.337420  0.337420  1
  Pt  Pt16  1  0.337420  0.987741  0.337420  1
  Pt  Pt17  1  0.662580  0.662580  0.662580  1
  Pt  Pt18  1  0.662580  0.662580  0.012259  1
  Pt  Pt19  1  0.662580  0.012259  0.662580  1
  Pt  Pt20  1  0.012259  0.662580  0.662580  1
  Pt  Pt21  1  0.119106  0.119106  0.119106  1
  Pt  Pt22  1  0.119106  0.119106  0.642680  1
  Pt  Pt23  1  0.642680  0.119106  0.119106  1
  Pt  Pt24  1  0.119106  0.642680  0.119106  1
  Pt  Pt25  1  0.880894  0.880894  0.880894  1
  Pt  Pt26  1  0.880894  0.880894  0.357320  1
  Pt  Pt27  1  0.880894  0.357320  0.880894  1
  Pt  Pt28  1  0.357320  0.880894  0.880894  1
