# generated using pymatgen
data_NdAl6(ZnCu2)2
_symmetry_space_group_name_H-M   'P 1'
_cell_length_a   6.75586527
_cell_length_b   6.75586600
_cell_length_c   6.77165500
_cell_angle_alpha   98.51312374
_cell_angle_beta   98.51312468
_cell_angle_gamma   134.68721539
_symmetry_Int_Tables_number   1
_chemical_formula_structural   NdAl6(ZnCu2)2
_chemical_formula_sum   'Nd1 Al6 Zn2 Cu4'
_cell_volume   202.86092595
_cell_formula_units_Z   1
loop_
 _symmetry_equiv_pos_site_id
 _symmetry_equiv_pos_as_xyz
  1  'x, y, z'
loop_
 _atom_site_type_symbol
 _atom_site_label
 _atom_site_symmetry_multiplicity
 _atom_site_fract_x
 _atom_site_fract_y
 _atom_site_fract_z
 _atom_site_occupancy
  Nd  Nd0  1  0.999962  0.000038  0.000000  1
  Al  Al1  1  0.348402  0.002130  0.350532  1
  Al  Al2  1  0.997870  0.651598  0.649468  1
  Al  Al3  1  0.650919  0.002780  0.653698  1
  Al  Al4  1  0.997220  0.349081  0.346302  1
  Al  Al5  1  0.276822  0.497584  0.774405  1
  Al  Al6  1  0.502416  0.723178  0.225595  1
  Zn  Zn7  1  0.720503  0.498312  0.218815  1
  Zn  Zn8  1  0.501688  0.279497  0.781185  1
  Cu  Cu9  1  0.499449  0.500551  0.500000  1
  Cu  Cu10  1  0.999449  0.000551  0.500000  1
  Cu  Cu11  1  0.003709  0.498411  0.000000  1
  Cu  Cu12  1  0.501589  0.996291  0.000000  1
