# generated using pymatgen
data_Ti15V(AsSe)6
_symmetry_space_group_name_H-M   'P 1'
_cell_length_a   7.38347011
_cell_length_b   7.38347222
_cell_length_c   18.60767833
_cell_angle_alpha   90.05622171
_cell_angle_beta   89.94376248
_cell_angle_gamma   152.43130221
_symmetry_Int_Tables_number   1
_chemical_formula_structural   Ti15V(AsSe)6
_chemical_formula_sum   'Ti15 V1 As6 Se6'
_cell_volume   469.48050857
_cell_formula_units_Z   1
loop_
 _symmetry_equiv_pos_site_id
 _symmetry_equiv_pos_as_xyz
  1  'x, y, z'
loop_
 _atom_site_type_symbol
 _atom_site_label
 _atom_site_symmetry_multiplicity
 _atom_site_fract_x
 _atom_site_fract_y
 _atom_site_fract_z
 _atom_site_occupancy
  Ti  Ti0  1  0.000000  0.000000  0.000000  1
  Ti  Ti1  1  0.057801  0.942198  0.749281  1
  Ti  Ti2  1  0.942199  0.057802  0.250719  1
  Ti  Ti3  1  0.734037  0.265963  0.158319  1
  Ti  Ti4  1  0.265963  0.734037  0.841681  1
  Ti  Ti5  1  0.266039  0.733960  0.656357  1
  Ti  Ti6  1  0.733961  0.266040  0.343643  1
  Ti  Ti7  1  0.534023  0.465978  0.117936  1
  Ti  Ti8  1  0.465977  0.534022  0.882064  1
  Ti  Ti9  1  0.467289  0.532712  0.612908  1
  Ti  Ti10  1  0.532711  0.467288  0.387092  1
  Ti  Ti11  1  0.669771  0.330228  0.972565  1
  Ti  Ti12  1  0.330229  0.669772  0.027435  1
  Ti  Ti13  1  0.332578  0.667421  0.471163  1
  Ti  Ti14  1  0.667422  0.332579  0.528837  1
  V  V15  1  0.000000  0.000000  0.500000  1
  As  As16  1  0.097582  0.902419  0.615176  1
  As  As17  1  0.902418  0.097581  0.384824  1
  As  As18  1  0.843222  0.156778  0.924953  1
  As  As19  1  0.156778  0.843222  0.075047  1
  As  As20  1  0.157107  0.842893  0.427217  1
  As  As21  1  0.842893  0.157107  0.572783  1
  Se  Se22  1  0.422044  0.577955  0.748018  1
  Se  Se23  1  0.577956  0.422045  0.251982  1
  Se  Se24  1  0.700162  0.299838  0.748866  1
  Se  Se25  1  0.299838  0.700162  0.251134  1
  Se  Se26  1  0.901865  0.098136  0.116691  1
  Se  Se27  1  0.098135  0.901864  0.883309  1
