# generated using pymatgen
data_NdTh3(CdAu2)2
_symmetry_space_group_name_H-M   'P 1'
_cell_length_a   3.94639000
_cell_length_b   8.10524675
_cell_length_c   8.10524675
_cell_angle_alpha   90.51780412
_cell_angle_beta   90.00000000
_cell_angle_gamma   90.00000000
_symmetry_Int_Tables_number   1
_chemical_formula_structural   NdTh3(CdAu2)2
_chemical_formula_sum   'Nd1 Th3 Cd2 Au4'
_cell_volume   259.24760185
_cell_formula_units_Z   1
loop_
 _symmetry_equiv_pos_site_id
 _symmetry_equiv_pos_as_xyz
  1  'x, y, z'
loop_
 _atom_site_type_symbol
 _atom_site_label
 _atom_site_symmetry_multiplicity
 _atom_site_fract_x
 _atom_site_fract_y
 _atom_site_fract_z
 _atom_site_occupancy
  Nd  Nd0  1  0.500000  0.675387  0.824613  1
  Th  Th1  1  0.500000  0.173172  0.675042  1
  Th  Th2  1  0.500000  0.824958  0.326828  1
  Th  Th3  1  0.500000  0.327029  0.172971  1
  Cd  Cd4  1  0.000000  0.998334  0.999686  1
  Cd  Cd5  1  0.000000  0.500314  0.501666  1
  Au  Au6  1  0.000000  0.626761  0.130669  1
  Au  Au7  1  0.000000  0.369331  0.873239  1
  Au  Au8  1  0.000000  0.874990  0.625010  1
  Au  Au9  1  0.000000  0.129724  0.370276  1
