# generated using pymatgen
data_Ti5Nb5CuSn6Ge
_symmetry_space_group_name_H-M   'P 1'
_cell_length_a   8.28177854
_cell_length_b   8.27646317
_cell_length_c   5.62458097
_cell_angle_alpha   89.96570311
_cell_angle_beta   90.06854977
_cell_angle_gamma   120.02125097
_symmetry_Int_Tables_number   1
_chemical_formula_structural   Ti5Nb5CuSn6Ge
_chemical_formula_sum   'Ti5 Nb5 Cu1 Sn6 Ge1'
_cell_volume   333.80731891
_cell_formula_units_Z   1
loop_
 _symmetry_equiv_pos_site_id
 _symmetry_equiv_pos_as_xyz
  1  'x, y, z'
loop_
 _atom_site_type_symbol
 _atom_site_label
 _atom_site_symmetry_multiplicity
 _atom_site_fract_x
 _atom_site_fract_y
 _atom_site_fract_z
 _atom_site_occupancy
  Ti  Ti0  1  0.729305  0.000000  0.253592  1
  Ti  Ti1  1  0.001378  0.266387  0.745748  1
  Ti  Ti2  1  0.999487  0.729240  0.252688  1
  Ti  Ti3  1  0.734991  0.733613  0.745748  1
  Ti  Ti4  1  0.270247  0.270760  0.252688  1
  Nb  Nb5  1  0.266056  0.000000  0.747421  1
  Nb  Nb6  1  0.333815  0.667127  0.498320  1
  Nb  Nb7  1  0.666689  0.332873  0.498320  1
  Nb  Nb8  1  0.665480  0.331838  0.001062  1
  Nb  Nb9  1  0.333641  0.668162  0.001062  1
  Cu  Cu10  1  0.996616  0.000000  0.010944  1
  Sn  Sn11  1  0.617690  0.000000  0.753996  1
  Sn  Sn12  1  0.383987  0.000000  0.247425  1
  Sn  Sn13  1  0.998040  0.610720  0.753694  1
  Sn  Sn14  1  0.000076  0.383298  0.245263  1
  Sn  Sn15  1  0.387319  0.389280  0.753694  1
  Sn  Sn16  1  0.616777  0.616702  0.245263  1
  Ge  Ge17  1  0.998405  0.000000  0.493074  1
