# generated using pymatgen
data_Ta5Cu4Si3Ge
_symmetry_space_group_name_H-M   'P 1'
_cell_length_a   7.44802137
_cell_length_b   7.44802126
_cell_length_c   7.44580226
_cell_angle_alpha   93.76489994
_cell_angle_beta   93.08735147
_cell_angle_gamma   151.70451313
_symmetry_Int_Tables_number   1
_chemical_formula_structural   Ta5Cu4Si3Ge
_chemical_formula_sum   'Ta5 Cu4 Si3 Ge1'
_cell_volume   189.84339936
_cell_formula_units_Z   1
loop_
 _symmetry_equiv_pos_site_id
 _symmetry_equiv_pos_as_xyz
  1  'x, y, z'
loop_
 _atom_site_type_symbol
 _atom_site_label
 _atom_site_symmetry_multiplicity
 _atom_site_fract_x
 _atom_site_fract_y
 _atom_site_fract_z
 _atom_site_occupancy
  Ta  Ta0  1  0.502337  0.500037  0.002375  1
  Ta  Ta1  1  0.126903  0.807020  0.933921  1
  Ta  Ta2  1  0.196822  0.129758  0.326580  1
  Ta  Ta3  1  0.805492  0.867645  0.673137  1
  Ta  Ta4  1  0.876574  0.197424  0.073997  1
  Cu  Cu5  1  0.394781  0.916613  0.311394  1
  Cu  Cu6  1  0.598027  0.081576  0.679602  1
  Cu  Cu7  1  0.915989  0.604139  0.520128  1
  Cu  Cu8  1  0.079674  0.394515  0.474190  1
  Si  Si9  1  0.440859  0.248410  0.689269  1
  Si  Si10  1  0.561322  0.752352  0.313673  1
  Si  Si11  1  0.752562  0.439961  0.192523  1
  Ge  Ge12  1  0.248659  0.560550  0.809209  1
