# generated using pymatgen
data_Sm4PaPd15
_symmetry_space_group_name_H-M   'P 1'
_cell_length_a   4.17235100
_cell_length_b   4.17235100
_cell_length_c   20.80177700
_cell_angle_alpha   90.00000000
_cell_angle_beta   90.00000000
_cell_angle_gamma   90.00000000
_symmetry_Int_Tables_number   1
_chemical_formula_structural   Sm4PaPd15
_chemical_formula_sum   'Sm4 Pa1 Pd15'
_cell_volume   362.12800257
_cell_formula_units_Z   1
loop_
 _symmetry_equiv_pos_site_id
 _symmetry_equiv_pos_as_xyz
  1  'x, y, z'
loop_
 _atom_site_type_symbol
 _atom_site_label
 _atom_site_symmetry_multiplicity
 _atom_site_fract_x
 _atom_site_fract_y
 _atom_site_fract_z
 _atom_site_occupancy
  Sm  Sm0  1  0.000000  0.000000  0.203632  1
  Sm  Sm1  1  0.000000  0.000000  0.400400  1
  Sm  Sm2  1  0.000000  0.000000  0.599600  1
  Sm  Sm3  1  0.000000  0.000000  0.796368  1
  Pa  Pa4  1  0.000000  0.000000  0.000000  1
  Pd  Pd5  1  0.500000  0.500000  0.000000  1
  Pd  Pd6  1  0.500000  0.500000  0.198145  1
  Pd  Pd7  1  0.500000  0.500000  0.399604  1
  Pd  Pd8  1  0.500000  0.500000  0.600396  1
  Pd  Pd9  1  0.500000  0.500000  0.801855  1
  Pd  Pd10  1  0.500000  0.000000  0.095513  1
  Pd  Pd11  1  0.500000  0.000000  0.299593  1
  Pd  Pd12  1  0.500000  0.000000  0.500000  1
  Pd  Pd13  1  0.500000  0.000000  0.700407  1
  Pd  Pd14  1  0.500000  0.000000  0.904487  1
  Pd  Pd15  1  0.000000  0.500000  0.095513  1
  Pd  Pd16  1  0.000000  0.500000  0.299593  1
  Pd  Pd17  1  0.000000  0.500000  0.500000  1
  Pd  Pd18  1  0.000000  0.500000  0.700407  1
  Pd  Pd19  1  0.000000  0.500000  0.904487  1
