# generated using pymatgen
data_SmSi3PRh6
_symmetry_space_group_name_H-M   'P 1'
_cell_length_a   7.06259119
_cell_length_b   7.01124748
_cell_length_c   3.79056200
_cell_angle_alpha   90.00000000
_cell_angle_beta   90.00000000
_cell_angle_gamma   119.76297172
_symmetry_Int_Tables_number   1
_chemical_formula_structural   SmSi3PRh6
_chemical_formula_sum   'Sm1 Si3 P1 Rh6'
_cell_volume   162.93933782
_cell_formula_units_Z   1
loop_
 _symmetry_equiv_pos_site_id
 _symmetry_equiv_pos_as_xyz
  1  'x, y, z'
loop_
 _atom_site_type_symbol
 _atom_site_label
 _atom_site_symmetry_multiplicity
 _atom_site_fract_x
 _atom_site_fract_y
 _atom_site_fract_z
 _atom_site_occupancy
  Sm  Sm0  1  0.999645  0.999808  0.500000  1
  Si  Si1  1  0.666829  0.333397  0.500000  1
  Si  Si2  1  0.197431  0.398931  0.000000  1
  Si  Si3  1  0.197586  0.798650  0.000000  1
  P  P4  1  0.609405  0.804559  0.000000  1
  Rh  Rh5  1  0.467012  0.933049  0.500000  1
  Rh  Rh6  1  0.467587  0.534585  0.500000  1
  Rh  Rh7  1  0.065680  0.532648  0.500000  1
  Rh  Rh8  1  0.799226  0.603000  0.000000  1
  Rh  Rh9  1  0.798907  0.195842  0.000000  1
  Rh  Rh10  1  0.397363  0.198862  0.000000  1
