# generated using pymatgen
data_Tb8TmLuRh6
_symmetry_space_group_name_H-M   'P 1'
_cell_length_a   10.90548100
_cell_length_b   10.90548100
_cell_length_c   6.36290800
_cell_angle_alpha   90.00000000
_cell_angle_beta   90.00000000
_cell_angle_gamma   90.00000000
_symmetry_Int_Tables_number   1
_chemical_formula_structural   Tb8TmLuRh6
_chemical_formula_sum   'Tb16 Tm2 Lu2 Rh12'
_cell_volume   756.73756778
_cell_formula_units_Z   2
loop_
 _symmetry_equiv_pos_site_id
 _symmetry_equiv_pos_as_xyz
  1  'x, y, z'
loop_
 _atom_site_type_symbol
 _atom_site_label
 _atom_site_symmetry_multiplicity
 _atom_site_fract_x
 _atom_site_fract_y
 _atom_site_fract_z
 _atom_site_occupancy
  Tb  Tb0  1  0.289864  0.087955  0.378895  1
  Tb  Tb1  1  0.289864  0.912045  0.878895  1
  Tb  Tb2  1  0.710136  0.087955  0.878895  1
  Tb  Tb3  1  0.710136  0.912045  0.378895  1
  Tb  Tb4  1  0.587842  0.789441  0.878878  1
  Tb  Tb5  1  0.587842  0.210559  0.378878  1
  Tb  Tb6  1  0.412158  0.789441  0.378878  1
  Tb  Tb7  1  0.412158  0.210559  0.878878  1
  Tb  Tb8  1  0.210559  0.412158  0.621122  1
  Tb  Tb9  1  0.210559  0.587842  0.121122  1
  Tb  Tb10  1  0.789441  0.412158  0.121122  1
  Tb  Tb11  1  0.789441  0.587842  0.621122  1
  Tb  Tb12  1  0.912045  0.710136  0.121105  1
  Tb  Tb13  1  0.912045  0.289864  0.621105  1
  Tb  Tb14  1  0.087955  0.710136  0.621105  1
  Tb  Tb15  1  0.087955  0.289864  0.121105  1
  Tm  Tm16  1  0.000000  0.000000  0.500000  1
  Tm  Tm17  1  0.000000  0.000000  0.000000  1
  Lu  Lu18  1  0.500000  0.500000  0.000000  1
  Lu  Lu19  1  0.500000  0.500000  0.500000  1
  Rh  Rh20  1  0.848527  0.151473  0.250000  1
  Rh  Rh21  1  0.848527  0.848527  0.750000  1
  Rh  Rh22  1  0.151473  0.151473  0.750000  1
  Rh  Rh23  1  0.151473  0.848527  0.250000  1
  Rh  Rh24  1  0.650919  0.349081  0.750000  1
  Rh  Rh25  1  0.650919  0.650919  0.250000  1
  Rh  Rh26  1  0.349081  0.349081  0.250000  1
  Rh  Rh27  1  0.349081  0.650919  0.750000  1
  Rh  Rh28  1  0.500000  0.000000  0.122541  1
  Rh  Rh29  1  0.500000  0.000000  0.622541  1
  Rh  Rh30  1  0.000000  0.500000  0.877459  1
  Rh  Rh31  1  0.000000  0.500000  0.377459  1
