# generated using pymatgen
data_Er8Nb11Si16Ru
_symmetry_space_group_name_H-M   'P 1'
_cell_length_a   6.84234464
_cell_length_b   7.04519026
_cell_length_c   13.34651800
_cell_angle_alpha   90.04374531
_cell_angle_beta   89.94093187
_cell_angle_gamma   89.91257077
_symmetry_Int_Tables_number   1
_chemical_formula_structural   Er8Nb11Si16Ru
_chemical_formula_sum   'Er8 Nb11 Si16 Ru1'
_cell_volume   643.37589332
_cell_formula_units_Z   1
loop_
 _symmetry_equiv_pos_site_id
 _symmetry_equiv_pos_as_xyz
  1  'x, y, z'
loop_
 _atom_site_type_symbol
 _atom_site_label
 _atom_site_symmetry_multiplicity
 _atom_site_fract_x
 _atom_site_fract_y
 _atom_site_fract_z
 _atom_site_occupancy
  Er  Er0  1  0.503697  0.329048  0.095551  1
  Er  Er1  1  0.000863  0.173584  0.403466  1
  Er  Er2  1  0.496813  0.672210  0.594948  1
  Er  Er3  1  0.998843  0.830184  0.904212  1
  Er  Er4  1  0.496540  0.670565  0.903660  1
  Er  Er5  1  0.996283  0.827748  0.595635  1
  Er  Er6  1  0.504298  0.328305  0.404676  1
  Er  Er7  1  0.004576  0.172542  0.096495  1
  Nb  Nb8  1  0.839172  0.328067  0.624398  1
  Nb  Nb9  1  0.337318  0.172822  0.871867  1
  Nb  Nb10  1  0.163603  0.674601  0.125931  1
  Nb  Nb11  1  0.660564  0.830154  0.376442  1
  Nb  Nb12  1  0.167577  0.673542  0.377762  1
  Nb  Nb13  1  0.663382  0.826003  0.126207  1
  Nb  Nb14  1  0.836077  0.324160  0.872552  1
  Nb  Nb15  1  0.664898  0.008956  0.749451  1
  Nb  Nb16  1  0.159703  0.492537  0.749246  1
  Nb  Nb17  1  0.337914  0.995216  0.251533  1
  Nb  Nb18  1  0.838707  0.507860  0.250380  1
  Si  Si19  1  0.656965  0.039563  0.543857  1
  Si  Si20  1  0.162678  0.462525  0.958464  1
  Si  Si21  1  0.336631  0.962895  0.040925  1
  Si  Si22  1  0.837658  0.539139  0.458552  1
  Si  Si23  1  0.334814  0.965349  0.461399  1
  Si  Si24  1  0.837925  0.536244  0.040504  1
  Si  Si25  1  0.662059  0.035244  0.959180  1
  Si  Si26  1  0.164389  0.454655  0.543929  1
  Si  Si27  1  0.534320  0.374443  0.746214  1
  Si  Si28  1  0.044613  0.123420  0.747587  1
  Si  Si29  1  0.461023  0.622173  0.251211  1
  Si  Si30  1  0.959865  0.877993  0.251500  1
  Si  Si31  1  0.794030  0.628738  0.749702  1
  Si  Si32  1  0.298443  0.872388  0.749526  1
  Si  Si33  1  0.206012  0.372135  0.250416  1
  Si  Si34  1  0.704812  0.130100  0.249612  1
  Ru  Ru35  1  0.332933  0.164894  0.623011  1
