# generated using pymatgen
data_Th14Re3PtAu2
_symmetry_space_group_name_H-M   'P 1'
_cell_length_a   10.13152338
_cell_length_b   10.13152320
_cell_length_c   6.37243305
_cell_angle_alpha   89.82298328
_cell_angle_beta   90.17701819
_cell_angle_gamma   119.47559211
_symmetry_Int_Tables_number   1
_chemical_formula_structural   Th14Re3PtAu2
_chemical_formula_sum   'Th14 Re3 Pt1 Au2'
_cell_volume   569.44711113
_cell_formula_units_Z   1
loop_
 _symmetry_equiv_pos_site_id
 _symmetry_equiv_pos_as_xyz
  1  'x, y, z'
loop_
 _atom_site_type_symbol
 _atom_site_label
 _atom_site_symmetry_multiplicity
 _atom_site_fract_x
 _atom_site_fract_y
 _atom_site_fract_z
 _atom_site_occupancy
  Th  Th0  1  0.669733  0.330267  0.599467  1
  Th  Th1  1  0.333330  0.666670  0.026447  1
  Th  Th2  1  0.877898  0.754840  0.760492  1
  Th  Th3  1  0.245160  0.122102  0.760492  1
  Th  Th4  1  0.874660  0.125340  0.751440  1
  Th  Th5  1  0.124503  0.259457  0.247442  1
  Th  Th6  1  0.740543  0.875497  0.247442  1
  Th  Th7  1  0.130389  0.869611  0.248012  1
  Th  Th8  1  0.456868  0.912950  0.543552  1
  Th  Th9  1  0.087050  0.543132  0.543552  1
  Th  Th10  1  0.455952  0.544048  0.540456  1
  Th  Th11  1  0.540842  0.071642  0.028836  1
  Th  Th12  1  0.928358  0.459158  0.028836  1
  Th  Th13  1  0.533941  0.466059  0.020464  1
  Re  Re14  1  0.184244  0.366166  0.803805  1
  Re  Re15  1  0.633834  0.815756  0.803805  1
  Re  Re16  1  0.182579  0.817421  0.804183  1
  Pt  Pt17  1  0.808838  0.191162  0.305335  1
  Au  Au18  1  0.806747  0.615469  0.312019  1
  Au  Au19  1  0.384531  0.193253  0.312019  1
