# generated using pymatgen
data_MnCdCo(P2O7)2
_symmetry_space_group_name_H-M   'P 1'
_cell_length_a   4.87771798
_cell_length_b   7.08447861
_cell_length_c   7.99488533
_cell_angle_alpha   86.81082745
_cell_angle_beta   84.74153259
_cell_angle_gamma   72.01292676
_symmetry_Int_Tables_number   1
_chemical_formula_structural   MnCdCo(P2O7)2
_chemical_formula_sum   'Mn1 Cd1 Co1 P4 O14'
_cell_volume   261.55464305
_cell_formula_units_Z   1
loop_
 _symmetry_equiv_pos_site_id
 _symmetry_equiv_pos_as_xyz
  1  'x, y, z'
loop_
 _atom_site_type_symbol
 _atom_site_label
 _atom_site_symmetry_multiplicity
 _atom_site_fract_x
 _atom_site_fract_y
 _atom_site_fract_z
 _atom_site_occupancy
  Mn  Mn0  1  0.000134  0.999755  0.499883  1
  Cd  Cd1  1  0.999989  0.000056  0.999974  1
  Co  Co2  1  0.499953  0.499983  0.000008  1
  P  P3  1  0.980002  0.619260  0.755777  1
  P  P4  1  0.019944  0.380703  0.244299  1
  P  P5  1  0.400614  0.211924  0.726596  1
  P  P6  1  0.599542  0.788048  0.273324  1
  O  O7  1  0.212093  0.433859  0.669542  1
  O  O8  1  0.787928  0.566154  0.330446  1
  O  O9  1  0.112875  0.672628  0.908041  1
  O  O10  1  0.887010  0.327471  0.092004  1
  O  O11  1  0.521561  0.226562  0.896106  1
  O  O12  1  0.478311  0.773580  0.103863  1
  O  O13  1  0.705256  0.561440  0.806270  1
  O  O14  1  0.373436  0.834741  0.421994  1
  O  O15  1  0.626912  0.165090  0.578037  1
  O  O16  1  0.200096  0.080673  0.743962  1
  O  O17  1  0.294577  0.438685  0.193781  1
  O  O18  1  0.087648  0.215673  0.376448  1
  O  O19  1  0.912189  0.784289  0.623607  1
  O  O20  1  0.799931  0.919423  0.256036  1
