# generated using pymatgen
data_DyTh2In3Pt2Rh
_symmetry_space_group_name_H-M   'P 1'
_cell_length_a   7.71358361
_cell_length_b   7.71358466
_cell_length_c   3.99528500
_cell_angle_alpha   90.00000000
_cell_angle_beta   90.00000000
_cell_angle_gamma   119.76016041
_symmetry_Int_Tables_number   1
_chemical_formula_structural   DyTh2In3Pt2Rh
_chemical_formula_sum   'Dy1 Th2 In3 Pt2 Rh1'
_cell_volume   206.36467997
_cell_formula_units_Z   1
loop_
 _symmetry_equiv_pos_site_id
 _symmetry_equiv_pos_as_xyz
  1  'x, y, z'
loop_
 _atom_site_type_symbol
 _atom_site_label
 _atom_site_symmetry_multiplicity
 _atom_site_fract_x
 _atom_site_fract_y
 _atom_site_fract_z
 _atom_site_occupancy
  Dy  Dy0  1  0.408273  0.408273  0.500000  1
  Th  Th1  1  0.003763  0.594298  0.500000  1
  Th  Th2  1  0.594298  0.003763  0.500000  1
  In  In3  1  0.013577  0.251912  0.000000  1
  In  In4  1  0.251912  0.013577  0.000000  1
  In  In5  1  0.737068  0.737068  0.000000  1
  Pt  Pt6  1  0.673964  0.331630  0.000000  1
  Pt  Pt7  1  0.331630  0.673964  0.000000  1
  Rh  Rh8  1  0.985515  0.985515  0.500000  1
