# generated using pymatgen
data_Ba(AgO2)2
_symmetry_space_group_name_H-M   'P 1'
_cell_length_a   6.97147263
_cell_length_b   6.97147146
_cell_length_c   6.97147174
_cell_angle_alpha   124.08167850
_cell_angle_beta   124.08167626
_cell_angle_gamma   83.06471025
_symmetry_Int_Tables_number   1
_chemical_formula_structural   Ba(AgO2)2
_chemical_formula_sum   'Ba2 Ag4 O8'
_cell_volume   223.01069964
_cell_formula_units_Z   2
loop_
 _symmetry_equiv_pos_site_id
 _symmetry_equiv_pos_as_xyz
  1  'x, y, z'
loop_
 _atom_site_type_symbol
 _atom_site_label
 _atom_site_symmetry_multiplicity
 _atom_site_fract_x
 _atom_site_fract_y
 _atom_site_fract_z
 _atom_site_occupancy
  Ba  Ba0  1  0.750000  0.250000  0.500000  1
  Ba  Ba1  1  0.000000  0.000000  0.000000  1
  Ag  Ag2  1  0.375000  0.625000  0.750000  1
  Ag  Ag3  1  0.375000  0.125000  0.750000  1
  Ag  Ag4  1  0.875000  0.625000  0.250000  1
  Ag  Ag5  1  0.375000  0.625000  0.250000  1
  O  O6  1  0.056377  0.434962  0.086848  1
  O  O7  1  0.719531  0.306377  0.121416  1
  O  O8  1  0.184962  0.598114  0.878584  1
  O  O9  1  0.348114  0.969531  0.913152  1
  O  O10  1  0.693623  0.815038  0.413152  1
  O  O11  1  0.030469  0.943623  0.378584  1
  O  O12  1  0.401886  0.280469  0.586848  1
  O  O13  1  0.565038  0.651886  0.621416  1
