# generated using pymatgen
data_LiTb6Mn2AlC12
_symmetry_space_group_name_H-M   'P 1'
_cell_length_a   8.18026300
_cell_length_b   8.18026312
_cell_length_c   5.05258700
_cell_angle_alpha   90.00000000
_cell_angle_beta   90.00000000
_cell_angle_gamma   120.00000946
_symmetry_Int_Tables_number   1
_chemical_formula_structural   LiTb6Mn2AlC12
_chemical_formula_sum   'Li1 Tb6 Mn2 Al1 C12'
_cell_volume   292.80529805
_cell_formula_units_Z   1
loop_
 _symmetry_equiv_pos_site_id
 _symmetry_equiv_pos_as_xyz
  1  'x, y, z'
loop_
 _atom_site_type_symbol
 _atom_site_label
 _atom_site_symmetry_multiplicity
 _atom_site_fract_x
 _atom_site_fract_y
 _atom_site_fract_z
 _atom_site_occupancy
  Li  Li0  1  0.000000  0.000000  0.500000  1
  Tb  Tb1  1  0.616446  0.685668  0.744019  1
  Tb  Tb2  1  0.930778  0.616446  0.255981  1
  Tb  Tb3  1  0.685668  0.069222  0.255981  1
  Tb  Tb4  1  0.314332  0.930778  0.744019  1
  Tb  Tb5  1  0.069222  0.383554  0.744019  1
  Tb  Tb6  1  0.383554  0.314332  0.255981  1
  Mn  Mn7  1  0.666667  0.333333  0.751538  1
  Mn  Mn8  1  0.333333  0.666667  0.248462  1
  Al  Al9  1  0.000000  0.000000  0.000000  1
  C  C10  1  0.969653  0.762587  0.761801  1
  C  C11  1  0.207066  0.969653  0.238199  1
  C  C12  1  0.762587  0.792934  0.238199  1
  C  C13  1  0.237413  0.207066  0.761801  1
  C  C14  1  0.792934  0.030347  0.761801  1
  C  C15  1  0.030347  0.237413  0.238199  1
  C  C16  1  0.857944  0.573887  0.757461  1
  C  C17  1  0.284058  0.857944  0.242539  1
  C  C18  1  0.573887  0.715942  0.242539  1
  C  C19  1  0.426113  0.284058  0.757461  1
  C  C20  1  0.142056  0.426113  0.242539  1
  C  C21  1  0.715942  0.142056  0.757461  1
