# generated using pymatgen
data_Pr18Dy2Si15Sn
_symmetry_space_group_name_H-M   'P 1'
_cell_length_a   7.94189848
_cell_length_b   7.88679928
_cell_length_c   15.30562000
_cell_angle_alpha   89.63827019
_cell_angle_beta   89.16891172
_cell_angle_gamma   90.19484065
_symmetry_Int_Tables_number   1
_chemical_formula_structural   Pr18Dy2Si15Sn
_chemical_formula_sum   'Pr18 Dy2 Si15 Sn1'
_cell_volume   958.55944811
_cell_formula_units_Z   1
loop_
 _symmetry_equiv_pos_site_id
 _symmetry_equiv_pos_as_xyz
  1  'x, y, z'
loop_
 _atom_site_type_symbol
 _atom_site_label
 _atom_site_symmetry_multiplicity
 _atom_site_fract_x
 _atom_site_fract_y
 _atom_site_fract_z
 _atom_site_occupancy
  Pr  Pr0  1  0.798524  0.190651  0.753608  1
  Pr  Pr1  1  0.688471  0.691935  0.495939  1
  Pr  Pr2  1  0.373489  0.012561  0.448048  1
  Pr  Pr3  1  0.494130  0.869521  0.698957  1
  Pr  Pr4  1  0.511156  0.121618  0.196602  1
  Pr  Pr5  1  0.876598  0.486427  0.300448  1
  Pr  Pr6  1  0.123500  0.517574  0.805604  1
  Pr  Pr7  1  0.625261  0.987405  0.950519  1
  Pr  Pr8  1  0.002862  0.382711  0.547618  1
  Pr  Pr9  1  0.990972  0.622547  0.054698  1
  Pr  Pr10  1  0.125727  0.979463  0.882158  1
  Pr  Pr11  1  0.521640  0.628584  0.126961  1
  Pr  Pr12  1  0.490134  0.384086  0.626344  1
  Pr  Pr13  1  0.630392  0.521708  0.876583  1
  Pr  Pr14  1  0.371870  0.478488  0.370841  1
  Pr  Pr15  1  0.870746  0.019352  0.375643  1
  Pr  Pr16  1  0.982177  0.127567  0.124030  1
  Pr  Pr17  1  0.008119  0.861973  0.617742  1
  Dy  Dy18  1  0.312813  0.310593  0.001306  1
  Dy  Dy19  1  0.189530  0.810226  0.249439  1
  Si  Si20  1  0.331801  0.691690  0.955935  1
  Si  Si21  1  0.664386  0.303360  0.451167  1
  Si  Si22  1  0.695253  0.330422  0.047765  1
  Si  Si23  1  0.302896  0.668590  0.544486  1
  Si  Si24  1  0.808502  0.829282  0.204154  1
  Si  Si25  1  0.169655  0.190374  0.295459  1
  Si  Si26  1  0.835384  0.806224  0.797600  1
  Si  Si27  1  0.288825  0.923316  0.063550  1
  Si  Si28  1  0.572668  0.789118  0.308258  1
  Si  Si29  1  0.426101  0.215299  0.818835  1
  Si  Si30  1  0.790119  0.577857  0.691505  1
  Si  Si31  1  0.213660  0.422160  0.187505  1
  Si  Si32  1  0.708472  0.079368  0.560356  1
  Si  Si33  1  0.929021  0.289834  0.942088  1
  Si  Si34  1  0.081354  0.714229  0.433974  1
  Sn  Sn35  1  0.193795  0.163888  0.694275  1
