# generated using pymatgen
data_Th2Al7Ga2Ir3
_symmetry_space_group_name_H-M   'P 1'
_cell_length_a   7.66314695
_cell_length_b   7.66096979
_cell_length_c   9.58166800
_cell_angle_alpha   90.00000000
_cell_angle_beta   90.00000000
_cell_angle_gamma   119.52592101
_symmetry_Int_Tables_number   1
_chemical_formula_structural   Th2Al7Ga2Ir3
_chemical_formula_sum   'Th4 Al14 Ga4 Ir6'
_cell_volume   489.46041884
_cell_formula_units_Z   2
loop_
 _symmetry_equiv_pos_site_id
 _symmetry_equiv_pos_as_xyz
  1  'x, y, z'
loop_
 _atom_site_type_symbol
 _atom_site_label
 _atom_site_symmetry_multiplicity
 _atom_site_fract_x
 _atom_site_fract_y
 _atom_site_fract_z
 _atom_site_occupancy
  Th  Th0  1  0.996267  0.671956  0.250000  1
  Th  Th1  1  0.003733  0.328044  0.750000  1
  Th  Th2  1  0.669374  0.993132  0.250000  1
  Th  Th3  1  0.330626  0.006868  0.750000  1
  Al  Al4  1  0.003826  0.335040  0.072670  1
  Al  Al5  1  0.996174  0.664960  0.927330  1
  Al  Al6  1  0.996174  0.664960  0.572670  1
  Al  Al7  1  0.335732  0.004916  0.427658  1
  Al  Al8  1  0.003826  0.335040  0.427330  1
  Al  Al9  1  0.664268  0.995084  0.572342  1
  Al  Al10  1  0.664268  0.995084  0.927658  1
  Al  Al11  1  0.335732  0.004916  0.072342  1
  Al  Al12  1  0.336197  0.336988  0.550519  1
  Al  Al13  1  0.663803  0.663012  0.449481  1
  Al  Al14  1  0.663803  0.663012  0.050519  1
  Al  Al15  1  0.336197  0.336988  0.949481  1
  Al  Al16  1  0.545352  0.339915  0.250000  1
  Al  Al17  1  0.454648  0.660085  0.750000  1
  Ga  Ga18  1  0.133356  0.134637  0.250000  1
  Ga  Ga19  1  0.866644  0.865363  0.750000  1
  Ga  Ga20  1  0.338386  0.542666  0.250000  1
  Ga  Ga21  1  0.661614  0.457334  0.750000  1
  Ir  Ir22  1  0.671396  0.327534  0.002427  1
  Ir  Ir23  1  0.328604  0.672466  0.997573  1
  Ir  Ir24  1  0.328604  0.672466  0.502427  1
  Ir  Ir25  1  0.671396  0.327534  0.497573  1
  Ir  Ir26  1  0.000000  0.000000  0.000000  1
  Ir  Ir27  1  0.000000  0.000000  0.500000  1
