# generated using pymatgen
data_Li4CaTb2NdSi8
_symmetry_space_group_name_H-M   'P 1'
_cell_length_a   3.81940200
_cell_length_b   7.76515684
_cell_length_c   10.36784556
_cell_angle_alpha   89.65481212
_cell_angle_beta   90.00000000
_cell_angle_gamma   90.00000000
_symmetry_Int_Tables_number   1
_chemical_formula_structural   Li4CaTb2NdSi8
_chemical_formula_sum   'Li4 Ca1 Tb2 Nd1 Si8'
_cell_volume   307.48663268
_cell_formula_units_Z   1
loop_
 _symmetry_equiv_pos_site_id
 _symmetry_equiv_pos_as_xyz
  1  'x, y, z'
loop_
 _atom_site_type_symbol
 _atom_site_label
 _atom_site_symmetry_multiplicity
 _atom_site_fract_x
 _atom_site_fract_y
 _atom_site_fract_z
 _atom_site_occupancy
  Li  Li0  1  0.250000  0.998239  0.390760  1
  Li  Li1  1  0.750000  0.006723  0.609819  1
  Li  Li2  1  0.250000  0.490239  0.110471  1
  Li  Li3  1  0.750000  0.507028  0.892653  1
  Ca  Ca4  1  0.750000  0.362921  0.364585  1
  Tb  Tb5  1  0.250000  0.130671  0.865008  1
  Tb  Tb6  1  0.750000  0.868309  0.132879  1
  Nd  Nd7  1  0.250000  0.635703  0.635000  1
  Si  Si8  1  0.750000  0.262916  0.063959  1
  Si  Si9  1  0.250000  0.733846  0.935447  1
  Si  Si10  1  0.750000  0.776539  0.426980  1
  Si  Si11  1  0.250000  0.230910  0.572572  1
  Si  Si12  1  0.750000  0.839752  0.822431  1
  Si  Si13  1  0.250000  0.156005  0.173835  1
  Si  Si14  1  0.750000  0.333213  0.684560  1
  Si  Si15  1  0.250000  0.666985  0.319042  1
