# generated using pymatgen
data_Eu2PtRhPb
_symmetry_space_group_name_H-M   'P 1'
_cell_length_a   5.95672318
_cell_length_b   5.95672347
_cell_length_c   8.44896119
_cell_angle_alpha   77.11495458
_cell_angle_beta   77.11495164
_cell_angle_gamma   58.72079589
_symmetry_Int_Tables_number   1
_chemical_formula_structural   Eu2PtRhPb
_chemical_formula_sum   'Eu4 Pt2 Rh2 Pb2'
_cell_volume   247.68689533
_cell_formula_units_Z   2
loop_
 _symmetry_equiv_pos_site_id
 _symmetry_equiv_pos_as_xyz
  1  'x, y, z'
loop_
 _atom_site_type_symbol
 _atom_site_label
 _atom_site_symmetry_multiplicity
 _atom_site_fract_x
 _atom_site_fract_y
 _atom_site_fract_z
 _atom_site_occupancy
  Eu  Eu0  1  0.799838  0.495526  0.353487  1
  Eu  Eu1  1  0.504474  0.200162  0.146513  1
  Eu  Eu2  1  0.202613  0.504598  0.649331  1
  Eu  Eu3  1  0.495402  0.797387  0.850669  1
  Pt  Pt4  1  0.001629  0.288065  0.001584  1
  Pt  Pt5  1  0.711935  0.998371  0.498416  1
  Rh  Rh6  1  0.003241  0.730756  0.003974  1
  Rh  Rh7  1  0.269244  0.996759  0.496026  1
  Pb  Pb8  1  0.161209  0.838791  0.250000  1
  Pb  Pb9  1  0.850413  0.149587  0.750000  1
