# generated using pymatgen
data_Rb10Ba2TaNbAs8
_symmetry_space_group_name_H-M   'P 1'
_cell_length_a   10.87379070
_cell_length_b   10.87332798
_cell_length_c   8.36294921
_cell_angle_alpha   88.64353670
_cell_angle_beta   88.64209564
_cell_angle_gamma   120.63061832
_symmetry_Int_Tables_number   1
_chemical_formula_structural   Rb10Ba2TaNbAs8
_chemical_formula_sum   'Rb10 Ba2 Ta1 Nb1 As8'
_cell_volume   849.84811571
_cell_formula_units_Z   1
loop_
 _symmetry_equiv_pos_site_id
 _symmetry_equiv_pos_as_xyz
  1  'x, y, z'
loop_
 _atom_site_type_symbol
 _atom_site_label
 _atom_site_symmetry_multiplicity
 _atom_site_fract_x
 _atom_site_fract_y
 _atom_site_fract_z
 _atom_site_occupancy
  Rb  Rb0  1  0.465834  0.526345  0.605862  1
  Rb  Rb1  1  0.060298  0.528176  0.608164  1
  Rb  Rb2  1  0.526362  0.465830  0.105840  1
  Rb  Rb3  1  0.528093  0.060151  0.107983  1
  Rb  Rb4  1  0.864711  0.141810  0.787391  1
  Rb  Rb5  1  0.293624  0.152982  0.824507  1
  Rb  Rb6  1  0.854861  0.715245  0.766471  1
  Rb  Rb7  1  0.141705  0.864720  0.287584  1
  Rb  Rb8  1  0.715422  0.854942  0.266683  1
  Rb  Rb9  1  0.152925  0.293525  0.324672  1
  Ba  Ba10  1  0.464116  0.935249  0.601935  1
  Ba  Ba11  1  0.935285  0.464222  0.101787  1
  Ta  Ta12  1  0.669711  0.331172  0.501798  1
  Nb  Nb13  1  0.331182  0.669552  0.001934  1
  As  As14  1  0.684853  0.337210  0.801527  1
  As  As15  1  0.337331  0.685035  0.302340  1
  As  As16  1  0.200108  0.790892  0.897736  1
  As  As17  1  0.581621  0.797448  0.880916  1
  As  As18  1  0.194128  0.409338  0.930175  1
  As  As19  1  0.790758  0.200459  0.397823  1
  As  As20  1  0.409973  0.194602  0.430153  1
  As  As21  1  0.797099  0.581096  0.381119  1
