# generated using pymatgen
data_Pr2ThZrSb5
_symmetry_space_group_name_H-M   'P 1'
_cell_length_a   9.56144600
_cell_length_b   9.56977566
_cell_length_c   6.34240300
_cell_angle_alpha   90.00000000
_cell_angle_beta   90.00000000
_cell_angle_gamma   119.97121114
_symmetry_Int_Tables_number   1
_chemical_formula_structural   Pr2ThZrSb5
_chemical_formula_sum   'Pr4 Th2 Zr2 Sb10'
_cell_volume   502.73105432
_cell_formula_units_Z   2
loop_
 _symmetry_equiv_pos_site_id
 _symmetry_equiv_pos_as_xyz
  1  'x, y, z'
loop_
 _atom_site_type_symbol
 _atom_site_label
 _atom_site_symmetry_multiplicity
 _atom_site_fract_x
 _atom_site_fract_y
 _atom_site_fract_z
 _atom_site_occupancy
  Pr  Pr0  1  0.000253  0.617126  0.750000  1
  Pr  Pr1  1  0.999747  0.382874  0.250000  1
  Pr  Pr2  1  0.383126  0.382874  0.750000  1
  Pr  Pr3  1  0.616874  0.617126  0.250000  1
  Th  Th4  1  0.618607  0.000000  0.750000  1
  Th  Th5  1  0.381393  0.000000  0.250000  1
  Zr  Zr6  1  0.000000  0.000000  0.500000  1
  Zr  Zr7  1  0.000000  0.000000  0.000000  1
  Sb  Sb8  1  0.268498  0.000000  0.750000  1
  Sb  Sb9  1  0.731502  0.000000  0.250000  1
  Sb  Sb10  1  0.998876  0.263641  0.750000  1
  Sb  Sb11  1  0.001124  0.736359  0.250000  1
  Sb  Sb12  1  0.735235  0.736359  0.750000  1
  Sb  Sb13  1  0.264765  0.263641  0.250000  1
  Sb  Sb14  1  0.334018  0.668036  0.500000  1
  Sb  Sb15  1  0.665982  0.331964  0.500000  1
  Sb  Sb16  1  0.665982  0.331964  0.000000  1
  Sb  Sb17  1  0.334018  0.668036  0.000000  1
