# generated using pymatgen
data_Sm5Y2Ho13Pt16
_symmetry_space_group_name_H-M   'P 1'
_cell_length_a   7.50251268
_cell_length_b   7.58147362
_cell_length_c   14.79592711
_cell_angle_alpha   89.92387271
_cell_angle_beta   89.88623175
_cell_angle_gamma   90.01483853
_symmetry_Int_Tables_number   1
_chemical_formula_structural   Sm5Y2Ho13Pt16
_chemical_formula_sum   'Sm5 Y2 Ho13 Pt16'
_cell_volume   841.59141213
_cell_formula_units_Z   1
loop_
 _symmetry_equiv_pos_site_id
 _symmetry_equiv_pos_as_xyz
  1  'x, y, z'
loop_
 _atom_site_type_symbol
 _atom_site_label
 _atom_site_symmetry_multiplicity
 _atom_site_fract_x
 _atom_site_fract_y
 _atom_site_fract_z
 _atom_site_occupancy
  Sm  Sm0  1  0.499110  0.678927  0.094401  1
  Sm  Sm1  1  0.501319  0.323588  0.593121  1
  Sm  Sm2  1  0.000952  0.176553  0.907046  1
  Sm  Sm3  1  0.000812  0.175951  0.592762  1
  Sm  Sm4  1  0.501163  0.322585  0.906228  1
  Y  Y5  1  0.498446  0.680210  0.405675  1
  Y  Y6  1  0.998214  0.820519  0.094794  1
  Ho  Ho7  1  0.680582  0.988969  0.250739  1
  Ho  Ho8  1  0.180631  0.510979  0.250952  1
  Ho  Ho9  1  0.819971  0.488334  0.749616  1
  Ho  Ho10  1  0.319790  0.011527  0.749729  1
  Ho  Ho11  1  0.655489  0.831659  0.621463  1
  Ho  Ho12  1  0.155143  0.668777  0.878037  1
  Ho  Ho13  1  0.842886  0.332421  0.377736  1
  Ho  Ho14  1  0.342429  0.167436  0.123042  1
  Ho  Ho15  1  0.342245  0.166954  0.377802  1
  Ho  Ho16  1  0.843917  0.331796  0.123284  1
  Ho  Ho17  1  0.155611  0.668544  0.621473  1
  Ho  Ho18  1  0.656653  0.832001  0.877657  1
  Ho  Ho19  1  0.997549  0.818767  0.405569  1
  Pt  Pt20  1  0.816979  0.642333  0.251702  1
  Pt  Pt21  1  0.313520  0.859151  0.251597  1
  Pt  Pt22  1  0.684679  0.139622  0.749541  1
  Pt  Pt23  1  0.184537  0.360326  0.749654  1
  Pt  Pt24  1  0.547453  0.382062  0.250978  1
  Pt  Pt25  1  0.045795  0.116504  0.250730  1
  Pt  Pt26  1  0.952996  0.879578  0.749400  1
  Pt  Pt27  1  0.452759  0.620530  0.749628  1
  Pt  Pt28  1  0.819783  0.538093  0.539698  1
  Pt  Pt29  1  0.320077  0.964606  0.958981  1
  Pt  Pt30  1  0.684787  0.029290  0.455878  1
  Pt  Pt31  1  0.178735  0.468654  0.043948  1
  Pt  Pt32  1  0.182284  0.471670  0.455559  1
  Pt  Pt33  1  0.682644  0.032412  0.043056  1
  Pt  Pt34  1  0.320068  0.963098  0.539968  1
  Pt  Pt35  1  0.819991  0.535574  0.958550  1
