# generated using pymatgen
data_Tb2NdHo2(In2Pd)2
_symmetry_space_group_name_H-M   'P 1'
_cell_length_a   3.64922100
_cell_length_b   8.21515000
_cell_length_c   18.43088400
_cell_angle_alpha   90.00000000
_cell_angle_beta   90.00000000
_cell_angle_gamma   90.00000000
_symmetry_Int_Tables_number   1
_chemical_formula_structural   Tb2NdHo2(In2Pd)2
_chemical_formula_sum   'Tb4 Nd2 Ho4 In8 Pd4'
_cell_volume   552.53758961
_cell_formula_units_Z   2
loop_
 _symmetry_equiv_pos_site_id
 _symmetry_equiv_pos_as_xyz
  1  'x, y, z'
loop_
 _atom_site_type_symbol
 _atom_site_label
 _atom_site_symmetry_multiplicity
 _atom_site_fract_x
 _atom_site_fract_y
 _atom_site_fract_z
 _atom_site_occupancy
  Tb  Tb0  1  0.000000  0.739156  0.280924  1
  Tb  Tb1  1  0.000000  0.260844  0.719076  1
  Tb  Tb2  1  0.000000  0.760844  0.780924  1
  Tb  Tb3  1  0.000000  0.239156  0.219076  1
  Nd  Nd4  1  0.000000  0.500000  0.500000  1
  Nd  Nd5  1  0.000000  0.000000  0.000000  1
  Ho  Ho6  1  0.000000  0.618423  0.083812  1
  Ho  Ho7  1  0.000000  0.381577  0.916188  1
  Ho  Ho8  1  0.000000  0.881577  0.583812  1
  Ho  Ho9  1  0.000000  0.118423  0.416188  1
  In  In10  1  0.500000  0.702804  0.931153  1
  In  In11  1  0.500000  0.297196  0.068847  1
  In  In12  1  0.500000  0.797196  0.431153  1
  In  In13  1  0.500000  0.202804  0.568847  1
  In  In14  1  0.500000  0.582776  0.652230  1
  In  In15  1  0.500000  0.417224  0.347770  1
  In  In16  1  0.500000  0.917224  0.152230  1
  In  In17  1  0.500000  0.082776  0.847770  1
  Pd  Pd18  1  0.500000  0.523860  0.195437  1
  Pd  Pd19  1  0.500000  0.476140  0.804563  1
  Pd  Pd20  1  0.500000  0.976140  0.695437  1
  Pd  Pd21  1  0.500000  0.023860  0.304563  1
