# generated using pymatgen
data_Dy5Er7Ir4
_symmetry_space_group_name_H-M   'P 1'
_cell_length_a   6.34772294
_cell_length_b   7.24065476
_cell_length_c   9.16812852
_cell_angle_alpha   89.98684510
_cell_angle_beta   90.03610234
_cell_angle_gamma   90.05093489
_symmetry_Int_Tables_number   1
_chemical_formula_structural   Dy5Er7Ir4
_chemical_formula_sum   'Dy5 Er7 Ir4'
_cell_volume   421.38223937
_cell_formula_units_Z   1
loop_
 _symmetry_equiv_pos_site_id
 _symmetry_equiv_pos_as_xyz
  1  'x, y, z'
loop_
 _atom_site_type_symbol
 _atom_site_label
 _atom_site_symmetry_multiplicity
 _atom_site_fract_x
 _atom_site_fract_y
 _atom_site_fract_z
 _atom_site_occupancy
  Dy  Dy0  1  0.328551  0.676849  0.062522  1
  Dy  Dy1  1  0.867395  0.534475  0.250098  1
  Dy  Dy2  1  0.632760  0.034744  0.250030  1
  Dy  Dy3  1  0.132482  0.465252  0.749854  1
  Dy  Dy4  1  0.367516  0.965440  0.749887  1
  Er  Er5  1  0.171137  0.176975  0.437489  1
  Er  Er6  1  0.671260  0.323096  0.562533  1
  Er  Er7  1  0.828797  0.823396  0.937037  1
  Er  Er8  1  0.671479  0.323089  0.937121  1
  Er  Er9  1  0.828896  0.823103  0.562518  1
  Er  Er10  1  0.328863  0.676867  0.437739  1
  Er  Er11  1  0.171144  0.176781  0.062749  1
  Ir  Ir12  1  0.047108  0.882584  0.250361  1
  Ir  Ir13  1  0.452417  0.381906  0.250291  1
  Ir  Ir14  1  0.952340  0.117749  0.750061  1
  Ir  Ir15  1  0.547853  0.617694  0.749709  1
