# generated using pymatgen
data_Zr6BeBr12
_symmetry_space_group_name_H-M   'P 1'
_cell_length_a   8.73882967
_cell_length_b   8.73883025
_cell_length_c   8.73882911
_cell_angle_alpha   106.83577336
_cell_angle_beta   106.83577488
_cell_angle_gamma   106.83577429
_symmetry_Int_Tables_number   1
_chemical_formula_structural   Zr6BeBr12
_chemical_formula_sum   'Zr6 Be1 Br12'
_cell_volume   558.25448721
_cell_formula_units_Z   1
loop_
 _symmetry_equiv_pos_site_id
 _symmetry_equiv_pos_as_xyz
  1  'x, y, z'
loop_
 _atom_site_type_symbol
 _atom_site_label
 _atom_site_symmetry_multiplicity
 _atom_site_fract_x
 _atom_site_fract_y
 _atom_site_fract_z
 _atom_site_occupancy
  Zr  Zr0  1  0.971329  0.706187  0.902191  1
  Zr  Zr1  1  0.293813  0.097809  0.028671  1
  Zr  Zr2  1  0.097809  0.028671  0.293813  1
  Zr  Zr3  1  0.902191  0.971329  0.706187  1
  Zr  Zr4  1  0.706187  0.902191  0.971329  1
  Zr  Zr5  1  0.028671  0.293813  0.097809  1
  Be  Be6  1  0.000000  0.000000  0.000000  1
  Br  Br7  1  0.922849  0.312381  0.778501  1
  Br  Br8  1  0.687619  0.221499  0.077151  1
  Br  Br9  1  0.440324  0.140103  0.363494  1
  Br  Br10  1  0.859897  0.636506  0.559676  1
  Br  Br11  1  0.221499  0.077151  0.687619  1
  Br  Br12  1  0.636506  0.559676  0.859897  1
  Br  Br13  1  0.363494  0.440324  0.140103  1
  Br  Br14  1  0.778501  0.922849  0.312381  1
  Br  Br15  1  0.140103  0.363494  0.440324  1
  Br  Br16  1  0.559676  0.859897  0.636506  1
  Br  Br17  1  0.312381  0.778501  0.922849  1
  Br  Br18  1  0.077151  0.687619  0.221499  1
