# generated using pymatgen
data_Cs4CaNi3F12
_symmetry_space_group_name_H-M   'P 1'
_cell_length_a   10.79348927
_cell_length_b   10.79348907
_cell_length_c   10.79349012
_cell_angle_alpha   33.96301524
_cell_angle_beta   33.96301407
_cell_angle_gamma   33.96302076
_symmetry_Int_Tables_number   1
_chemical_formula_structural   Cs4CaNi3F12
_chemical_formula_sum   'Cs4 Ca1 Ni3 F12'
_cell_volume   349.79324338
_cell_formula_units_Z   1
loop_
 _symmetry_equiv_pos_site_id
 _symmetry_equiv_pos_as_xyz
  1  'x, y, z'
loop_
 _atom_site_type_symbol
 _atom_site_label
 _atom_site_symmetry_multiplicity
 _atom_site_fract_x
 _atom_site_fract_y
 _atom_site_fract_z
 _atom_site_occupancy
  Cs  Cs0  1  0.714949  0.714949  0.714949  1
  Cs  Cs1  1  0.869781  0.869781  0.869781  1
  Cs  Cs2  1  0.285051  0.285051  0.285051  1
  Cs  Cs3  1  0.130219  0.130219  0.130219  1
  Ca  Ca4  1  0.000000  0.000000  0.000000  1
  Ni  Ni5  1  0.410105  0.410105  0.410105  1
  Ni  Ni6  1  0.589895  0.589895  0.589895  1
  Ni  Ni7  1  0.500000  0.500000  0.500000  1
  F  F8  1  0.174350  0.597260  0.597260  1
  F  F9  1  0.597260  0.597260  0.174350  1
  F  F10  1  0.692511  0.216421  0.216421  1
  F  F11  1  0.307489  0.783579  0.783579  1
  F  F12  1  0.216421  0.216421  0.692511  1
  F  F13  1  0.825650  0.402740  0.402740  1
  F  F14  1  0.783579  0.783579  0.307489  1
  F  F15  1  0.402740  0.402740  0.825650  1
  F  F16  1  0.402740  0.825650  0.402740  1
  F  F17  1  0.216421  0.692511  0.216421  1
  F  F18  1  0.783579  0.307489  0.783579  1
  F  F19  1  0.597260  0.174350  0.597260  1
