# generated using pymatgen
data_Ta2Mn3Fe9P7
_symmetry_space_group_name_H-M   'P 1'
_cell_length_a   8.89451600
_cell_length_b   8.89451616
_cell_length_c   3.53159100
_cell_angle_alpha   90.00000000
_cell_angle_beta   90.00000000
_cell_angle_gamma   119.99999939
_symmetry_Int_Tables_number   1
_chemical_formula_structural   Ta2Mn3Fe9P7
_chemical_formula_sum   'Ta2 Mn3 Fe9 P7'
_cell_volume   241.96117517
_cell_formula_units_Z   1
loop_
 _symmetry_equiv_pos_site_id
 _symmetry_equiv_pos_as_xyz
  1  'x, y, z'
loop_
 _atom_site_type_symbol
 _atom_site_label
 _atom_site_symmetry_multiplicity
 _atom_site_fract_x
 _atom_site_fract_y
 _atom_site_fract_z
 _atom_site_occupancy
  Ta  Ta0  1  0.666667  0.333333  0.000000  1
  Ta  Ta1  1  0.000000  0.000000  0.500000  1
  Mn  Mn2  1  0.559994  0.771227  0.500000  1
  Mn  Mn3  1  0.228773  0.788768  0.500000  1
  Mn  Mn4  1  0.211232  0.440006  0.500000  1
  Fe  Fe5  1  0.767872  0.735145  0.000000  1
  Fe  Fe6  1  0.264855  0.032727  0.000000  1
  Fe  Fe7  1  0.967273  0.232128  0.000000  1
  Fe  Fe8  1  0.491117  0.947100  0.000000  1
  Fe  Fe9  1  0.052900  0.544015  0.000000  1
  Fe  Fe10  1  0.455985  0.508883  0.000000  1
  Fe  Fe11  1  0.722215  0.110667  0.500000  1
  Fe  Fe12  1  0.889333  0.611549  0.500000  1
  Fe  Fe13  1  0.388451  0.277785  0.500000  1
  P  P14  1  0.458007  0.078776  0.500000  1
  P  P15  1  0.921224  0.379232  0.500000  1
  P  P16  1  0.620768  0.541993  0.500000  1
  P  P17  1  0.750786  0.968791  0.000000  1
  P  P18  1  0.031209  0.781995  0.000000  1
  P  P19  1  0.218005  0.249214  0.000000  1
  P  P20  1  0.333333  0.666667  0.000000  1
