# generated using pymatgen
data_Sc2V3P7Rh9
_symmetry_space_group_name_H-M   'P 1'
_cell_length_a   3.80651100
_cell_length_b   9.49710255
_cell_length_c   9.49692929
_cell_angle_alpha   120.00126391
_cell_angle_beta   89.99998242
_cell_angle_gamma   89.99999832
_symmetry_Int_Tables_number   1
_chemical_formula_structural   Sc2V3P7Rh9
_chemical_formula_sum   'Sc2 V3 P7 Rh9'
_cell_volume   297.32164130
_cell_formula_units_Z   1
loop_
 _symmetry_equiv_pos_site_id
 _symmetry_equiv_pos_as_xyz
  1  'x, y, z'
loop_
 _atom_site_type_symbol
 _atom_site_label
 _atom_site_symmetry_multiplicity
 _atom_site_fract_x
 _atom_site_fract_y
 _atom_site_fract_z
 _atom_site_occupancy
  Sc  Sc0  1  0.261868  0.666594  0.333313  1
  Sc  Sc1  1  0.761838  0.333352  0.666664  1
  V  V2  1  0.761882  0.093052  0.873430  1
  V  V3  1  0.761883  0.126498  0.219616  1
  V  V4  1  0.761877  0.780432  0.906915  1
  P  P5  1  0.261731  0.999987  0.999971  1
  P  P6  1  0.761954  0.879680  0.591958  1
  P  P7  1  0.761958  0.408140  0.287706  1
  P  P8  1  0.761960  0.712313  0.120404  1
  P  P9  1  0.261888  0.118959  0.415461  1
  P  P10  1  0.261886  0.584517  0.703532  1
  P  P11  1  0.261888  0.296440  0.881003  1
  Rh  Rh12  1  0.261936  0.885202  0.159306  1
  Rh  Rh13  1  0.261926  0.840742  0.725974  1
  Rh  Rh14  1  0.261931  0.274129  0.114776  1
  Rh  Rh15  1  0.761938  0.612011  0.556740  1
  Rh  Rh16  1  0.761940  0.443231  0.055238  1
  Rh  Rh17  1  0.761942  0.944708  0.388006  1
  Rh  Rh18  1  0.261933  0.366928  0.439386  1
  Rh  Rh19  1  0.261920  0.560618  0.927475  1
  Rh  Rh20  1  0.261925  0.072468  0.633123  1
