# generated using pymatgen
data_Li6TbSm5(WO6)4
_symmetry_space_group_name_H-M   'P 1'
_cell_length_a   10.82612948
_cell_length_b   10.80828355
_cell_length_c   10.81678686
_cell_angle_alpha   109.42000159
_cell_angle_beta   109.48947380
_cell_angle_gamma   109.50908100
_symmetry_Int_Tables_number   1
_chemical_formula_structural   Li6TbSm5(WO6)4
_chemical_formula_sum   'Li12 Tb2 Sm10 W8 O48'
_cell_volume   974.27122248
_cell_formula_units_Z   2
loop_
 _symmetry_equiv_pos_site_id
 _symmetry_equiv_pos_as_xyz
  1  'x, y, z'
loop_
 _atom_site_type_symbol
 _atom_site_label
 _atom_site_symmetry_multiplicity
 _atom_site_fract_x
 _atom_site_fract_y
 _atom_site_fract_z
 _atom_site_occupancy
  Li  Li0  1  0.749526  0.375004  0.125010  1
  Li  Li1  1  0.875461  0.750039  0.125002  1
  Li  Li2  1  0.125434  0.375000  0.249944  1
  Li  Li3  1  0.624510  0.874964  0.249920  1
  Li  Li4  1  0.250020  0.124413  0.373996  1
  Li  Li5  1  0.623982  0.249531  0.373989  1
  Li  Li6  1  0.374878  0.750020  0.624881  1
  Li  Li7  1  0.749990  0.874854  0.624870  1
  Li  Li8  1  0.374989  0.124948  0.750487  1
  Li  Li9  1  0.875485  0.625485  0.750469  1
  Li  Li10  1  0.125672  0.249994  0.875722  1
  Li  Li11  1  0.250048  0.625726  0.875735  1
  Tb  Tb12  1  0.374767  0.249391  0.125187  1
  Tb  Tb13  1  0.250421  0.875784  0.125170  1
  Sm  Sm14  1  0.875117  0.125122  0.250233  1
  Sm  Sm15  1  0.374598  0.624604  0.249192  1
  Sm  Sm16  1  0.125208  0.750407  0.374641  1
  Sm  Sm17  1  0.749424  0.624241  0.374651  1
  Sm  Sm18  1  0.875069  0.250031  0.624949  1
  Sm  Sm19  1  0.249889  0.374913  0.624956  1
  Sm  Sm20  1  0.624971  0.374976  0.749939  1
  Sm  Sm21  1  0.125565  0.875563  0.751138  1
  Sm  Sm22  1  0.750047  0.125101  0.874967  1
  Sm  Sm23  1  0.624931  0.749861  0.874968  1
  W  W24  1  0.001878  0.000455  0.001213  1
  W  W25  1  0.000745  0.501438  0.000233  1
  W  W26  1  0.499500  0.498795  0.000256  1
  W  W27  1  0.499336  0.000752  0.001190  1
  W  W28  1  0.499315  0.999758  0.498493  1
  W  W29  1  0.000028  0.500340  0.500074  1
  W  W30  1  0.000054  0.999733  0.500072  1
  W  W31  1  0.499156  0.498747  0.498492  1
  O  O32  1  0.327552  0.406275  0.026516  1
  O  O33  1  0.198960  0.620238  0.026511  1
  O  O34  1  0.697594  0.173160  0.081425  1
  O  O35  1  0.883842  0.908290  0.081433  1
  O  O36  1  0.616412  0.919447  0.092408  1
  O  O37  1  0.976005  0.172989  0.092418  1
  O  O38  1  0.590227  0.416858  0.117010  1
  O  O39  1  0.026767  0.700127  0.117007  1
  O  O40  1  0.200761  0.080400  0.172733  1
  O  O41  1  0.471959  0.092328  0.172706  1
  O  O42  1  0.116957  0.525188  0.197793  1
  O  O43  1  0.580854  0.672605  0.197801  1
  O  O44  1  0.326501  0.416721  0.299869  1
  O  O45  1  0.473360  0.883153  0.299880  1
  O  O46  1  0.908134  0.525182  0.326962  1
  O  O47  1  0.918818  0.801788  0.326959  1
  O  O48  1  0.578396  0.406015  0.379579  1
  O  O49  1  0.301170  0.973576  0.379568  1
  O  O50  1  0.827060  0.024833  0.408097  1
  O  O51  1  0.081050  0.383291  0.408105  1
  O  O52  1  0.826809  0.301982  0.418787  1
  O  O53  1  0.091984  0.116792  0.418794  1
  O  O54  1  0.591483  0.672552  0.474563  1
  O  O55  1  0.383079  0.802024  0.474562  1
  O  O56  1  0.616945  0.198364  0.524841  1
  O  O57  1  0.407896  0.326482  0.524832  1
  O  O58  1  0.173124  0.698359  0.581497  1
  O  O59  1  0.908375  0.883144  0.581490  1
  O  O60  1  0.918748  0.616896  0.591883  1
  O  O61  1  0.173143  0.974964  0.591889  1
  O  O62  1  0.697195  0.024458  0.615986  1
  O  O63  1  0.418780  0.591516  0.615986  1
  O  O64  1  0.081188  0.197959  0.673115  1
  O  O65  1  0.091940  0.475147  0.673108  1
  O  O66  1  0.523968  0.116272  0.696634  1
  O  O67  1  0.672667  0.580363  0.696633  1
  O  O68  1  0.418762  0.326727  0.801911  1
  O  O69  1  0.883154  0.475181  0.801911  1
  O  O70  1  0.803931  0.919468  0.827531  1
  O  O71  1  0.523589  0.908059  0.827522  1
  O  O72  1  0.975999  0.303159  0.883668  1
  O  O73  1  0.407676  0.580487  0.883675  1
  O  O74  1  0.383069  0.082826  0.909919  1
  O  O75  1  0.026836  0.827097  0.909909  1
  O  O76  1  0.120316  0.093627  0.921730  1
  O  O77  1  0.301405  0.828088  0.921715  1
  O  O78  1  0.802718  0.383973  0.975543  1
  O  O79  1  0.672829  0.591579  0.975548  1
