# generated using pymatgen
data_Pr2GeP(Ru2C)2
_symmetry_space_group_name_H-M   'P 1'
_cell_length_a   5.89011400
_cell_length_b   5.89011344
_cell_length_c   7.28999500
_cell_angle_alpha   90.00000000
_cell_angle_beta   90.00000000
_cell_angle_gamma   140.59906785
_symmetry_Int_Tables_number   1
_chemical_formula_structural   Pr2GeP(Ru2C)2
_chemical_formula_sum   'Pr2 Ge1 P1 Ru4 C2'
_cell_volume   160.53604820
_cell_formula_units_Z   1
loop_
 _symmetry_equiv_pos_site_id
 _symmetry_equiv_pos_as_xyz
  1  'x, y, z'
loop_
 _atom_site_type_symbol
 _atom_site_label
 _atom_site_symmetry_multiplicity
 _atom_site_fract_x
 _atom_site_fract_y
 _atom_site_fract_z
 _atom_site_occupancy
  Pr  Pr0  1  0.548657  0.451343  0.250000  1
  Pr  Pr1  1  0.452278  0.547722  0.750000  1
  Ge  Ge2  1  0.270516  0.729484  0.250000  1
  P  P3  1  0.729989  0.270011  0.750000  1
  Ru  Ru4  1  0.834074  0.165926  0.047261  1
  Ru  Ru5  1  0.164502  0.835498  0.935617  1
  Ru  Ru6  1  0.164502  0.835498  0.564383  1
  Ru  Ru7  1  0.834074  0.165926  0.452739  1
  C  C8  1  0.000704  0.999296  0.000441  1
  C  C9  1  0.000704  0.999296  0.499559  1
