# generated using pymatgen
data_Mn8Nb12FeOs3N4
_symmetry_space_group_name_H-M   'P 1'
_cell_length_a   8.11603746
_cell_length_b   8.11603745
_cell_length_c   8.11603700
_cell_angle_alpha   60.46424631
_cell_angle_beta   60.46424138
_cell_angle_gamma   60.46425220
_symmetry_Int_Tables_number   1
_chemical_formula_structural   Mn8Nb12FeOs3N4
_chemical_formula_sum   'Mn8 Nb12 Fe1 Os3 N4'
_cell_volume   381.98912969
_cell_formula_units_Z   1
loop_
 _symmetry_equiv_pos_site_id
 _symmetry_equiv_pos_as_xyz
  1  'x, y, z'
loop_
 _atom_site_type_symbol
 _atom_site_label
 _atom_site_symmetry_multiplicity
 _atom_site_fract_x
 _atom_site_fract_y
 _atom_site_fract_z
 _atom_site_occupancy
  Mn  Mn0  1  0.624802  0.624802  0.624802  1
  Mn  Mn1  1  0.732159  0.427246  0.427246  1
  Mn  Mn2  1  0.427246  0.732159  0.427246  1
  Mn  Mn3  1  0.427246  0.427246  0.732159  1
  Mn  Mn4  1  0.423091  0.423091  0.423091  1
  Mn  Mn5  1  0.524436  0.821239  0.821239  1
  Mn  Mn6  1  0.821239  0.524436  0.821239  1
  Mn  Mn7  1  0.821239  0.821239  0.524436  1
  Nb  Nb8  1  0.805342  0.805342  0.194940  1
  Nb  Nb9  1  0.192880  0.192880  0.807041  1
  Nb  Nb10  1  0.805342  0.194940  0.805342  1
  Nb  Nb11  1  0.192880  0.807041  0.192880  1
  Nb  Nb12  1  0.194940  0.805342  0.805342  1
  Nb  Nb13  1  0.807041  0.192880  0.192880  1
  Nb  Nb14  1  0.443549  0.443549  0.055634  1
  Nb  Nb15  1  0.055871  0.055871  0.443517  1
  Nb  Nb16  1  0.443549  0.055634  0.443549  1
  Nb  Nb17  1  0.055871  0.443517  0.055871  1
  Nb  Nb18  1  0.055634  0.443549  0.443549  1
  Nb  Nb19  1  0.443517  0.055871  0.055871  1
  Fe  Fe20  1  0.829051  0.829051  0.829051  1
  Os  Os21  1  0.125112  0.624298  0.624298  1
  Os  Os22  1  0.624298  0.125112  0.624298  1
  Os  Os23  1  0.624298  0.624298  0.125112  1
  N  N24  1  0.625194  0.124601  0.124601  1
  N  N25  1  0.124601  0.625194  0.124601  1
  N  N26  1  0.124601  0.124601  0.625194  1
  N  N27  1  0.124971  0.124971  0.124971  1
