# generated using pymatgen
data_DyY2Lu3FeBi2
_symmetry_space_group_name_H-M   'P 1'
_cell_length_a   8.23139200
_cell_length_b   8.24101961
_cell_length_c   4.18013500
_cell_angle_alpha   90.00000000
_cell_angle_beta   90.00000000
_cell_angle_gamma   119.96135394
_symmetry_Int_Tables_number   1
_chemical_formula_structural   DyY2Lu3FeBi2
_chemical_formula_sum   'Dy1 Y2 Lu3 Fe1 Bi2'
_cell_volume   245.66549634
_cell_formula_units_Z   1
loop_
 _symmetry_equiv_pos_site_id
 _symmetry_equiv_pos_as_xyz
  1  'x, y, z'
loop_
 _atom_site_type_symbol
 _atom_site_label
 _atom_site_symmetry_multiplicity
 _atom_site_fract_x
 _atom_site_fract_y
 _atom_site_fract_z
 _atom_site_occupancy
  Dy  Dy0  1  0.611314  0.000000  0.000000  1
  Y  Y1  1  0.999929  0.610872  0.000000  1
  Y  Y2  1  0.389057  0.389128  0.000000  1
  Lu  Lu3  1  0.227842  0.000000  0.500000  1
  Lu  Lu4  1  0.999806  0.227608  0.500000  1
  Lu  Lu5  1  0.772199  0.772392  0.500000  1
  Fe  Fe6  1  0.999797  0.000000  0.000000  1
  Bi  Bi7  1  0.333351  0.666646  0.500000  1
  Bi  Bi8  1  0.666706  0.333354  0.500000  1
