# generated using pymatgen
data_Ba3InCu17P6
_symmetry_space_group_name_H-M   'P 1'
_cell_length_a   9.24936960
_cell_length_b   9.24936895
_cell_length_c   10.70347963
_cell_angle_alpha   58.83862201
_cell_angle_beta   58.83862370
_cell_angle_gamma   36.05315845
_symmetry_Int_Tables_number   1
_chemical_formula_structural   Ba3InCu17P6
_chemical_formula_sum   'Ba3 In1 Cu17 P6'
_cell_volume   452.14092264
_cell_formula_units_Z   1
loop_
 _symmetry_equiv_pos_site_id
 _symmetry_equiv_pos_as_xyz
  1  'x, y, z'
loop_
 _atom_site_type_symbol
 _atom_site_label
 _atom_site_symmetry_multiplicity
 _atom_site_fract_x
 _atom_site_fract_y
 _atom_site_fract_z
 _atom_site_occupancy
  Ba  Ba0  1  0.500000  0.500000  0.000000  1
  Ba  Ba1  1  0.836055  0.836055  0.994925  1
  Ba  Ba2  1  0.163945  0.163945  0.005075  1
  In  In3  1  0.000000  0.000000  0.500000  1
  Cu  Cu4  1  0.442601  0.942846  0.672800  1
  Cu  Cu5  1  0.764451  0.295670  0.679865  1
  Cu  Cu6  1  0.115247  0.585055  0.681129  1
  Cu  Cu7  1  0.942846  0.442601  0.672800  1
  Cu  Cu8  1  0.295670  0.764451  0.679865  1
  Cu  Cu9  1  0.585055  0.115247  0.681129  1
  Cu  Cu10  1  0.557399  0.057154  0.327200  1
  Cu  Cu11  1  0.884753  0.414945  0.318871  1
  Cu  Cu12  1  0.235549  0.704330  0.320135  1
  Cu  Cu13  1  0.057154  0.557399  0.327200  1
  Cu  Cu14  1  0.414945  0.884753  0.318871  1
  Cu  Cu15  1  0.704330  0.235549  0.320135  1
  Cu  Cu16  1  0.166758  0.166758  0.499776  1
  Cu  Cu17  1  0.500000  0.500000  0.500000  1
  Cu  Cu18  1  0.833242  0.833242  0.500224  1
  Cu  Cu19  1  0.669595  0.669595  0.499691  1
  Cu  Cu20  1  0.330405  0.330405  0.500309  1
  P  P21  1  0.069816  0.069816  0.795510  1
  P  P22  1  0.402525  0.402525  0.794121  1
  P  P23  1  0.733714  0.733714  0.796619  1
  P  P24  1  0.266286  0.266286  0.203381  1
  P  P25  1  0.597475  0.597475  0.205879  1
  P  P26  1  0.930184  0.930184  0.204490  1
