# generated using pymatgen
data_Pr2Dy3Mn2P12Ir17
_symmetry_space_group_name_H-M   'P 1'
_cell_length_a   12.66168300
_cell_length_b   12.77599785
_cell_length_c   3.98470500
_cell_angle_alpha   90.00000000
_cell_angle_beta   90.00000000
_cell_angle_gamma   119.70445628
_symmetry_Int_Tables_number   1
_chemical_formula_structural   Pr2Dy3Mn2P12Ir17
_chemical_formula_sum   'Pr2 Dy3 Mn2 P12 Ir17'
_cell_volume   559.88489942
_cell_formula_units_Z   1
loop_
 _symmetry_equiv_pos_site_id
 _symmetry_equiv_pos_as_xyz
  1  'x, y, z'
loop_
 _atom_site_type_symbol
 _atom_site_label
 _atom_site_symmetry_multiplicity
 _atom_site_fract_x
 _atom_site_fract_y
 _atom_site_fract_z
 _atom_site_occupancy
  Pr  Pr0  1  0.000675  0.810117  0.000000  1
  Pr  Pr1  1  0.190558  0.189883  0.000000  1
  Dy  Dy2  1  0.332056  0.663010  0.500000  1
  Dy  Dy3  1  0.669046  0.336990  0.500000  1
  Dy  Dy4  1  0.812502  0.000000  0.000000  1
  Mn  Mn5  1  0.997482  0.454077  0.500000  1
  Mn  Mn6  1  0.543405  0.545923  0.500000  1
  P  P7  1  0.998812  0.630082  0.500000  1
  P  P8  1  0.368730  0.369918  0.500000  1
  P  P9  1  0.643229  0.000000  0.500000  1
  P  P10  1  0.514944  0.684935  0.000000  1
  P  P11  1  0.308093  0.821596  0.000000  1
  P  P12  1  0.166528  0.480454  0.000000  1
  P  P13  1  0.486498  0.178404  0.000000  1
  P  P14  1  0.686073  0.519546  0.000000  1
  P  P15  1  0.830010  0.315065  0.000000  1
  P  P16  1  0.997209  0.177976  0.500000  1
  P  P17  1  0.819232  0.822024  0.500000  1
  P  P18  1  0.181707  0.000000  0.500000  1
  Ir  Ir19  1  0.505484  0.866072  0.000000  1
  Ir  Ir20  1  0.128190  0.636325  0.000000  1
  Ir  Ir21  1  0.359065  0.492832  0.000000  1
  Ir  Ir22  1  0.491866  0.363675  0.000000  1
  Ir  Ir23  1  0.866234  0.507168  0.000000  1
  Ir  Ir24  1  0.639413  0.133928  0.000000  1
  Ir  Ir25  1  0.462786  0.000000  0.500000  1
  Ir  Ir26  1  0.996179  0.282372  0.000000  1
  Ir  Ir27  1  0.713807  0.717628  0.000000  1
  Ir  Ir28  1  0.291559  0.000000  0.000000  1
  Ir  Ir29  1  0.621175  0.804644  0.500000  1
  Ir  Ir30  1  0.204683  0.821859  0.500000  1
  Ir  Ir31  1  0.176273  0.377980  0.500000  1
  Ir  Ir32  1  0.382824  0.178141  0.500000  1
  Ir  Ir33  1  0.798293  0.622020  0.500000  1
  Ir  Ir34  1  0.816530  0.195356  0.500000  1
  Ir  Ir35  1  0.998851  0.000000  0.500000  1
