# generated using pymatgen
data_YbY3Tm4(ReC2)4
_symmetry_space_group_name_H-M   'P 1'
_cell_length_a   5.08247900
_cell_length_b   6.56586320
_cell_length_c   9.84287202
_cell_angle_alpha   89.43938051
_cell_angle_beta   90.00000000
_cell_angle_gamma   90.00000000
_symmetry_Int_Tables_number   1
_chemical_formula_structural   YbY3Tm4(ReC2)4
_chemical_formula_sum   'Yb1 Y3 Tm4 Re4 C8'
_cell_volume   328.44939892
_cell_formula_units_Z   1
loop_
 _symmetry_equiv_pos_site_id
 _symmetry_equiv_pos_as_xyz
  1  'x, y, z'
loop_
 _atom_site_type_symbol
 _atom_site_label
 _atom_site_symmetry_multiplicity
 _atom_site_fract_x
 _atom_site_fract_y
 _atom_site_fract_z
 _atom_site_occupancy
  Yb  Yb0  1  0.250000  0.036094  0.282830  1
  Y  Y1  1  0.250000  0.534739  0.217878  1
  Y  Y2  1  0.750000  0.464666  0.783784  1
  Y  Y3  1  0.750000  0.964238  0.716313  1
  Tm  Tm4  1  0.250000  0.678186  0.555951  1
  Tm  Tm5  1  0.750000  0.320997  0.442431  1
  Tm  Tm6  1  0.750000  0.823786  0.057814  1
  Tm  Tm7  1  0.250000  0.174768  0.943856  1
  Re  Re8  1  0.250000  0.719560  0.864386  1
  Re  Re9  1  0.750000  0.280201  0.134237  1
  Re  Re10  1  0.750000  0.778956  0.365639  1
  Re  Re11  1  0.250000  0.223056  0.634479  1
  C  C12  1  0.250000  0.451900  0.760760  1
  C  C13  1  0.750000  0.548481  0.239936  1
  C  C14  1  0.750000  0.047537  0.260134  1
  C  C15  1  0.250000  0.953440  0.738516  1
  C  C16  1  0.250000  0.820163  0.046021  1
  C  C17  1  0.750000  0.172376  0.952258  1
  C  C18  1  0.750000  0.676177  0.549867  1
  C  C19  1  0.250000  0.330679  0.452911  1
