# generated using pymatgen
data_TbY7(LuRu2)2
_symmetry_space_group_name_H-M   'P 1'
_cell_length_a   6.34356114
_cell_length_b   7.28500162
_cell_length_c   8.49111441
_cell_angle_alpha   96.70926420
_cell_angle_beta   111.96481907
_cell_angle_gamma   89.95279609
_symmetry_Int_Tables_number   1
_chemical_formula_structural   TbY7(LuRu2)2
_chemical_formula_sum   'Tb1 Y7 Lu2 Ru4'
_cell_volume   361.03188309
_cell_formula_units_Z   1
loop_
 _symmetry_equiv_pos_site_id
 _symmetry_equiv_pos_as_xyz
  1  'x, y, z'
loop_
 _atom_site_type_symbol
 _atom_site_label
 _atom_site_symmetry_multiplicity
 _atom_site_fract_x
 _atom_site_fract_y
 _atom_site_fract_z
 _atom_site_occupancy
  Tb  Tb0  1  0.523843  0.084095  0.814948  1
  Y  Y1  1  0.475888  0.916562  0.184901  1
  Y  Y2  1  0.708431  0.416797  0.185489  1
  Y  Y3  1  0.291222  0.583144  0.814746  1
  Y  Y4  1  0.295051  0.313571  0.432537  1
  Y  Y5  1  0.705173  0.686522  0.567742  1
  Y  Y6  1  0.862134  0.185876  0.567018  1
  Y  Y7  1  0.138177  0.813989  0.432656  1
  Lu  Lu8  1  0.077300  0.250478  0.000240  1
  Lu  Lu9  1  0.922482  0.749560  0.999544  1
  Ru  Ru10  1  0.315611  0.574581  0.214692  1
  Ru  Ru11  1  0.683150  0.424221  0.785286  1
  Ru  Ru12  1  0.102675  0.927198  0.785360  1
  Ru  Ru13  1  0.898863  0.073406  0.214842  1
