# generated using pymatgen
data_Li6CdSn5Pt12
_symmetry_space_group_name_H-M   'P 1'
_cell_length_a   4.10309601
_cell_length_b   7.53138400
_cell_length_c   12.33641502
_cell_angle_alpha   90.00000000
_cell_angle_beta   89.99325351
_cell_angle_gamma   90.00000000
_symmetry_Int_Tables_number   1
_chemical_formula_structural   Li6CdSn5Pt12
_chemical_formula_sum   'Li6 Cd1 Sn5 Pt12'
_cell_volume   381.21979095
_cell_formula_units_Z   1
loop_
 _symmetry_equiv_pos_site_id
 _symmetry_equiv_pos_as_xyz
  1  'x, y, z'
loop_
 _atom_site_type_symbol
 _atom_site_label
 _atom_site_symmetry_multiplicity
 _atom_site_fract_x
 _atom_site_fract_y
 _atom_site_fract_z
 _atom_site_occupancy
  Li  Li0  1  0.000000  0.000000  0.000000  1
  Li  Li1  1  0.501168  0.499999  0.161000  1
  Li  Li2  1  0.000937  0.000000  0.333930  1
  Li  Li3  1  0.500001  0.499999  0.500000  1
  Li  Li4  1  0.999061  0.000000  0.666069  1
  Li  Li5  1  0.498836  0.499999  0.838998  1
  Cd  Cd6  1  0.000002  0.499999  0.999999  1
  Sn  Sn7  1  0.501019  0.000000  0.169094  1
  Sn  Sn8  1  0.000803  0.499999  0.330348  1
  Sn  Sn9  1  0.499988  0.000000  0.500007  1
  Sn  Sn10  1  0.999198  0.499999  0.669651  1
  Sn  Sn11  1  0.498982  0.000000  0.830904  1
  Pt  Pt12  1  0.500001  0.236763  0.999999  1
  Pt  Pt13  1  0.500001  0.763237  0.999999  1
  Pt  Pt14  1  0.000899  0.244898  0.167313  1
  Pt  Pt15  1  0.000899  0.755102  0.167313  1
  Pt  Pt16  1  0.500762  0.252332  0.334481  1
  Pt  Pt17  1  0.500762  0.747668  0.334481  1
  Pt  Pt18  1  0.999998  0.250679  0.500000  1
  Pt  Pt19  1  0.999998  0.749321  0.500000  1
  Pt  Pt20  1  0.499243  0.252331  0.665520  1
  Pt  Pt21  1  0.499243  0.747669  0.665520  1
  Pt  Pt22  1  0.999104  0.244898  0.832686  1
  Pt  Pt23  1  0.999104  0.755102  0.832686  1
