# generated using pymatgen
data_CeEr5(AlC3)2
_symmetry_space_group_name_H-M   'P 1'
_cell_length_a   3.55469200
_cell_length_b   7.10439100
_cell_length_c   9.88050400
_cell_angle_alpha   90.00000000
_cell_angle_beta   90.00000000
_cell_angle_gamma   90.00000000
_symmetry_Int_Tables_number   1
_chemical_formula_structural   CeEr5(AlC3)2
_chemical_formula_sum   'Ce1 Er5 Al2 C6'
_cell_volume   249.52147588
_cell_formula_units_Z   1
loop_
 _symmetry_equiv_pos_site_id
 _symmetry_equiv_pos_as_xyz
  1  'x, y, z'
loop_
 _atom_site_type_symbol
 _atom_site_label
 _atom_site_symmetry_multiplicity
 _atom_site_fract_x
 _atom_site_fract_y
 _atom_site_fract_z
 _atom_site_occupancy
  Ce  Ce0  1  0.000000  0.750000  0.463446  1
  Er  Er1  1  0.500000  0.512840  0.197961  1
  Er  Er2  1  0.500000  0.484026  0.800075  1
  Er  Er3  1  0.500000  0.987160  0.197961  1
  Er  Er4  1  0.500000  0.015974  0.800075  1
  Er  Er5  1  0.000000  0.250000  0.541152  1
  Al  Al6  1  0.000000  0.750000  0.002332  1
  Al  Al7  1  0.000000  0.250000  0.997648  1
  C  C8  1  0.500000  0.498772  0.566345  1
  C  C9  1  0.500000  0.482585  0.431943  1
  C  C10  1  0.500000  0.001228  0.566345  1
  C  C11  1  0.500000  0.017415  0.431943  1
  C  C12  1  0.000000  0.750000  0.208740  1
  C  C13  1  0.000000  0.250000  0.794033  1
