# generated using pymatgen
data_EuTh3(ZnRu)4
_symmetry_space_group_name_H-M   'P 1'
_cell_length_a   4.00938300
_cell_length_b   7.03851447
_cell_length_c   8.43559000
_cell_angle_alpha   90.49763233
_cell_angle_beta   90.00000000
_cell_angle_gamma   90.00000000
_symmetry_Int_Tables_number   1
_chemical_formula_structural   EuTh3(ZnRu)4
_chemical_formula_sum   'Eu1 Th3 Zn4 Ru4'
_cell_volume   238.04421697
_cell_formula_units_Z   1
loop_
 _symmetry_equiv_pos_site_id
 _symmetry_equiv_pos_as_xyz
  1  'x, y, z'
loop_
 _atom_site_type_symbol
 _atom_site_label
 _atom_site_symmetry_multiplicity
 _atom_site_fract_x
 _atom_site_fract_y
 _atom_site_fract_z
 _atom_site_occupancy
  Eu  Eu0  1  0.750000  0.961317  0.683881  1
  Th  Th1  1  0.250000  0.535775  0.182543  1
  Th  Th2  1  0.750000  0.460981  0.813255  1
  Th  Th3  1  0.250000  0.040592  0.320465  1
  Zn  Zn4  1  0.250000  0.119600  0.940170  1
  Zn  Zn5  1  0.750000  0.871287  0.052016  1
  Zn  Zn6  1  0.250000  0.637215  0.554283  1
  Zn  Zn7  1  0.750000  0.374325  0.445951  1
  Ru  Ru8  1  0.750000  0.754780  0.359784  1
  Ru  Ru9  1  0.250000  0.266026  0.634109  1
  Ru  Ru10  1  0.750000  0.250038  0.135399  1
  Ru  Ru11  1  0.250000  0.728062  0.878146  1
