# generated using pymatgen
data_Ho9Er7In4IrPt3
_symmetry_space_group_name_H-M   'P 1'
_cell_length_a   9.63152842
_cell_length_b   9.63033322
_cell_length_c   9.63311636
_cell_angle_alpha   60.11175788
_cell_angle_beta   60.11977942
_cell_angle_gamma   60.12127410
_symmetry_Int_Tables_number   1
_chemical_formula_structural   Ho9Er7In4IrPt3
_chemical_formula_sum   'Ho9 Er7 In4 Ir1 Pt3'
_cell_volume   633.49605795
_cell_formula_units_Z   1
loop_
 _symmetry_equiv_pos_site_id
 _symmetry_equiv_pos_as_xyz
  1  'x, y, z'
loop_
 _atom_site_type_symbol
 _atom_site_label
 _atom_site_symmetry_multiplicity
 _atom_site_fract_x
 _atom_site_fract_y
 _atom_site_fract_z
 _atom_site_occupancy
  Ho  Ho0  1  0.061246  0.061324  0.439408  1
  Ho  Ho1  1  0.648332  0.056099  0.648024  1
  Ho  Ho2  1  0.190916  0.807744  0.191028  1
  Ho  Ho3  1  0.437320  0.063504  0.436986  1
  Ho  Ho4  1  0.186918  0.193605  0.808785  1
  Ho  Ho5  1  0.652004  0.647246  0.652009  1
  Ho  Ho6  1  0.052055  0.646472  0.650646  1
  Ho  Ho7  1  0.439605  0.061187  0.061316  1
  Ho  Ho8  1  0.650739  0.646152  0.052282  1
  Er  Er9  1  0.189976  0.809374  0.809573  1
  Er  Er10  1  0.810154  0.192035  0.810374  1
  Er  Er11  1  0.808547  0.193618  0.187155  1
  Er  Er12  1  0.809516  0.809543  0.189934  1
  Er  Er13  1  0.062855  0.436058  0.439300  1
  Er  Er14  1  0.439599  0.435940  0.062884  1
  Er  Er15  1  0.060840  0.437633  0.061035  1
  In  In16  1  0.749817  0.416908  0.416338  1
  In  In17  1  0.416437  0.416933  0.749792  1
  In  In18  1  0.416887  0.749376  0.416842  1
  In  In19  1  0.416170  0.416498  0.415989  1
  Ir  Ir20  1  0.858318  0.426395  0.858993  1
  Pt  Pt21  1  0.857037  0.858154  0.856965  1
  Pt  Pt22  1  0.427180  0.858810  0.857630  1
  Pt  Pt23  1  0.857535  0.859396  0.426716  1
