# generated using pymatgen
data_Dy2Y6TlInRh2
_symmetry_space_group_name_H-M   'P 1'
_cell_length_a   9.70266524
_cell_length_b   9.70065775
_cell_length_c   9.69838345
_cell_angle_alpha   59.96784828
_cell_angle_beta   59.99394711
_cell_angle_gamma   60.07582395
_symmetry_Int_Tables_number   1
_chemical_formula_structural   Dy2Y6TlInRh2
_chemical_formula_sum   'Dy4 Y12 Tl2 In2 Rh4'
_cell_volume   645.65302439
_cell_formula_units_Z   2
loop_
 _symmetry_equiv_pos_site_id
 _symmetry_equiv_pos_as_xyz
  1  'x, y, z'
loop_
 _atom_site_type_symbol
 _atom_site_label
 _atom_site_symmetry_multiplicity
 _atom_site_fract_x
 _atom_site_fract_y
 _atom_site_fract_z
 _atom_site_occupancy
  Dy  Dy0  1  0.147958  0.550503  0.147834  1
  Dy  Dy1  1  0.311230  0.688570  0.687807  1
  Dy  Dy2  1  0.688908  0.311515  0.688377  1
  Dy  Dy3  1  0.550555  0.148336  0.147569  1
  Y  Y4  1  0.689669  0.311802  0.310153  1
  Y  Y5  1  0.688734  0.688964  0.310356  1
  Y  Y6  1  0.311375  0.689429  0.311155  1
  Y  Y7  1  0.937934  0.937988  0.562111  1
  Y  Y8  1  0.146686  0.147380  0.553668  1
  Y  Y9  1  0.559895  0.938174  0.559755  1
  Y  Y10  1  0.151422  0.152232  0.151089  1
  Y  Y11  1  0.310363  0.311843  0.689311  1
  Y  Y12  1  0.937687  0.559774  0.561004  1
  Y  Y13  1  0.560621  0.559236  0.938162  1
  Y  Y14  1  0.562292  0.937916  0.937830  1
  Y  Y15  1  0.937473  0.561932  0.937447  1
  Tl  Tl16  1  0.914705  0.916088  0.255723  1
  Tl  Tl17  1  0.256104  0.915930  0.915132  1
  In  In18  1  0.916740  0.250904  0.917452  1
  In  In19  1  0.915645  0.917069  0.916450  1
  Rh  Rh20  1  0.357041  0.356986  0.354720  1
  Rh  Rh21  1  0.927603  0.358935  0.359907  1
  Rh  Rh22  1  0.360511  0.360500  0.927200  1
  Rh  Rh23  1  0.358848  0.927992  0.359787  1
