# generated using pymatgen
data_Nd8ScPd23Au
_symmetry_space_group_name_H-M   'P 1'
_cell_length_a   8.47737000
_cell_length_b   8.53237000
_cell_length_c   8.53454800
_cell_angle_alpha   90.00000000
_cell_angle_beta   90.00000000
_cell_angle_gamma   90.00000000
_symmetry_Int_Tables_number   1
_chemical_formula_structural   Nd8ScPd23Au
_chemical_formula_sum   'Nd8 Sc1 Pd23 Au1'
_cell_volume   617.32141639
_cell_formula_units_Z   1
loop_
 _symmetry_equiv_pos_site_id
 _symmetry_equiv_pos_as_xyz
  1  'x, y, z'
loop_
 _atom_site_type_symbol
 _atom_site_label
 _atom_site_symmetry_multiplicity
 _atom_site_fract_x
 _atom_site_fract_y
 _atom_site_fract_z
 _atom_site_occupancy
  Nd  Nd0  1  0.251586  0.248279  0.256513  1
  Nd  Nd1  1  0.747819  0.747551  0.747676  1
  Nd  Nd2  1  0.747819  0.747551  0.252324  1
  Nd  Nd3  1  0.747819  0.252449  0.747676  1
  Nd  Nd4  1  0.251586  0.248279  0.743487  1
  Nd  Nd5  1  0.251586  0.751721  0.256513  1
  Nd  Nd6  1  0.251586  0.751721  0.743487  1
  Nd  Nd7  1  0.747819  0.252449  0.252324  1
  Sc  Sc8  1  0.000182  0.000000  0.000000  1
  Pd  Pd9  1  0.735007  0.500000  0.000000  1
  Pd  Pd10  1  0.998867  0.265280  0.500000  1
  Pd  Pd11  1  0.500009  0.263285  0.000000  1
  Pd  Pd12  1  0.998867  0.734720  0.500000  1
  Pd  Pd13  1  0.500009  0.736715  0.000000  1
  Pd  Pd14  1  0.500685  0.000000  0.264594  1
  Pd  Pd15  1  0.265524  0.000000  0.500000  1
  Pd  Pd16  1  0.500685  0.000000  0.735406  1
  Pd  Pd17  1  0.733812  0.000000  0.500000  1
  Pd  Pd18  1  0.000884  0.500000  0.265236  1
  Pd  Pd19  1  0.000884  0.500000  0.734764  1
  Pd  Pd20  1  0.253946  0.500000  0.500000  1
  Pd  Pd21  1  0.745574  0.500000  0.500000  1
  Pd  Pd22  1  0.500734  0.254566  0.500000  1
  Pd  Pd23  1  0.500734  0.745434  0.500000  1
  Pd  Pd24  1  0.499432  0.500000  0.256059  1
  Pd  Pd25  1  0.499432  0.500000  0.743941  1
  Pd  Pd26  1  0.306028  0.000000  0.000000  1
  Pd  Pd27  1  0.693271  0.000000  0.000000  1
  Pd  Pd28  1  0.000951  0.305798  0.000000  1
  Pd  Pd29  1  0.000951  0.694202  0.000000  1
  Pd  Pd30  1  0.998479  0.000000  0.307116  1
  Pd  Pd31  1  0.998479  0.000000  0.692884  1
  Au  Au32  1  0.268945  0.500000  0.000000  1
