# generated using pymatgen
data_Dy3Ho2Tm15Pt16
_symmetry_space_group_name_H-M   'P 1'
_cell_length_a   7.40853270
_cell_length_b   7.48581292
_cell_length_c   14.59798971
_cell_angle_alpha   90.00904418
_cell_angle_beta   90.03543063
_cell_angle_gamma   89.99275972
_symmetry_Int_Tables_number   1
_chemical_formula_structural   Dy3Ho2Tm15Pt16
_chemical_formula_sum   'Dy3 Ho2 Tm15 Pt16'
_cell_volume   809.58813062
_cell_formula_units_Z   1
loop_
 _symmetry_equiv_pos_site_id
 _symmetry_equiv_pos_as_xyz
  1  'x, y, z'
loop_
 _atom_site_type_symbol
 _atom_site_label
 _atom_site_symmetry_multiplicity
 _atom_site_fract_x
 _atom_site_fract_y
 _atom_site_fract_z
 _atom_site_occupancy
  Dy  Dy0  1  0.999299  0.178860  0.407015  1
  Dy  Dy1  1  0.499472  0.321877  0.407590  1
  Dy  Dy2  1  0.999246  0.178365  0.092317  1
  Ho  Ho3  1  0.500723  0.678839  0.907640  1
  Ho  Ho4  1  0.001059  0.820373  0.592816  1
  Tm  Tm5  1  0.655867  0.167177  0.622812  1
  Tm  Tm6  1  0.155983  0.333028  0.877405  1
  Tm  Tm7  1  0.344440  0.832811  0.122385  1
  Tm  Tm8  1  0.844417  0.667217  0.377355  1
  Tm  Tm9  1  0.345386  0.832035  0.377635  1
  Tm  Tm10  1  0.844422  0.667502  0.121801  1
  Tm  Tm11  1  0.655486  0.167493  0.877819  1
  Tm  Tm12  1  0.156108  0.332815  0.622497  1
  Tm  Tm13  1  0.501289  0.680249  0.593240  1
  Tm  Tm14  1  0.001418  0.819766  0.906763  1
  Tm  Tm15  1  0.498541  0.320203  0.092930  1
  Tm  Tm16  1  0.818718  0.509981  0.750080  1
  Tm  Tm17  1  0.318665  0.989928  0.750204  1
  Tm  Tm18  1  0.181186  0.490059  0.249524  1
  Tm  Tm19  1  0.681192  0.010045  0.249645  1
  Pt  Pt20  1  0.683114  0.964545  0.459058  1
  Pt  Pt21  1  0.185807  0.534062  0.041344  1
  Pt  Pt22  1  0.314880  0.033081  0.958223  1
  Pt  Pt23  1  0.814634  0.467940  0.542229  1
  Pt  Pt24  1  0.316854  0.031892  0.542497  1
  Pt  Pt25  1  0.816641  0.467223  0.958170  1
  Pt  Pt26  1  0.682518  0.966486  0.041467  1
  Pt  Pt27  1  0.183470  0.535667  0.459253  1
  Pt  Pt28  1  0.452927  0.386653  0.749856  1
  Pt  Pt29  1  0.952783  0.113436  0.750466  1
  Pt  Pt30  1  0.546893  0.614058  0.249245  1
  Pt  Pt31  1  0.047399  0.885256  0.249914  1
  Pt  Pt32  1  0.681042  0.855668  0.749994  1
  Pt  Pt33  1  0.181025  0.644289  0.750658  1
  Pt  Pt34  1  0.319572  0.143950  0.248914  1
  Pt  Pt35  1  0.817522  0.357175  0.249240  1
