# generated using pymatgen
data_Ba12Pr3Y(Fe4O15)2
_symmetry_space_group_name_H-M   'P 1'
_cell_length_a   6.10711293
_cell_length_b   8.24523404
_cell_length_c   18.92567596
_cell_angle_alpha   89.26180105
_cell_angle_beta   90.15531021
_cell_angle_gamma   89.96970709
_symmetry_Int_Tables_number   1
_chemical_formula_structural   Ba12Pr3Y(Fe4O15)2
_chemical_formula_sum   'Ba12 Pr3 Y1 Fe8 O30'
_cell_volume   952.91162966
_cell_formula_units_Z   1
loop_
 _symmetry_equiv_pos_site_id
 _symmetry_equiv_pos_as_xyz
  1  'x, y, z'
loop_
 _atom_site_type_symbol
 _atom_site_label
 _atom_site_symmetry_multiplicity
 _atom_site_fract_x
 _atom_site_fract_y
 _atom_site_fract_z
 _atom_site_occupancy
  Ba  Ba0  1  0.283497  0.998110  0.248286  1
  Ba  Ba1  1  0.720512  0.997964  0.753696  1
  Ba  Ba2  1  0.347807  0.499505  0.249896  1
  Ba  Ba3  1  0.659342  0.503574  0.752383  1
  Ba  Ba4  1  0.752150  0.971988  0.088174  1
  Ba  Ba5  1  0.757510  0.031104  0.406416  1
  Ba  Ba6  1  0.244987  0.025505  0.909060  1
  Ba  Ba7  1  0.242751  0.967429  0.594071  1
  Ba  Ba8  1  0.244342  0.504534  0.578145  1
  Ba  Ba9  1  0.240760  0.498768  0.919902  1
  Ba  Ba10  1  0.757512  0.494118  0.422072  1
  Ba  Ba11  1  0.751558  0.507264  0.075164  1
  Pr  Pr12  1  0.253462  0.754926  0.408486  1
  Pr  Pr13  1  0.250183  0.247904  0.090342  1
  Pr  Pr14  1  0.747257  0.243910  0.592906  1
  Y  Y15  1  0.744461  0.753129  0.909578  1
  Fe  Fe16  1  0.251453  0.756164  0.056971  1
  Fe  Fe17  1  0.255860  0.244286  0.439886  1
  Fe  Fe18  1  0.739901  0.246481  0.937803  1
  Fe  Fe19  1  0.745413  0.754510  0.561282  1
  Fe  Fe20  1  0.787762  0.770255  0.263380  1
  Fe  Fe21  1  0.788531  0.230061  0.234188  1
  Fe  Fe22  1  0.214134  0.229563  0.736227  1
  Fe  Fe23  1  0.218172  0.770202  0.767489  1
  O  O24  1  0.794315  0.000426  0.249749  1
  O  O25  1  0.204172  0.999455  0.751970  1
  O  O26  1  0.774510  0.949389  0.614435  1
  O  O27  1  0.762080  0.039687  0.891717  1
  O  O28  1  0.227360  0.048635  0.387166  1
  O  O29  1  0.224816  0.952362  0.108735  1
  O  O30  1  0.229820  0.536316  0.088380  1
  O  O31  1  0.229834  0.465528  0.409117  1
  O  O32  1  0.758521  0.472329  0.910361  1
  O  O33  1  0.770819  0.533723  0.592748  1
  O  O34  1  0.076337  0.727921  0.295370  1
  O  O35  1  0.077395  0.271906  0.203298  1
  O  O36  1  0.922873  0.271178  0.706724  1
  O  O37  1  0.939293  0.726755  0.807464  1
  O  O38  1  0.585781  0.742852  0.340823  1
  O  O39  1  0.585240  0.257589  0.157214  1
  O  O40  1  0.412409  0.254377  0.658283  1
  O  O41  1  0.437702  0.745361  0.839984  1
  O  O42  1  0.476239  0.762851  0.510433  1
  O  O43  1  0.477109  0.236064  0.990866  1
  O  O44  1  0.525562  0.236426  0.490545  1
  O  O45  1  0.517794  0.765585  0.003946  1
  O  O46  1  0.019214  0.771001  0.988058  1
  O  O47  1  0.030909  0.226983  0.510126  1
  O  O48  1  0.969862  0.231151  0.006675  1
  O  O49  1  0.969700  0.771921  0.490922  1
  O  O50  1  0.323530  0.688486  0.683240  1
  O  O51  1  0.339775  0.309198  0.818370  1
  O  O52  1  0.671009  0.310134  0.317586  1
  O  O53  1  0.666702  0.693155  0.179891  1
