# generated using pymatgen
data_NaLiN2
_symmetry_space_group_name_H-M   'P 1'
_cell_length_a   3.36641088
_cell_length_b   3.37105407
_cell_length_c   4.73370857
_cell_angle_alpha   89.76800829
_cell_angle_beta   89.94998161
_cell_angle_gamma   59.89935378
_symmetry_Int_Tables_number   1
_chemical_formula_structural   NaLiN2
_chemical_formula_sum   'Na1 Li1 N2'
_cell_volume   46.47503164
_cell_formula_units_Z   1
loop_
 _symmetry_equiv_pos_site_id
 _symmetry_equiv_pos_as_xyz
  1  'x, y, z'
loop_
 _atom_site_type_symbol
 _atom_site_label
 _atom_site_symmetry_multiplicity
 _atom_site_fract_x
 _atom_site_fract_y
 _atom_site_fract_z
 _atom_site_occupancy
  Na  Na0  1  0.109128  0.475124  0.931821  1
  Li  Li1  1  0.772900  0.144276  0.430816  1
  N  N2  1  0.440978  0.810376  0.564676  1
  N  N3  1  0.439833  0.812908  0.296015  1
