# generated using pymatgen
data_Ta13Nb3(AlTe4)4
_symmetry_space_group_name_H-M   'P 1'
_cell_length_a   4.87020400
_cell_length_b   11.15239116
_cell_length_c   19.49715859
_cell_angle_alpha   89.98676307
_cell_angle_beta   90.00000000
_cell_angle_gamma   90.00000000
_symmetry_Int_Tables_number   1
_chemical_formula_structural   Ta13Nb3(AlTe4)4
_chemical_formula_sum   'Ta13 Nb3 Al4 Te16'
_cell_volume   1058.97683268
_cell_formula_units_Z   1
loop_
 _symmetry_equiv_pos_site_id
 _symmetry_equiv_pos_as_xyz
  1  'x, y, z'
loop_
 _atom_site_type_symbol
 _atom_site_label
 _atom_site_symmetry_multiplicity
 _atom_site_fract_x
 _atom_site_fract_y
 _atom_site_fract_z
 _atom_site_occupancy
  Ta  Ta0  1  0.500000  0.565453  0.383404  1
  Ta  Ta1  1  0.500000  0.434346  0.616432  1
  Ta  Ta2  1  0.500000  0.065903  0.116511  1
  Ta  Ta3  1  0.500000  0.935135  0.883819  1
  Ta  Ta4  1  0.500000  0.705014  0.535490  1
  Ta  Ta5  1  0.500000  0.294944  0.464349  1
  Ta  Ta6  1  0.500000  0.204922  0.964500  1
  Ta  Ta7  1  0.500000  0.795796  0.035977  1
  Ta  Ta8  1  0.000000  0.810467  0.943269  1
  Ta  Ta9  1  0.000000  0.401132  0.391623  1
  Ta  Ta10  1  0.000000  0.598671  0.608207  1
  Ta  Ta11  1  0.000000  0.901121  0.108193  1
  Ta  Ta12  1  0.000000  0.098231  0.891788  1
  Nb  Nb13  1  0.000000  0.690388  0.442822  1
  Nb  Nb14  1  0.000000  0.309648  0.557108  1
  Nb  Nb15  1  0.000000  0.190397  0.057002  1
  Al  Al16  1  0.249528  0.499888  0.499900  1
  Al  Al17  1  0.750241  0.000304  0.000192  1
  Al  Al18  1  0.750472  0.499888  0.499900  1
  Al  Al19  1  0.249759  0.000304  0.000192  1
  Te  Te20  1  0.000000  0.842656  0.562129  1
  Te  Te21  1  0.000000  0.157255  0.437887  1
  Te  Te22  1  0.000000  0.342212  0.937622  1
  Te  Te23  1  0.000000  0.656840  0.061372  1
  Te  Te24  1  0.500000  0.334498  0.318883  1
  Te  Te25  1  0.500000  0.665305  0.680926  1
  Te  Te26  1  0.500000  0.835042  0.181382  1
  Te  Te27  1  0.500000  0.165441  0.818918  1
  Te  Te28  1  0.500000  0.819804  0.404117  1
  Te  Te29  1  0.500000  0.180095  0.595726  1
  Te  Te30  1  0.500000  0.320140  0.095786  1
  Te  Te31  1  0.500000  0.680596  0.904457  1
  Te  Te32  1  0.000000  0.605951  0.303380  1
  Te  Te33  1  0.000000  0.393951  0.696550  1
  Te  Te34  1  0.000000  0.106067  0.196349  1
  Te  Te35  1  0.000000  0.892198  0.803835  1
