# generated using pymatgen
data_Sr4Ir5PdO19
_symmetry_space_group_name_H-M   'P 1'
_cell_length_a   8.12990266
_cell_length_b   8.11578872
_cell_length_c   8.13011412
_cell_angle_alpha   108.93719690
_cell_angle_beta   109.94724587
_cell_angle_gamma   109.60425978
_symmetry_Int_Tables_number   1
_chemical_formula_structural   Sr4Ir5PdO19
_chemical_formula_sum   'Sr4 Ir5 Pd1 O19'
_cell_volume   412.53598850
_cell_formula_units_Z   1
loop_
 _symmetry_equiv_pos_site_id
 _symmetry_equiv_pos_as_xyz
  1  'x, y, z'
loop_
 _atom_site_type_symbol
 _atom_site_label
 _atom_site_symmetry_multiplicity
 _atom_site_fract_x
 _atom_site_fract_y
 _atom_site_fract_z
 _atom_site_occupancy
  Sr  Sr0  1  0.996243  0.998993  0.293358  1
  Sr  Sr1  1  0.007824  0.300058  0.000205  1
  Sr  Sr2  1  0.700149  0.699944  0.707709  1
  Sr  Sr3  1  0.294363  0.000974  0.997314  1
  Ir  Ir4  1  0.842804  0.339535  0.502340  1
  Ir  Ir5  1  0.497420  0.163434  0.659751  1
  Ir  Ir6  1  0.162833  0.660437  0.503261  1
  Ir  Ir7  1  0.496334  0.836562  0.333979  1
  Ir  Ir8  1  0.659130  0.500009  0.159131  1
  Pd  Pd9  1  0.341151  0.499975  0.841135  1
  O  O10  1  0.359939  0.999958  0.359939  1
  O  O11  1  0.359649  0.353244  0.004659  1
  O  O12  1  0.002904  0.640211  0.643581  1
  O  O13  1  0.651427  0.646767  0.006434  1
  O  O14  1  0.003335  0.359777  0.362650  1
  O  O15  1  0.633165  0.000028  0.633136  1
  O  O16  1  0.998045  0.000012  0.998053  1
  O  O17  1  0.338585  0.290399  0.618196  1
  O  O18  1  0.038092  0.325185  0.702663  1
  O  O19  1  0.709175  0.367371  0.660912  1
  O  O20  1  0.377489  0.674751  0.712878  1
  O  O21  1  0.292899  0.954440  0.659309  1
  O  O22  1  0.635983  0.339088  0.293779  1
  O  O23  1  0.293615  0.632705  0.341866  1
  O  O24  1  0.704764  0.045550  0.338417  1
  O  O25  1  0.954721  0.660940  0.296950  1
  O  O26  1  0.659507  0.706860  0.367432  1
  O  O27  1  0.660638  0.293239  0.952698  1
  O  O28  1  0.327817  0.709553  0.048264  1
