# generated using pymatgen
data_Tb6Y2Ti3Si16W9
_symmetry_space_group_name_H-M   'P 1'
_cell_length_a   6.91478763
_cell_length_b   6.91449578
_cell_length_c   12.84897733
_cell_angle_alpha   89.99124501
_cell_angle_beta   90.03365471
_cell_angle_gamma   89.90704750
_symmetry_Int_Tables_number   1
_chemical_formula_structural   Tb6Y2Ti3Si16W9
_chemical_formula_sum   'Tb6 Y2 Ti3 Si16 W9'
_cell_volume   614.33785074
_cell_formula_units_Z   1
loop_
 _symmetry_equiv_pos_site_id
 _symmetry_equiv_pos_as_xyz
  1  'x, y, z'
loop_
 _atom_site_type_symbol
 _atom_site_label
 _atom_site_symmetry_multiplicity
 _atom_site_fract_x
 _atom_site_fract_y
 _atom_site_fract_z
 _atom_site_occupancy
  Tb  Tb0  1  0.499716  0.162680  0.217594  1
  Tb  Tb1  1  0.837336  0.497125  0.280936  1
  Tb  Tb2  1  0.162561  0.499605  0.782411  1
  Tb  Tb3  1  0.660907  0.999050  0.968547  1
  Tb  Tb4  1  0.001950  0.338590  0.531683  1
  Tb  Tb5  1  0.999011  0.660893  0.031337  1
  Y  Y6  1  0.338708  0.001822  0.468418  1
  Y  Y7  1  0.497410  0.837594  0.719016  1
  Ti  Ti8  1  0.170533  0.831499  0.248665  1
  Ti  Ti9  1  0.831563  0.170633  0.751368  1
  Ti  Ti10  1  0.668928  0.668722  0.500045  1
  Si  Si11  1  0.200545  0.127671  0.683571  1
  Si  Si12  1  0.374619  0.698370  0.933883  1
  Si  Si13  1  0.627553  0.299027  0.433994  1
  Si  Si14  1  0.698350  0.374646  0.066069  1
  Si  Si15  1  0.299157  0.627912  0.566045  1
  Si  Si16  1  0.797342  0.873271  0.184417  1
  Si  Si17  1  0.127804  0.200518  0.316461  1
  Si  Si18  1  0.873042  0.797455  0.815512  1
  Si  Si19  1  0.288672  0.962765  0.062401  1
  Si  Si20  1  0.539314  0.790913  0.313869  1
  Si  Si21  1  0.459401  0.209639  0.813956  1
  Si  Si22  1  0.790863  0.539290  0.686192  1
  Si  Si23  1  0.209890  0.459268  0.185961  1
  Si  Si24  1  0.709646  0.040496  0.563935  1
  Si  Si25  1  0.962712  0.288623  0.937505  1
  Si  Si26  1  0.040598  0.709934  0.436155  1
  W  W27  1  0.331816  0.331788  0.999987  1
  W  W28  1  0.159257  0.003547  0.873872  1
  W  W29  1  0.494003  0.665633  0.124961  1
  W  W30  1  0.505778  0.339294  0.624942  1
  W  W31  1  0.665628  0.493891  0.874991  1
  W  W32  1  0.339400  0.505850  0.375153  1
  W  W33  1  0.839086  0.993460  0.374767  1
  W  W34  1  0.003568  0.159322  0.126056  1
  W  W35  1  0.993334  0.839206  0.625323  1
