# generated using pymatgen
data_Dy2Y3(NiTe)2
_symmetry_space_group_name_H-M   'P 1'
_cell_length_a   7.80405242
_cell_length_b   7.80405153
_cell_length_c   14.91160800
_cell_angle_alpha   90.00000000
_cell_angle_beta   90.00000000
_cell_angle_gamma   150.07814698
_symmetry_Int_Tables_number   1
_chemical_formula_structural   Dy2Y3(NiTe)2
_chemical_formula_sum   'Dy4 Y6 Ni4 Te4'
_cell_volume   453.00938698
_cell_formula_units_Z   2
loop_
 _symmetry_equiv_pos_site_id
 _symmetry_equiv_pos_as_xyz
  1  'x, y, z'
loop_
 _atom_site_type_symbol
 _atom_site_label
 _atom_site_symmetry_multiplicity
 _atom_site_fract_x
 _atom_site_fract_y
 _atom_site_fract_z
 _atom_site_occupancy
  Dy  Dy0  1  0.958918  0.041082  0.125754  1
  Dy  Dy1  1  0.041082  0.958918  0.874246  1
  Dy  Dy2  1  0.041082  0.958918  0.625754  1
  Dy  Dy3  1  0.958918  0.041082  0.374246  1
  Y  Y4  1  0.741390  0.258610  0.627149  1
  Y  Y5  1  0.258610  0.741390  0.372851  1
  Y  Y6  1  0.258610  0.741390  0.127149  1
  Y  Y7  1  0.741390  0.258610  0.872851  1
  Y  Y8  1  0.605346  0.394654  0.250000  1
  Y  Y9  1  0.394654  0.605346  0.750000  1
  Ni  Ni10  1  0.412003  0.587997  0.250000  1
  Ni  Ni11  1  0.587997  0.412003  0.750000  1
  Ni  Ni12  1  0.815627  0.184373  0.250000  1
  Ni  Ni13  1  0.184373  0.815627  0.750000  1
  Te  Te14  1  0.614771  0.385229  0.040408  1
  Te  Te15  1  0.385229  0.614771  0.959592  1
  Te  Te16  1  0.385229  0.614771  0.540408  1
  Te  Te17  1  0.614771  0.385229  0.459592  1
