# generated using pymatgen
data_Tb2NdHo3Ta2O14
_symmetry_space_group_name_H-M   'P 1'
_cell_length_a   6.50127537
_cell_length_b   6.50470924
_cell_length_c   7.53469950
_cell_angle_alpha   89.92566941
_cell_angle_beta   90.11146638
_cell_angle_gamma   108.79513926
_symmetry_Int_Tables_number   1
_chemical_formula_structural   Tb2NdHo3Ta2O14
_chemical_formula_sum   'Tb2 Nd1 Ho3 Ta2 O14'
_cell_volume   301.64289202
_cell_formula_units_Z   1
loop_
 _symmetry_equiv_pos_site_id
 _symmetry_equiv_pos_as_xyz
  1  'x, y, z'
loop_
 _atom_site_type_symbol
 _atom_site_label
 _atom_site_symmetry_multiplicity
 _atom_site_fract_x
 _atom_site_fract_y
 _atom_site_fract_z
 _atom_site_occupancy
  Tb  Tb0  1  0.463184  0.462756  0.999548  1
  Tb  Tb1  1  0.999294  0.535233  0.240729  1
  Nd  Nd2  1  0.517852  0.518934  0.500383  1
  Ho  Ho3  1  0.998738  0.465683  0.744687  1
  Ho  Ho4  1  0.534527  0.999956  0.759341  1
  Ho  Ho5  1  0.466331  0.998609  0.255079  1
  Ta  Ta6  1  0.001968  0.001528  0.500415  1
  Ta  Ta7  1  0.997357  0.997297  0.999344  1
  O  O8  1  0.932071  0.066876  0.749645  1
  O  O9  1  0.067217  0.934194  0.250322  1
  O  O10  1  0.360025  0.642816  0.242077  1
  O  O11  1  0.642448  0.356947  0.757575  1
  O  O12  1  0.366185  0.633268  0.757250  1
  O  O13  1  0.629617  0.364220  0.243270  1
  O  O14  1  0.326894  0.079321  0.974368  1
  O  O15  1  0.674698  0.925142  0.473293  1
  O  O16  1  0.312846  0.057263  0.542410  1
  O  O17  1  0.692292  0.951669  0.043075  1
  O  O18  1  0.060894  0.313981  0.460414  1
  O  O19  1  0.949686  0.692104  0.955724  1
  O  O20  1  0.924123  0.675080  0.527791  1
  O  O21  1  0.081757  0.327122  0.023259  1
