# generated using pymatgen
data_DyEr2Ga5Ni
_symmetry_space_group_name_H-M   'P 1'
_cell_length_a   6.84570200
_cell_length_b   6.86932661
_cell_length_c   4.22390100
_cell_angle_alpha   90.00000000
_cell_angle_beta   90.00000000
_cell_angle_gamma   119.88630866
_symmetry_Int_Tables_number   1
_chemical_formula_structural   DyEr2Ga5Ni
_chemical_formula_sum   'Dy1 Er2 Ga5 Ni1'
_cell_volume   172.21577079
_cell_formula_units_Z   1
loop_
 _symmetry_equiv_pos_site_id
 _symmetry_equiv_pos_as_xyz
  1  'x, y, z'
loop_
 _atom_site_type_symbol
 _atom_site_label
 _atom_site_symmetry_multiplicity
 _atom_site_fract_x
 _atom_site_fract_y
 _atom_site_fract_z
 _atom_site_occupancy
  Dy  Dy0  1  0.593918  0.000000  0.500000  1
  Er  Er1  1  0.403928  0.404641  0.500000  1
  Er  Er2  1  0.999286  0.595359  0.500000  1
  Ga  Ga3  1  0.235905  0.000000  0.000000  1
  Ga  Ga4  1  0.000322  0.235989  0.000000  1
  Ga  Ga5  1  0.667283  0.335195  0.000000  1
  Ga  Ga6  1  0.332088  0.664805  0.000000  1
  Ga  Ga7  1  0.764333  0.764011  0.000000  1
  Ni  Ni8  1  0.002936  0.000000  0.500000  1
