# generated using pymatgen
data_Y15TmMgHg3Rh4
_symmetry_space_group_name_H-M   'P 1'
_cell_length_a   9.67730415
_cell_length_b   9.65447840
_cell_length_c   9.65447827
_cell_angle_alpha   59.75406587
_cell_angle_beta   59.81859609
_cell_angle_gamma   59.81859305
_symmetry_Int_Tables_number   1
_chemical_formula_structural   Y15TmMgHg3Rh4
_chemical_formula_sum   'Y15 Tm1 Mg1 Hg3 Rh4'
_cell_volume   634.87975790
_cell_formula_units_Z   1
loop_
 _symmetry_equiv_pos_site_id
 _symmetry_equiv_pos_as_xyz
  1  'x, y, z'
loop_
 _atom_site_type_symbol
 _atom_site_label
 _atom_site_symmetry_multiplicity
 _atom_site_fract_x
 _atom_site_fract_y
 _atom_site_fract_z
 _atom_site_occupancy
  Y  Y0  1  0.601591  0.599161  0.202337  1
  Y  Y1  1  0.601591  0.202337  0.599161  1
  Y  Y2  1  0.190100  0.603791  0.603791  1
  Y  Y3  1  0.057181  0.441305  0.441305  1
  Y  Y4  1  0.436350  0.062274  0.062274  1
  Y  Y5  1  0.438028  0.060420  0.438866  1
  Y  Y6  1  0.058563  0.439853  0.060003  1
  Y  Y7  1  0.438028  0.438866  0.060420  1
  Y  Y8  1  0.058563  0.060003  0.439853  1
  Y  Y9  1  0.187181  0.812562  0.812562  1
  Y  Y10  1  0.812384  0.186328  0.186328  1
  Y  Y11  1  0.811889  0.188726  0.813228  1
  Y  Y12  1  0.185168  0.813050  0.187674  1
  Y  Y13  1  0.811889  0.813228  0.188726  1
  Y  Y14  1  0.185168  0.187674  0.813050  1
  Tm  Tm15  1  0.598699  0.597146  0.597146  1
  Mg  Mg16  1  0.535674  0.820509  0.820509  1
  Hg  Hg17  1  0.832459  0.836425  0.836425  1
  Hg  Hg18  1  0.832354  0.836379  0.493473  1
  Hg  Hg19  1  0.832354  0.493473  0.836379  1
  Rh  Rh20  1  0.389090  0.393996  0.393996  1
  Rh  Rh21  1  0.392051  0.397199  0.820445  1
  Rh  Rh22  1  0.392051  0.820445  0.397199  1
  Rh  Rh23  1  0.821597  0.394852  0.394852  1
