# generated using pymatgen
data_NdSm2Hf(Co4P3)2
_symmetry_space_group_name_H-M   'P 1'
_cell_length_a   3.76017400
_cell_length_b   10.78569400
_cell_length_c   12.52268000
_cell_angle_alpha   90.00000000
_cell_angle_beta   90.00000000
_cell_angle_gamma   90.00000000
_symmetry_Int_Tables_number   1
_chemical_formula_structural   NdSm2Hf(Co4P3)2
_chemical_formula_sum   'Nd2 Sm4 Hf2 Co16 P12'
_cell_volume   507.87088892
_cell_formula_units_Z   2
loop_
 _symmetry_equiv_pos_site_id
 _symmetry_equiv_pos_as_xyz
  1  'x, y, z'
loop_
 _atom_site_type_symbol
 _atom_site_label
 _atom_site_symmetry_multiplicity
 _atom_site_fract_x
 _atom_site_fract_y
 _atom_site_fract_z
 _atom_site_occupancy
  Nd  Nd0  1  0.000000  0.500000  0.528864  1
  Nd  Nd1  1  0.500000  0.000000  0.471136  1
  Sm  Sm2  1  0.500000  0.821207  0.204644  1
  Sm  Sm3  1  0.500000  0.178793  0.204644  1
  Sm  Sm4  1  0.000000  0.678793  0.795356  1
  Sm  Sm5  1  0.000000  0.321207  0.795356  1
  Hf  Hf6  1  0.500000  0.500000  0.154896  1
  Hf  Hf7  1  0.000000  0.000000  0.845104  1
  Co  Co8  1  0.500000  0.500000  0.705888  1
  Co  Co9  1  0.000000  0.000000  0.294112  1
  Co  Co10  1  0.000000  0.500000  0.987376  1
  Co  Co11  1  0.500000  0.000000  0.012624  1
  Co  Co12  1  0.500000  0.331984  0.993811  1
  Co  Co13  1  0.500000  0.668016  0.993811  1
  Co  Co14  1  0.000000  0.168016  0.006189  1
  Co  Co15  1  0.000000  0.831984  0.006189  1
  Co  Co16  1  0.500000  0.295643  0.432397  1
  Co  Co17  1  0.500000  0.704357  0.432397  1
  Co  Co18  1  0.000000  0.204357  0.567603  1
  Co  Co19  1  0.000000  0.795643  0.567603  1
  Co  Co20  1  0.500000  0.879639  0.704235  1
  Co  Co21  1  0.500000  0.120361  0.704235  1
  Co  Co22  1  0.000000  0.620361  0.295765  1
  Co  Co23  1  0.000000  0.379639  0.295765  1
  P  P24  1  0.500000  0.500000  0.886142  1
  P  P25  1  0.000000  0.000000  0.113858  1
  P  P26  1  0.500000  0.500000  0.357388  1
  P  P27  1  0.000000  0.000000  0.642612  1
  P  P28  1  0.500000  0.305741  0.615123  1
  P  P29  1  0.500000  0.694259  0.615123  1
  P  P30  1  0.000000  0.194259  0.384877  1
  P  P31  1  0.000000  0.805741  0.384877  1
  P  P32  1  0.500000  0.839925  0.895424  1
  P  P33  1  0.500000  0.160075  0.895424  1
  P  P34  1  0.000000  0.660075  0.104576  1
  P  P35  1  0.000000  0.339925  0.104576  1
