# generated using pymatgen
data_Nd3PaN4
_symmetry_space_group_name_H-M   'P 1'
_cell_length_a   7.22023107
_cell_length_b   9.54954164
_cell_length_c   6.24995976
_cell_angle_alpha   29.20937516
_cell_angle_beta   54.71654226
_cell_angle_gamma   40.88006070
_symmetry_Int_Tables_number   1
_chemical_formula_structural   Nd3PaN4
_chemical_formula_sum   'Nd3 Pa1 N4'
_cell_volume   132.98467863
_cell_formula_units_Z   1
loop_
 _symmetry_equiv_pos_site_id
 _symmetry_equiv_pos_as_xyz
  1  'x, y, z'
loop_
 _atom_site_type_symbol
 _atom_site_label
 _atom_site_symmetry_multiplicity
 _atom_site_fract_x
 _atom_site_fract_y
 _atom_site_fract_z
 _atom_site_occupancy
  Nd  Nd0  1  0.250000  0.500000  0.000000  1
  Nd  Nd1  1  0.750000  0.500000  0.000000  1
  Nd  Nd2  1  0.500000  0.000000  0.000000  1
  Pa  Pa3  1  0.000000  0.000000  0.000000  1
  N  N4  1  0.500000  0.500000  0.500000  1
  N  N5  1  0.220125  0.000000  0.559749  1
  N  N6  1  0.000000  0.500000  0.500000  1
  N  N7  1  0.779875  0.000000  0.440251  1
