# generated using pymatgen
data_Ba2Cu(IrO3)6
_symmetry_space_group_name_H-M   'P 1'
_cell_length_a   6.92404590
_cell_length_b   7.14922665
_cell_length_c   7.65498396
_cell_angle_alpha   92.63594124
_cell_angle_beta   94.66197304
_cell_angle_gamma   114.90969970
_symmetry_Int_Tables_number   1
_chemical_formula_structural   Ba2Cu(IrO3)6
_chemical_formula_sum   'Ba2 Cu1 Ir6 O18'
_cell_volume   341.19397656
_cell_formula_units_Z   1
loop_
 _symmetry_equiv_pos_site_id
 _symmetry_equiv_pos_as_xyz
  1  'x, y, z'
loop_
 _atom_site_type_symbol
 _atom_site_label
 _atom_site_symmetry_multiplicity
 _atom_site_fract_x
 _atom_site_fract_y
 _atom_site_fract_z
 _atom_site_occupancy
  Ba  Ba0  1  0.311210  0.676080  0.628393  1
  Ba  Ba1  1  0.680884  0.314480  0.377657  1
  Cu  Cu2  1  0.393775  0.269396  0.880924  1
  Ir  Ir3  1  0.802934  0.126478  0.816060  1
  Ir  Ir4  1  0.191653  0.876105  0.180401  1
  Ir  Ir5  1  0.607497  0.720842  0.120579  1
  Ir  Ir6  1  0.992815  0.995252  0.500415  1
  Ir  Ir7  1  0.819728  0.618945  0.808917  1
  Ir  Ir8  1  0.178399  0.377297  0.193275  1
  O  O9  1  0.921716  0.722858  0.581364  1
  O  O10  1  0.289100  0.168771  0.113104  1
  O  O11  1  0.330763  0.517139  0.990006  1
  O  O12  1  0.468320  0.552644  0.313621  1
  O  O13  1  0.485307  0.916315  0.158389  1
  O  O14  1  0.903407  0.401597  0.726516  1
  O  O15  1  0.722114  0.835096  0.891668  1
  O  O16  1  0.913819  0.232518  0.052056  1
  O  O17  1  0.706061  0.515210  0.033980  1
  O  O18  1  0.071350  0.269453  0.416438  1
  O  O19  1  0.076325  0.130457  0.742282  1
  O  O20  1  0.722739  0.995176  0.569715  1
  O  O21  1  0.097625  0.599276  0.271497  1
  O  O22  1  0.902060  0.872549  0.250336  1
  O  O23  1  0.093235  0.772290  0.939527  1
  O  O24  1  0.515105  0.080926  0.817716  1
  O  O25  1  0.264858  0.995677  0.427558  1
  O  O26  1  0.537202  0.447176  0.697606  1
