# generated using pymatgen
data_Na2Ca(B3Ir4)2
_symmetry_space_group_name_H-M   'P 1'
_cell_length_a   9.85213255
_cell_length_b   8.96941855
_cell_length_c   5.67278200
_cell_angle_alpha   81.20108593
_cell_angle_beta   64.11726730
_cell_angle_gamma   34.68164408
_symmetry_Int_Tables_number   1
_chemical_formula_structural   Na2Ca(B3Ir4)2
_chemical_formula_sum   'Na2 Ca1 B6 Ir8'
_cell_volume   234.93574340
_cell_formula_units_Z   1
loop_
 _symmetry_equiv_pos_site_id
 _symmetry_equiv_pos_as_xyz
  1  'x, y, z'
loop_
 _atom_site_type_symbol
 _atom_site_label
 _atom_site_symmetry_multiplicity
 _atom_site_fract_x
 _atom_site_fract_y
 _atom_site_fract_z
 _atom_site_occupancy
  Na  Na0  1  0.318029  0.318029  0.681971  1
  Na  Na1  1  0.681971  0.681971  0.318029  1
  Ca  Ca2  1  0.500000  0.500000  0.500000  1
  B  B3  1  0.670728  0.981769  0.018231  1
  B  B4  1  0.981769  0.670728  0.329272  1
  B  B5  1  0.329272  0.018231  0.981769  1
  B  B6  1  0.018231  0.329272  0.670728  1
  B  B7  1  0.171906  0.828094  0.171906  1
  B  B8  1  0.828094  0.171906  0.828094  1
  Ir  Ir9  1  0.585834  0.585834  0.914166  1
  Ir  Ir10  1  0.912904  0.912904  0.087096  1
  Ir  Ir11  1  0.414166  0.414166  0.085834  1
  Ir  Ir12  1  0.085834  0.085834  0.414166  1
  Ir  Ir13  1  0.914166  0.914166  0.585834  1
  Ir  Ir14  1  0.250000  0.250000  0.250000  1
  Ir  Ir15  1  0.087096  0.087096  0.912904  1
  Ir  Ir16  1  0.750000  0.750000  0.750000  1
