# generated using pymatgen
data_DyEr3(B4Ir)4
_symmetry_space_group_name_H-M   'P 1'
_cell_length_a   3.56380800
_cell_length_b   5.95936582
_cell_length_c   11.56001504
_cell_angle_alpha   89.97483551
_cell_angle_beta   90.00000000
_cell_angle_gamma   90.00000000
_symmetry_Int_Tables_number   1
_chemical_formula_structural   DyEr3(B4Ir)4
_chemical_formula_sum   'Dy1 Er3 B16 Ir4'
_cell_volume   245.51198698
_cell_formula_units_Z   1
loop_
 _symmetry_equiv_pos_site_id
 _symmetry_equiv_pos_as_xyz
  1  'x, y, z'
loop_
 _atom_site_type_symbol
 _atom_site_label
 _atom_site_symmetry_multiplicity
 _atom_site_fract_x
 _atom_site_fract_y
 _atom_site_fract_z
 _atom_site_occupancy
  Dy  Dy0  1  0.000000  0.368304  0.148493  1
  Er  Er1  1  0.000000  0.131541  0.648387  1
  Er  Er2  1  0.000000  0.868697  0.351745  1
  Er  Er3  1  0.000000  0.631395  0.851371  1
  B  B4  1  0.500000  0.475377  0.692653  1
  B  B5  1  0.500000  0.524942  0.307827  1
  B  B6  1  0.500000  0.975586  0.806919  1
  B  B7  1  0.500000  0.023677  0.192990  1
  B  B8  1  0.500000  0.291646  0.811807  1
  B  B9  1  0.500000  0.709527  0.188299  1
  B  B10  1  0.500000  0.791829  0.687925  1
  B  B11  1  0.500000  0.208055  0.312567  1
  B  B12  1  0.500000  0.363931  0.969452  1
  B  B13  1  0.500000  0.636117  0.029670  1
  B  B14  1  0.500000  0.864379  0.530320  1
  B  B15  1  0.500000  0.135531  0.469973  1
  B  B16  1  0.500000  0.387128  0.546773  1
  B  B17  1  0.500000  0.613087  0.453557  1
  B  B18  1  0.500000  0.886967  0.952893  1
  B  B19  1  0.500000  0.111982  0.046314  1
  Ir  Ir20  1  0.000000  0.143617  0.902476  1
  Ir  Ir21  1  0.000000  0.856213  0.096739  1
  Ir  Ir22  1  0.000000  0.644421  0.597166  1
  Ir  Ir23  1  0.000000  0.356052  0.403684  1
