# generated using pymatgen
data_Tm8Ti11Si16Hg
_symmetry_space_group_name_H-M   'P 1'
_cell_length_a   7.03784773
_cell_length_b   7.03784770
_cell_length_c   12.83742205
_cell_angle_alpha   90.11894144
_cell_angle_beta   89.88105614
_cell_angle_gamma   89.66369957
_symmetry_Int_Tables_number   1
_chemical_formula_structural   Tm8Ti11Si16Hg
_chemical_formula_sum   'Tm8 Ti11 Si16 Hg1'
_cell_volume   635.84049930
_cell_formula_units_Z   1
loop_
 _symmetry_equiv_pos_site_id
 _symmetry_equiv_pos_as_xyz
  1  'x, y, z'
loop_
 _atom_site_type_symbol
 _atom_site_label
 _atom_site_symmetry_multiplicity
 _atom_site_fract_x
 _atom_site_fract_y
 _atom_site_fract_z
 _atom_site_occupancy
  Tm  Tm0  1  0.341226  0.001139  0.467009  1
  Tm  Tm1  1  0.498230  0.840630  0.715891  1
  Tm  Tm2  1  0.501728  0.156460  0.215319  1
  Tm  Tm3  1  0.840630  0.498230  0.284109  1
  Tm  Tm4  1  0.156460  0.501728  0.784681  1
  Tm  Tm5  1  0.657314  0.001026  0.968588  1
  Tm  Tm6  1  0.001139  0.341226  0.532991  1
  Tm  Tm7  1  0.001026  0.657314  0.031412  1
  Ti  Ti8  1  0.173628  0.826183  0.250747  1
  Ti  Ti9  1  0.826183  0.173628  0.749253  1
  Ti  Ti10  1  0.672259  0.672259  0.500000  1
  Ti  Ti11  1  0.146214  0.008702  0.876580  1
  Ti  Ti12  1  0.496738  0.649751  0.123000  1
  Ti  Ti13  1  0.505900  0.351976  0.623639  1
  Ti  Ti14  1  0.649751  0.496738  0.877000  1
  Ti  Ti15  1  0.351976  0.505900  0.376361  1
  Ti  Ti16  1  0.850603  0.991192  0.374321  1
  Ti  Ti17  1  0.008702  0.146214  0.123420  1
  Ti  Ti18  1  0.991192  0.850603  0.625679  1
  Si  Si19  1  0.201980  0.133333  0.683069  1
  Si  Si20  1  0.373357  0.725990  0.925736  1
  Si  Si21  1  0.632525  0.292882  0.431475  1
  Si  Si22  1  0.725990  0.373357  0.074264  1
  Si  Si23  1  0.292882  0.632525  0.568525  1
  Si  Si24  1  0.798160  0.865568  0.182296  1
  Si  Si25  1  0.133333  0.201980  0.316931  1
  Si  Si26  1  0.865568  0.798160  0.817704  1
  Si  Si27  1  0.287216  0.933233  0.067382  1
  Si  Si28  1  0.546471  0.791330  0.314699  1
  Si  Si29  1  0.458335  0.205274  0.805526  1
  Si  Si30  1  0.791330  0.546471  0.685301  1
  Si  Si31  1  0.205274  0.458335  0.194474  1
  Si  Si32  1  0.708140  0.047514  0.563760  1
  Si  Si33  1  0.933233  0.287216  0.932618  1
  Si  Si34  1  0.047514  0.708140  0.436240  1
  Hg  Hg35  1  0.327793  0.327793  0.000000  1
