# generated using pymatgen
data_La4MoSe5O24
_symmetry_space_group_name_H-M   'P 1'
_cell_length_a   10.50962475
_cell_length_b   10.45830806
_cell_length_c   10.45831996
_cell_angle_alpha   58.15928940
_cell_angle_beta   57.83998011
_cell_angle_gamma   57.84011527
_symmetry_Int_Tables_number   1
_chemical_formula_structural   La4MoSe5O24
_chemical_formula_sum   'La4 Mo1 Se5 O24'
_cell_volume   774.50541722
_cell_formula_units_Z   1
loop_
 _symmetry_equiv_pos_site_id
 _symmetry_equiv_pos_as_xyz
  1  'x, y, z'
loop_
 _atom_site_type_symbol
 _atom_site_label
 _atom_site_symmetry_multiplicity
 _atom_site_fract_x
 _atom_site_fract_y
 _atom_site_fract_z
 _atom_site_occupancy
  La  La0  1  0.650689  0.644564  0.638184  1
  La  La1  1  0.140767  0.139501  0.146352  1
  La  La2  1  0.849310  0.861819  0.855433  1
  La  La3  1  0.359234  0.353651  0.360495  1
  Mo  Mo4  1  0.249997  0.537407  0.962596  1
  Se  Se5  1  0.462682  0.034432  0.751747  1
  Se  Se6  1  0.037319  0.748252  0.465568  1
  Se  Se7  1  0.966912  0.249179  0.534830  1
  Se  Se8  1  0.533088  0.965171  0.250820  1
  Se  Se9  1  0.750001  0.465116  0.034883  1
  O  O10  1  0.005791  0.774517  0.625477  1
  O  O11  1  0.773648  0.625360  0.005795  1
  O  O12  1  0.423920  0.566064  0.788697  1
  O  O13  1  0.275578  0.505068  0.134780  1
  O  O14  1  0.621578  0.007177  0.774990  1
  O  O15  1  0.494211  0.874523  0.725482  1
  O  O16  1  0.199802  0.586281  0.439208  1
  O  O17  1  0.076075  0.711306  0.933936  1
  O  O18  1  0.300200  0.060791  0.913720  1
  O  O19  1  0.435516  0.197559  0.591541  1
  O  O20  1  0.064482  0.908458  0.302441  1
  O  O21  1  0.878424  0.725005  0.492826  1
  O  O22  1  0.126117  0.273222  0.505733  1
  O  O23  1  0.937222  0.088842  0.696793  1
  O  O24  1  0.562780  0.803209  0.411157  1
  O  O25  1  0.695603  0.937959  0.088745  1
  O  O26  1  0.911196  0.302419  0.062861  1
  O  O27  1  0.804395  0.411253  0.562043  1
  O  O28  1  0.504009  0.125699  0.274627  1
  O  O29  1  0.373883  0.994264  0.226782  1
  O  O30  1  0.726356  0.494201  0.874639  1
  O  O31  1  0.588806  0.437139  0.197581  1
  O  O32  1  0.224419  0.365220  0.994935  1
  O  O33  1  0.995990  0.225371  0.374303  1
