# generated using pymatgen
data_CrCd2(PO4)2
_symmetry_space_group_name_H-M   'P 1'
_cell_length_a   5.01369920
_cell_length_b   5.71963624
_cell_length_c   6.86629890
_cell_angle_alpha   104.98464666
_cell_angle_beta   86.59560350
_cell_angle_gamma   111.38156540
_symmetry_Int_Tables_number   1
_chemical_formula_structural   CrCd2(PO4)2
_chemical_formula_sum   'Cr1 Cd2 P2 O8'
_cell_volume   176.98154764
_cell_formula_units_Z   1
loop_
 _symmetry_equiv_pos_site_id
 _symmetry_equiv_pos_as_xyz
  1  'x, y, z'
loop_
 _atom_site_type_symbol
 _atom_site_label
 _atom_site_symmetry_multiplicity
 _atom_site_fract_x
 _atom_site_fract_y
 _atom_site_fract_z
 _atom_site_occupancy
  Cr  Cr0  1  0.000000  0.000000  0.000000  1
  Cd  Cd1  1  0.704578  0.281810  0.690560  1
  Cd  Cd2  1  0.295422  0.718190  0.309440  1
  P  P3  1  0.368000  0.674366  0.784920  1
  P  P4  1  0.632000  0.325634  0.215080  1
  O  O5  1  0.386199  0.861223  0.649846  1
  O  O6  1  0.613801  0.138777  0.350154  1
  O  O7  1  0.235609  0.771319  0.987611  1
  O  O8  1  0.764391  0.228681  0.012389  1
  O  O9  1  0.325804  0.317901  0.167725  1
  O  O10  1  0.187893  0.391978  0.677409  1
  O  O11  1  0.812107  0.608022  0.322591  1
  O  O12  1  0.674196  0.682099  0.832275  1
