# generated using pymatgen
data_Yb5Pa(Co7C2)2
_symmetry_space_group_name_H-M   'P 1'
_cell_length_a   5.03064400
_cell_length_b   5.03064320
_cell_length_c   13.54071000
_cell_angle_alpha   90.00000000
_cell_angle_beta   90.00000000
_cell_angle_gamma   120.00001841
_symmetry_Int_Tables_number   1
_chemical_formula_structural   Yb5Pa(Co7C2)2
_chemical_formula_sum   'Yb5 Pa1 Co14 C4'
_cell_volume   296.76937973
_cell_formula_units_Z   1
loop_
 _symmetry_equiv_pos_site_id
 _symmetry_equiv_pos_as_xyz
  1  'x, y, z'
loop_
 _atom_site_type_symbol
 _atom_site_label
 _atom_site_symmetry_multiplicity
 _atom_site_fract_x
 _atom_site_fract_y
 _atom_site_fract_z
 _atom_site_occupancy
  Yb  Yb0  1  0.333333  0.666667  0.460353  1
  Yb  Yb1  1  0.333333  0.666667  0.035911  1
  Yb  Yb2  1  0.666667  0.333333  0.755029  1
  Yb  Yb3  1  0.666667  0.333333  0.966236  1
  Yb  Yb4  1  0.333333  0.666667  0.250002  1
  Pa  Pa5  1  0.666667  0.333333  0.532477  1
  Co  Co6  1  0.164755  0.329510  0.652761  1
  Co  Co7  1  0.329449  0.164725  0.346893  1
  Co  Co8  1  0.329720  0.164860  0.155705  1
  Co  Co9  1  0.164881  0.835119  0.844332  1
  Co  Co10  1  0.835275  0.670551  0.346893  1
  Co  Co11  1  0.835140  0.164860  0.155705  1
  Co  Co12  1  0.670490  0.835245  0.652761  1
  Co  Co13  1  0.670238  0.835119  0.844332  1
  Co  Co14  1  0.164755  0.835245  0.652761  1
  Co  Co15  1  0.835140  0.670280  0.155705  1
  Co  Co16  1  0.000000  0.000000  0.000608  1
  Co  Co17  1  0.164881  0.329762  0.844332  1
  Co  Co18  1  0.835275  0.164725  0.346893  1
  Co  Co19  1  0.000000  0.000000  0.499890  1
  C  C20  1  0.666667  0.333333  0.250714  1
  C  C21  1  0.000000  0.000000  0.749805  1
  C  C22  1  0.333333  0.666667  0.750045  1
  C  C23  1  0.000000  0.000000  0.249852  1
