# generated using pymatgen
data_Dy3Bi(OsO4)4
_symmetry_space_group_name_H-M   'P 1'
_cell_length_a   5.41523848
_cell_length_b   7.48392633
_cell_length_c   7.69883141
_cell_angle_alpha   79.51308893
_cell_angle_beta   93.75285645
_cell_angle_gamma   91.02600678
_symmetry_Int_Tables_number   1
_chemical_formula_structural   Dy3Bi(OsO4)4
_chemical_formula_sum   'Dy3 Bi1 Os4 O16'
_cell_volume   306.13714223
_cell_formula_units_Z   1
loop_
 _symmetry_equiv_pos_site_id
 _symmetry_equiv_pos_as_xyz
  1  'x, y, z'
loop_
 _atom_site_type_symbol
 _atom_site_label
 _atom_site_symmetry_multiplicity
 _atom_site_fract_x
 _atom_site_fract_y
 _atom_site_fract_z
 _atom_site_occupancy
  Dy  Dy0  1  0.264809  0.112951  0.619327  1
  Dy  Dy1  1  0.809167  0.397986  0.329116  1
  Dy  Dy2  1  0.195987  0.597530  0.676741  1
  Bi  Bi3  1  0.746554  0.888948  0.382760  1
  Os  Os4  1  0.754849  0.293444  0.836155  1
  Os  Os5  1  0.245938  0.706508  0.162729  1
  Os  Os6  1  0.285753  0.202560  0.165017  1
  Os  Os7  1  0.715768  0.798208  0.835967  1
  O  O8  1  0.942422  0.787347  0.033973  1
  O  O9  1  0.056511  0.209823  0.965787  1
  O  O10  1  0.355608  0.951215  0.171149  1
  O  O11  1  0.618128  0.050087  0.824506  1
  O  O12  1  0.152822  0.447605  0.171096  1
  O  O13  1  0.839973  0.553619  0.821248  1
  O  O14  1  0.593619  0.299446  0.059712  1
  O  O15  1  0.404277  0.702397  0.938356  1
  O  O16  1  0.949529  0.323156  0.615212  1
  O  O17  1  0.058673  0.667627  0.390053  1
  O  O18  1  0.506806  0.184699  0.388838  1
  O  O19  1  0.492767  0.819267  0.610818  1
  O  O20  1  0.547837  0.627854  0.294719  1
  O  O21  1  0.449657  0.367784  0.698568  1
  O  O22  1  0.034470  0.130206  0.344043  1
  O  O23  1  0.978074  0.879733  0.664109  1
