# generated using pymatgen
data_Ac11Nd(Si7I3)2
_symmetry_space_group_name_H-M   'P 1'
_cell_length_a   4.28318800
_cell_length_b   12.73732100
_cell_length_c   17.70656600
_cell_angle_alpha   90.00000000
_cell_angle_beta   90.00000000
_cell_angle_gamma   90.00000000
_symmetry_Int_Tables_number   1
_chemical_formula_structural   Ac11Nd(Si7I3)2
_chemical_formula_sum   'Ac11 Nd1 Si14 I6'
_cell_volume   966.00544306
_cell_formula_units_Z   1
loop_
 _symmetry_equiv_pos_site_id
 _symmetry_equiv_pos_as_xyz
  1  'x, y, z'
loop_
 _atom_site_type_symbol
 _atom_site_label
 _atom_site_symmetry_multiplicity
 _atom_site_fract_x
 _atom_site_fract_y
 _atom_site_fract_z
 _atom_site_occupancy
  Ac  Ac0  1  0.500000  0.354635  0.500000  1
  Ac  Ac1  1  0.000000  0.644760  0.000000  1
  Ac  Ac2  1  0.500000  0.366520  0.754053  1
  Ac  Ac3  1  0.000000  0.634492  0.741313  1
  Ac  Ac4  1  0.500000  0.366520  0.245947  1
  Ac  Ac5  1  0.000000  0.634492  0.258687  1
  Ac  Ac6  1  0.500000  0.078736  0.882372  1
  Ac  Ac7  1  0.000000  0.919685  0.616844  1
  Ac  Ac8  1  0.500000  0.078736  0.117628  1
  Ac  Ac9  1  0.000000  0.919685  0.383156  1
  Ac  Ac10  1  0.500000  0.362952  0.000000  1
  Nd  Nd11  1  0.000000  0.639249  0.500000  1
  Si  Si12  1  0.000000  0.167701  0.000000  1
  Si  Si13  1  0.500000  0.829131  0.500000  1
  Si  Si14  1  0.500000  0.557811  0.876762  1
  Si  Si15  1  0.000000  0.446302  0.618637  1
  Si  Si16  1  0.500000  0.557811  0.123238  1
  Si  Si17  1  0.000000  0.446302  0.381363  1
  Si  Si18  1  0.000000  0.264102  0.877688  1
  Si  Si19  1  0.500000  0.733756  0.618466  1
  Si  Si20  1  0.000000  0.264102  0.122312  1
  Si  Si21  1  0.500000  0.733756  0.381534  1
  Si  Si22  1  0.000000  0.457411  0.874722  1
  Si  Si23  1  0.500000  0.544064  0.619787  1
  Si  Si24  1  0.500000  0.544064  0.380213  1
  Si  Si25  1  0.000000  0.457411  0.125278  1
  I  I26  1  0.500000  0.111312  0.689697  1
  I  I27  1  0.000000  0.887326  0.809120  1
  I  I28  1  0.000000  0.136760  0.500000  1
  I  I29  1  0.500000  0.861776  0.000000  1
  I  I30  1  0.500000  0.111312  0.310303  1
  I  I31  1  0.000000  0.887326  0.190880  1
