# generated using pymatgen
data_Pr2Dy3Pt4
_symmetry_space_group_name_H-M   'P 1'
_cell_length_a   7.60329500
_cell_length_b   7.71312700
_cell_length_c   14.94490900
_cell_angle_alpha   90.00000000
_cell_angle_beta   90.00000000
_cell_angle_gamma   90.00000000
_symmetry_Int_Tables_number   1
_chemical_formula_structural   Pr2Dy3Pt4
_chemical_formula_sum   'Pr8 Dy12 Pt16'
_cell_volume   876.44687769
_cell_formula_units_Z   4
loop_
 _symmetry_equiv_pos_site_id
 _symmetry_equiv_pos_as_xyz
  1  'x, y, z'
loop_
 _atom_site_type_symbol
 _atom_site_label
 _atom_site_symmetry_multiplicity
 _atom_site_fract_x
 _atom_site_fract_y
 _atom_site_fract_z
 _atom_site_occupancy
  Pr  Pr0  1  0.509068  0.324657  0.904255  1
  Pr  Pr1  1  0.009068  0.175343  0.595745  1
  Pr  Pr2  1  0.490932  0.675343  0.404255  1
  Pr  Pr3  1  0.990932  0.824657  0.095745  1
  Pr  Pr4  1  0.490932  0.675343  0.095745  1
  Pr  Pr5  1  0.990932  0.824657  0.404255  1
  Pr  Pr6  1  0.509068  0.324657  0.595745  1
  Pr  Pr7  1  0.009068  0.175343  0.904255  1
  Dy  Dy8  1  0.351048  0.832565  0.877193  1
  Dy  Dy9  1  0.851048  0.667435  0.622807  1
  Dy  Dy10  1  0.648952  0.167435  0.377193  1
  Dy  Dy11  1  0.148952  0.332565  0.122807  1
  Dy  Dy12  1  0.648952  0.167435  0.122807  1
  Dy  Dy13  1  0.148952  0.332565  0.377193  1
  Dy  Dy14  1  0.351048  0.832565  0.622807  1
  Dy  Dy15  1  0.851048  0.667435  0.877193  1
  Dy  Dy16  1  0.190147  0.489389  0.750000  1
  Dy  Dy17  1  0.690147  0.010611  0.750000  1
  Dy  Dy18  1  0.809853  0.510611  0.250000  1
  Dy  Dy19  1  0.309853  0.989389  0.250000  1
  Pt  Pt20  1  0.316618  0.034126  0.043200  1
  Pt  Pt21  1  0.816618  0.465874  0.456800  1
  Pt  Pt22  1  0.683382  0.965874  0.543200  1
  Pt  Pt23  1  0.183382  0.534126  0.956800  1
  Pt  Pt24  1  0.683382  0.965874  0.956800  1
  Pt  Pt25  1  0.183382  0.534126  0.543200  1
  Pt  Pt26  1  0.316618  0.034126  0.456800  1
  Pt  Pt27  1  0.816618  0.465874  0.043200  1
  Pt  Pt28  1  0.558173  0.627160  0.750000  1
  Pt  Pt29  1  0.058173  0.872840  0.750000  1
  Pt  Pt30  1  0.441827  0.372840  0.250000  1
  Pt  Pt31  1  0.941827  0.127160  0.250000  1
  Pt  Pt32  1  0.324442  0.135117  0.750000  1
  Pt  Pt33  1  0.824442  0.364883  0.750000  1
  Pt  Pt34  1  0.675558  0.864883  0.250000  1
  Pt  Pt35  1  0.175558  0.635117  0.250000  1
