# generated using pymatgen
data_Er2Tm8RuRh3
_symmetry_space_group_name_H-M   'P 1'
_cell_length_a   6.36350531
_cell_length_b   7.14515597
_cell_length_c   8.42269417
_cell_angle_alpha   96.63976527
_cell_angle_beta   111.97048669
_cell_angle_gamma   90.02569824
_symmetry_Int_Tables_number   1
_chemical_formula_structural   Er2Tm8RuRh3
_chemical_formula_sum   'Er2 Tm8 Ru1 Rh3'
_cell_volume   352.37344102
_cell_formula_units_Z   1
loop_
 _symmetry_equiv_pos_site_id
 _symmetry_equiv_pos_as_xyz
  1  'x, y, z'
loop_
 _atom_site_type_symbol
 _atom_site_label
 _atom_site_symmetry_multiplicity
 _atom_site_fract_x
 _atom_site_fract_y
 _atom_site_fract_z
 _atom_site_occupancy
  Er  Er0  1  0.791328  0.082537  0.811902  1
  Er  Er1  1  0.977975  0.417675  0.187076  1
  Tm  Tm2  1  0.208383  0.917219  0.182461  1
  Tm  Tm3  1  0.023372  0.583367  0.811715  1
  Tm  Tm4  1  0.210483  0.183228  0.562862  1
  Tm  Tm5  1  0.648203  0.314537  0.437477  1
  Tm  Tm6  1  0.791502  0.814530  0.440816  1
  Tm  Tm7  1  0.348545  0.687720  0.563468  1
  Tm  Tm8  1  0.423746  0.248450  0.998844  1
  Tm  Tm9  1  0.575134  0.750543  0.999732  1
  Ru  Ru10  1  0.176007  0.926060  0.782372  1
  Rh  Rh11  1  0.603312  0.427118  0.778822  1
  Rh  Rh12  1  0.823357  0.073963  0.220903  1
  Rh  Rh13  1  0.398652  0.573053  0.221549  1
