# generated using pymatgen
data_PuHf(As2O7)2
_symmetry_space_group_name_H-M   'P 1'
_cell_length_a   5.56281828
_cell_length_b   5.56046655
_cell_length_c   9.92168600
_cell_angle_alpha   81.38066043
_cell_angle_beta   81.40564531
_cell_angle_gamma   98.62290592
_symmetry_Int_Tables_number   1
_chemical_formula_structural   PuHf(As2O7)2
_chemical_formula_sum   'Pu1 Hf1 As4 O14'
_cell_volume   295.32488420
_cell_formula_units_Z   1
loop_
 _symmetry_equiv_pos_site_id
 _symmetry_equiv_pos_as_xyz
  1  'x, y, z'
loop_
 _atom_site_type_symbol
 _atom_site_label
 _atom_site_symmetry_multiplicity
 _atom_site_fract_x
 _atom_site_fract_y
 _atom_site_fract_z
 _atom_site_occupancy
  Pu  Pu0  1  0.000000  0.000000  0.500000  1
  Hf  Hf1  1  0.000000  0.000000  0.000000  1
  As  As2  1  0.173735  0.449026  0.193938  1
  As  As3  1  0.443958  0.183870  0.707233  1
  As  As4  1  0.556042  0.816130  0.292767  1
  As  As5  1  0.826265  0.550974  0.806062  1
  O  O6  1  0.091788  0.714508  0.124790  1
  O  O7  1  0.776572  0.742398  0.920130  1
  O  O8  1  0.296724  0.986096  0.852646  1
  O  O9  1  0.026567  0.684529  0.657684  1
  O  O10  1  0.467798  0.525508  0.242545  1
  O  O11  1  0.700345  0.081411  0.642938  1
  O  O12  1  0.733753  0.754241  0.413505  1
  O  O13  1  0.266247  0.245759  0.586495  1
  O  O14  1  0.223428  0.257602  0.079870  1
  O  O15  1  0.703276  0.013904  0.147354  1
  O  O16  1  0.908212  0.285492  0.875210  1
  O  O17  1  0.973433  0.315471  0.342316  1
  O  O18  1  0.299655  0.918589  0.357062  1
  O  O19  1  0.532202  0.474492  0.757455  1
