# generated using pymatgen
data_LiScCo3NiP3
_symmetry_space_group_name_H-M   'P 1'
_cell_length_a   3.63076300
_cell_length_b   10.10583100
_cell_length_c   11.94088500
_cell_angle_alpha   90.00000000
_cell_angle_beta   90.00000000
_cell_angle_gamma   90.00000000
_symmetry_Int_Tables_number   1
_chemical_formula_structural   LiScCo3NiP3
_chemical_formula_sum   'Li4 Sc4 Co12 Ni4 P12'
_cell_volume   438.13348702
_cell_formula_units_Z   4
loop_
 _symmetry_equiv_pos_site_id
 _symmetry_equiv_pos_as_xyz
  1  'x, y, z'
loop_
 _atom_site_type_symbol
 _atom_site_label
 _atom_site_symmetry_multiplicity
 _atom_site_fract_x
 _atom_site_fract_y
 _atom_site_fract_z
 _atom_site_occupancy
  Li  Li0  1  0.250000  0.706018  0.992323  1
  Li  Li1  1  0.250000  0.793982  0.492323  1
  Li  Li2  1  0.750000  0.293982  0.007677  1
  Li  Li3  1  0.750000  0.206018  0.507677  1
  Sc  Sc4  1  0.250000  0.578737  0.709108  1
  Sc  Sc5  1  0.250000  0.921263  0.209108  1
  Sc  Sc6  1  0.750000  0.421263  0.290892  1
  Sc  Sc7  1  0.750000  0.078737  0.790892  1
  Co  Co8  1  0.250000  0.218275  0.173947  1
  Co  Co9  1  0.250000  0.281726  0.673947  1
  Co  Co10  1  0.750000  0.781726  0.826053  1
  Co  Co11  1  0.750000  0.718274  0.326053  1
  Co  Co12  1  0.250000  0.879957  0.698938  1
  Co  Co13  1  0.250000  0.620043  0.198938  1
  Co  Co14  1  0.750000  0.120043  0.301062  1
  Co  Co15  1  0.750000  0.379957  0.801062  1
  Co  Co16  1  0.250000  0.465228  0.932572  1
  Co  Co17  1  0.250000  0.034772  0.432572  1
  Co  Co18  1  0.750000  0.534772  0.067428  1
  Co  Co19  1  0.750000  0.965228  0.567428  1
  Ni  Ni20  1  0.250000  0.407219  0.482508  1
  Ni  Ni21  1  0.250000  0.092781  0.982508  1
  Ni  Ni22  1  0.750000  0.592781  0.517492  1
  Ni  Ni23  1  0.750000  0.907219  0.017492  1
  P  P24  1  0.250000  0.422265  0.116104  1
  P  P25  1  0.250000  0.077735  0.616104  1
  P  P26  1  0.750000  0.577735  0.883896  1
  P  P27  1  0.750000  0.922265  0.383896  1
  P  P28  1  0.250000  0.266563  0.857832  1
  P  P29  1  0.250000  0.233437  0.357832  1
  P  P30  1  0.750000  0.733437  0.142168  1
  P  P31  1  0.750000  0.766563  0.642168  1
  P  P32  1  0.250000  0.599691  0.385019  1
  P  P33  1  0.250000  0.900309  0.885019  1
  P  P34  1  0.750000  0.400309  0.614981  1
  P  P35  1  0.750000  0.099691  0.114981  1
