# generated using pymatgen
data_TmMoP3Ir4
_symmetry_space_group_name_H-M   'P 1'
_cell_length_a   4.00398900
_cell_length_b   10.89341800
_cell_length_c   12.45715500
_cell_angle_alpha   90.00000000
_cell_angle_beta   90.00000000
_cell_angle_gamma   90.00000000
_symmetry_Int_Tables_number   1
_chemical_formula_structural   TmMoP3Ir4
_chemical_formula_sum   'Tm4 Mo4 P12 Ir16'
_cell_volume   543.34529730
_cell_formula_units_Z   4
loop_
 _symmetry_equiv_pos_site_id
 _symmetry_equiv_pos_as_xyz
  1  'x, y, z'
loop_
 _atom_site_type_symbol
 _atom_site_label
 _atom_site_symmetry_multiplicity
 _atom_site_fract_x
 _atom_site_fract_y
 _atom_site_fract_z
 _atom_site_occupancy
  Tm  Tm0  1  0.250000  0.583195  0.704199  1
  Tm  Tm1  1  0.250000  0.916805  0.204199  1
  Tm  Tm2  1  0.750000  0.416805  0.295801  1
  Tm  Tm3  1  0.750000  0.083195  0.795801  1
  Mo  Mo4  1  0.250000  0.715429  0.985480  1
  Mo  Mo5  1  0.250000  0.784571  0.485480  1
  Mo  Mo6  1  0.750000  0.284571  0.014520  1
  Mo  Mo7  1  0.750000  0.215429  0.514520  1
  P  P8  1  0.250000  0.420214  0.117952  1
  P  P9  1  0.250000  0.079786  0.617952  1
  P  P10  1  0.750000  0.579786  0.882048  1
  P  P11  1  0.750000  0.920214  0.382048  1
  P  P12  1  0.250000  0.258447  0.869225  1
  P  P13  1  0.250000  0.241553  0.369225  1
  P  P14  1  0.750000  0.741553  0.130775  1
  P  P15  1  0.750000  0.758447  0.630775  1
  P  P16  1  0.250000  0.595783  0.392092  1
  P  P17  1  0.250000  0.904217  0.892092  1
  P  P18  1  0.750000  0.404217  0.607908  1
  P  P19  1  0.750000  0.095783  0.107908  1
  Ir  Ir20  1  0.250000  0.406840  0.484730  1
  Ir  Ir21  1  0.250000  0.093160  0.984730  1
  Ir  Ir22  1  0.750000  0.593160  0.515270  1
  Ir  Ir23  1  0.750000  0.906840  0.015270  1
  Ir  Ir24  1  0.250000  0.230737  0.182476  1
  Ir  Ir25  1  0.250000  0.269263  0.682476  1
  Ir  Ir26  1  0.750000  0.769263  0.817524  1
  Ir  Ir27  1  0.750000  0.730737  0.317524  1
  Ir  Ir28  1  0.250000  0.895113  0.707022  1
  Ir  Ir29  1  0.250000  0.604887  0.207022  1
  Ir  Ir30  1  0.750000  0.104887  0.292978  1
  Ir  Ir31  1  0.750000  0.395113  0.792978  1
  Ir  Ir32  1  0.250000  0.456333  0.935351  1
  Ir  Ir33  1  0.250000  0.043667  0.435351  1
  Ir  Ir34  1  0.750000  0.543667  0.064649  1
  Ir  Ir35  1  0.750000  0.956333  0.564649  1
