# generated using pymatgen
data_HoEr3(Al8Pd3)3
_symmetry_space_group_name_H-M   'P 1'
_cell_length_a   7.53698033
_cell_length_b   7.56403496
_cell_length_c   13.16875000
_cell_angle_alpha   84.58735123
_cell_angle_beta   79.10355830
_cell_angle_gamma   60.01669389
_symmetry_Int_Tables_number   1
_chemical_formula_structural   HoEr3(Al8Pd3)3
_chemical_formula_sum   'Ho1 Er3 Al24 Pd9'
_cell_volume   638.55386885
_cell_formula_units_Z   1
loop_
 _symmetry_equiv_pos_site_id
 _symmetry_equiv_pos_as_xyz
  1  'x, y, z'
loop_
 _atom_site_type_symbol
 _atom_site_label
 _atom_site_symmetry_multiplicity
 _atom_site_fract_x
 _atom_site_fract_y
 _atom_site_fract_z
 _atom_site_occupancy
  Ho  Ho0  1  0.393215  0.168730  0.808676  1
  Er  Er1  1  0.606716  0.831081  0.191611  1
  Er  Er2  1  0.733776  0.498294  0.808310  1
  Er  Er3  1  0.266191  0.501805  0.191704  1
  Al  Al4  1  0.684632  0.833277  0.944829  1
  Al  Al5  1  0.315630  0.166291  0.055795  1
  Al  Al6  1  0.146216  0.833024  0.561475  1
  Al  Al7  1  0.853860  0.166981  0.438391  1
  Al  Al8  1  0.479238  0.166639  0.558938  1
  Al  Al9  1  0.520812  0.833340  0.440821  1
  Al  Al10  1  0.217127  0.165253  0.329273  1
  Al  Al11  1  0.783250  0.834474  0.670387  1
  Al  Al12  1  0.437182  0.506749  0.670493  1
  Al  Al13  1  0.562932  0.493532  0.329169  1
  Al  Al14  1  0.108966  0.159702  0.669473  1
  Al  Al15  1  0.890857  0.840317  0.330169  1
  Al  Al16  1  0.353046  0.499757  0.944955  1
  Al  Al17  1  0.646813  0.500718  0.055332  1
  Al  Al18  1  0.014957  0.167776  0.953861  1
  Al  Al19  1  0.984490  0.832216  0.046519  1
  Al  Al20  1  0.186959  0.499364  0.440732  1
  Al  Al21  1  0.813046  0.500660  0.559151  1
  Al  Al22  1  0.733299  0.163954  0.183584  1
  Al  Al23  1  0.266744  0.835489  0.816362  1
  Al  Al24  1  0.061197  0.631029  0.815206  1
  Al  Al25  1  0.938243  0.369482  0.184765  1
  Al  Al26  1  0.855246  0.042143  0.816029  1
  Al  Al27  1  0.145230  0.957863  0.183962  1
  Pd  Pd28  1  0.120280  0.491737  0.638381  1
  Pd  Pd29  1  0.880195  0.508290  0.361444  1
  Pd  Pd30  1  0.656240  0.172060  0.000126  1
  Pd  Pd31  1  0.343503  0.827931  0.000179  1
  Pd  Pd32  1  0.537581  0.166651  0.361608  1
  Pd  Pd33  1  0.462366  0.833680  0.638158  1
  Pd  Pd34  1  0.777533  0.175134  0.637665  1
  Pd  Pd35  1  0.222313  0.824558  0.362200  1
  Pd  Pd36  1  0.000119  0.500019  0.000264  1
