# generated using pymatgen
data_MnFe3W2
_symmetry_space_group_name_H-M   'P 1'
_cell_length_a   4.71083647
_cell_length_b   4.71083614
_cell_length_c   7.72736400
_cell_angle_alpha   90.00168543
_cell_angle_beta   89.99831681
_cell_angle_gamma   119.86090340
_symmetry_Int_Tables_number   1
_chemical_formula_structural   MnFe3W2
_chemical_formula_sum   'Mn2 Fe6 W4'
_cell_volume   148.71851636
_cell_formula_units_Z   2
loop_
 _symmetry_equiv_pos_site_id
 _symmetry_equiv_pos_as_xyz
  1  'x, y, z'
loop_
 _atom_site_type_symbol
 _atom_site_label
 _atom_site_symmetry_multiplicity
 _atom_site_fract_x
 _atom_site_fract_y
 _atom_site_fract_z
 _atom_site_occupancy
  Mn  Mn0  1  0.000605  0.999395  0.002000  1
  Mn  Mn1  1  0.171441  0.828559  0.249950  1
  Fe  Fe2  1  0.001377  0.998623  0.497376  1
  Fe  Fe3  1  0.342438  0.171116  0.749910  1
  Fe  Fe4  1  0.828884  0.657562  0.749910  1
  Fe  Fe5  1  0.170320  0.347061  0.249943  1
  Fe  Fe6  1  0.652939  0.829680  0.249943  1
  Fe  Fe7  1  0.828928  0.171072  0.750740  1
  W  W8  1  0.334108  0.665892  0.932055  1
  W  W9  1  0.667552  0.332448  0.430624  1
  W  W10  1  0.667000  0.333000  0.068011  1
  W  W11  1  0.334409  0.665591  0.569537  1
