# generated using pymatgen
data_Lu8Al2NiRu
_symmetry_space_group_name_H-M   'P 1'
_cell_length_a   9.28402047
_cell_length_b   9.28402126
_cell_length_c   9.30518700
_cell_angle_alpha   59.92456671
_cell_angle_beta   59.92456391
_cell_angle_gamma   59.98768360
_symmetry_Int_Tables_number   1
_chemical_formula_structural   Lu8Al2NiRu
_chemical_formula_sum   'Lu16 Al4 Ni2 Ru2'
_cell_volume   566.42948504
_cell_formula_units_Z   2
loop_
 _symmetry_equiv_pos_site_id
 _symmetry_equiv_pos_as_xyz
  1  'x, y, z'
loop_
 _atom_site_type_symbol
 _atom_site_label
 _atom_site_symmetry_multiplicity
 _atom_site_fract_x
 _atom_site_fract_y
 _atom_site_fract_z
 _atom_site_occupancy
  Lu  Lu0  1  0.351961  0.351961  0.349124  1
  Lu  Lu1  1  0.351961  0.351961  0.946953  1
  Lu  Lu2  1  0.355080  0.945244  0.349838  1
  Lu  Lu3  1  0.945244  0.355080  0.349838  1
  Lu  Lu4  1  0.807969  0.190611  0.192809  1
  Lu  Lu5  1  0.190611  0.807969  0.808611  1
  Lu  Lu6  1  0.190611  0.807969  0.192809  1
  Lu  Lu7  1  0.807969  0.190611  0.808611  1
  Lu  Lu8  1  0.192405  0.192405  0.807595  1
  Lu  Lu9  1  0.807964  0.807964  0.192036  1
  Lu  Lu10  1  0.937751  0.560142  0.564851  1
  Lu  Lu11  1  0.560142  0.937751  0.937256  1
  Lu  Lu12  1  0.560142  0.937751  0.564851  1
  Lu  Lu13  1  0.937751  0.560142  0.937256  1
  Lu  Lu14  1  0.564543  0.564543  0.935457  1
  Lu  Lu15  1  0.940730  0.940730  0.559270  1
  Al  Al16  1  0.577807  0.577807  0.580078  1
  Al  Al17  1  0.577807  0.577807  0.264307  1
  Al  Al18  1  0.576913  0.264877  0.579105  1
  Al  Al19  1  0.264877  0.576913  0.579105  1
  Ni  Ni20  1  0.141918  0.573467  0.142308  1
  Ni  Ni21  1  0.573467  0.141918  0.142308  1
  Ru  Ru22  1  0.142188  0.142188  0.142918  1
  Ru  Ru23  1  0.142188  0.142188  0.572706  1
