# generated using pymatgen
data_KSr3BiO6
_symmetry_space_group_name_H-M   'P 1'
_cell_length_a   7.16208552
_cell_length_b   7.16208466
_cell_length_c   7.16208486
_cell_angle_alpha   89.45781415
_cell_angle_beta   89.45781540
_cell_angle_gamma   89.45781077
_symmetry_Int_Tables_number   1
_chemical_formula_structural   KSr3BiO6
_chemical_formula_sum   'K2 Sr6 Bi2 O12'
_cell_volume   367.33341992
_cell_formula_units_Z   2
loop_
 _symmetry_equiv_pos_site_id
 _symmetry_equiv_pos_as_xyz
  1  'x, y, z'
loop_
 _atom_site_type_symbol
 _atom_site_label
 _atom_site_symmetry_multiplicity
 _atom_site_fract_x
 _atom_site_fract_y
 _atom_site_fract_z
 _atom_site_occupancy
  K  K0  1  0.250000  0.250000  0.250000  1
  K  K1  1  0.750000  0.750000  0.750000  1
  Sr  Sr2  1  0.401692  0.750000  0.098308  1
  Sr  Sr3  1  0.250000  0.901692  0.598308  1
  Sr  Sr4  1  0.750000  0.098308  0.401692  1
  Sr  Sr5  1  0.598308  0.250000  0.901692  1
  Sr  Sr6  1  0.098308  0.401692  0.750000  1
  Sr  Sr7  1  0.901692  0.598308  0.250000  1
  Bi  Bi8  1  0.000000  0.000000  0.000000  1
  Bi  Bi9  1  0.500000  0.500000  0.500000  1
  O  O10  1  0.434926  0.561041  0.789761  1
  O  O11  1  0.561041  0.789761  0.434926  1
  O  O12  1  0.438959  0.210239  0.565074  1
  O  O13  1  0.289761  0.061041  0.934926  1
  O  O14  1  0.210239  0.565074  0.438959  1
  O  O15  1  0.565074  0.438959  0.210239  1
  O  O16  1  0.061041  0.934926  0.289761  1
  O  O17  1  0.934926  0.289761  0.061041  1
  O  O18  1  0.710239  0.938959  0.065074  1
  O  O19  1  0.789761  0.434926  0.561041  1
  O  O20  1  0.938959  0.065074  0.710239  1
  O  O21  1  0.065074  0.710239  0.938959  1
