# generated using pymatgen
data_CaEu3Ti8O20
_symmetry_space_group_name_H-M   'P 1'
_cell_length_a   5.85955400
_cell_length_b   7.74575120
_cell_length_c   8.76595000
_cell_angle_alpha   89.98692940
_cell_angle_beta   90.00000000
_cell_angle_gamma   90.00000000
_symmetry_Int_Tables_number   1
_chemical_formula_structural   CaEu3Ti8O20
_chemical_formula_sum   'Ca1 Eu3 Ti8 O20'
_cell_volume   397.85707174
_cell_formula_units_Z   1
loop_
 _symmetry_equiv_pos_site_id
 _symmetry_equiv_pos_as_xyz
  1  'x, y, z'
loop_
 _atom_site_type_symbol
 _atom_site_label
 _atom_site_symmetry_multiplicity
 _atom_site_fract_x
 _atom_site_fract_y
 _atom_site_fract_z
 _atom_site_occupancy
  Ca  Ca0  1  0.000000  0.357785  0.668584  1
  Eu  Eu1  1  0.000000  0.635826  0.331939  1
  Eu  Eu2  1  0.000000  0.861568  0.830481  1
  Eu  Eu3  1  0.000000  0.140027  0.169696  1
  Ti  Ti4  1  0.500000  0.116370  0.858266  1
  Ti  Ti5  1  0.500000  0.884478  0.140726  1
  Ti  Ti6  1  0.500000  0.614332  0.641080  1
  Ti  Ti7  1  0.500000  0.384486  0.360772  1
  Ti  Ti8  1  0.242862  0.499857  0.998276  1
  Ti  Ti9  1  0.756729  0.000971  0.500500  1
  Ti  Ti10  1  0.757138  0.499857  0.998276  1
  Ti  Ti11  1  0.243271  0.000971  0.500500  1
  O  O12  1  0.262391  0.902659  0.292550  1
  O  O13  1  0.262055  0.099555  0.707319  1
  O  O14  1  0.737277  0.401990  0.207197  1
  O  O15  1  0.737390  0.598736  0.792903  1
  O  O16  1  0.737945  0.099555  0.707319  1
  O  O17  1  0.737609  0.902659  0.292550  1
  O  O18  1  0.262610  0.598736  0.792903  1
  O  O19  1  0.262723  0.401990  0.207197  1
  O  O20  1  0.500000  0.338245  0.927886  1
  O  O21  1  0.500000  0.662186  0.071010  1
  O  O22  1  0.500000  0.837437  0.571546  1
  O  O23  1  0.500000  0.161804  0.428410  1
  O  O24  1  0.286837  0.000578  0.999988  1
  O  O25  1  0.714172  0.497475  0.501962  1
  O  O26  1  0.713163  0.000578  0.999988  1
  O  O27  1  0.285828  0.497475  0.501962  1
  O  O28  1  0.000000  0.159420  0.449371  1
  O  O29  1  0.000000  0.842226  0.551708  1
  O  O30  1  0.000000  0.657613  0.052746  1
  O  O31  1  0.000000  0.342549  0.944387  1
