# generated using pymatgen
data_Na3Pd(NO3)8
_symmetry_space_group_name_H-M   'P 1'
_cell_length_a   7.96063130
_cell_length_b   7.96063076
_cell_length_c   7.96063000
_cell_angle_alpha   88.79436948
_cell_angle_beta   91.20562324
_cell_angle_gamma   88.79438456
_symmetry_Int_Tables_number   1
_chemical_formula_structural   Na3Pd(NO3)8
_chemical_formula_sum   'Na3 Pd1 N8 O24'
_cell_volume   504.13841406
_cell_formula_units_Z   1
loop_
 _symmetry_equiv_pos_site_id
 _symmetry_equiv_pos_as_xyz
  1  'x, y, z'
loop_
 _atom_site_type_symbol
 _atom_site_label
 _atom_site_symmetry_multiplicity
 _atom_site_fract_x
 _atom_site_fract_y
 _atom_site_fract_z
 _atom_site_occupancy
  Na  Na0  1  0.500000  0.500000  0.000000  1
  Na  Na1  1  0.500000  0.000000  0.500000  1
  Na  Na2  1  0.000000  0.000000  0.000000  1
  Pd  Pd3  1  0.000000  0.500000  0.500000  1
  N  N4  1  0.308487  0.356907  0.328451  1
  N  N5  1  0.333308  0.166692  0.833308  1
  N  N6  1  0.171549  0.808487  0.356907  1
  N  N7  1  0.856907  0.328451  0.191513  1
  N  N8  1  0.691513  0.643093  0.671549  1
  N  N9  1  0.143093  0.671549  0.808487  1
  N  N10  1  0.828451  0.191513  0.643093  1
  N  N11  1  0.666692  0.833308  0.166692  1
  O  O12  1  0.743449  0.323463  0.082556  1
  O  O13  1  0.176537  0.917444  0.243449  1
  O  O14  1  0.274428  0.792015  0.474620  1
  O  O15  1  0.236330  0.189906  0.953712  1
  O  O16  1  0.206264  0.343421  0.457469  1
  O  O17  1  0.417444  0.243449  0.323463  1
  O  O18  1  0.292015  0.474620  0.225572  1
  O  O19  1  0.156579  0.542531  0.706264  1
  O  O20  1  0.957469  0.293736  0.656579  1
  O  O21  1  0.689906  0.953712  0.263670  1
  O  O22  1  0.025380  0.774428  0.792015  1
  O  O23  1  0.546288  0.736330  0.189906  1
  O  O24  1  0.823463  0.082556  0.756551  1
  O  O25  1  0.725572  0.207985  0.525380  1
  O  O26  1  0.763670  0.810094  0.046288  1
  O  O27  1  0.256551  0.676537  0.917444  1
  O  O28  1  0.793736  0.656579  0.542531  1
  O  O29  1  0.582556  0.756551  0.676537  1
  O  O30  1  0.707985  0.525380  0.774428  1
  O  O31  1  0.843421  0.457469  0.293736  1
  O  O32  1  0.042531  0.706264  0.343421  1
  O  O33  1  0.310094  0.046288  0.736330  1
  O  O34  1  0.974620  0.225572  0.207985  1
  O  O35  1  0.453712  0.263670  0.810094  1
