# generated using pymatgen
data_Pd2O2F9
_symmetry_space_group_name_H-M   'P 1'
_cell_length_a   5.19182963
_cell_length_b   5.43529035
_cell_length_c   8.02628993
_cell_angle_alpha   89.11341294
_cell_angle_beta   108.16394960
_cell_angle_gamma   117.01245217
_symmetry_Int_Tables_number   1
_chemical_formula_structural   Pd2O2F9
_chemical_formula_sum   'Pd2 O2 F9'
_cell_volume   189.59092508
_cell_formula_units_Z   1
loop_
 _symmetry_equiv_pos_site_id
 _symmetry_equiv_pos_as_xyz
  1  'x, y, z'
loop_
 _atom_site_type_symbol
 _atom_site_label
 _atom_site_symmetry_multiplicity
 _atom_site_fract_x
 _atom_site_fract_y
 _atom_site_fract_z
 _atom_site_occupancy
  Pd  Pd0  1  0.069686  0.678360  0.627500  1
  Pd  Pd1  1  0.231071  0.247572  0.353339  1
  O  O2  1  0.591198  0.394029  0.913357  1
  O  O3  1  0.632348  0.345041  0.060181  1
  F  F4  1  0.380998  0.014510  0.294773  1
  F  F5  1  0.427031  0.512533  0.216243  1
  F  F6  1  0.500516  0.904821  0.699105  1
  F  F7  1  0.870901  0.067358  0.146961  1
  F  F8  1  0.067992  0.853497  0.829718  1
  F  F9  1  0.053231  0.492343  0.404309  1
  F  F10  1  0.997065  0.970274  0.490025  1
  F  F11  1  0.116771  0.400750  0.761543  1
  F  F12  1  0.603616  0.440661  0.572297  1
