# generated using pymatgen
data_Tb7Ce(Si4W3)4
_symmetry_space_group_name_H-M   'P 1'
_cell_length_a   6.79906537
_cell_length_b   6.95069411
_cell_length_c   12.96442215
_cell_angle_alpha   89.93653229
_cell_angle_beta   89.99676101
_cell_angle_gamma   90.04349100
_symmetry_Int_Tables_number   1
_chemical_formula_structural   Tb7Ce(Si4W3)4
_chemical_formula_sum   'Tb7 Ce1 Si16 W12'
_cell_volume   612.67500760
_cell_formula_units_Z   1
loop_
 _symmetry_equiv_pos_site_id
 _symmetry_equiv_pos_as_xyz
  1  'x, y, z'
loop_
 _atom_site_type_symbol
 _atom_site_label
 _atom_site_symmetry_multiplicity
 _atom_site_fract_x
 _atom_site_fract_y
 _atom_site_fract_z
 _atom_site_occupancy
  Tb  Tb0  1  0.495605  0.667775  0.593386  1
  Tb  Tb1  1  0.995625  0.833389  0.906725  1
  Tb  Tb2  1  0.504162  0.333073  0.093841  1
  Tb  Tb3  1  0.004486  0.166263  0.406456  1
  Tb  Tb4  1  0.503497  0.332395  0.405936  1
  Tb  Tb5  1  0.003751  0.167604  0.093974  1
  Tb  Tb6  1  0.496179  0.667159  0.906674  1
  Ce  Ce7  1  0.996813  0.831425  0.594016  1
  Si  Si8  1  0.660368  0.956985  0.453085  1
  Si  Si9  1  0.160701  0.543037  0.046779  1
  Si  Si10  1  0.339593  0.042865  0.953044  1
  Si  Si11  1  0.837665  0.454106  0.546256  1
  Si  Si12  1  0.339918  0.044378  0.546009  1
  Si  Si13  1  0.840099  0.457471  0.952969  1
  Si  Si14  1  0.660545  0.957146  0.046702  1
  Si  Si15  1  0.161895  0.542515  0.453052  1
  Si  Si16  1  0.463256  0.369487  0.749583  1
  Si  Si17  1  0.962995  0.131117  0.750249  1
  Si  Si18  1  0.536854  0.630568  0.249808  1
  Si  Si19  1  0.037122  0.869270  0.249798  1
  Si  Si20  1  0.695107  0.869452  0.750773  1
  Si  Si21  1  0.196959  0.630510  0.750964  1
  Si  Si22  1  0.303834  0.131703  0.249938  1
  Si  Si23  1  0.803564  0.368168  0.250277  1
  W  W24  1  0.666272  0.162894  0.626491  1
  W  W25  1  0.166961  0.335026  0.874362  1
  W  W26  1  0.333041  0.836026  0.125302  1
  W  W27  1  0.833242  0.664480  0.374634  1
  W  W28  1  0.334082  0.836494  0.373978  1
  W  W29  1  0.833549  0.664289  0.125498  1
  W  W30  1  0.666553  0.165246  0.874684  1
  W  W31  1  0.166837  0.337473  0.626201  1
  W  W32  1  0.834129  0.499719  0.748940  1
  W  W33  1  0.333714  0.001133  0.748909  1
  W  W34  1  0.165350  0.501852  0.250605  1
  W  W35  1  0.665678  0.997506  0.250101  1
