# generated using pymatgen
data_Y18Ho2Cd6OsPd
_symmetry_space_group_name_H-M   'P 1'
_cell_length_a   9.69480113
_cell_length_b   9.69326771
_cell_length_c   9.86343848
_cell_angle_alpha   89.99999922
_cell_angle_beta   89.94565056
_cell_angle_gamma   119.99476696
_symmetry_Int_Tables_number   1
_chemical_formula_structural   Y18Ho2Cd6OsPd
_chemical_formula_sum   'Y18 Ho2 Cd6 Os1 Pd1'
_cell_volume   802.76923815
_cell_formula_units_Z   1
loop_
 _symmetry_equiv_pos_site_id
 _symmetry_equiv_pos_as_xyz
  1  'x, y, z'
loop_
 _atom_site_type_symbol
 _atom_site_label
 _atom_site_symmetry_multiplicity
 _atom_site_fract_x
 _atom_site_fract_y
 _atom_site_fract_z
 _atom_site_occupancy
  Y  Y0  1  0.580765  0.790383  0.939706  1
  Y  Y1  1  0.792523  0.207902  0.057604  1
  Y  Y2  1  0.792523  0.584621  0.057604  1
  Y  Y3  1  0.415391  0.207695  0.057509  1
  Y  Y4  1  0.792247  0.207768  0.442367  1
  Y  Y5  1  0.792247  0.584477  0.442367  1
  Y  Y6  1  0.415459  0.207729  0.442380  1
  Y  Y7  1  0.209498  0.790520  0.560611  1
  Y  Y8  1  0.209498  0.418979  0.560611  1
  Y  Y9  1  0.580879  0.790440  0.560459  1
  Y  Y10  1  0.539985  0.459724  0.750168  1
  Y  Y11  1  0.539985  0.080261  0.750168  1
  Y  Y12  1  0.920042  0.460021  0.750337  1
  Y  Y13  1  0.456764  0.543051  0.249783  1
  Y  Y14  1  0.456764  0.913713  0.249783  1
  Y  Y15  1  0.086413  0.543206  0.249478  1
  Y  Y16  1  0.000342  0.000171  0.000438  1
  Y  Y17  1  0.999989  0.999995  0.499431  1
  Ho  Ho18  1  0.209928  0.789782  0.939034  1
  Ho  Ho19  1  0.209928  0.420147  0.939034  1
  Cd  Cd20  1  0.884884  0.115144  0.750007  1
  Cd  Cd21  1  0.884884  0.769741  0.750007  1
  Cd  Cd22  1  0.230239  0.115120  0.749977  1
  Cd  Cd23  1  0.115160  0.884798  0.250014  1
  Cd  Cd24  1  0.115160  0.230361  0.250014  1
  Cd  Cd25  1  0.769611  0.884805  0.250006  1
  Os  Os26  1  0.332262  0.666131  0.751208  1
  Pd  Pd27  1  0.666631  0.333315  0.249894  1
