# generated using pymatgen
data_Nd2Si2NiRh3
_symmetry_space_group_name_H-M   'P 1'
_cell_length_a   8.98769687
_cell_length_b   8.98769775
_cell_length_c   4.09458000
_cell_angle_alpha   90.00000000
_cell_angle_beta   90.00000000
_cell_angle_gamma   153.64152184
_symmetry_Int_Tables_number   1
_chemical_formula_structural   Nd2Si2NiRh3
_chemical_formula_sum   'Nd2 Si2 Ni1 Rh3'
_cell_volume   146.85051025
_cell_formula_units_Z   1
loop_
 _symmetry_equiv_pos_site_id
 _symmetry_equiv_pos_as_xyz
  1  'x, y, z'
loop_
 _atom_site_type_symbol
 _atom_site_label
 _atom_site_symmetry_multiplicity
 _atom_site_fract_x
 _atom_site_fract_y
 _atom_site_fract_z
 _atom_site_occupancy
  Nd  Nd0  1  0.098590  0.901410  0.750000  1
  Nd  Nd1  1  0.901548  0.098452  0.250000  1
  Si  Si2  1  0.322130  0.677870  0.750000  1
  Si  Si3  1  0.675929  0.324071  0.250000  1
  Ni  Ni4  1  0.545102  0.454898  0.250000  1
  Rh  Rh5  1  0.458791  0.541209  0.750000  1
  Rh  Rh6  1  0.248412  0.751588  0.250000  1
  Rh  Rh7  1  0.749498  0.250502  0.750000  1
