# generated using pymatgen
data_Cs2NaSc6F21
_symmetry_space_group_name_H-M   'P 1'
_cell_length_a   7.89213342
_cell_length_b   7.89213374
_cell_length_c   11.26029582
_cell_angle_alpha   69.49775300
_cell_angle_beta   69.49775455
_cell_angle_gamma   60.02876358
_symmetry_Int_Tables_number   1
_chemical_formula_structural   Cs2NaSc6F21
_chemical_formula_sum   'Cs2 Na1 Sc6 F21'
_cell_volume   555.64812207
_cell_formula_units_Z   1
loop_
 _symmetry_equiv_pos_site_id
 _symmetry_equiv_pos_as_xyz
  1  'x, y, z'
loop_
 _atom_site_type_symbol
 _atom_site_label
 _atom_site_symmetry_multiplicity
 _atom_site_fract_x
 _atom_site_fract_y
 _atom_site_fract_z
 _atom_site_occupancy
  Cs  Cs0  1  0.131047  0.144813  0.588257  1
  Cs  Cs1  1  0.855187  0.868953  0.411743  1
  Na  Na2  1  0.523276  0.476724  0.500000  1
  Sc  Sc3  1  0.454875  0.910754  0.200538  1
  Sc  Sc4  1  0.089246  0.545125  0.799462  1
  Sc  Sc5  1  0.955627  0.414313  0.195862  1
  Sc  Sc6  1  0.456969  0.412155  0.197862  1
  Sc  Sc7  1  0.587845  0.543031  0.802138  1
  Sc  Sc8  1  0.585687  0.044373  0.804138  1
  F  F9  1  0.677493  0.564196  0.613056  1
  F  F10  1  0.435804  0.322507  0.386944  1
  F  F11  1  0.161934  0.481686  0.217816  1
  F  F12  1  0.518314  0.838066  0.782184  1
  F  F13  1  0.871624  0.463939  0.815599  1
  F  F14  1  0.514970  0.955717  0.001936  1
  F  F15  1  0.752640  0.343531  0.174043  1
  F  F16  1  0.156609  0.589620  0.608710  1
  F  F17  1  0.878473  0.835096  0.798409  1
  F  F18  1  0.748872  0.705981  0.192737  1
  F  F19  1  0.656469  0.247360  0.825957  1
  F  F20  1  0.491491  0.508509  0.000000  1
  F  F21  1  0.862885  0.350427  0.384935  1
  F  F22  1  0.303260  0.629315  0.787068  1
  F  F23  1  0.410380  0.843391  0.391290  1
  F  F24  1  0.294019  0.251128  0.807263  1
  F  F25  1  0.536061  0.128376  0.184401  1
  F  F26  1  0.370685  0.696740  0.212932  1
  F  F27  1  0.164904  0.121527  0.201591  1
  F  F28  1  0.044283  0.485030  0.998064  1
  F  F29  1  0.649573  0.137115  0.615065  1
