# generated using pymatgen
data_Er8Lu4ZnCo4Sn
_symmetry_space_group_name_H-M   'P 1'
_cell_length_a   8.21841970
_cell_length_b   8.21842037
_cell_length_c   8.21842056
_cell_angle_alpha   111.47822893
_cell_angle_beta   110.00924992
_cell_angle_gamma   106.95858939
_symmetry_Int_Tables_number   1
_chemical_formula_structural   Er8Lu4ZnCo4Sn
_chemical_formula_sum   'Er8 Lu4 Zn1 Co4 Sn1'
_cell_volume   426.62363957
_cell_formula_units_Z   1
loop_
 _symmetry_equiv_pos_site_id
 _symmetry_equiv_pos_as_xyz
  1  'x, y, z'
loop_
 _atom_site_type_symbol
 _atom_site_label
 _atom_site_symmetry_multiplicity
 _atom_site_fract_x
 _atom_site_fract_y
 _atom_site_fract_z
 _atom_site_occupancy
  Er  Er0  1  0.429005  0.223289  0.205716  1
  Er  Er1  1  0.570995  0.776711  0.794284  1
  Er  Er2  1  0.017574  0.223289  0.794284  1
  Er  Er3  1  0.982426  0.776711  0.205716  1
  Er  Er4  1  0.185153  0.286430  0.471582  1
  Er  Er5  1  0.814847  0.713570  0.528418  1
  Er  Er6  1  0.185153  0.713570  0.898723  1
  Er  Er7  1  0.814847  0.286430  0.101277  1
  Lu  Lu8  1  0.315499  0.620274  0.304774  1
  Lu  Lu9  1  0.684501  0.379727  0.695226  1
  Lu  Lu10  1  0.315499  0.010723  0.695226  1
  Lu  Lu11  1  0.684501  0.989277  0.304774  1
  Zn  Zn12  1  0.000000  0.000000  0.000000  1
  Co  Co13  1  0.114131  0.614131  0.500000  1
  Co  Co14  1  0.885870  0.385870  0.500000  1
  Co  Co15  1  0.376522  0.000000  0.376522  1
  Co  Co16  1  0.623478  0.000000  0.623478  1
  Sn  Sn17  1  0.500000  0.500000  0.000000  1
