# generated using pymatgen
data_YTa3Mn2(B2Ru5)2
_symmetry_space_group_name_H-M   'P 1'
_cell_length_a   9.35682206
_cell_length_b   9.35682206
_cell_length_c   3.02856400
_cell_angle_alpha   90.00000000
_cell_angle_beta   90.00000000
_cell_angle_gamma   90.54302719
_symmetry_Int_Tables_number   1
_chemical_formula_structural   YTa3Mn2(B2Ru5)2
_chemical_formula_sum   'Y1 Ta3 Mn2 B4 Ru10'
_cell_volume   265.13923023
_cell_formula_units_Z   1
loop_
 _symmetry_equiv_pos_site_id
 _symmetry_equiv_pos_as_xyz
  1  'x, y, z'
loop_
 _atom_site_type_symbol
 _atom_site_label
 _atom_site_symmetry_multiplicity
 _atom_site_fract_x
 _atom_site_fract_y
 _atom_site_fract_z
 _atom_site_occupancy
  Y  Y0  1  0.823320  0.676680  0.000000  1
  Ta  Ta1  1  0.178803  0.321197  0.000000  1
  Ta  Ta2  1  0.323923  0.823021  0.000000  1
  Ta  Ta3  1  0.676979  0.176077  0.000000  1
  Mn  Mn4  1  0.501484  0.501224  0.000000  1
  Mn  Mn5  1  0.998776  0.998516  0.000000  1
  B  B6  1  0.620374  0.879626  0.000000  1
  B  B7  1  0.374398  0.125602  0.000000  1
  B  B8  1  0.126742  0.622851  0.000000  1
  B  B9  1  0.877149  0.373258  0.000000  1
  Ru  Ru10  1  0.556108  0.720869  0.500000  1
  Ru  Ru11  1  0.426886  0.287467  0.500000  1
  Ru  Ru12  1  0.084285  0.787271  0.500000  1
  Ru  Ru13  1  0.931978  0.211304  0.500000  1
  Ru  Ru14  1  0.288696  0.568022  0.500000  1
  Ru  Ru15  1  0.712729  0.415715  0.500000  1
  Ru  Ru16  1  0.212533  0.073114  0.500000  1
  Ru  Ru17  1  0.779131  0.943892  0.500000  1
  Ru  Ru18  1  0.496163  0.003837  0.500000  1
  Ru  Ru19  1  0.009542  0.490458  0.500000  1
