# generated using pymatgen
data_Rb20Hf3SnAs12
_symmetry_space_group_name_H-M   'P 1'
_cell_length_a   8.85151292
_cell_length_b   9.49460438
_cell_length_c   18.39981955
_cell_angle_alpha   60.41877039
_cell_angle_beta   89.98043338
_cell_angle_gamma   90.08340581
_symmetry_Int_Tables_number   1
_chemical_formula_structural   Rb20Hf3SnAs12
_chemical_formula_sum   'Rb20 Hf3 Sn1 As12'
_cell_volume   1344.79166833
_cell_formula_units_Z   1
loop_
 _symmetry_equiv_pos_site_id
 _symmetry_equiv_pos_as_xyz
  1  'x, y, z'
loop_
 _atom_site_type_symbol
 _atom_site_label
 _atom_site_symmetry_multiplicity
 _atom_site_fract_x
 _atom_site_fract_y
 _atom_site_fract_z
 _atom_site_occupancy
  Rb  Rb0  1  0.171421  0.847462  0.738408  1
  Rb  Rb1  1  0.674334  0.154831  0.760857  1
  Rb  Rb2  1  0.825703  0.157610  0.257399  1
  Rb  Rb3  1  0.327678  0.836531  0.243015  1
  Rb  Rb4  1  0.161428  0.164468  0.420850  1
  Rb  Rb5  1  0.665139  0.845928  0.080857  1
  Rb  Rb6  1  0.836205  0.838250  0.581000  1
  Rb  Rb7  1  0.338798  0.158824  0.915879  1
  Rb  Rb8  1  0.010374  0.086940  0.090423  1
  Rb  Rb9  1  0.510931  0.916308  0.410181  1
  Rb  Rb10  1  0.991859  0.910445  0.913069  1
  Rb  Rb11  1  0.494763  0.086055  0.591115  1
  Rb  Rb12  1  0.505304  0.277610  0.073892  1
  Rb  Rb13  1  0.016261  0.728517  0.420535  1
  Rb  Rb14  1  0.479514  0.727237  0.921946  1
  Rb  Rb15  1  0.984163  0.274948  0.578789  1
  Rb  Rb16  1  0.971917  0.542949  0.249944  1
  Rb  Rb17  1  0.475546  0.455175  0.242287  1
  Rb  Rb18  1  0.021973  0.456463  0.744570  1
  Rb  Rb19  1  0.527411  0.545725  0.755754  1
  Hf  Hf20  1  0.373039  0.495343  0.579408  1
  Hf  Hf21  1  0.874490  0.505587  0.923519  1
  Hf  Hf22  1  0.629179  0.504694  0.421340  1
  Sn  Sn23  1  0.128114  0.490825  0.079173  1
  As  As24  1  0.328595  0.484234  0.438874  1
  As  As25  1  0.816693  0.517303  0.063379  1
  As  As26  1  0.673852  0.514957  0.562792  1
  As  As27  1  0.176694  0.479780  0.934394  1
  As  As28  1  0.207589  0.213967  0.217325  1
  As  As29  1  0.707172  0.772122  0.287160  1
  As  As30  1  0.795197  0.772538  0.788921  1
  As  As31  1  0.294368  0.226799  0.713334  1
  As  As32  1  0.251324  0.755621  0.075840  1
  As  As33  1  0.751066  0.250355  0.423936  1
  As  As34  1  0.751223  0.252764  0.924159  1
  As  As35  1  0.250684  0.750837  0.575680  1
