# generated using pymatgen
data_Nb4Al3V3GaNi
_symmetry_space_group_name_H-M   'P 1'
_cell_length_a   4.94783625
_cell_length_b   4.94774291
_cell_length_c   8.48496802
_cell_angle_alpha   90.06766412
_cell_angle_beta   90.06772487
_cell_angle_gamma   61.84973168
_symmetry_Int_Tables_number   1
_chemical_formula_structural   Nb4Al3V3GaNi
_chemical_formula_sum   'Nb4 Al3 V3 Ga1 Ni1'
_cell_volume   183.14692278
_cell_formula_units_Z   1
loop_
 _symmetry_equiv_pos_site_id
 _symmetry_equiv_pos_as_xyz
  1  'x, y, z'
loop_
 _atom_site_type_symbol
 _atom_site_label
 _atom_site_symmetry_multiplicity
 _atom_site_fract_x
 _atom_site_fract_y
 _atom_site_fract_z
 _atom_site_occupancy
  Nb  Nb0  1  0.337278  0.337271  0.558402  1
  Nb  Nb1  1  0.661986  0.662005  0.438675  1
  Nb  Nb2  1  0.661662  0.661679  0.061970  1
  Nb  Nb3  1  0.336865  0.336857  0.941583  1
  Al  Al4  1  0.991999  0.991948  0.995401  1
  Al  Al5  1  0.837977  0.352324  0.749834  1
  Al  Al6  1  0.352338  0.837979  0.749834  1
  V  V7  1  0.167676  0.652359  0.250035  1
  V  V8  1  0.652341  0.167695  0.250036  1
  V  V9  1  0.168389  0.168442  0.250413  1
  Ga  Ga10  1  0.992449  0.992403  0.503526  1
  Ni  Ni11  1  0.839039  0.839040  0.750290  1
