# generated using pymatgen
data_Lu8Tc3B24Rh
_symmetry_space_group_name_H-M   'P 1'
_cell_length_a   3.61274900
_cell_length_b   9.04674609
_cell_length_c   11.40764435
_cell_angle_alpha   90.12119207
_cell_angle_beta   90.00000000
_cell_angle_gamma   90.00000000
_symmetry_Int_Tables_number   1
_chemical_formula_structural   Lu8Tc3B24Rh
_chemical_formula_sum   'Lu8 Tc3 B24 Rh1'
_cell_volume   372.84231165
_cell_formula_units_Z   1
loop_
 _symmetry_equiv_pos_site_id
 _symmetry_equiv_pos_as_xyz
  1  'x, y, z'
loop_
 _atom_site_type_symbol
 _atom_site_label
 _atom_site_symmetry_multiplicity
 _atom_site_fract_x
 _atom_site_fract_y
 _atom_site_fract_z
 _atom_site_occupancy
  Lu  Lu0  1  0.500000  0.317012  0.415982  1
  Lu  Lu1  1  0.500000  0.678989  0.591497  1
  Lu  Lu2  1  0.500000  0.177939  0.912767  1
  Lu  Lu3  1  0.500000  0.826938  0.080758  1
  Lu  Lu4  1  0.500000  0.440357  0.128503  1
  Lu  Lu5  1  0.500000  0.557311  0.871177  1
  Lu  Lu6  1  0.500000  0.056254  0.629407  1
  Lu  Lu7  1  0.500000  0.943801  0.370082  1
  Tc  Tc8  1  0.500000  0.138372  0.180433  1
  Tc  Tc9  1  0.500000  0.861733  0.820485  1
  Tc  Tc10  1  0.500000  0.362747  0.677845  1
  B  B11  1  0.000000  0.100407  0.471740  1
  B  B12  1  0.000000  0.896396  0.527861  1
  B  B13  1  0.000000  0.398387  0.972189  1
  B  B14  1  0.000000  0.602806  0.028910  1
  B  B15  1  0.000000  0.130098  0.316068  1
  B  B16  1  0.000000  0.869233  0.684377  1
  B  B17  1  0.000000  0.370072  0.815296  1
  B  B18  1  0.000000  0.631007  0.183093  1
  B  B19  1  0.000000  0.053319  0.065909  1
  B  B20  1  0.000000  0.947706  0.933271  1
  B  B21  1  0.000000  0.446770  0.565722  1
  B  B22  1  0.000000  0.553617  0.434515  1
  B  B23  1  0.000000  0.481441  0.287905  1
  B  B24  1  0.000000  0.519663  0.712242  1
  B  B25  1  0.000000  0.019222  0.787162  1
  B  B26  1  0.000000  0.981045  0.211974  1
  B  B27  1  0.000000  0.250098  0.080458  1
  B  B28  1  0.000000  0.750906  0.919655  1
  B  B29  1  0.000000  0.249347  0.580231  1
  B  B30  1  0.000000  0.749713  0.420964  1
  B  B31  1  0.000000  0.292548  0.236142  1
  B  B32  1  0.000000  0.707689  0.765042  1
  B  B33  1  0.000000  0.207841  0.735007  1
  B  B34  1  0.000000  0.791642  0.264187  1
  Rh  Rh35  1  0.500000  0.637573  0.321148  1
