# generated using pymatgen
data_Y16In6CuAu
_symmetry_space_group_name_H-M   'P 1'
_cell_length_a   10.62222300
_cell_length_b   10.62222415
_cell_length_c   6.91007400
_cell_angle_alpha   90.00000000
_cell_angle_beta   90.00000000
_cell_angle_gamma   119.99999954
_symmetry_Int_Tables_number   1
_chemical_formula_structural   Y16In6CuAu
_chemical_formula_sum   'Y16 In6 Cu1 Au1'
_cell_volume   675.21830626
_cell_formula_units_Z   1
loop_
 _symmetry_equiv_pos_site_id
 _symmetry_equiv_pos_as_xyz
  1  'x, y, z'
loop_
 _atom_site_type_symbol
 _atom_site_label
 _atom_site_symmetry_multiplicity
 _atom_site_fract_x
 _atom_site_fract_y
 _atom_site_fract_z
 _atom_site_occupancy
  Y  Y0  1  0.472805  0.527195  0.475847  1
  Y  Y1  1  0.054390  0.527195  0.475847  1
  Y  Y2  1  0.472805  0.945610  0.475847  1
  Y  Y3  1  0.524678  0.475322  0.976679  1
  Y  Y4  1  0.950643  0.475322  0.976679  1
  Y  Y5  1  0.524678  0.049357  0.976679  1
  Y  Y6  1  0.827622  0.172378  0.264386  1
  Y  Y7  1  0.344755  0.172378  0.264386  1
  Y  Y8  1  0.827622  0.655245  0.264386  1
  Y  Y9  1  0.174717  0.825283  0.765170  1
  Y  Y10  1  0.650565  0.825283  0.765170  1
  Y  Y11  1  0.174717  0.349435  0.765170  1
  Y  Y12  1  0.333333  0.666667  0.108068  1
  Y  Y13  1  0.666667  0.333333  0.620655  1
  Y  Y14  1  0.000000  0.000000  0.502577  1
  Y  Y15  1  0.000000  0.000000  0.998187  1
  In  In16  1  0.164593  0.835407  0.243023  1
  In  In17  1  0.670812  0.835407  0.243023  1
  In  In18  1  0.164593  0.329188  0.243023  1
  In  In19  1  0.837240  0.162760  0.741731  1
  In  In20  1  0.325520  0.162760  0.741731  1
  In  In21  1  0.837240  0.674480  0.741731  1
  Cu  Cu22  1  0.333333  0.666667  0.705956  1
  Au  Au23  1  0.666667  0.333333  0.208605  1
