# generated using pymatgen
data_Nd4Ho12Cd4OsPd3
_symmetry_space_group_name_H-M   'P 1'
_cell_length_a   9.74926352
_cell_length_b   9.73731739
_cell_length_c   9.73731811
_cell_angle_alpha   59.77018984
_cell_angle_beta   59.68731419
_cell_angle_gamma   59.68730714
_symmetry_Int_Tables_number   1
_chemical_formula_structural   Nd4Ho12Cd4OsPd3
_chemical_formula_sum   'Nd4 Ho12 Cd4 Os1 Pd3'
_cell_volume   649.40236868
_cell_formula_units_Z   1
loop_
 _symmetry_equiv_pos_site_id
 _symmetry_equiv_pos_as_xyz
  1  'x, y, z'
loop_
 _atom_site_type_symbol
 _atom_site_label
 _atom_site_symmetry_multiplicity
 _atom_site_fract_x
 _atom_site_fract_y
 _atom_site_fract_z
 _atom_site_occupancy
  Nd  Nd0  1  0.566537  0.934089  0.566547  1
  Nd  Nd1  1  0.938336  0.558414  0.936457  1
  Nd  Nd2  1  0.566537  0.566547  0.934089  1
  Nd  Nd3  1  0.938336  0.936457  0.558414  1
  Ho  Ho4  1  0.353311  0.352580  0.352580  1
  Ho  Ho5  1  0.348620  0.350104  0.949446  1
  Ho  Ho6  1  0.348620  0.949446  0.350104  1
  Ho  Ho7  1  0.947402  0.349320  0.349320  1
  Ho  Ho8  1  0.819332  0.185738  0.185738  1
  Ho  Ho9  1  0.186146  0.811967  0.811967  1
  Ho  Ho10  1  0.187488  0.817660  0.187296  1
  Ho  Ho11  1  0.811499  0.184140  0.811569  1
  Ho  Ho12  1  0.187488  0.187296  0.817660  1
  Ho  Ho13  1  0.811499  0.811569  0.184140  1
  Ho  Ho14  1  0.939000  0.559883  0.559883  1
  Ho  Ho15  1  0.551436  0.943156  0.943156  1
  Cd  Cd16  1  0.583126  0.577568  0.577568  1
  Cd  Cd17  1  0.577801  0.583549  0.257567  1
  Cd  Cd18  1  0.577801  0.257567  0.583549  1
  Cd  Cd19  1  0.257402  0.578899  0.578899  1
  Os  Os20  1  0.146448  0.142186  0.142186  1
  Pd  Pd21  1  0.142889  0.147516  0.570567  1
  Pd  Pd22  1  0.142889  0.570567  0.147516  1
  Pd  Pd23  1  0.570061  0.143782  0.143782  1
