# generated using pymatgen
data_Tb16Er4Ir7Rh5
_symmetry_space_group_name_H-M   'P 1'
_cell_length_a   10.90506438
_cell_length_b   10.90509638
_cell_length_c   6.39289700
_cell_angle_alpha   89.99984045
_cell_angle_beta   89.99944893
_cell_angle_gamma   89.96983127
_symmetry_Int_Tables_number   1
_chemical_formula_structural   Tb16Er4Ir7Rh5
_chemical_formula_sum   'Tb16 Er4 Ir7 Rh5'
_cell_volume   760.24817982
_cell_formula_units_Z   1
loop_
 _symmetry_equiv_pos_site_id
 _symmetry_equiv_pos_as_xyz
  1  'x, y, z'
loop_
 _atom_site_type_symbol
 _atom_site_label
 _atom_site_symmetry_multiplicity
 _atom_site_fract_x
 _atom_site_fract_y
 _atom_site_fract_z
 _atom_site_occupancy
  Tb  Tb0  1  0.289547  0.088380  0.379183  1
  Tb  Tb1  1  0.289719  0.911566  0.878787  1
  Tb  Tb2  1  0.709682  0.088021  0.878213  1
  Tb  Tb3  1  0.709810  0.910276  0.379383  1
  Tb  Tb4  1  0.588399  0.789618  0.879180  1
  Tb  Tb5  1  0.587127  0.210526  0.379153  1
  Tb  Tb6  1  0.411407  0.789672  0.379093  1
  Tb  Tb7  1  0.411554  0.210266  0.878998  1
  Tb  Tb8  1  0.210364  0.411603  0.620804  1
  Tb  Tb9  1  0.210322  0.588585  0.120917  1
  Tb  Tb10  1  0.789469  0.412861  0.120857  1
  Tb  Tb11  1  0.789733  0.588436  0.621011  1
  Tb  Tb12  1  0.911617  0.710449  0.120794  1
  Tb  Tb13  1  0.911961  0.290314  0.621788  1
  Tb  Tb14  1  0.088430  0.710279  0.621192  1
  Tb  Tb15  1  0.089714  0.290188  0.120618  1
  Er  Er16  1  0.000248  0.999704  0.500098  1
  Er  Er17  1  0.000317  0.999772  0.999928  1
  Er  Er18  1  0.499986  0.499956  0.999956  1
  Er  Er19  1  0.500097  0.500033  0.500068  1
  Ir  Ir20  1  0.847414  0.847945  0.749935  1
  Ir  Ir21  1  0.152060  0.152575  0.750071  1
  Ir  Ir22  1  0.152562  0.847447  0.250008  1
  Ir  Ir23  1  0.653082  0.346925  0.749984  1
  Ir  Ir24  1  0.652713  0.652525  0.249912  1
  Ir  Ir25  1  0.347495  0.347272  0.250097  1
  Ir  Ir26  1  0.347414  0.652577  0.749994  1
  Rh  Rh27  1  0.847345  0.152645  0.250001  1
  Rh  Rh28  1  0.500503  0.000210  0.121682  1
  Rh  Rh29  1  0.500285  0.000183  0.621297  1
  Rh  Rh30  1  0.999824  0.499667  0.878667  1
  Rh  Rh31  1  0.999801  0.499524  0.378329  1
