# generated using pymatgen
data_Li3Er12Th4MgCo4
_symmetry_space_group_name_H-M   'P 1'
_cell_length_a   9.51548392
_cell_length_b   9.51854997
_cell_length_c   9.51855000
_cell_angle_alpha   60.00000684
_cell_angle_beta   59.98934744
_cell_angle_gamma   59.98934904
_symmetry_Int_Tables_number   1
_chemical_formula_structural   Li3Er12Th4MgCo4
_chemical_formula_sum   'Li3 Er12 Th4 Mg1 Co4'
_cell_volume   609.51942866
_cell_formula_units_Z   1
loop_
 _symmetry_equiv_pos_site_id
 _symmetry_equiv_pos_as_xyz
  1  'x, y, z'
loop_
 _atom_site_type_symbol
 _atom_site_label
 _atom_site_symmetry_multiplicity
 _atom_site_fract_x
 _atom_site_fract_y
 _atom_site_fract_z
 _atom_site_occupancy
  Li  Li0  1  0.829848  0.829373  0.829373  1
  Li  Li1  1  0.829848  0.829373  0.511407  1
  Li  Li2  1  0.829848  0.511407  0.829373  1
  Er  Er3  1  0.066156  0.433888  0.433888  1
  Er  Er4  1  0.433785  0.065427  0.065427  1
  Er  Er5  1  0.433785  0.065427  0.435362  1
  Er  Er6  1  0.066156  0.433888  0.066067  1
  Er  Er7  1  0.433785  0.435362  0.065427  1
  Er  Er8  1  0.066156  0.066067  0.433888  1
  Er  Er9  1  0.183751  0.815431  0.815431  1
  Er  Er10  1  0.815583  0.184541  0.184541  1
  Er  Er11  1  0.815583  0.184541  0.815334  1
  Er  Er12  1  0.183751  0.815431  0.185386  1
  Er  Er13  1  0.815583  0.815334  0.184541  1
  Er  Er14  1  0.183751  0.185386  0.815431  1
  Th  Th15  1  0.595917  0.596324  0.596324  1
  Th  Th16  1  0.595917  0.596324  0.211435  1
  Th  Th17  1  0.595917  0.211435  0.596324  1
  Th  Th18  1  0.211812  0.596063  0.596063  1
  Mg  Mg19  1  0.511771  0.829410  0.829410  1
  Co  Co20  1  0.395028  0.394540  0.394540  1
  Co  Co21  1  0.395028  0.394540  0.815893  1
  Co  Co22  1  0.395028  0.815893  0.394540  1
  Co  Co23  1  0.816218  0.394594  0.394594  1
