# generated using pymatgen
data_Er2Lu8In8IrPt3
_symmetry_space_group_name_H-M   'P 1'
_cell_length_a   3.57356400
_cell_length_b   8.05123851
_cell_length_c   18.03569505
_cell_angle_alpha   89.98393211
_cell_angle_beta   90.00000000
_cell_angle_gamma   90.00000000
_symmetry_Int_Tables_number   1
_chemical_formula_structural   Er2Lu8In8IrPt3
_chemical_formula_sum   'Er2 Lu8 In8 Ir1 Pt3'
_cell_volume   518.91607371
_cell_formula_units_Z   1
loop_
 _symmetry_equiv_pos_site_id
 _symmetry_equiv_pos_as_xyz
  1  'x, y, z'
loop_
 _atom_site_type_symbol
 _atom_site_label
 _atom_site_symmetry_multiplicity
 _atom_site_fract_x
 _atom_site_fract_y
 _atom_site_fract_z
 _atom_site_occupancy
  Er  Er0  1  0.000000  0.999993  0.000253  1
  Er  Er1  1  0.000000  0.500588  0.499665  1
  Lu  Lu2  1  0.000000  0.115241  0.412109  1
  Lu  Lu3  1  0.000000  0.883136  0.585760  1
  Lu  Lu4  1  0.000000  0.383543  0.914231  1
  Lu  Lu5  1  0.000000  0.616872  0.086652  1
  Lu  Lu6  1  0.000000  0.237243  0.222224  1
  Lu  Lu7  1  0.000000  0.757340  0.779213  1
  Lu  Lu8  1  0.000000  0.256925  0.721147  1
  Lu  Lu9  1  0.000000  0.750437  0.279305  1
  In  In10  1  0.500000  0.422034  0.350915  1
  In  In11  1  0.500000  0.577336  0.648808  1
  In  In12  1  0.500000  0.077440  0.851433  1
  In  In13  1  0.500000  0.925137  0.149376  1
  In  In14  1  0.500000  0.293567  0.066385  1
  In  In15  1  0.500000  0.706689  0.933660  1
  In  In16  1  0.500000  0.206656  0.566360  1
  In  In17  1  0.500000  0.794290  0.432251  1
  Ir  Ir18  1  0.500000  0.022372  0.304063  1
  Pt  Pt19  1  0.500000  0.974921  0.696260  1
  Pt  Pt20  1  0.500000  0.475104  0.803909  1
  Pt  Pt21  1  0.500000  0.523137  0.196022  1
