# generated using pymatgen
data_AcSBr
_symmetry_space_group_name_H-M   'P 1'
_cell_length_a   7.38946800
_cell_length_b   7.29632586
_cell_length_c   7.54309011
_cell_angle_alpha   79.96560860
_cell_angle_beta   90.00000000
_cell_angle_gamma   90.00000000
_symmetry_Int_Tables_number   1
_chemical_formula_structural   AcSBr
_chemical_formula_sum   'Ac4 S4 Br4'
_cell_volume   400.47195060
_cell_formula_units_Z   4
loop_
 _symmetry_equiv_pos_site_id
 _symmetry_equiv_pos_as_xyz
  1  'x, y, z'
loop_
 _atom_site_type_symbol
 _atom_site_label
 _atom_site_symmetry_multiplicity
 _atom_site_fract_x
 _atom_site_fract_y
 _atom_site_fract_z
 _atom_site_occupancy
  Ac  Ac0  1  0.969649  0.790216  0.314532  1
  Ac  Ac1  1  0.030351  0.209784  0.685468  1
  Ac  Ac2  1  0.469649  0.709784  0.685468  1
  Ac  Ac3  1  0.530351  0.290216  0.314532  1
  S  S4  1  0.744390  0.991592  0.542700  1
  S  S5  1  0.255610  0.008408  0.457300  1
  S  S6  1  0.244390  0.508408  0.457300  1
  S  S7  1  0.755610  0.491592  0.542700  1
  Br  Br8  1  0.616398  0.707572  0.085427  1
  Br  Br9  1  0.383602  0.292428  0.914573  1
  Br  Br10  1  0.116398  0.792428  0.914573  1
  Br  Br11  1  0.883602  0.207572  0.085427  1
