# generated using pymatgen
data_Zr6Sc3CoRe4
_symmetry_space_group_name_H-M   'P 1'
_cell_length_a   8.74825200
_cell_length_b   8.74825109
_cell_length_c   8.41762500
_cell_angle_alpha   90.00000000
_cell_angle_beta   90.00000000
_cell_angle_gamma   119.99999587
_symmetry_Int_Tables_number   1
_chemical_formula_structural   Zr6Sc3CoRe4
_chemical_formula_sum   'Zr12 Sc6 Co2 Re8'
_cell_volume   557.90820494
_cell_formula_units_Z   2
loop_
 _symmetry_equiv_pos_site_id
 _symmetry_equiv_pos_as_xyz
  1  'x, y, z'
loop_
 _atom_site_type_symbol
 _atom_site_label
 _atom_site_symmetry_multiplicity
 _atom_site_fract_x
 _atom_site_fract_y
 _atom_site_fract_z
 _atom_site_occupancy
  Zr  Zr0  1  0.199234  0.800766  0.441885  1
  Zr  Zr1  1  0.199234  0.398469  0.441885  1
  Zr  Zr2  1  0.601531  0.800766  0.441885  1
  Zr  Zr3  1  0.800766  0.199234  0.558115  1
  Zr  Zr4  1  0.800766  0.601531  0.558115  1
  Zr  Zr5  1  0.398469  0.199234  0.558115  1
  Zr  Zr6  1  0.800766  0.199234  0.941885  1
  Zr  Zr7  1  0.800766  0.601531  0.941885  1
  Zr  Zr8  1  0.398469  0.199234  0.941885  1
  Zr  Zr9  1  0.199234  0.800766  0.058115  1
  Zr  Zr10  1  0.199234  0.398469  0.058115  1
  Zr  Zr11  1  0.601531  0.800766  0.058115  1
  Sc  Sc12  1  0.541880  0.458120  0.250000  1
  Sc  Sc13  1  0.541880  0.083762  0.250000  1
  Sc  Sc14  1  0.916238  0.458120  0.250000  1
  Sc  Sc15  1  0.458120  0.541880  0.750000  1
  Sc  Sc16  1  0.458120  0.916238  0.750000  1
  Sc  Sc17  1  0.083762  0.541880  0.750000  1
  Co  Co18  1  0.333333  0.666667  0.250000  1
  Co  Co19  1  0.666667  0.333333  0.750000  1
  Re  Re20  1  0.891928  0.108072  0.250000  1
  Re  Re21  1  0.891928  0.783856  0.250000  1
  Re  Re22  1  0.216144  0.108072  0.250000  1
  Re  Re23  1  0.108072  0.891928  0.750000  1
  Re  Re24  1  0.108072  0.216144  0.750000  1
  Re  Re25  1  0.783856  0.891928  0.750000  1
  Re  Re26  1  0.000000  0.000000  0.500000  1
  Re  Re27  1  0.000000  0.000000  0.000000  1
