# generated using pymatgen
data_Re24W5
_symmetry_space_group_name_H-M   'P 1'
_cell_length_a   8.35996128
_cell_length_b   8.35996174
_cell_length_c   8.35996100
_cell_angle_alpha   109.47122127
_cell_angle_beta   109.47122237
_cell_angle_gamma   109.47122122
_symmetry_Int_Tables_number   1
_chemical_formula_structural   Re24W5
_chemical_formula_sum   'Re24 W5'
_cell_volume   449.77043123
_cell_formula_units_Z   1
loop_
 _symmetry_equiv_pos_site_id
 _symmetry_equiv_pos_as_xyz
  1  'x, y, z'
loop_
 _atom_site_type_symbol
 _atom_site_label
 _atom_site_symmetry_multiplicity
 _atom_site_fract_x
 _atom_site_fract_y
 _atom_site_fract_z
 _atom_site_occupancy
  Re  Re0  1  0.315053  0.315053  0.716433  1
  Re  Re1  1  0.401380  0.684947  0.000000  1
  Re  Re2  1  0.684947  0.401380  0.000000  1
  Re  Re3  1  0.598620  0.283567  0.598620  1
  Re  Re4  1  0.401380  0.000000  0.684947  1
  Re  Re5  1  0.000000  0.401380  0.684947  1
  Re  Re6  1  0.283567  0.598620  0.598620  1
  Re  Re7  1  0.716433  0.315053  0.315053  1
  Re  Re8  1  0.315053  0.716433  0.315053  1
  Re  Re9  1  0.684947  0.000000  0.401380  1
  Re  Re10  1  0.000000  0.684947  0.401380  1
  Re  Re11  1  0.598620  0.598620  0.283567  1
  Re  Re12  1  0.806813  0.806813  0.182667  1
  Re  Re13  1  0.375855  0.193187  0.000000  1
  Re  Re14  1  0.193187  0.375855  0.000000  1
  Re  Re15  1  0.624145  0.817333  0.624145  1
  Re  Re16  1  0.375855  0.000000  0.193187  1
  Re  Re17  1  0.000000  0.375855  0.193187  1
  Re  Re18  1  0.817333  0.624145  0.624145  1
  Re  Re19  1  0.182667  0.806813  0.806813  1
  Re  Re20  1  0.806813  0.182667  0.806813  1
  Re  Re21  1  0.193187  0.000000  0.375855  1
  Re  Re22  1  0.000000  0.193187  0.375855  1
  Re  Re23  1  0.624145  0.624145  0.817333  1
  W  W24  1  0.000000  0.000000  0.000000  1
  W  W25  1  0.000000  0.000000  0.641091  1
  W  W26  1  0.641091  0.000000  0.000000  1
  W  W27  1  0.000000  0.641091  0.000000  1
  W  W28  1  0.358909  0.358909  0.358909  1
