# generated using pymatgen
data_HoEr5Mn16(CoP6)2
_symmetry_space_group_name_H-M   'P 1'
_cell_length_a   3.61899400
_cell_length_b   10.83209700
_cell_length_c   12.58923200
_cell_angle_alpha   90.00000000
_cell_angle_beta   90.00000000
_cell_angle_gamma   90.00000000
_symmetry_Int_Tables_number   1
_chemical_formula_structural   HoEr5Mn16(CoP6)2
_chemical_formula_sum   'Ho1 Er5 Mn16 Co2 P12'
_cell_volume   493.51418550
_cell_formula_units_Z   1
loop_
 _symmetry_equiv_pos_site_id
 _symmetry_equiv_pos_as_xyz
  1  'x, y, z'
loop_
 _atom_site_type_symbol
 _atom_site_label
 _atom_site_symmetry_multiplicity
 _atom_site_fract_x
 _atom_site_fract_y
 _atom_site_fract_z
 _atom_site_occupancy
  Ho  Ho0  1  0.500000  0.000000  0.468600  1
  Er  Er1  1  0.000000  0.500000  0.531452  1
  Er  Er2  1  0.500000  0.822798  0.206836  1
  Er  Er3  1  0.500000  0.177202  0.206836  1
  Er  Er4  1  0.000000  0.677059  0.793132  1
  Er  Er5  1  0.000000  0.322941  0.793132  1
  Mn  Mn6  1  0.000000  0.500000  0.991783  1
  Mn  Mn7  1  0.500000  0.000000  0.008171  1
  Mn  Mn8  1  0.500000  0.298393  0.432341  1
  Mn  Mn9  1  0.500000  0.701607  0.432341  1
  Mn  Mn10  1  0.000000  0.201945  0.567739  1
  Mn  Mn11  1  0.000000  0.798055  0.567739  1
  Mn  Mn12  1  0.500000  0.880816  0.703073  1
  Mn  Mn13  1  0.500000  0.119184  0.703073  1
  Mn  Mn14  1  0.000000  0.619009  0.296952  1
  Mn  Mn15  1  0.000000  0.380991  0.296952  1
  Mn  Mn16  1  0.500000  0.332836  0.996532  1
  Mn  Mn17  1  0.500000  0.667164  0.996532  1
  Mn  Mn18  1  0.000000  0.167296  0.003516  1
  Mn  Mn19  1  0.000000  0.832704  0.003516  1
  Mn  Mn20  1  0.500000  0.500000  0.165050  1
  Mn  Mn21  1  0.000000  0.000000  0.834984  1
  Co  Co22  1  0.500000  0.500000  0.704734  1
  Co  Co23  1  0.000000  0.000000  0.294972  1
  P  P24  1  0.500000  0.318680  0.618943  1
  P  P25  1  0.500000  0.681320  0.618943  1
  P  P26  1  0.000000  0.181721  0.380902  1
  P  P27  1  0.000000  0.818279  0.380902  1
  P  P28  1  0.500000  0.500000  0.879530  1
  P  P29  1  0.000000  0.000000  0.120466  1
  P  P30  1  0.500000  0.844786  0.884910  1
  P  P31  1  0.500000  0.155214  0.884910  1
  P  P32  1  0.000000  0.655093  0.115040  1
  P  P33  1  0.000000  0.344907  0.115040  1
  P  P34  1  0.500000  0.500000  0.358988  1
  P  P35  1  0.000000  0.000000  0.641439  1
