# generated using pymatgen
data_Tm2Lu(CoSi)2
_symmetry_space_group_name_H-M   'P 1'
_cell_length_a   5.44529977
_cell_length_b   7.51510244
_cell_length_c   12.39639526
_cell_angle_alpha   89.99504527
_cell_angle_beta   90.10488890
_cell_angle_gamma   90.10974962
_symmetry_Int_Tables_number   1
_chemical_formula_structural   Tm2Lu(CoSi)2
_chemical_formula_sum   'Tm8 Lu4 Co8 Si8'
_cell_volume   507.28332517
_cell_formula_units_Z   4
loop_
 _symmetry_equiv_pos_site_id
 _symmetry_equiv_pos_as_xyz
  1  'x, y, z'
loop_
 _atom_site_type_symbol
 _atom_site_label
 _atom_site_symmetry_multiplicity
 _atom_site_fract_x
 _atom_site_fract_y
 _atom_site_fract_z
 _atom_site_occupancy
  Tm  Tm0  1  0.628964  0.252782  0.250131  1
  Tm  Tm1  1  0.370849  0.747440  0.749738  1
  Tm  Tm2  1  0.370863  0.753116  0.249836  1
  Tm  Tm3  1  0.629020  0.246705  0.750201  1
  Tm  Tm4  1  0.141497  0.395154  0.101326  1
  Tm  Tm5  1  0.858893  0.604986  0.898586  1
  Tm  Tm6  1  0.858840  0.604122  0.601310  1
  Tm  Tm7  1  0.858826  0.895771  0.398882  1
  Lu  Lu8  1  0.141885  0.395101  0.398263  1
  Lu  Lu9  1  0.141943  0.105039  0.601551  1
  Lu  Lu10  1  0.142063  0.104012  0.898571  1
  Lu  Lu11  1  0.858221  0.895694  0.101534  1
  Co  Co12  1  0.364929  0.029182  0.087148  1
  Co  Co13  1  0.635684  0.970957  0.912928  1
  Co  Co14  1  0.634264  0.971389  0.587606  1
  Co  Co15  1  0.633866  0.529069  0.412241  1
  Co  Co16  1  0.364121  0.030037  0.413086  1
  Co  Co17  1  0.364458  0.469503  0.587089  1
  Co  Co18  1  0.365756  0.470140  0.912444  1
  Co  Co19  1  0.634848  0.529797  0.087481  1
  Si  Si20  1  0.148494  0.102303  0.250018  1
  Si  Si21  1  0.851793  0.898444  0.749947  1
  Si  Si22  1  0.851434  0.602484  0.250007  1
  Si  Si23  1  0.148948  0.396756  0.750156  1
  Si  Si24  1  0.614704  0.250087  0.000029  1
  Si  Si25  1  0.385736  0.749913  0.999909  1
  Si  Si26  1  0.384919  0.750000  0.500007  1
  Si  Si27  1  0.614181  0.250018  0.499976  1
