# generated using pymatgen
data_LaEuCuSi4Pt3
_symmetry_space_group_name_H-M   'P 1'
_cell_length_a   4.29949600
_cell_length_b   4.29304300
_cell_length_c   9.85794900
_cell_angle_alpha   90.00000000
_cell_angle_beta   90.00000000
_cell_angle_gamma   90.00000000
_symmetry_Int_Tables_number   1
_chemical_formula_structural   LaEuCuSi4Pt3
_chemical_formula_sum   'La1 Eu1 Cu1 Si4 Pt3'
_cell_volume   181.95724590
_cell_formula_units_Z   1
loop_
 _symmetry_equiv_pos_site_id
 _symmetry_equiv_pos_as_xyz
  1  'x, y, z'
loop_
 _atom_site_type_symbol
 _atom_site_label
 _atom_site_symmetry_multiplicity
 _atom_site_fract_x
 _atom_site_fract_y
 _atom_site_fract_z
 _atom_site_occupancy
  La  La0  1  0.500000  0.000000  0.750623  1
  Eu  Eu1  1  0.000000  0.500000  0.250173  1
  Cu  Cu2  1  0.000000  0.000000  0.999821  1
  Si  Si3  1  0.000000  0.000000  0.498437  1
  Si  Si4  1  0.500000  0.500000  0.498935  1
  Si  Si5  1  0.000000  0.500000  0.872370  1
  Si  Si6  1  0.500000  0.000000  0.129377  1
  Pt  Pt7  1  0.500000  0.500000  0.001856  1
  Pt  Pt8  1  0.000000  0.500000  0.620079  1
  Pt  Pt9  1  0.500000  0.000000  0.378330  1
