# generated using pymatgen
data_PrNdB8Ru7
_symmetry_space_group_name_H-M   'P 1'
_cell_length_a   6.47604500
_cell_length_b   6.47602300
_cell_length_c   10.11198800
_cell_angle_alpha   90.00000000
_cell_angle_beta   90.00000000
_cell_angle_gamma   90.00014156
_symmetry_Int_Tables_number   1
_chemical_formula_structural   PrNdB8Ru7
_chemical_formula_sum   'Pr2 Nd2 B16 Ru14'
_cell_volume   424.08683025
_cell_formula_units_Z   2
loop_
 _symmetry_equiv_pos_site_id
 _symmetry_equiv_pos_as_xyz
  1  'x, y, z'
loop_
 _atom_site_type_symbol
 _atom_site_label
 _atom_site_symmetry_multiplicity
 _atom_site_fract_x
 _atom_site_fract_y
 _atom_site_fract_z
 _atom_site_occupancy
  Pr  Pr0  1  0.735569  0.878071  0.000000  1
  Pr  Pr1  1  0.121933  0.735541  0.500000  1
  Nd  Nd2  1  0.877242  0.264194  0.500000  1
  Nd  Nd3  1  0.264223  0.122764  0.000000  1
  B  B4  1  0.500064  0.000022  0.589011  1
  B  B5  1  0.500064  0.000022  0.410989  1
  B  B6  1  0.897443  0.275208  0.169281  1
  B  B7  1  0.102686  0.724795  0.830672  1
  B  B8  1  0.500013  0.499985  0.341050  1
  B  B9  1  0.499980  0.499979  0.841050  1
  B  B10  1  0.275227  0.102685  0.669317  1
  B  B11  1  0.102686  0.724795  0.169328  1
  B  B12  1  0.275227  0.102685  0.330683  1
  B  B13  1  0.897443  0.275208  0.830719  1
  B  B14  1  0.500013  0.499985  0.658950  1
  B  B15  1  0.499980  0.499979  0.158950  1
  B  B16  1  0.000013  0.499923  0.910988  1
  B  B17  1  0.724814  0.897442  0.669293  1
  B  B18  1  0.724814  0.897442  0.330707  1
  B  B19  1  0.000013  0.499923  0.089012  1
  Ru  Ru20  1  0.204174  0.399405  0.752032  1
  Ru  Ru21  1  0.399348  0.286614  0.500000  1
  Ru  Ru22  1  0.399703  0.795924  0.251766  1
  Ru  Ru23  1  0.204174  0.399405  0.247968  1
  Ru  Ru24  1  0.600974  0.713260  0.500000  1
  Ru  Ru25  1  0.600393  0.204272  0.747968  1
  Ru  Ru26  1  0.286583  0.600626  0.000000  1
  Ru  Ru27  1  0.713224  0.399002  0.000000  1
  Ru  Ru28  1  0.795827  0.600097  0.248233  1
  Ru  Ru29  1  0.795827  0.600097  0.751767  1
  Ru  Ru30  1  0.399703  0.795924  0.748234  1
  Ru  Ru31  1  0.000117  0.000226  0.249999  1
  Ru  Ru32  1  0.600393  0.204272  0.252032  1
  Ru  Ru33  1  0.000117  0.000226  0.750001  1
