# generated using pymatgen
data_DySc(NbSe2)6
_symmetry_space_group_name_H-M   'P 1'
_cell_length_a   6.08921400
_cell_length_b   6.08921485
_cell_length_c   14.01380100
_cell_angle_alpha   90.00000000
_cell_angle_beta   90.00000000
_cell_angle_gamma   119.99999536
_symmetry_Int_Tables_number   1
_chemical_formula_structural   DySc(NbSe2)6
_chemical_formula_sum   'Dy1 Sc1 Nb6 Se12'
_cell_volume   449.99649750
_cell_formula_units_Z   1
loop_
 _symmetry_equiv_pos_site_id
 _symmetry_equiv_pos_as_xyz
  1  'x, y, z'
loop_
 _atom_site_type_symbol
 _atom_site_label
 _atom_site_symmetry_multiplicity
 _atom_site_fract_x
 _atom_site_fract_y
 _atom_site_fract_z
 _atom_site_occupancy
  Dy  Dy0  1  0.333333  0.666667  0.250000  1
  Sc  Sc1  1  0.666667  0.333333  0.750000  1
  Nb  Nb2  1  0.000000  0.000000  0.506601  1
  Nb  Nb3  1  0.000000  0.000000  0.993399  1
  Nb  Nb4  1  0.333333  0.666667  0.995096  1
  Nb  Nb5  1  0.666667  0.333333  0.992973  1
  Nb  Nb6  1  0.666667  0.333333  0.507027  1
  Nb  Nb7  1  0.333333  0.666667  0.504904  1
  Se  Se8  1  0.333166  0.325396  0.386325  1
  Se  Se9  1  0.674604  0.007769  0.386325  1
  Se  Se10  1  0.992231  0.666834  0.386325  1
  Se  Se11  1  0.328856  0.333608  0.625937  1
  Se  Se12  1  0.004751  0.671144  0.625937  1
  Se  Se13  1  0.666392  0.995249  0.625937  1
  Se  Se14  1  0.666392  0.671144  0.874063  1
  Se  Se15  1  0.328856  0.995249  0.874063  1
  Se  Se16  1  0.004751  0.333608  0.874063  1
  Se  Se17  1  0.674604  0.666834  0.113675  1
  Se  Se18  1  0.992231  0.325396  0.113675  1
  Se  Se19  1  0.333166  0.007769  0.113675  1
