# generated using pymatgen
data_TbSc(Mn2P)4
_symmetry_space_group_name_H-M   'P 1'
_cell_length_a   7.04137766
_cell_length_b   7.04137690
_cell_length_c   3.68761200
_cell_angle_alpha   90.00000000
_cell_angle_beta   90.00000000
_cell_angle_gamma   88.81678815
_symmetry_Int_Tables_number   1
_chemical_formula_structural   TbSc(Mn2P)4
_chemical_formula_sum   'Tb1 Sc1 Mn8 P4'
_cell_volume   182.79648369
_cell_formula_units_Z   1
loop_
 _symmetry_equiv_pos_site_id
 _symmetry_equiv_pos_as_xyz
  1  'x, y, z'
loop_
 _atom_site_type_symbol
 _atom_site_label
 _atom_site_symmetry_multiplicity
 _atom_site_fract_x
 _atom_site_fract_y
 _atom_site_fract_z
 _atom_site_occupancy
  Tb  Tb0  1  0.500000  0.500000  0.000000  1
  Sc  Sc1  1  0.000000  0.000000  0.500000  1
  Mn  Mn2  1  0.588107  0.151001  0.500000  1
  Mn  Mn3  1  0.411893  0.848999  0.500000  1
  Mn  Mn4  1  0.083058  0.339511  0.000000  1
  Mn  Mn5  1  0.916942  0.660489  0.000000  1
  Mn  Mn6  1  0.151001  0.588107  0.500000  1
  Mn  Mn7  1  0.848999  0.411893  0.500000  1
  Mn  Mn8  1  0.339511  0.083058  0.000000  1
  Mn  Mn9  1  0.660489  0.916942  0.000000  1
  P  P10  1  0.721252  0.721252  0.500000  1
  P  P11  1  0.278748  0.278748  0.500000  1
  P  P12  1  0.207135  0.792865  0.000000  1
  P  P13  1  0.792865  0.207135  0.000000  1
