# generated using pymatgen
data_Li6Sn6PdRh11
_symmetry_space_group_name_H-M   'P 1'
_cell_length_a   4.41557504
_cell_length_b   6.20814603
_cell_length_c   13.16042605
_cell_angle_alpha   90.00129424
_cell_angle_beta   89.99034461
_cell_angle_gamma   89.98845788
_symmetry_Int_Tables_number   1
_chemical_formula_structural   Li6Sn6PdRh11
_chemical_formula_sum   'Li6 Sn6 Pd1 Rh11'
_cell_volume   360.76062252
_cell_formula_units_Z   1
loop_
 _symmetry_equiv_pos_site_id
 _symmetry_equiv_pos_as_xyz
  1  'x, y, z'
loop_
 _atom_site_type_symbol
 _atom_site_label
 _atom_site_symmetry_multiplicity
 _atom_site_fract_x
 _atom_site_fract_y
 _atom_site_fract_z
 _atom_site_occupancy
  Li  Li0  1  0.000011  0.000782  0.001148  1
  Li  Li1  1  0.500498  0.500371  0.167034  1
  Li  Li2  1  0.000478  0.999124  0.333347  1
  Li  Li3  1  0.500017  0.500340  0.499524  1
  Li  Li4  1  0.999486  0.000937  0.665555  1
  Li  Li5  1  0.499499  0.498832  0.833370  1
  Sn  Sn6  1  0.000017  0.496915  0.003157  1
  Sn  Sn7  1  0.499931  0.999005  0.166665  1
  Sn  Sn8  1  0.999890  0.500876  0.333275  1
  Sn  Sn9  1  0.500010  0.998977  0.500083  1
  Sn  Sn10  1  0.000016  0.496842  0.663481  1
  Sn  Sn11  1  0.500144  0.007121  0.833355  1
  Pd  Pd12  1  0.000209  0.749117  0.833310  1
  Rh  Rh13  1  0.500088  0.250419  0.000305  1
  Rh  Rh14  1  0.499957  0.749933  0.998493  1
  Rh  Rh15  1  0.999944  0.247456  0.168404  1
  Rh  Rh16  1  0.000057  0.750519  0.166929  1
  Rh  Rh17  1  0.500014  0.250058  0.333345  1
  Rh  Rh18  1  0.499876  0.750119  0.333346  1
  Rh  Rh19  1  0.999931  0.247494  0.498215  1
  Rh  Rh20  1  0.000079  0.750494  0.499734  1
  Rh  Rh21  1  0.500061  0.250487  0.666394  1
  Rh  Rh22  1  0.499829  0.749895  0.668205  1
  Rh  Rh23  1  0.999956  0.253892  0.833326  1
