# generated using pymatgen
data_CaErTm6(B6Ru)4
_symmetry_space_group_name_H-M   'P 1'
_cell_length_a   3.62340200
_cell_length_b   9.07963117
_cell_length_c   11.46391700
_cell_angle_alpha   89.91586513
_cell_angle_beta   90.00000000
_cell_angle_gamma   90.00000000
_symmetry_Int_Tables_number   1
_chemical_formula_structural   CaErTm6(B6Ru)4
_chemical_formula_sum   'Ca1 Er1 Tm6 B24 Ru4'
_cell_volume   377.15276146
_cell_formula_units_Z   1
loop_
 _symmetry_equiv_pos_site_id
 _symmetry_equiv_pos_as_xyz
  1  'x, y, z'
loop_
 _atom_site_type_symbol
 _atom_site_label
 _atom_site_symmetry_multiplicity
 _atom_site_fract_x
 _atom_site_fract_y
 _atom_site_fract_z
 _atom_site_occupancy
  Ca  Ca0  1  0.000000  0.322214  0.413968  1
  Er  Er1  1  0.000000  0.676420  0.585088  1
  Tm  Tm2  1  0.000000  0.822045  0.086110  1
  Tm  Tm3  1  0.000000  0.178543  0.914715  1
  Tm  Tm4  1  0.000000  0.943871  0.371150  1
  Tm  Tm5  1  0.000000  0.057640  0.628286  1
  Tm  Tm6  1  0.000000  0.443155  0.129045  1
  Tm  Tm7  1  0.000000  0.556201  0.872529  1
  B  B8  1  0.500000  0.554868  0.432817  1
  B  B9  1  0.500000  0.446388  0.567930  1
  B  B10  1  0.500000  0.053083  0.065939  1
  B  B11  1  0.500000  0.945883  0.932880  1
  B  B12  1  0.500000  0.749191  0.419310  1
  B  B13  1  0.500000  0.251474  0.581782  1
  B  B14  1  0.500000  0.247977  0.079811  1
  B  B15  1  0.500000  0.751394  0.919934  1
  B  B16  1  0.500000  0.792024  0.265326  1
  B  B17  1  0.500000  0.209082  0.735138  1
  B  B18  1  0.500000  0.290099  0.232988  1
  B  B19  1  0.500000  0.708840  0.766165  1
  B  B20  1  0.500000  0.632058  0.185026  1
  B  B21  1  0.500000  0.368766  0.815942  1
  B  B22  1  0.500000  0.130118  0.313757  1
  B  B23  1  0.500000  0.868873  0.684879  1
  B  B24  1  0.500000  0.982235  0.211488  1
  B  B25  1  0.500000  0.017323  0.787468  1
  B  B26  1  0.500000  0.483945  0.287004  1
  B  B27  1  0.500000  0.517246  0.713247  1
  B  B28  1  0.500000  0.607189  0.029663  1
  B  B29  1  0.500000  0.393205  0.970896  1
  B  B30  1  0.500000  0.102270  0.471717  1
  B  B31  1  0.500000  0.895736  0.528785  1
  Ru  Ru32  1  0.000000  0.640437  0.319751  1
  Ru  Ru33  1  0.000000  0.361822  0.681466  1
  Ru  Ru34  1  0.000000  0.136256  0.177002  1
  Ru  Ru35  1  0.000000  0.862130  0.820997  1
