# generated using pymatgen
data_DyErB24
_symmetry_space_group_name_H-M   'P 1'
_cell_length_a   5.29352600
_cell_length_b   5.29352557
_cell_length_c   9.16892900
_cell_angle_alpha   73.22186017
_cell_angle_beta   90.00000000
_cell_angle_gamma   120.00000272
_symmetry_Int_Tables_number   1
_chemical_formula_structural   DyErB24
_chemical_formula_sum   'Dy1 Er1 B24'
_cell_volume   209.78027518
_cell_formula_units_Z   1
loop_
 _symmetry_equiv_pos_site_id
 _symmetry_equiv_pos_as_xyz
  1  'x, y, z'
loop_
 _atom_site_type_symbol
 _atom_site_label
 _atom_site_symmetry_multiplicity
 _atom_site_fract_x
 _atom_site_fract_y
 _atom_site_fract_z
 _atom_site_occupancy
  Dy  Dy0  1  0.000000  0.000000  0.000000  1
  Er  Er1  1  0.500000  0.000000  0.500000  1
  B  B2  1  0.912058  0.499923  0.249941  1
  B  B3  1  0.412135  0.500077  0.750059  1
  B  B4  1  0.081068  0.500204  0.418727  1
  B  B5  1  0.581131  0.500052  0.918817  1
  B  B6  1  0.250136  0.838000  0.249941  1
  B  B7  1  0.749864  0.837806  0.750059  1
  B  B8  1  0.081068  0.162136  0.418727  1
  B  B9  1  0.581131  0.162262  0.918817  1
  B  B10  1  0.912058  0.162194  0.249941  1
  B  B11  1  0.412135  0.162000  0.750059  1
  B  B12  1  0.250136  0.162194  0.249941  1
  B  B13  1  0.749864  0.162000  0.750059  1
  B  B14  1  0.418869  0.837738  0.081183  1
  B  B15  1  0.918932  0.837864  0.581273  1
  B  B16  1  0.418869  0.499948  0.081183  1
  B  B17  1  0.918932  0.499796  0.581273  1
  B  B18  1  0.081079  0.499948  0.081183  1
  B  B19  1  0.580864  0.499796  0.581273  1
  B  B20  1  0.587865  0.499923  0.249941  1
  B  B21  1  0.087942  0.500077  0.750059  1
  B  B22  1  0.587865  0.838000  0.249941  1
  B  B23  1  0.087942  0.837806  0.750059  1
  B  B24  1  0.419136  0.500204  0.418727  1
  B  B25  1  0.918921  0.500052  0.918817  1
