# generated using pymatgen
data_Nd2Pa6Be3Si12Rh
_symmetry_space_group_name_H-M   'P 1'
_cell_length_a   7.99036600
_cell_length_b   7.99036555
_cell_length_c   8.08290100
_cell_angle_alpha   90.00000000
_cell_angle_beta   90.00000000
_cell_angle_gamma   119.99999358
_symmetry_Int_Tables_number   1
_chemical_formula_structural   Nd2Pa6Be3Si12Rh
_chemical_formula_sum   'Nd2 Pa6 Be3 Si12 Rh1'
_cell_volume   446.92149239
_cell_formula_units_Z   1
loop_
 _symmetry_equiv_pos_site_id
 _symmetry_equiv_pos_as_xyz
  1  'x, y, z'
loop_
 _atom_site_type_symbol
 _atom_site_label
 _atom_site_symmetry_multiplicity
 _atom_site_fract_x
 _atom_site_fract_y
 _atom_site_fract_z
 _atom_site_occupancy
  Nd  Nd0  1  0.000000  0.000000  0.249113  1
  Nd  Nd1  1  0.000000  0.000000  0.750696  1
  Pa  Pa2  1  0.499908  0.500092  0.248851  1
  Pa  Pa3  1  0.499908  0.999816  0.248851  1
  Pa  Pa4  1  0.000184  0.500092  0.248851  1
  Pa  Pa5  1  0.500581  0.499419  0.750926  1
  Pa  Pa6  1  0.998840  0.499419  0.750926  1
  Pa  Pa7  1  0.500581  0.001160  0.750926  1
  Be  Be8  1  0.666667  0.333333  0.499466  1
  Be  Be9  1  0.666667  0.333333  0.000728  1
  Be  Be10  1  0.333333  0.666667  0.998582  1
  Si  Si11  1  0.822812  0.177188  0.499744  1
  Si  Si12  1  0.822812  0.645625  0.499744  1
  Si  Si13  1  0.354375  0.177188  0.499744  1
  Si  Si14  1  0.824302  0.175698  0.000207  1
  Si  Si15  1  0.824302  0.648605  0.000207  1
  Si  Si16  1  0.351395  0.175698  0.000207  1
  Si  Si17  1  0.175729  0.824271  0.999896  1
  Si  Si18  1  0.648544  0.824271  0.999896  1
  Si  Si19  1  0.175729  0.351456  0.999896  1
  Si  Si20  1  0.164745  0.835255  0.499703  1
  Si  Si21  1  0.670512  0.835255  0.499703  1
  Si  Si22  1  0.164745  0.329488  0.499703  1
  Rh  Rh23  1  0.333333  0.666667  0.503432  1
