# generated using pymatgen
data_Tb3Y(LuBi)6
_symmetry_space_group_name_H-M   'P 1'
_cell_length_a   8.18037600
_cell_length_b   9.39231400
_cell_length_c   11.97987800
_cell_angle_alpha   90.00000000
_cell_angle_beta   90.00000000
_cell_angle_gamma   90.00000000
_symmetry_Int_Tables_number   1
_chemical_formula_structural   Tb3Y(LuBi)6
_chemical_formula_sum   'Tb6 Y2 Lu12 Bi12'
_cell_volume   920.44589358
_cell_formula_units_Z   2
loop_
 _symmetry_equiv_pos_site_id
 _symmetry_equiv_pos_as_xyz
  1  'x, y, z'
loop_
 _atom_site_type_symbol
 _atom_site_label
 _atom_site_symmetry_multiplicity
 _atom_site_fract_x
 _atom_site_fract_y
 _atom_site_fract_z
 _atom_site_occupancy
  Tb  Tb0  1  0.186080  0.750000  0.718757  1
  Tb  Tb1  1  0.686080  0.750000  0.781243  1
  Tb  Tb2  1  0.813919  0.250000  0.281304  1
  Tb  Tb3  1  0.313919  0.250000  0.218696  1
  Tb  Tb4  1  0.353188  0.750000  0.216719  1
  Tb  Tb5  1  0.853188  0.750000  0.283281  1
  Y  Y6  1  0.646803  0.250000  0.783421  1
  Y  Y7  1  0.146803  0.250000  0.716579  1
  Lu  Lu8  1  0.023538  0.750000  0.989433  1
  Lu  Lu9  1  0.523538  0.750000  0.510567  1
  Lu  Lu10  1  0.976564  0.250000  0.010562  1
  Lu  Lu11  1  0.476564  0.250000  0.489438  1
  Lu  Lu12  1  0.307646  0.433575  0.941097  1
  Lu  Lu13  1  0.807646  0.066425  0.558903  1
  Lu  Lu14  1  0.692301  0.933458  0.059013  1
  Lu  Lu15  1  0.192301  0.566542  0.440987  1
  Lu  Lu16  1  0.692301  0.566542  0.059013  1
  Lu  Lu17  1  0.192301  0.933458  0.440987  1
  Lu  Lu18  1  0.307646  0.066425  0.941097  1
  Lu  Lu19  1  0.807646  0.433575  0.558903  1
  Bi  Bi20  1  0.433898  0.004062  0.671625  1
  Bi  Bi21  1  0.933898  0.495938  0.828375  1
  Bi  Bi22  1  0.566134  0.503958  0.328420  1
  Bi  Bi23  1  0.066134  0.996042  0.171580  1
  Bi  Bi24  1  0.566134  0.996042  0.328420  1
  Bi  Bi25  1  0.066134  0.503958  0.171580  1
  Bi  Bi26  1  0.433898  0.495938  0.671625  1
  Bi  Bi27  1  0.933898  0.004062  0.828375  1
  Bi  Bi28  1  0.404305  0.750000  0.957282  1
  Bi  Bi29  1  0.904305  0.750000  0.542718  1
  Bi  Bi30  1  0.595646  0.250000  0.042436  1
  Bi  Bi31  1  0.095646  0.250000  0.457564  1
