# generated using pymatgen
data_Er8Hf5Sc7Ga16
_symmetry_space_group_name_H-M   'P 1'
_cell_length_a   7.15701155
_cell_length_b   7.51988411
_cell_length_c   14.32991592
_cell_angle_alpha   89.99373051
_cell_angle_beta   89.95944587
_cell_angle_gamma   89.98125003
_symmetry_Int_Tables_number   1
_chemical_formula_structural   Er8Hf5Sc7Ga16
_chemical_formula_sum   'Er8 Hf5 Sc7 Ga16'
_cell_volume   771.23436539
_cell_formula_units_Z   1
loop_
 _symmetry_equiv_pos_site_id
 _symmetry_equiv_pos_as_xyz
  1  'x, y, z'
loop_
 _atom_site_type_symbol
 _atom_site_label
 _atom_site_symmetry_multiplicity
 _atom_site_fract_x
 _atom_site_fract_y
 _atom_site_fract_z
 _atom_site_occupancy
  Er  Er0  1  0.010013  0.179000  0.093118  1
  Er  Er1  1  0.989750  0.820419  0.907092  1
  Er  Er2  1  0.489808  0.679251  0.906930  1
  Er  Er3  1  0.990109  0.822302  0.592724  1
  Er  Er4  1  0.509570  0.321217  0.093465  1
  Er  Er5  1  0.010011  0.177524  0.407365  1
  Er  Er6  1  0.509765  0.322623  0.407131  1
  Er  Er7  1  0.490261  0.677762  0.592897  1
  Hf  Hf8  1  0.328814  0.174364  0.623674  1
  Hf  Hf9  1  0.671014  0.825617  0.376398  1
  Hf  Hf10  1  0.171407  0.674145  0.376778  1
  Hf  Hf11  1  0.670855  0.828167  0.123788  1
  Hf  Hf12  1  0.828983  0.325341  0.623832  1
  Sc  Sc13  1  0.162360  0.504902  0.750656  1
  Sc  Sc14  1  0.837943  0.495306  0.249512  1
  Sc  Sc15  1  0.337559  0.004460  0.249540  1
  Sc  Sc16  1  0.662605  0.995412  0.750719  1
  Sc  Sc17  1  0.328327  0.171771  0.876356  1
  Sc  Sc18  1  0.828497  0.328726  0.876363  1
  Sc  Sc19  1  0.171957  0.672529  0.122725  1
  Ga  Ga20  1  0.030220  0.117190  0.747851  1
  Ga  Ga21  1  0.968622  0.881520  0.250935  1
  Ga  Ga22  1  0.469835  0.619015  0.251380  1
  Ga  Ga23  1  0.530291  0.382924  0.747877  1
  Ga  Ga24  1  0.284032  0.872658  0.747979  1
  Ga  Ga25  1  0.715689  0.126437  0.250914  1
  Ga  Ga26  1  0.216143  0.372131  0.251877  1
  Ga  Ga27  1  0.784072  0.627839  0.748153  1
  Ga  Ga28  1  0.163185  0.462711  0.540361  1
  Ga  Ga29  1  0.836684  0.537712  0.459556  1
  Ga  Ga30  1  0.337110  0.962487  0.459573  1
  Ga  Ga31  1  0.835479  0.537202  0.041696  1
  Ga  Ga32  1  0.663307  0.037599  0.540147  1
  Ga  Ga33  1  0.162689  0.464213  0.958822  1
  Ga  Ga34  1  0.663767  0.034340  0.960013  1
  Ga  Ga35  1  0.339267  0.963184  0.041803  1
