# generated using pymatgen
data_Dy5Er(AlC3)2
_symmetry_space_group_name_H-M   'P 1'
_cell_length_a   3.56168000
_cell_length_b   7.03563747
_cell_length_c   9.97706627
_cell_angle_alpha   89.91420467
_cell_angle_beta   90.00000000
_cell_angle_gamma   90.00000000
_symmetry_Int_Tables_number   1
_chemical_formula_structural   Dy5Er(AlC3)2
_chemical_formula_sum   'Dy5 Er1 Al2 C6'
_cell_volume   250.01192315
_cell_formula_units_Z   1
loop_
 _symmetry_equiv_pos_site_id
 _symmetry_equiv_pos_as_xyz
  1  'x, y, z'
loop_
 _atom_site_type_symbol
 _atom_site_label
 _atom_site_symmetry_multiplicity
 _atom_site_fract_x
 _atom_site_fract_y
 _atom_site_fract_z
 _atom_site_occupancy
  Dy  Dy0  1  0.500000  0.509670  0.199555  1
  Dy  Dy1  1  0.500000  0.490076  0.800325  1
  Dy  Dy2  1  0.500000  0.990534  0.200065  1
  Dy  Dy3  1  0.000000  0.750097  0.458739  1
  Dy  Dy4  1  0.000000  0.249571  0.541475  1
  Er  Er5  1  0.500000  0.012068  0.799327  1
  Al  Al6  1  0.000000  0.751708  0.005042  1
  Al  Al7  1  0.000000  0.248409  0.993960  1
  C  C8  1  0.500000  0.509052  0.566126  1
  C  C9  1  0.500000  0.490677  0.433955  1
  C  C10  1  0.500000  0.990704  0.567214  1
  C  C11  1  0.500000  0.008963  0.434782  1
  C  C12  1  0.000000  0.750217  0.208253  1
  C  C13  1  0.000000  0.248255  0.791184  1
