# generated using pymatgen
data_Y6Sn6IrRh5
_symmetry_space_group_name_H-M   'P 1'
_cell_length_a   7.50103400
_cell_length_b   7.50103400
_cell_length_c   7.91187900
_cell_angle_alpha   90.00000000
_cell_angle_beta   90.00000000
_cell_angle_gamma   119.99999999
_symmetry_Int_Tables_number   1
_chemical_formula_structural   Y6Sn6IrRh5
_chemical_formula_sum   'Y6 Sn6 Ir1 Rh5'
_cell_volume   385.52499176
_cell_formula_units_Z   1
loop_
 _symmetry_equiv_pos_site_id
 _symmetry_equiv_pos_as_xyz
  1  'x, y, z'
loop_
 _atom_site_type_symbol
 _atom_site_label
 _atom_site_symmetry_multiplicity
 _atom_site_fract_x
 _atom_site_fract_y
 _atom_site_fract_z
 _atom_site_occupancy
  Y  Y0  1  0.592786  0.001332  0.751293  1
  Y  Y1  1  0.408547  0.407214  0.751293  1
  Y  Y2  1  0.998668  0.591453  0.751293  1
  Y  Y3  1  0.594410  0.002309  0.249057  1
  Y  Y4  1  0.407898  0.405590  0.249057  1
  Y  Y5  1  0.997691  0.592102  0.249057  1
  Sn  Sn6  1  0.256932  0.998904  0.000137  1
  Sn  Sn7  1  0.741167  0.741925  0.499755  1
  Sn  Sn8  1  0.000758  0.258833  0.499755  1
  Sn  Sn9  1  0.001096  0.258029  0.000137  1
  Sn  Sn10  1  0.741971  0.743068  0.000137  1
  Sn  Sn11  1  0.258075  0.999242  0.499755  1
  Ir  Ir12  1  0.666667  0.333333  0.000605  1
  Rh  Rh13  1  0.666667  0.333333  0.498740  1
  Rh  Rh14  1  0.333333  0.666667  0.003338  1
  Rh  Rh15  1  0.333333  0.666667  0.496918  1
  Rh  Rh16  1  0.000000  0.000000  0.749661  1
  Rh  Rh17  1  0.000000  0.000000  0.250009  1
