# generated using pymatgen
data_PrHoFe3Tc14C3
_symmetry_space_group_name_H-M   'P 1'
_cell_length_a   6.91203699
_cell_length_b   6.91203756
_cell_length_c   6.91203634
_cell_angle_alpha   82.57632029
_cell_angle_beta   82.57631966
_cell_angle_gamma   82.57631995
_symmetry_Int_Tables_number   1
_chemical_formula_structural   PrHoFe3Tc14C3
_chemical_formula_sum   'Pr1 Ho1 Fe3 Tc14 C3'
_cell_volume   322.58568834
_cell_formula_units_Z   1
loop_
 _symmetry_equiv_pos_site_id
 _symmetry_equiv_pos_as_xyz
  1  'x, y, z'
loop_
 _atom_site_type_symbol
 _atom_site_label
 _atom_site_symmetry_multiplicity
 _atom_site_fract_x
 _atom_site_fract_y
 _atom_site_fract_z
 _atom_site_occupancy
  Pr  Pr0  1  0.649485  0.649485  0.649485  1
  Ho  Ho1  1  0.347574  0.347574  0.347574  1
  Fe  Fe2  1  0.998868  0.998868  0.500736  1
  Fe  Fe3  1  0.500736  0.998868  0.998868  1
  Fe  Fe4  1  0.998868  0.500736  0.998868  1
  Tc  Tc5  1  0.723872  0.275381  0.000805  1
  Tc  Tc6  1  0.000805  0.723872  0.275381  1
  Tc  Tc7  1  0.275381  0.000805  0.723872  1
  Tc  Tc8  1  0.000805  0.275381  0.723872  1
  Tc  Tc9  1  0.723872  0.000805  0.275381  1
  Tc  Tc10  1  0.275381  0.723872  0.000805  1
  Tc  Tc11  1  0.346380  0.865333  0.346380  1
  Tc  Tc12  1  0.346380  0.346380  0.865333  1
  Tc  Tc13  1  0.865333  0.346380  0.346380  1
  Tc  Tc14  1  0.651604  0.140739  0.651604  1
  Tc  Tc15  1  0.651604  0.651604  0.140739  1
  Tc  Tc16  1  0.140739  0.651604  0.651604  1
  Tc  Tc17  1  0.900045  0.900045  0.900045  1
  Tc  Tc18  1  0.100727  0.100727  0.100727  1
  C  C19  1  0.495456  0.495456  0.010627  1
  C  C20  1  0.010627  0.495456  0.495456  1
  C  C21  1  0.495456  0.010627  0.495456  1
