# generated using pymatgen
data_Pr2CdHg3Pd2
_symmetry_space_group_name_H-M   'P 1'
_cell_length_a   5.58997581
_cell_length_b   5.58997662
_cell_length_c   8.32361766
_cell_angle_alpha   90.13386996
_cell_angle_beta   89.86613036
_cell_angle_gamma   133.89600049
_symmetry_Int_Tables_number   1
_chemical_formula_structural   Pr2CdHg3Pd2
_chemical_formula_sum   'Pr2 Cd1 Hg3 Pd2'
_cell_volume   187.42374310
_cell_formula_units_Z   1
loop_
 _symmetry_equiv_pos_site_id
 _symmetry_equiv_pos_as_xyz
  1  'x, y, z'
loop_
 _atom_site_type_symbol
 _atom_site_label
 _atom_site_symmetry_multiplicity
 _atom_site_fract_x
 _atom_site_fract_y
 _atom_site_fract_z
 _atom_site_occupancy
  Pr  Pr0  1  0.070551  0.929449  0.254910  1
  Pr  Pr1  1  0.931495  0.068505  0.746042  1
  Cd  Cd2  1  0.355401  0.644599  0.050592  1
  Hg  Hg3  1  0.641197  0.358803  0.552918  1
  Hg  Hg4  1  0.361983  0.638017  0.445733  1
  Hg  Hg5  1  0.634538  0.365462  0.951628  1
  Pd  Pd6  1  0.224742  0.775258  0.751083  1
  Pd  Pd7  1  0.780094  0.219906  0.247093  1
