# generated using pymatgen
data_Th10GaBi2Sb5
_symmetry_space_group_name_H-M   'P 1'
_cell_length_a   9.70266438
_cell_length_b   9.70238256
_cell_length_c   6.55770600
_cell_angle_alpha   90.00801353
_cell_angle_beta   89.98396749
_cell_angle_gamma   120.00095402
_symmetry_Int_Tables_number   1
_chemical_formula_structural   Th10GaBi2Sb5
_chemical_formula_sum   'Th10 Ga1 Bi2 Sb5'
_cell_volume   534.62318111
_cell_formula_units_Z   1
loop_
 _symmetry_equiv_pos_site_id
 _symmetry_equiv_pos_as_xyz
  1  'x, y, z'
loop_
 _atom_site_type_symbol
 _atom_site_label
 _atom_site_symmetry_multiplicity
 _atom_site_fract_x
 _atom_site_fract_y
 _atom_site_fract_z
 _atom_site_occupancy
  Th  Th0  1  0.003797  0.729420  0.761042  1
  Th  Th1  1  0.274376  0.270580  0.761042  1
  Th  Th2  1  0.334295  0.670210  0.498797  1
  Th  Th3  1  0.664086  0.329790  0.498797  1
  Th  Th4  1  0.726529  0.726179  0.239682  1
  Th  Th5  1  0.723505  0.000000  0.760866  1
  Th  Th6  1  0.000350  0.273821  0.239682  1
  Th  Th7  1  0.274598  0.000000  0.239903  1
  Th  Th8  1  0.334244  0.669805  0.001129  1
  Th  Th9  1  0.664440  0.330195  0.001129  1
  Ga  Ga10  1  0.999315  0.000000  0.000260  1
  Bi  Bi11  1  0.616905  0.616101  0.746563  1
  Bi  Bi12  1  0.000803  0.383899  0.746563  1
  Sb  Sb13  1  0.383869  0.000000  0.747925  1
  Sb  Sb14  1  0.617251  0.000000  0.252358  1
  Sb  Sb15  1  0.383117  0.383841  0.252164  1
  Sb  Sb16  1  0.999276  0.616159  0.252164  1
  Sb  Sb17  1  0.999244  0.000000  0.499933  1
