# generated using pymatgen
data_Y2Ga9NiRh2
_symmetry_space_group_name_H-M   'P 1'
_cell_length_a   7.53926065
_cell_length_b   7.53926044
_cell_length_c   9.49304600
_cell_angle_alpha   90.00000000
_cell_angle_beta   90.00000000
_cell_angle_gamma   119.90051960
_symmetry_Int_Tables_number   1
_chemical_formula_structural   Y2Ga9NiRh2
_chemical_formula_sum   'Y4 Ga18 Ni2 Rh4'
_cell_volume   467.76551251
_cell_formula_units_Z   2
loop_
 _symmetry_equiv_pos_site_id
 _symmetry_equiv_pos_as_xyz
  1  'x, y, z'
loop_
 _atom_site_type_symbol
 _atom_site_label
 _atom_site_symmetry_multiplicity
 _atom_site_fract_x
 _atom_site_fract_y
 _atom_site_fract_z
 _atom_site_occupancy
  Y  Y0  1  0.996500  0.665177  0.250000  1
  Y  Y1  1  0.003500  0.334823  0.750000  1
  Y  Y2  1  0.665177  0.996500  0.250000  1
  Y  Y3  1  0.334823  0.003500  0.750000  1
  Ga  Ga4  1  0.327661  0.327662  0.562695  1
  Ga  Ga5  1  0.672338  0.672339  0.437305  1
  Ga  Ga6  1  0.672338  0.672339  0.062695  1
  Ga  Ga7  1  0.327661  0.327662  0.937305  1
  Ga  Ga8  1  0.338321  0.544219  0.250000  1
  Ga  Ga9  1  0.661679  0.455781  0.750000  1
  Ga  Ga10  1  0.544219  0.338321  0.250000  1
  Ga  Ga11  1  0.455781  0.661679  0.750000  1
  Ga  Ga12  1  0.000258  0.330024  0.077671  1
  Ga  Ga13  1  0.999742  0.669976  0.922329  1
  Ga  Ga14  1  0.999742  0.669976  0.577671  1
  Ga  Ga15  1  0.330024  0.000258  0.422329  1
  Ga  Ga16  1  0.000258  0.330024  0.422329  1
  Ga  Ga17  1  0.669976  0.999742  0.577671  1
  Ga  Ga18  1  0.669976  0.999742  0.922329  1
  Ga  Ga19  1  0.330024  0.000258  0.077671  1
  Ga  Ga20  1  0.117394  0.117394  0.250000  1
  Ga  Ga21  1  0.882606  0.882606  0.750000  1
  Ni  Ni22  1  0.000000  0.000000  0.000000  1
  Ni  Ni23  1  0.000000  0.000000  0.500000  1
  Rh  Rh24  1  0.671482  0.328518  0.000000  1
  Rh  Rh25  1  0.328518  0.671482  0.000000  1
  Rh  Rh26  1  0.328518  0.671482  0.500000  1
  Rh  Rh27  1  0.671482  0.328518  0.500000  1
