# generated using pymatgen
data_N3ClF6
_symmetry_space_group_name_H-M   'P 1'
_cell_length_a   3.47398551
_cell_length_b   5.62642898
_cell_length_c   8.92676717
_cell_angle_alpha   84.68865808
_cell_angle_beta   90.87003132
_cell_angle_gamma   84.06522541
_symmetry_Int_Tables_number   1
_chemical_formula_structural   N3ClF6
_chemical_formula_sum   'N3 Cl1 F6'
_cell_volume   172.74944366
_cell_formula_units_Z   1
loop_
 _symmetry_equiv_pos_site_id
 _symmetry_equiv_pos_as_xyz
  1  'x, y, z'
loop_
 _atom_site_type_symbol
 _atom_site_label
 _atom_site_symmetry_multiplicity
 _atom_site_fract_x
 _atom_site_fract_y
 _atom_site_fract_z
 _atom_site_occupancy
  N  N0  1  0.209414  0.705930  0.754509  1
  N  N1  1  0.069588  0.513138  0.331931  1
  N  N2  1  0.213924  0.603267  0.419832  1
  Cl  Cl3  1  0.752781  0.145996  0.185022  1
  F  F4  1  0.604814  0.899279  0.130075  1
  F  F5  1  0.941788  0.906462  0.710399  1
  F  F6  1  0.877518  0.224843  0.001807  1
  F  F7  1  0.617162  0.053976  0.367394  1
  F  F8  1  0.196192  0.697384  0.913020  1
  F  F9  1  0.999660  0.512133  0.725976  1
