# generated using pymatgen
data_Y3Th11Os6
_symmetry_space_group_name_H-M   'P 1'
_cell_length_a   9.89204144
_cell_length_b   9.98681138
_cell_length_c   6.38337986
_cell_angle_alpha   90.00193376
_cell_angle_beta   90.07648004
_cell_angle_gamma   120.16828266
_symmetry_Int_Tables_number   1
_chemical_formula_structural   Y3Th11Os6
_chemical_formula_sum   'Y3 Th11 Os6'
_cell_volume   545.19845742
_cell_formula_units_Z   1
loop_
 _symmetry_equiv_pos_site_id
 _symmetry_equiv_pos_as_xyz
  1  'x, y, z'
loop_
 _atom_site_type_symbol
 _atom_site_label
 _atom_site_symmetry_multiplicity
 _atom_site_fract_x
 _atom_site_fract_y
 _atom_site_fract_z
 _atom_site_occupancy
  Y  Y0  1  0.460955  0.535938  0.297278  1
  Y  Y1  1  0.073164  0.535778  0.299431  1
  Y  Y2  1  0.927838  0.463418  0.798412  1
  Th  Th3  1  0.252313  0.128060  0.510658  1
  Th  Th4  1  0.541125  0.080389  0.796342  1
  Th  Th5  1  0.745471  0.871987  0.013258  1
  Th  Th6  1  0.666801  0.333699  0.273238  1
  Th  Th7  1  0.126373  0.870405  0.009025  1
  Th  Th8  1  0.460506  0.918608  0.296882  1
  Th  Th9  1  0.537992  0.465587  0.800547  1
  Th  Th10  1  0.875003  0.129304  0.511776  1
  Th  Th11  1  0.124794  0.253767  0.013958  1
  Th  Th12  1  0.873737  0.746877  0.509339  1
  Th  Th13  1  0.333008  0.665452  0.769778  1
  Os  Os14  1  0.811884  0.629376  0.047874  1
  Os  Os15  1  0.812826  0.182171  0.047583  1
  Os  Os16  1  0.630430  0.814989  0.546698  1
  Os  Os17  1  0.371633  0.187362  0.042141  1
  Os  Os18  1  0.185696  0.368290  0.555246  1
  Os  Os19  1  0.188452  0.818542  0.544532  1
