# generated using pymatgen
data_La2HoBe2(PPd5)4
_symmetry_space_group_name_H-M   'P 1'
_cell_length_a   8.73387172
_cell_length_b   8.64452832
_cell_length_c   8.64452685
_cell_angle_alpha   60.68496275
_cell_angle_beta   59.65751740
_cell_angle_gamma   59.65752104
_symmetry_Int_Tables_number   1
_chemical_formula_structural   La2HoBe2(PPd5)4
_chemical_formula_sum   'La2 Ho1 Be2 P4 Pd20'
_cell_volume   461.40317805
_cell_formula_units_Z   1
loop_
 _symmetry_equiv_pos_site_id
 _symmetry_equiv_pos_as_xyz
  1  'x, y, z'
loop_
 _atom_site_type_symbol
 _atom_site_label
 _atom_site_symmetry_multiplicity
 _atom_site_fract_x
 _atom_site_fract_y
 _atom_site_fract_z
 _atom_site_occupancy
  La  La0  1  0.250000  0.250000  0.250000  1
  La  La1  1  0.750000  0.750000  0.750000  1
  Ho  Ho2  1  0.000000  0.000000  0.000000  1
  Be  Be3  1  0.733685  0.266315  0.266315  1
  Be  Be4  1  0.266315  0.733685  0.733685  1
  P  P5  1  0.265387  0.734613  0.265387  1
  P  P6  1  0.734613  0.265387  0.734613  1
  P  P7  1  0.265387  0.265387  0.734613  1
  P  P8  1  0.734613  0.734613  0.265387  1
  Pd  Pd9  1  0.389219  0.383774  0.383774  1
  Pd  Pd10  1  0.610781  0.616226  0.616226  1
  Pd  Pd11  1  0.383774  0.389219  0.843235  1
  Pd  Pd12  1  0.383774  0.843235  0.389219  1
  Pd  Pd13  1  0.616226  0.610781  0.156765  1
  Pd  Pd14  1  0.616226  0.156765  0.610781  1
  Pd  Pd15  1  0.843235  0.383774  0.383774  1
  Pd  Pd16  1  0.156765  0.616226  0.616226  1
  Pd  Pd17  1  0.344001  0.000000  0.000000  1
  Pd  Pd18  1  0.655999  0.000000  0.000000  1
  Pd  Pd19  1  0.000000  0.344001  0.655999  1
  Pd  Pd20  1  0.000000  0.655999  0.344001  1
  Pd  Pd21  1  0.996881  0.343147  0.003119  1
  Pd  Pd22  1  0.656853  0.003119  0.343147  1
  Pd  Pd23  1  0.003119  0.656853  0.996881  1
  Pd  Pd24  1  0.343147  0.996881  0.656853  1
  Pd  Pd25  1  0.996881  0.003119  0.343147  1
  Pd  Pd26  1  0.003119  0.996881  0.656853  1
  Pd  Pd27  1  0.656853  0.343147  0.003119  1
  Pd  Pd28  1  0.343147  0.656853  0.996881  1
