# generated using pymatgen
data_Tb8ZnPI12
_symmetry_space_group_name_H-M   'P 1'
_cell_length_a   4.19892100
_cell_length_b   14.06340224
_cell_length_c   14.84509983
_cell_angle_alpha   89.83747555
_cell_angle_beta   90.00000000
_cell_angle_gamma   90.00000000
_symmetry_Int_Tables_number   1
_chemical_formula_structural   Tb8ZnPI12
_chemical_formula_sum   'Tb8 Zn1 P1 I12'
_cell_volume   876.61617050
_cell_formula_units_Z   1
loop_
 _symmetry_equiv_pos_site_id
 _symmetry_equiv_pos_as_xyz
  1  'x, y, z'
loop_
 _atom_site_type_symbol
 _atom_site_label
 _atom_site_symmetry_multiplicity
 _atom_site_fract_x
 _atom_site_fract_y
 _atom_site_fract_z
 _atom_site_occupancy
  Tb  Tb0  1  0.500000  0.116565  0.345325  1
  Tb  Tb1  1  0.500000  0.883435  0.654675  1
  Tb  Tb2  1  0.500000  0.611411  0.148480  1
  Tb  Tb3  1  0.500000  0.388589  0.851520  1
  Tb  Tb4  1  0.000000  0.115629  0.578078  1
  Tb  Tb5  1  0.000000  0.884371  0.421922  1
  Tb  Tb6  1  0.000000  0.605775  0.928762  1
  Tb  Tb7  1  0.000000  0.394225  0.071238  1
  Zn  Zn8  1  0.500000  0.000000  0.500000  1
  P  P9  1  0.500000  0.500000  0.000000  1
  I  I10  1  0.500000  0.250732  0.161142  1
  I  I11  1  0.500000  0.749268  0.838858  1
  I  I12  1  0.500000  0.744953  0.333043  1
  I  I13  1  0.500000  0.255047  0.666957  1
  I  I14  1  0.000000  0.262623  0.414924  1
  I  I15  1  0.000000  0.737377  0.585076  1
  I  I16  1  0.000000  0.756450  0.083603  1
  I  I17  1  0.000000  0.243550  0.916397  1
  I  I18  1  0.000000  0.999750  0.236398  1
  I  I19  1  0.000000  0.000250  0.763602  1
  I  I20  1  0.000000  0.499226  0.257158  1
  I  I21  1  0.000000  0.500774  0.742842  1
