# generated using pymatgen
data_DyHo(ReN3)2
_symmetry_space_group_name_H-M   'P 1'
_cell_length_a   7.36224618
_cell_length_b   7.36215667
_cell_length_c   6.27235200
_cell_angle_alpha   72.65421222
_cell_angle_beta   72.65282363
_cell_angle_gamma   81.69446082
_symmetry_Int_Tables_number   1
_chemical_formula_structural   DyHo(ReN3)2
_chemical_formula_sum   'Dy2 Ho2 Re4 N12'
_cell_volume   309.17631484
_cell_formula_units_Z   2
loop_
 _symmetry_equiv_pos_site_id
 _symmetry_equiv_pos_as_xyz
  1  'x, y, z'
loop_
 _atom_site_type_symbol
 _atom_site_label
 _atom_site_symmetry_multiplicity
 _atom_site_fract_x
 _atom_site_fract_y
 _atom_site_fract_z
 _atom_site_occupancy
  Dy  Dy0  1  0.711830  0.288183  0.250004  1
  Dy  Dy1  1  0.288170  0.711817  0.749996  1
  Ho  Ho2  1  0.907061  0.092939  0.750001  1
  Ho  Ho3  1  0.092939  0.907061  0.249999  1
  Re  Re4  1  0.622892  0.795334  0.281661  1
  Re  Re5  1  0.204687  0.377104  0.218340  1
  Re  Re6  1  0.377108  0.204666  0.718339  1
  Re  Re7  1  0.795313  0.622896  0.781660  1
  N  N8  1  0.666880  0.634374  0.085698  1
  N  N9  1  0.372644  0.872623  0.338506  1
  N  N10  1  0.365634  0.333112  0.414307  1
  N  N11  1  0.127386  0.627350  0.161489  1
  N  N12  1  0.005854  0.217853  0.339180  1
  N  N13  1  0.782141  0.994161  0.160826  1
  N  N14  1  0.217859  0.005839  0.839174  1
  N  N15  1  0.627356  0.127377  0.661494  1
  N  N16  1  0.333120  0.365626  0.914302  1
  N  N17  1  0.872614  0.372650  0.838511  1
  N  N18  1  0.634366  0.666888  0.585693  1
  N  N19  1  0.994146  0.782147  0.660820  1
