# generated using pymatgen
data_Tb5Y3Er8(In3Co)2
_symmetry_space_group_name_H-M   'P 1'
_cell_length_a   10.32049508
_cell_length_b   10.32052499
_cell_length_c   7.04357101
_cell_angle_alpha   90.00009626
_cell_angle_beta   90.00020529
_cell_angle_gamma   119.98668450
_symmetry_Int_Tables_number   1
_chemical_formula_structural   Tb5Y3Er8(In3Co)2
_chemical_formula_sum   'Tb5 Y3 Er8 In6 Co2'
_cell_volume   649.80658159
_cell_formula_units_Z   1
loop_
 _symmetry_equiv_pos_site_id
 _symmetry_equiv_pos_as_xyz
  1  'x, y, z'
loop_
 _atom_site_type_symbol
 _atom_site_label
 _atom_site_symmetry_multiplicity
 _atom_site_fract_x
 _atom_site_fract_y
 _atom_site_fract_z
 _atom_site_occupancy
  Tb  Tb0  1  0.535246  0.070720  0.511843  1
  Tb  Tb1  1  0.929275  0.464754  0.511846  1
  Tb  Tb2  1  0.535085  0.464916  0.512352  1
  Tb  Tb3  1  0.465086  0.929896  0.011238  1
  Tb  Tb4  1  0.070098  0.534911  0.011230  1
  Y  Y5  1  0.333642  0.666356  0.402708  1
  Y  Y6  1  0.000064  0.999934  0.500657  1
  Y  Y7  1  0.999878  0.000118  0.001298  1
  Er  Er8  1  0.464718  0.535275  0.012172  1
  Er  Er9  1  0.178727  0.356620  0.720013  1
  Er  Er10  1  0.643393  0.821278  0.720030  1
  Er  Er11  1  0.178164  0.821848  0.719468  1
  Er  Er12  1  0.820715  0.642550  0.217904  1
  Er  Er13  1  0.357449  0.179281  0.217912  1
  Er  Er14  1  0.821474  0.178522  0.218464  1
  Er  Er15  1  0.666345  0.333659  0.905558  1
  In  In16  1  0.837050  0.674007  0.762762  1
  In  In17  1  0.325999  0.162965  0.762766  1
  In  In18  1  0.836952  0.163055  0.762471  1
  In  In19  1  0.162837  0.325329  0.262057  1
  In  In20  1  0.674657  0.837140  0.262097  1
  In  In21  1  0.162461  0.837541  0.262408  1
  Co  Co22  1  0.666623  0.333379  0.286535  1
  Co  Co23  1  0.334062  0.665944  0.788411  1
