# generated using pymatgen
data_La6Al3Ga5Cl2
_symmetry_space_group_name_H-M   'P 1'
_cell_length_a   8.19665446
_cell_length_b   8.21039644
_cell_length_c   8.17480352
_cell_angle_alpha   119.31198771
_cell_angle_beta   119.35490093
_cell_angle_gamma   91.29944898
_symmetry_Int_Tables_number   1
_chemical_formula_structural   La6Al3Ga5Cl2
_chemical_formula_sum   'La6 Al3 Ga5 Cl2'
_cell_volume   392.34847643
_cell_formula_units_Z   1
loop_
 _symmetry_equiv_pos_site_id
 _symmetry_equiv_pos_as_xyz
  1  'x, y, z'
loop_
 _atom_site_type_symbol
 _atom_site_label
 _atom_site_symmetry_multiplicity
 _atom_site_fract_x
 _atom_site_fract_y
 _atom_site_fract_z
 _atom_site_occupancy
  La  La0  1  0.659426  0.160800  0.822260  1
  La  La1  1  0.160247  0.338008  0.497976  1
  La  La2  1  0.839044  0.657624  0.498151  1
  La  La3  1  0.751184  0.749872  0.000012  1
  La  La4  1  0.341168  0.841650  0.184005  1
  La  La5  1  0.252999  0.252432  0.005297  1
  Al  Al6  1  0.942758  0.443504  0.787422  1
  Al  Al7  1  0.842078  0.056813  0.498873  1
  Al  Al8  1  0.340313  0.840834  0.778724  1
  Ga  Ga9  1  0.447961  0.657605  0.499753  1
  Ga  Ga10  1  0.554652  0.338172  0.500419  1
  Ga  Ga11  1  0.056912  0.557371  0.218390  1
  Ga  Ga12  1  0.154845  0.948127  0.499528  1
  Ga  Ga13  1  0.657232  0.157364  0.211352  1
  Cl  Cl14  1  0.499396  0.499905  0.998805  1
  Cl  Cl15  1  0.999786  0.999918  0.999033  1
