# generated using pymatgen
data_Dy3TmHf3AlPt4
_symmetry_space_group_name_H-M   'P 1'
_cell_length_a   4.56731000
_cell_length_b   7.07654435
_cell_length_c   8.14705453
_cell_angle_alpha   87.07963399
_cell_angle_beta   90.00000000
_cell_angle_gamma   90.00000000
_symmetry_Int_Tables_number   1
_chemical_formula_structural   Dy3TmHf3AlPt4
_chemical_formula_sum   'Dy3 Tm1 Hf3 Al1 Pt4'
_cell_volume   262.97712040
_cell_formula_units_Z   1
loop_
 _symmetry_equiv_pos_site_id
 _symmetry_equiv_pos_as_xyz
  1  'x, y, z'
loop_
 _atom_site_type_symbol
 _atom_site_label
 _atom_site_symmetry_multiplicity
 _atom_site_fract_x
 _atom_site_fract_y
 _atom_site_fract_z
 _atom_site_occupancy
  Dy  Dy0  1  0.750000  0.516924  0.815573  1
  Dy  Dy1  1  0.750000  0.039285  0.671236  1
  Dy  Dy2  1  0.250000  0.988352  0.336871  1
  Tm  Tm3  1  0.250000  0.471756  0.186918  1
  Hf  Hf4  1  0.250000  0.854972  0.923915  1
  Hf  Hf5  1  0.750000  0.138480  0.070911  1
  Hf  Hf6  1  0.750000  0.640162  0.434700  1
  Al  Al7  1  0.250000  0.358534  0.571706  1
  Pt  Pt8  1  0.250000  0.726186  0.609950  1
  Pt  Pt9  1  0.750000  0.271199  0.380702  1
  Pt  Pt10  1  0.750000  0.763735  0.102672  1
  Pt  Pt11  1  0.250000  0.230417  0.894845  1
