# generated using pymatgen
data_Tb4Er5TmIr4
_symmetry_space_group_name_H-M   'P 1'
_cell_length_a   6.47337123
_cell_length_b   7.20020449
_cell_length_c   8.49951313
_cell_angle_alpha   96.74232360
_cell_angle_beta   112.38376297
_cell_angle_gamma   89.99999670
_symmetry_Int_Tables_number   1
_chemical_formula_structural   Tb4Er5TmIr4
_chemical_formula_sum   'Tb4 Er5 Tm1 Ir4'
_cell_volume   363.34512709
_cell_formula_units_Z   1
loop_
 _symmetry_equiv_pos_site_id
 _symmetry_equiv_pos_as_xyz
  1  'x, y, z'
loop_
 _atom_site_type_symbol
 _atom_site_label
 _atom_site_symmetry_multiplicity
 _atom_site_fract_x
 _atom_site_fract_y
 _atom_site_fract_z
 _atom_site_occupancy
  Tb  Tb0  1  0.970913  0.919334  0.184716  1
  Tb  Tb1  1  0.786196  0.580666  0.815284  1
  Tb  Tb2  1  0.028981  0.080924  0.815384  1
  Tb  Tb3  1  0.213598  0.419076  0.184616  1
  Er  Er4  1  0.651415  0.817663  0.440691  1
  Er  Er5  1  0.210724  0.682337  0.559309  1
  Er  Er6  1  0.348826  0.182473  0.559526  1
  Er  Er7  1  0.789300  0.317527  0.440474  1
  Er  Er8  1  0.427487  0.750000  0.000000  1
  Tm  Tm9  1  0.572287  0.250000  0.000000  1
  Ir  Ir10  1  0.822257  0.572974  0.220795  1
  Ir  Ir11  1  0.601462  0.927026  0.779205  1
  Ir  Ir12  1  0.177883  0.426540  0.779208  1
  Ir  Ir13  1  0.398674  0.073460  0.220792  1
