# generated using pymatgen
data_Nb5AlAs2
_symmetry_space_group_name_H-M   'P 1'
_cell_length_a   7.67199013
_cell_length_b   7.67198911
_cell_length_c   7.67199092
_cell_angle_alpha   96.60078003
_cell_angle_beta   96.59541796
_cell_angle_gamma   140.37110367
_symmetry_Int_Tables_number   1
_chemical_formula_structural   Nb5AlAs2
_chemical_formula_sum   'Nb10 Al2 As4'
_cell_volume   270.96441484
_cell_formula_units_Z   2
loop_
 _symmetry_equiv_pos_site_id
 _symmetry_equiv_pos_as_xyz
  1  'x, y, z'
loop_
 _atom_site_type_symbol
 _atom_site_label
 _atom_site_symmetry_multiplicity
 _atom_site_fract_x
 _atom_site_fract_y
 _atom_site_fract_z
 _atom_site_occupancy
  Nb  Nb0  1  0.250011  0.750000  0.500011  1
  Nb  Nb1  1  0.749989  0.250000  0.499989  1
  Nb  Nb2  1  0.776794  0.923963  0.700788  1
  Nb  Nb3  1  0.924006  0.223232  0.147230  1
  Nb  Nb4  1  0.075994  0.776768  0.852770  1
  Nb  Nb5  1  0.223206  0.076037  0.299212  1
  Nb  Nb6  1  0.576003  0.723232  0.299224  1
  Nb  Nb7  1  0.423997  0.276768  0.700776  1
  Nb  Nb8  1  0.276824  0.576037  0.852830  1
  Nb  Nb9  1  0.723176  0.423963  0.147170  1
  Al  Al10  1  0.750000  0.750000  0.000000  1
  Al  Al11  1  0.250000  0.250000  0.000000  1
  As  As12  1  0.334208  0.834243  0.168436  1
  As  As13  1  0.834193  0.665757  0.499965  1
  As  As14  1  0.165807  0.334243  0.500035  1
  As  As15  1  0.665792  0.165757  0.831564  1
