# generated using pymatgen
data_Cd12Hg5Au
_symmetry_space_group_name_H-M   'P 1'
_cell_length_a   15.52734514
_cell_length_b   15.52734459
_cell_length_c   6.90755197
_cell_angle_alpha   98.91504125
_cell_angle_beta   98.91504124
_cell_angle_gamma   14.46249706
_symmetry_Int_Tables_number   1
_chemical_formula_structural   Cd12Hg5Au
_chemical_formula_sum   'Cd12 Hg5 Au1'
_cell_volume   410.82127628
_cell_formula_units_Z   1
loop_
 _symmetry_equiv_pos_site_id
 _symmetry_equiv_pos_as_xyz
  1  'x, y, z'
loop_
 _atom_site_type_symbol
 _atom_site_label
 _atom_site_symmetry_multiplicity
 _atom_site_fract_x
 _atom_site_fract_y
 _atom_site_fract_z
 _atom_site_occupancy
  Cd  Cd0  1  0.105543  0.105543  0.070616  1
  Cd  Cd1  1  0.222969  0.222969  0.107652  1
  Cd  Cd2  1  0.336182  0.336182  0.158929  1
  Cd  Cd3  1  0.448512  0.448512  0.227262  1
  Cd  Cd4  1  0.552518  0.552518  0.304153  1
  Cd  Cd5  1  0.778982  0.778982  0.386563  1
  Cd  Cd6  1  0.221018  0.221018  0.613438  1
  Cd  Cd7  1  0.447482  0.447482  0.695847  1
  Cd  Cd8  1  0.551488  0.551488  0.772737  1
  Cd  Cd9  1  0.663817  0.663817  0.841071  1
  Cd  Cd10  1  0.777030  0.777030  0.892347  1
  Cd  Cd11  1  0.894458  0.894458  0.929385  1
  Hg  Hg12  1  0.000000  0.000000  0.000000  1
  Hg  Hg13  1  0.667873  0.667873  0.326391  1
  Hg  Hg14  1  0.889715  0.889715  0.430136  1
  Hg  Hg15  1  0.110285  0.110285  0.569865  1
  Hg  Hg16  1  0.332127  0.332127  0.673609  1
  Au  Au17  1  0.000000  0.000000  0.500000  1
