# generated using pymatgen
data_Er8Ta2Ti3Si16W7
_symmetry_space_group_name_H-M   'P 1'
_cell_length_a   6.90728433
_cell_length_b   6.90664363
_cell_length_c   12.78106489
_cell_angle_alpha   90.00768883
_cell_angle_beta   89.98546318
_cell_angle_gamma   89.97382300
_symmetry_Int_Tables_number   1
_chemical_formula_structural   Er8Ta2Ti3Si16W7
_chemical_formula_sum   'Er8 Ta2 Ti3 Si16 W7'
_cell_volume   609.73532697
_cell_formula_units_Z   1
loop_
 _symmetry_equiv_pos_site_id
 _symmetry_equiv_pos_as_xyz
  1  'x, y, z'
loop_
 _atom_site_type_symbol
 _atom_site_label
 _atom_site_symmetry_multiplicity
 _atom_site_fract_x
 _atom_site_fract_y
 _atom_site_fract_z
 _atom_site_occupancy
  Er  Er0  1  0.338985  0.001511  0.468613  1
  Er  Er1  1  0.499186  0.838671  0.717233  1
  Er  Er2  1  0.500973  0.160377  0.219329  1
  Er  Er3  1  0.839256  0.499191  0.281690  1
  Er  Er4  1  0.160129  0.501067  0.781344  1
  Er  Er5  1  0.660331  0.999177  0.968896  1
  Er  Er6  1  0.000800  0.339805  0.530566  1
  Er  Er7  1  0.998859  0.659770  0.032126  1
  Ta  Ta8  1  0.332136  0.330968  0.000469  1
  Ta  Ta9  1  0.158283  0.005273  0.873772  1
  Ti  Ti10  1  0.169260  0.831378  0.250464  1
  Ti  Ti11  1  0.830890  0.170233  0.749274  1
  Ti  Ti12  1  0.669205  0.669382  0.499941  1
  Si  Si13  1  0.201682  0.129758  0.680725  1
  Si  Si14  1  0.372248  0.701555  0.932183  1
  Si  Si15  1  0.628934  0.298209  0.432350  1
  Si  Si16  1  0.704267  0.370429  0.069267  1
  Si  Si17  1  0.296825  0.628858  0.567052  1
  Si  Si18  1  0.798494  0.871824  0.182777  1
  Si  Si19  1  0.128816  0.200920  0.318144  1
  Si  Si20  1  0.867817  0.795410  0.817171  1
  Si  Si21  1  0.292565  0.956571  0.065151  1
  Si  Si22  1  0.540377  0.790556  0.313890  1
  Si  Si23  1  0.462592  0.208721  0.811118  1
  Si  Si24  1  0.791389  0.540012  0.686146  1
  Si  Si25  1  0.208557  0.461481  0.187942  1
  Si  Si26  1  0.708456  0.041236  0.562821  1
  Si  Si27  1  0.955971  0.293693  0.936221  1
  Si  Si28  1  0.040511  0.709144  0.436895  1
  W  W29  1  0.496300  0.658632  0.124622  1
  W  W30  1  0.506517  0.342976  0.622724  1
  W  W31  1  0.659572  0.494104  0.876578  1
  W  W32  1  0.340535  0.505737  0.376292  1
  W  W33  1  0.840241  0.993207  0.374132  1
  W  W34  1  0.006767  0.159864  0.126661  1
  W  W35  1  0.992278  0.840305  0.625423  1
