# generated using pymatgen
data_BaEr2TcH12Ir
_symmetry_space_group_name_H-M   'P 1'
_cell_length_a   4.98898000
_cell_length_b   4.98898187
_cell_length_c   8.58307100
_cell_angle_alpha   90.00000000
_cell_angle_beta   90.00000000
_cell_angle_gamma   120.00000087
_symmetry_Int_Tables_number   1
_chemical_formula_structural   BaEr2TcH12Ir
_chemical_formula_sum   'Ba1 Er2 Tc1 H12 Ir1'
_cell_volume   185.01077464
_cell_formula_units_Z   1
loop_
 _symmetry_equiv_pos_site_id
 _symmetry_equiv_pos_as_xyz
  1  'x, y, z'
loop_
 _atom_site_type_symbol
 _atom_site_label
 _atom_site_symmetry_multiplicity
 _atom_site_fract_x
 _atom_site_fract_y
 _atom_site_fract_z
 _atom_site_occupancy
  Ba  Ba0  1  0.000000  0.000000  0.970611  1
  Er  Er1  1  0.666667  0.333333  0.387944  1
  Er  Er2  1  0.333333  0.666667  0.644469  1
  Tc  Tc3  1  0.666667  0.333333  0.717167  1
  H  H4  1  0.168383  0.831617  0.388474  1
  H  H5  1  0.663235  0.831617  0.388474  1
  H  H6  1  0.168383  0.336765  0.388474  1
  H  H7  1  0.835695  0.164305  0.602386  1
  H  H8  1  0.328609  0.164305  0.602386  1
  H  H9  1  0.835695  0.671391  0.602386  1
  H  H10  1  0.501087  0.002172  0.841462  1
  H  H11  1  0.501087  0.498913  0.841462  1
  H  H12  1  0.997828  0.498913  0.841462  1
  H  H13  1  0.489048  0.978096  0.166442  1
  H  H14  1  0.489048  0.510952  0.166442  1
  H  H15  1  0.021904  0.510952  0.166442  1
  Ir  Ir16  1  0.333333  0.666667  0.283519  1
