# generated using pymatgen
data_MgSc2UAs6Ru7
_symmetry_space_group_name_H-M   'P 1'
_cell_length_a   7.05394271
_cell_length_b   7.15392581
_cell_length_c   7.10982451
_cell_angle_alpha   109.78654795
_cell_angle_beta   109.40865761
_cell_angle_gamma   109.66302507
_symmetry_Int_Tables_number   1
_chemical_formula_structural   MgSc2UAs6Ru7
_chemical_formula_sum   'Mg1 Sc2 U1 As6 Ru7'
_cell_volume   274.66530552
_cell_formula_units_Z   1
loop_
 _symmetry_equiv_pos_site_id
 _symmetry_equiv_pos_as_xyz
  1  'x, y, z'
loop_
 _atom_site_type_symbol
 _atom_site_label
 _atom_site_symmetry_multiplicity
 _atom_site_fract_x
 _atom_site_fract_y
 _atom_site_fract_z
 _atom_site_occupancy
  Mg  Mg0  1  0.000000  0.500000  0.000000  1
  Sc  Sc1  1  0.500000  0.000000  0.000000  1
  Sc  Sc2  1  0.500000  0.500000  0.500000  1
  U  U3  1  0.000000  0.000000  0.500000  1
  As  As4  1  0.313323  0.998164  0.306318  1
  As  As5  1  0.000000  0.316056  0.307183  1
  As  As6  1  0.000000  0.683944  0.692817  1
  As  As7  1  0.313323  0.315159  0.007005  1
  As  As8  1  0.686677  0.684841  0.992995  1
  As  As9  1  0.686677  0.001836  0.693682  1
  Ru  Ru10  1  0.751984  0.502912  0.249782  1
  Ru  Ru11  1  0.504547  0.752274  0.252274  1
  Ru  Ru12  1  0.495453  0.247726  0.747726  1
  Ru  Ru13  1  0.751984  0.249072  0.502202  1
  Ru  Ru14  1  0.248016  0.750928  0.497798  1
  Ru  Ru15  1  0.248016  0.497088  0.750218  1
  Ru  Ru16  1  0.000000  0.000000  0.000000  1
