# generated using pymatgen
data_Dy4Ho12Cd4Ir3Os
_symmetry_space_group_name_H-M   'P 1'
_cell_length_a   9.63939018
_cell_length_b   9.63771817
_cell_length_c   9.63771784
_cell_angle_alpha   59.52742235
_cell_angle_beta   59.51681704
_cell_angle_gamma   59.51682295
_symmetry_Int_Tables_number   1
_chemical_formula_structural   Dy4Ho12Cd4Ir3Os
_chemical_formula_sum   'Dy4 Ho12 Cd4 Ir3 Os1'
_cell_volume   626.21010595
_cell_formula_units_Z   1
loop_
 _symmetry_equiv_pos_site_id
 _symmetry_equiv_pos_as_xyz
  1  'x, y, z'
loop_
 _atom_site_type_symbol
 _atom_site_label
 _atom_site_symmetry_multiplicity
 _atom_site_fract_x
 _atom_site_fract_y
 _atom_site_fract_z
 _atom_site_occupancy
  Dy  Dy0  1  0.811542  0.188316  0.811543  1
  Dy  Dy1  1  0.189171  0.806864  0.189160  1
  Dy  Dy2  1  0.811542  0.811543  0.188316  1
  Dy  Dy3  1  0.189171  0.189160  0.806864  1
  Ho  Ho4  1  0.599532  0.599545  0.599545  1
  Ho  Ho5  1  0.598602  0.598546  0.206962  1
  Ho  Ho6  1  0.598602  0.206962  0.598546  1
  Ho  Ho7  1  0.206929  0.598603  0.598603  1
  Ho  Ho8  1  0.061953  0.438760  0.438760  1
  Ho  Ho9  1  0.437475  0.059770  0.059770  1
  Ho  Ho10  1  0.438816  0.061968  0.438772  1
  Ho  Ho11  1  0.059706  0.437526  0.059722  1
  Ho  Ho12  1  0.438816  0.438772  0.061968  1
  Ho  Ho13  1  0.059706  0.059722  0.437526  1
  Ho  Ho14  1  0.188519  0.811357  0.811357  1
  Ho  Ho15  1  0.806718  0.189317  0.189317  1
  Cd  Cd16  1  0.829929  0.829782  0.829782  1
  Cd  Cd17  1  0.830386  0.830559  0.507008  1
  Cd  Cd18  1  0.830386  0.507008  0.830559  1
  Cd  Cd19  1  0.507056  0.830392  0.830392  1
  Ir  Ir20  1  0.393296  0.393526  0.826997  1
  Ir  Ir21  1  0.393296  0.826997  0.393526  1
  Ir  Ir22  1  0.826982  0.393335  0.393335  1
  Os  Os23  1  0.391873  0.391674  0.391674  1
