# generated using pymatgen
data_B4Pd3PtRh4
_symmetry_space_group_name_H-M   'P 1'
_cell_length_a   6.09517258
_cell_length_b   5.52561015
_cell_length_c   6.76260584
_cell_angle_alpha   58.19082338
_cell_angle_beta   50.49593981
_cell_angle_gamma   69.98753183
_symmetry_Int_Tables_number   1
_chemical_formula_structural   B4Pd3PtRh4
_chemical_formula_sum   'B4 Pd3 Pt1 Rh4'
_cell_volume   149.33367437
_cell_formula_units_Z   1
loop_
 _symmetry_equiv_pos_site_id
 _symmetry_equiv_pos_as_xyz
  1  'x, y, z'
loop_
 _atom_site_type_symbol
 _atom_site_label
 _atom_site_symmetry_multiplicity
 _atom_site_fract_x
 _atom_site_fract_y
 _atom_site_fract_z
 _atom_site_occupancy
  B  B0  1  0.454713  0.097619  0.007862  1
  B  B1  1  0.810564  0.249388  0.146268  1
  B  B2  1  0.111005  0.454761  0.433362  1
  B  B3  1  0.244338  0.813898  0.797860  1
  Pd  Pd4  1  0.615229  0.541576  0.619021  1
  Pd  Pd5  1  0.627698  0.026806  0.635416  1
  Pd  Pd6  1  0.028329  0.628821  0.708592  1
  Pt  Pt7  1  0.539064  0.614505  0.223057  1
  Rh  Rh8  1  0.097673  0.410492  0.140669  1
  Rh  Rh9  1  0.107738  0.900181  0.150900  1
  Rh  Rh10  1  0.410612  0.095633  0.352021  1
  Rh  Rh11  1  0.897808  0.111087  0.840198  1
