# generated using pymatgen
data_SrSi6(As3Pt2)2
_symmetry_space_group_name_H-M   'P 1'
_cell_length_a   7.41646128
_cell_length_b   7.43469574
_cell_length_c   7.41646239
_cell_angle_alpha   109.44122486
_cell_angle_beta   109.48434429
_cell_angle_gamma   109.38878734
_symmetry_Int_Tables_number   1
_chemical_formula_structural   SrSi6(As3Pt2)2
_chemical_formula_sum   'Sr1 Si6 As6 Pt4'
_cell_volume   315.18513763
_cell_formula_units_Z   1
loop_
 _symmetry_equiv_pos_site_id
 _symmetry_equiv_pos_as_xyz
  1  'x, y, z'
loop_
 _atom_site_type_symbol
 _atom_site_label
 _atom_site_symmetry_multiplicity
 _atom_site_fract_x
 _atom_site_fract_y
 _atom_site_fract_z
 _atom_site_occupancy
  Sr  Sr0  1  0.003936  0.995145  0.991208  1
  Si  Si1  1  0.142924  0.347734  0.497675  1
  Si  Si2  1  0.513913  0.158861  0.362502  1
  Si  Si3  1  0.850060  0.347734  0.204810  1
  Si  Si4  1  0.635880  0.482511  0.846631  1
  Si  Si5  1  0.358523  0.211914  0.853390  1
  Si  Si6  1  0.796359  0.158861  0.644949  1
  As  As7  1  0.850065  0.637313  0.493031  1
  As  As8  1  0.348963  0.490388  0.141425  1
  As  As9  1  0.214909  0.865719  0.355522  1
  As  As10  1  0.144281  0.637313  0.787247  1
  As  As11  1  0.648231  0.790726  0.142496  1
  As  As12  1  0.510196  0.865719  0.650810  1
  Pt  Pt13  1  0.005262  0.012044  0.516045  1
  Pt  Pt14  1  0.493742  0.492987  0.506229  1
  Pt  Pt15  1  0.986758  0.492987  0.999246  1
  Pt  Pt16  1  0.495999  0.012044  0.006781  1
