# generated using pymatgen
data_Ho5Er11CdHg3Rh4
_symmetry_space_group_name_H-M   'P 1'
_cell_length_a   9.53143359
_cell_length_b   9.53310718
_cell_length_c   9.53486400
_cell_angle_alpha   59.99389672
_cell_angle_beta   59.98808680
_cell_angle_gamma   60.03170034
_symmetry_Int_Tables_number   1
_chemical_formula_structural   Ho5Er11CdHg3Rh4
_chemical_formula_sum   'Ho5 Er11 Cd1 Hg3 Rh4'
_cell_volume   612.68460517
_cell_formula_units_Z   1
loop_
 _symmetry_equiv_pos_site_id
 _symmetry_equiv_pos_as_xyz
  1  'x, y, z'
loop_
 _atom_site_type_symbol
 _atom_site_label
 _atom_site_symmetry_multiplicity
 _atom_site_fract_x
 _atom_site_fract_y
 _atom_site_fract_z
 _atom_site_occupancy
  Ho  Ho0  1  0.936469  0.564264  0.562514  1
  Ho  Ho1  1  0.936469  0.564264  0.936753  1
  Ho  Ho2  1  0.563242  0.937181  0.563007  1
  Ho  Ho3  1  0.563242  0.937181  0.936569  1
  Ho  Ho4  1  0.311021  0.311863  0.688558  1
  Er  Er5  1  0.936699  0.937537  0.562882  1
  Er  Er6  1  0.562085  0.563823  0.937046  1
  Er  Er7  1  0.689258  0.689379  0.310682  1
  Er  Er8  1  0.148380  0.554664  0.148478  1
  Er  Er9  1  0.688742  0.311895  0.688574  1
  Er  Er10  1  0.149698  0.148979  0.150151  1
  Er  Er11  1  0.551447  0.149028  0.149762  1
  Er  Er12  1  0.688742  0.311895  0.310788  1
  Er  Er13  1  0.149698  0.148979  0.551172  1
  Er  Er14  1  0.310653  0.689633  0.310398  1
  Er  Er15  1  0.310653  0.689633  0.689317  1
  Cd  Cd16  1  0.919500  0.240668  0.919916  1
  Hg  Hg17  1  0.914618  0.916214  0.255043  1
  Hg  Hg18  1  0.255041  0.915672  0.914644  1
  Hg  Hg19  1  0.914618  0.916214  0.914126  1
  Rh  Rh20  1  0.356990  0.357649  0.928996  1
  Rh  Rh21  1  0.357063  0.928396  0.357270  1
  Rh  Rh22  1  0.928679  0.357342  0.356989  1
  Rh  Rh23  1  0.356990  0.357649  0.356364  1
