# generated using pymatgen
data_Y2Si5SnAsRh12
_symmetry_space_group_name_H-M   'P 1'
_cell_length_a   9.89423953
_cell_length_b   9.94139218
_cell_length_c   3.87346316
_cell_angle_alpha   90.03214799
_cell_angle_beta   89.97775053
_cell_angle_gamma   120.18248590
_symmetry_Int_Tables_number   1
_chemical_formula_structural   Y2Si5SnAsRh12
_chemical_formula_sum   'Y2 Si5 Sn1 As1 Rh12'
_cell_volume   329.35030784
_cell_formula_units_Z   1
loop_
 _symmetry_equiv_pos_site_id
 _symmetry_equiv_pos_as_xyz
  1  'x, y, z'
loop_
 _atom_site_type_symbol
 _atom_site_label
 _atom_site_symmetry_multiplicity
 _atom_site_fract_x
 _atom_site_fract_y
 _atom_site_fract_z
 _atom_site_occupancy
  Y  Y0  1  0.338624  0.666712  0.744179  1
  Y  Y1  1  0.998710  0.001013  0.243656  1
  Si  Si2  1  0.955855  0.220972  0.743451  1
  Si  Si3  1  0.774210  0.734194  0.743409  1
  Si  Si4  1  0.267857  0.045253  0.743006  1
  Si  Si5  1  0.372335  0.439554  0.243633  1
  Si  Si6  1  0.558443  0.931358  0.244306  1
  Sn  Sn7  1  0.664763  0.332628  0.731179  1
  As  As8  1  0.073975  0.627319  0.244215  1
  Rh  Rh9  1  0.737036  0.956014  0.743861  1
  Rh  Rh10  1  0.041291  0.786415  0.743585  1
  Rh  Rh11  1  0.218897  0.260864  0.743559  1
  Rh  Rh12  1  0.607304  0.720555  0.243875  1
  Rh  Rh13  1  0.280163  0.893197  0.243731  1
  Rh  Rh14  1  0.110726  0.384823  0.243595  1
  Rh  Rh15  1  0.960199  0.463613  0.744285  1
  Rh  Rh16  1  0.530958  0.492976  0.743943  1
  Rh  Rh17  1  0.507803  0.038386  0.744143  1
  Rh  Rh18  1  0.410579  0.216939  0.242662  1
  Rh  Rh19  1  0.783471  0.192540  0.243168  1
  Rh  Rh20  1  0.806801  0.594678  0.242743  1
