# generated using pymatgen
data_TmLuZn2In
_symmetry_space_group_name_H-M   'P 1'
_cell_length_a   7.31816500
_cell_length_b   7.31735500
_cell_length_c   4.10201600
_cell_angle_alpha   90.00000000
_cell_angle_beta   90.00000000
_cell_angle_gamma   90.00000000
_symmetry_Int_Tables_number   1
_chemical_formula_structural   TmLuZn2In
_chemical_formula_sum   'Tm2 Lu2 Zn4 In2'
_cell_volume   219.66136216
_cell_formula_units_Z   2
loop_
 _symmetry_equiv_pos_site_id
 _symmetry_equiv_pos_as_xyz
  1  'x, y, z'
loop_
 _atom_site_type_symbol
 _atom_site_label
 _atom_site_symmetry_multiplicity
 _atom_site_fract_x
 _atom_site_fract_y
 _atom_site_fract_z
 _atom_site_occupancy
  Tm  Tm0  1  0.329630  0.170301  0.500000  1
  Tm  Tm1  1  0.829630  0.329698  0.500000  1
  Lu  Lu2  1  0.170354  0.670423  0.500000  1
  Lu  Lu3  1  0.670354  0.829576  0.500000  1
  Zn  Zn4  1  0.624290  0.123760  0.000000  1
  Zn  Zn5  1  0.124289  0.376239  0.000000  1
  Zn  Zn6  1  0.875766  0.624729  0.000000  1
  Zn  Zn7  1  0.375766  0.875271  0.000000  1
  In  In8  1  0.999959  0.999791  0.000000  1
  In  In9  1  0.499959  0.500209  0.000000  1
