# generated using pymatgen
data_Ca4CoSi12Ni19
_symmetry_space_group_name_H-M   'P 1'
_cell_length_a   3.76774700
_cell_length_b   6.73699539
_cell_length_c   18.69727228
_cell_angle_alpha   89.94166455
_cell_angle_beta   90.00000000
_cell_angle_gamma   90.00000000
_symmetry_Int_Tables_number   1
_chemical_formula_structural   Ca4CoSi12Ni19
_chemical_formula_sum   'Ca4 Co1 Si12 Ni19'
_cell_volume   474.59811662
_cell_formula_units_Z   1
loop_
 _symmetry_equiv_pos_site_id
 _symmetry_equiv_pos_as_xyz
  1  'x, y, z'
loop_
 _atom_site_type_symbol
 _atom_site_label
 _atom_site_symmetry_multiplicity
 _atom_site_fract_x
 _atom_site_fract_y
 _atom_site_fract_z
 _atom_site_occupancy
  Ca  Ca0  1  0.250000  0.622059  0.642073  1
  Ca  Ca1  1  0.750000  0.377707  0.358003  1
  Ca  Ca2  1  0.750000  0.121529  0.858533  1
  Ca  Ca3  1  0.250000  0.879422  0.141214  1
  Co  Co4  1  0.250000  0.133660  0.995552  1
  Si  Si5  1  0.250000  0.849420  0.926570  1
  Si  Si6  1  0.750000  0.153510  0.071898  1
  Si  Si7  1  0.750000  0.343865  0.574431  1
  Si  Si8  1  0.250000  0.655920  0.425552  1
  Si  Si9  1  0.750000  0.622179  0.762386  1
  Si  Si10  1  0.250000  0.377690  0.237906  1
  Si  Si11  1  0.250000  0.412194  0.915709  1
  Si  Si12  1  0.750000  0.580463  0.085766  1
  Si  Si13  1  0.750000  0.920130  0.586044  1
  Si  Si14  1  0.250000  0.079792  0.413923  1
  Si  Si15  1  0.250000  0.122455  0.738727  1
  Si  Si16  1  0.750000  0.878600  0.261278  1
  Ni  Ni17  1  0.750000  0.387622  0.986005  1
  Ni  Ni18  1  0.750000  0.115405  0.485518  1
  Ni  Ni19  1  0.250000  0.615879  0.013833  1
  Ni  Ni20  1  0.250000  0.361348  0.115061  1
  Ni  Ni21  1  0.750000  0.640019  0.885131  1
  Ni  Ni22  1  0.750000  0.859721  0.384333  1
  Ni  Ni23  1  0.250000  0.140435  0.615653  1
  Ni  Ni24  1  0.250000  0.066805  0.292540  1
  Ni  Ni25  1  0.750000  0.933297  0.707377  1
  Ni  Ni26  1  0.750000  0.567346  0.207257  1
  Ni  Ni27  1  0.250000  0.433159  0.793567  1
  Ni  Ni28  1  0.750000  0.633273  0.504231  1
  Ni  Ni29  1  0.250000  0.366605  0.495841  1
  Ni  Ni30  1  0.250000  0.812505  0.800099  1
  Ni  Ni31  1  0.750000  0.187551  0.199229  1
  Ni  Ni32  1  0.750000  0.313115  0.700178  1
  Ni  Ni33  1  0.250000  0.687202  0.299822  1
  Ni  Ni34  1  0.250000  0.884451  0.514469  1
  Ni  Ni35  1  0.750000  0.863669  0.004292  1
