# generated using pymatgen
data_Ta2MnMoS6
_symmetry_space_group_name_H-M   'P 1'
_cell_length_a   5.73724600
_cell_length_b   5.73724755
_cell_length_c   12.74295200
_cell_angle_alpha   90.00000000
_cell_angle_beta   90.00000000
_cell_angle_gamma   120.00000258
_symmetry_Int_Tables_number   1
_chemical_formula_structural   Ta2MnMoS6
_chemical_formula_sum   'Ta4 Mn2 Mo2 S12'
_cell_volume   363.25176143
_cell_formula_units_Z   2
loop_
 _symmetry_equiv_pos_site_id
 _symmetry_equiv_pos_as_xyz
  1  'x, y, z'
loop_
 _atom_site_type_symbol
 _atom_site_label
 _atom_site_symmetry_multiplicity
 _atom_site_fract_x
 _atom_site_fract_y
 _atom_site_fract_z
 _atom_site_occupancy
  Ta  Ta0  1  0.666667  0.333333  0.499922  1
  Ta  Ta1  1  0.333333  0.666667  0.999922  1
  Ta  Ta2  1  0.000000  0.000000  0.499930  1
  Ta  Ta3  1  0.000000  0.000000  0.999930  1
  Mn  Mn4  1  0.666667  0.333333  0.748324  1
  Mn  Mn5  1  0.333333  0.666667  0.248324  1
  Mo  Mo6  1  0.333333  0.666667  0.500675  1
  Mo  Mo7  1  0.666667  0.333333  0.000675  1
  S  S8  1  0.336717  0.329346  0.123213  1
  S  S9  1  0.670654  0.007372  0.123213  1
  S  S10  1  0.992628  0.663283  0.123213  1
  S  S11  1  0.007372  0.336717  0.623213  1
  S  S12  1  0.666776  0.000551  0.877170  1
  S  S13  1  0.663283  0.670654  0.623213  1
  S  S14  1  0.329346  0.992628  0.623213  1
  S  S15  1  0.666225  0.666776  0.377170  1
  S  S16  1  0.333224  0.999449  0.377170  1
  S  S17  1  0.333775  0.333224  0.877170  1
  S  S18  1  0.999449  0.666225  0.877170  1
  S  S19  1  0.000551  0.333775  0.377170  1
