# generated using pymatgen
data_Tb8In3Rh
_symmetry_space_group_name_H-M   'P 1'
_cell_length_a   10.51833100
_cell_length_b   10.51833088
_cell_length_c   7.07937600
_cell_angle_alpha   90.00000000
_cell_angle_beta   90.00000000
_cell_angle_gamma   119.99999724
_symmetry_Int_Tables_number   1
_chemical_formula_structural   Tb8In3Rh
_chemical_formula_sum   'Tb16 In6 Rh2'
_cell_volume   678.29604513
_cell_formula_units_Z   2
loop_
 _symmetry_equiv_pos_site_id
 _symmetry_equiv_pos_as_xyz
  1  'x, y, z'
loop_
 _atom_site_type_symbol
 _atom_site_label
 _atom_site_symmetry_multiplicity
 _atom_site_fract_x
 _atom_site_fract_y
 _atom_site_fract_z
 _atom_site_occupancy
  Tb  Tb0  1  0.533201  0.066402  0.507072  1
  Tb  Tb1  1  0.933598  0.466799  0.507072  1
  Tb  Tb2  1  0.533201  0.466799  0.507072  1
  Tb  Tb3  1  0.466799  0.933598  0.007072  1
  Tb  Tb4  1  0.066402  0.533201  0.007072  1
  Tb  Tb5  1  0.466799  0.533201  0.007072  1
  Tb  Tb6  1  0.176152  0.352303  0.713079  1
  Tb  Tb7  1  0.647697  0.823848  0.713079  1
  Tb  Tb8  1  0.176152  0.823848  0.713079  1
  Tb  Tb9  1  0.823848  0.647697  0.213079  1
  Tb  Tb10  1  0.352303  0.176152  0.213079  1
  Tb  Tb11  1  0.823848  0.176152  0.213079  1
  Tb  Tb12  1  0.666667  0.333333  0.886807  1
  Tb  Tb13  1  0.333333  0.666667  0.386807  1
  Tb  Tb14  1  0.000000  0.000000  0.493414  1
  Tb  Tb15  1  0.000000  0.000000  0.993414  1
  In  In16  1  0.837279  0.674558  0.752145  1
  In  In17  1  0.325442  0.162721  0.752145  1
  In  In18  1  0.837279  0.162721  0.752145  1
  In  In19  1  0.162721  0.325442  0.252145  1
  In  In20  1  0.674558  0.837279  0.252145  1
  In  In21  1  0.162721  0.837279  0.252145  1
  Rh  Rh22  1  0.666667  0.333333  0.281911  1
  Rh  Rh23  1  0.333333  0.666667  0.781911  1
