# generated using pymatgen
data_Sm4Zn(Ga2Pd)10
_symmetry_space_group_name_H-M   'P 1'
_cell_length_a   4.25956650
_cell_length_b   10.99216176
_cell_length_c   13.61207300
_cell_angle_alpha   80.45924032
_cell_angle_beta   80.99835221
_cell_angle_gamma   78.82801347
_symmetry_Int_Tables_number   1
_chemical_formula_structural   Sm4Zn(Ga2Pd)10
_chemical_formula_sum   'Sm4 Zn1 Ga20 Pd10'
_cell_volume   611.50174387
_cell_formula_units_Z   1
loop_
 _symmetry_equiv_pos_site_id
 _symmetry_equiv_pos_as_xyz
  1  'x, y, z'
loop_
 _atom_site_type_symbol
 _atom_site_label
 _atom_site_symmetry_multiplicity
 _atom_site_fract_x
 _atom_site_fract_y
 _atom_site_fract_z
 _atom_site_occupancy
  Sm  Sm0  1  0.877841  0.908077  0.336242  1
  Sm  Sm1  1  0.122159  0.091923  0.663758  1
  Sm  Sm2  1  0.227383  0.366543  0.178689  1
  Sm  Sm3  1  0.772617  0.633457  0.821311  1
  Zn  Zn4  1  0.500000  0.500000  0.500000  1
  Ga  Ga5  1  0.993739  0.924283  0.088238  1
  Ga  Ga6  1  0.006261  0.075717  0.911762  1
  Ga  Ga7  1  0.936429  0.327965  0.799178  1
  Ga  Ga8  1  0.063571  0.672035  0.200822  1
  Ga  Ga9  1  0.888950  0.675539  0.546560  1
  Ga  Ga10  1  0.111050  0.324461  0.453440  1
  Ga  Ga11  1  0.798556  0.397507  0.005383  1
  Ga  Ga12  1  0.201444  0.602493  0.994617  1
  Ga  Ga13  1  0.744888  0.211574  0.298651  1
  Ga  Ga14  1  0.255112  0.788426  0.701349  1
  Ga  Ga15  1  0.697492  0.104820  0.500194  1
  Ga  Ga16  1  0.302508  0.895180  0.499806  1
  Ga  Ga17  1  0.614257  0.472027  0.299459  1
  Ga  Ga18  1  0.385743  0.527973  0.700541  1
  Ga  Ga19  1  0.602135  0.797003  0.998727  1
  Ga  Ga20  1  0.397865  0.202997  0.001273  1
  Ga  Ga21  1  0.458377  0.712362  0.370886  1
  Ga  Ga22  1  0.541623  0.287638  0.629114  1
  Ga  Ga23  1  0.366836  0.063319  0.203007  1
  Ga  Ga24  1  0.633164  0.936681  0.796993  1
  Pd  Pd25  1  0.973522  0.438591  0.614367  1
  Pd  Pd26  1  0.026478  0.561409  0.385633  1
  Pd  Pd27  1  0.863254  0.163611  0.109882  1
  Pd  Pd28  1  0.136746  0.836389  0.890118  1
  Pd  Pd29  1  0.754569  0.880428  0.610435  1
  Pd  Pd30  1  0.245431  0.119572  0.389565  1
  Pd  Pd31  1  0.653773  0.581473  0.110984  1
  Pd  Pd32  1  0.346227  0.418527  0.889016  1
  Pd  Pd33  1  0.495138  0.826293  0.183433  1
  Pd  Pd34  1  0.504862  0.173707  0.816567  1
