# generated using pymatgen
data_Li2Ac3AgGe3
_symmetry_space_group_name_H-M   'P 1'
_cell_length_a   7.64243800
_cell_length_b   7.64243860
_cell_length_c   4.59416000
_cell_angle_alpha   90.00000000
_cell_angle_beta   90.00000000
_cell_angle_gamma   120.03054349
_symmetry_Int_Tables_number   1
_chemical_formula_structural   Li2Ac3AgGe3
_chemical_formula_sum   'Li2 Ac3 Ag1 Ge3'
_cell_volume   232.30945305
_cell_formula_units_Z   1
loop_
 _symmetry_equiv_pos_site_id
 _symmetry_equiv_pos_as_xyz
  1  'x, y, z'
loop_
 _atom_site_type_symbol
 _atom_site_label
 _atom_site_symmetry_multiplicity
 _atom_site_fract_x
 _atom_site_fract_y
 _atom_site_fract_z
 _atom_site_occupancy
  Li  Li0  1  0.226362  0.995386  0.500000  1
  Li  Li1  1  0.995386  0.226362  0.500000  1
  Ac  Ac2  1  0.423154  0.423154  0.000000  1
  Ac  Ac3  1  0.586965  0.998394  0.000000  1
  Ac  Ac4  1  0.998394  0.586965  0.000000  1
  Ag  Ag5  1  0.762968  0.762968  0.500000  1
  Ge  Ge6  1  0.005279  0.005279  0.000000  1
  Ge  Ge7  1  0.668564  0.332927  0.500000  1
  Ge  Ge8  1  0.332927  0.668564  0.500000  1
