# generated using pymatgen
data_La3Nd(ScIr)4
_symmetry_space_group_name_H-M   'P 1'
_cell_length_a   7.27973605
_cell_length_b   4.48158100
_cell_length_c   8.69927297
_cell_angle_alpha   90.00000000
_cell_angle_beta   89.52313336
_cell_angle_gamma   90.00000000
_symmetry_Int_Tables_number   1
_chemical_formula_structural   La3Nd(ScIr)4
_chemical_formula_sum   'La3 Nd1 Sc4 Ir4'
_cell_volume   283.80157412
_cell_formula_units_Z   1
loop_
 _symmetry_equiv_pos_site_id
 _symmetry_equiv_pos_as_xyz
  1  'x, y, z'
loop_
 _atom_site_type_symbol
 _atom_site_label
 _atom_site_symmetry_multiplicity
 _atom_site_fract_x
 _atom_site_fract_y
 _atom_site_fract_z
 _atom_site_occupancy
  La  La0  1  0.973504  0.250000  0.179542  1
  La  La1  1  0.474081  0.250000  0.323417  1
  La  La2  1  0.027071  0.750000  0.820174  1
  Nd  Nd3  1  0.527805  0.750000  0.678033  1
  Sc  Sc4  1  0.862571  0.250000  0.565549  1
  Sc  Sc5  1  0.366599  0.250000  0.933755  1
  Sc  Sc6  1  0.135747  0.750000  0.437022  1
  Sc  Sc7  1  0.633190  0.750000  0.062299  1
  Ir  Ir8  1  0.733116  0.250000  0.897577  1
  Ir  Ir9  1  0.232836  0.250000  0.603668  1
  Ir  Ir10  1  0.266125  0.750000  0.101985  1
  Ir  Ir11  1  0.767354  0.750000  0.396977  1
