# generated using pymatgen
data_Yb4CeRu2
_symmetry_space_group_name_H-M   'P 1'
_cell_length_a   8.75731968
_cell_length_b   8.75732064
_cell_length_c   7.44325760
_cell_angle_alpha   84.05638472
_cell_angle_beta   84.05638424
_cell_angle_gamma   43.16222609
_symmetry_Int_Tables_number   1
_chemical_formula_structural   Yb4CeRu2
_chemical_formula_sum   'Yb8 Ce2 Ru4'
_cell_volume   388.05585970
_cell_formula_units_Z   2
loop_
 _symmetry_equiv_pos_site_id
 _symmetry_equiv_pos_as_xyz
  1  'x, y, z'
loop_
 _atom_site_type_symbol
 _atom_site_label
 _atom_site_symmetry_multiplicity
 _atom_site_fract_x
 _atom_site_fract_y
 _atom_site_fract_z
 _atom_site_occupancy
  Yb  Yb0  1  0.975169  0.198945  0.081955  1
  Yb  Yb1  1  0.801055  0.024831  0.418045  1
  Yb  Yb2  1  0.362438  0.210679  0.823795  1
  Yb  Yb3  1  0.789321  0.637562  0.676205  1
  Yb  Yb4  1  0.638755  0.790569  0.178507  1
  Yb  Yb5  1  0.209431  0.361245  0.321493  1
  Yb  Yb6  1  0.563571  0.436429  0.750000  1
  Yb  Yb7  1  0.417836  0.582164  0.250000  1
  Ce  Ce8  1  0.992963  0.813793  0.897637  1
  Ce  Ce9  1  0.186207  0.007037  0.602363  1
  Ru  Ru10  1  0.141747  0.637455  0.622411  1
  Ru  Ru11  1  0.362545  0.858253  0.877589  1
  Ru  Ru12  1  0.886949  0.327987  0.441486  1
  Ru  Ru13  1  0.672013  0.113051  0.058514  1
