# generated using pymatgen
data_Dy20IrOs3Rh8
_symmetry_space_group_name_H-M   'P 1'
_cell_length_a   10.86860945
_cell_length_b   10.87054321
_cell_length_c   6.41157414
_cell_angle_alpha   90.00161553
_cell_angle_beta   90.02414631
_cell_angle_gamma   90.05412458
_symmetry_Int_Tables_number   1
_chemical_formula_structural   Dy20IrOs3Rh8
_chemical_formula_sum   'Dy20 Ir1 Os3 Rh8'
_cell_volume   757.51226060
_cell_formula_units_Z   1
loop_
 _symmetry_equiv_pos_site_id
 _symmetry_equiv_pos_as_xyz
  1  'x, y, z'
loop_
 _atom_site_type_symbol
 _atom_site_label
 _atom_site_symmetry_multiplicity
 _atom_site_fract_x
 _atom_site_fract_y
 _atom_site_fract_z
 _atom_site_occupancy
  Dy  Dy0  1  0.294521  0.086323  0.377306  1
  Dy  Dy1  1  0.294727  0.912326  0.877596  1
  Dy  Dy2  1  0.705721  0.085487  0.878141  1
  Dy  Dy3  1  0.705130  0.913346  0.377288  1
  Dy  Dy4  1  0.584336  0.793998  0.877526  1
  Dy  Dy5  1  0.586711  0.205925  0.377518  1
  Dy  Dy6  1  0.412791  0.794100  0.378814  1
  Dy  Dy7  1  0.413912  0.205333  0.877723  1
  Dy  Dy8  1  0.208133  0.414454  0.626020  1
  Dy  Dy9  1  0.207166  0.588449  0.118442  1
  Dy  Dy10  1  0.792933  0.412080  0.118951  1
  Dy  Dy11  1  0.792462  0.587549  0.625446  1
  Dy  Dy12  1  0.912169  0.706899  0.119002  1
  Dy  Dy13  1  0.912763  0.292050  0.625646  1
  Dy  Dy14  1  0.089029  0.707653  0.625860  1
  Dy  Dy15  1  0.087796  0.293320  0.119561  1
  Dy  Dy16  1  0.000013  0.999866  0.498900  1
  Dy  Dy17  1  0.000271  0.999963  0.998878  1
  Dy  Dy18  1  0.500002  0.500139  0.999064  1
  Dy  Dy19  1  0.499783  0.499992  0.498288  1
  Ir  Ir20  1  0.347070  0.651490  0.749537  1
  Os  Os21  1  0.500182  0.000342  0.125015  1
  Os  Os22  1  0.500197  0.000575  0.624088  1
  Os  Os23  1  0.999479  0.499772  0.875723  1
  Rh  Rh24  1  0.850082  0.153682  0.250699  1
  Rh  Rh25  1  0.848620  0.847335  0.749401  1
  Rh  Rh26  1  0.150981  0.153080  0.750052  1
  Rh  Rh27  1  0.149873  0.847078  0.250837  1
  Rh  Rh28  1  0.652602  0.348862  0.749905  1
  Rh  Rh29  1  0.654776  0.649872  0.250544  1
  Rh  Rh30  1  0.346395  0.348893  0.250182  1
  Rh  Rh31  1  0.999374  0.499767  0.378044  1
