# generated using pymatgen
data_HoEr3(FeB4)4
_symmetry_space_group_name_H-M   'P 1'
_cell_length_a   3.36024100
_cell_length_b   5.87075906
_cell_length_c   11.35803311
_cell_angle_alpha   89.98385261
_cell_angle_beta   90.00000000
_cell_angle_gamma   90.00000000
_symmetry_Int_Tables_number   1
_chemical_formula_structural   HoEr3(FeB4)4
_chemical_formula_sum   'Ho1 Er3 Fe4 B16'
_cell_volume   224.06178767
_cell_formula_units_Z   1
loop_
 _symmetry_equiv_pos_site_id
 _symmetry_equiv_pos_as_xyz
  1  'x, y, z'
loop_
 _atom_site_type_symbol
 _atom_site_label
 _atom_site_symmetry_multiplicity
 _atom_site_fract_x
 _atom_site_fract_y
 _atom_site_fract_z
 _atom_site_occupancy
  Ho  Ho0  1  0.000000  0.626604  0.349676  1
  Er  Er1  1  0.000000  0.373323  0.650342  1
  Er  Er2  1  0.000000  0.126870  0.150253  1
  Er  Er3  1  0.000000  0.873107  0.849692  1
  Fe  Fe4  1  0.000000  0.633003  0.088729  1
  Fe  Fe5  1  0.000000  0.366954  0.911017  1
  Fe  Fe6  1  0.000000  0.133231  0.410829  1
  Fe  Fe7  1  0.000000  0.867044  0.589177  1
  B  B8  1  0.500000  0.783070  0.183652  1
  B  B9  1  0.500000  0.217049  0.816082  1
  B  B10  1  0.500000  0.282460  0.316094  1
  B  B11  1  0.500000  0.716987  0.684037  1
  B  B12  1  0.500000  0.861428  0.031394  1
  B  B13  1  0.500000  0.138760  0.968384  1
  B  B14  1  0.500000  0.360936  0.468673  1
  B  B15  1  0.500000  0.638782  0.531858  1
  B  B16  1  0.500000  0.888707  0.454104  1
  B  B17  1  0.500000  0.111595  0.546366  1
  B  B18  1  0.500000  0.388279  0.046034  1
  B  B19  1  0.500000  0.611794  0.953753  1
  B  B20  1  0.500000  0.975999  0.309245  1
  B  B21  1  0.500000  0.024180  0.690923  1
  B  B22  1  0.500000  0.475584  0.190470  1
  B  B23  1  0.500000  0.524252  0.809217  1
