# generated using pymatgen
data_Yb11Tm(AgGe)12
_symmetry_space_group_name_H-M   'P 1'
_cell_length_a   4.55751200
_cell_length_b   7.83825914
_cell_length_c   21.33846685
_cell_angle_alpha   89.92314731
_cell_angle_beta   90.00000000
_cell_angle_gamma   90.00000000
_symmetry_Int_Tables_number   1
_chemical_formula_structural   Yb11Tm(AgGe)12
_chemical_formula_sum   'Yb11 Tm1 Ag12 Ge12'
_cell_volume   762.27251426
_cell_formula_units_Z   1
loop_
 _symmetry_equiv_pos_site_id
 _symmetry_equiv_pos_as_xyz
  1  'x, y, z'
loop_
 _atom_site_type_symbol
 _atom_site_label
 _atom_site_symmetry_multiplicity
 _atom_site_fract_x
 _atom_site_fract_y
 _atom_site_fract_z
 _atom_site_occupancy
  Yb  Yb0  1  0.250000  0.224300  0.000837  1
  Yb  Yb1  1  0.250000  0.277366  0.499757  1
  Yb  Yb2  1  0.750000  0.772749  0.001193  1
  Yb  Yb3  1  0.750000  0.721958  0.499800  1
  Yb  Yb4  1  0.250000  0.210815  0.333747  1
  Yb  Yb5  1  0.250000  0.286261  0.833182  1
  Yb  Yb6  1  0.750000  0.787087  0.665869  1
  Yb  Yb7  1  0.750000  0.710048  0.166200  1
  Yb  Yb8  1  0.250000  0.214033  0.666309  1
  Yb  Yb9  1  0.250000  0.287943  0.166723  1
  Yb  Yb10  1  0.750000  0.787905  0.333075  1
  Tm  Tm11  1  0.750000  0.714236  0.834381  1
  Ag  Ag12  1  0.250000  0.911988  0.762510  1
  Ag  Ag13  1  0.250000  0.586625  0.262099  1
  Ag  Ag14  1  0.750000  0.087461  0.238121  1
  Ag  Ag15  1  0.750000  0.413161  0.739208  1
  Ag  Ag16  1  0.250000  0.923211  0.906146  1
  Ag  Ag17  1  0.250000  0.581122  0.405830  1
  Ag  Ag18  1  0.750000  0.080985  0.093922  1
  Ag  Ag19  1  0.750000  0.419193  0.594451  1
  Ag  Ag20  1  0.250000  0.917532  0.565239  1
  Ag  Ag21  1  0.250000  0.582080  0.067925  1
  Ag  Ag22  1  0.750000  0.082395  0.434423  1
  Ag  Ag23  1  0.750000  0.418636  0.936951  1
  Ge  Ge24  1  0.250000  0.582488  0.730853  1
  Ge  Ge25  1  0.250000  0.917952  0.227946  1
  Ge  Ge26  1  0.750000  0.417640  0.272113  1
  Ge  Ge27  1  0.750000  0.078487  0.771580  1
  Ge  Ge28  1  0.250000  0.911396  0.102474  1
  Ge  Ge29  1  0.250000  0.587426  0.603104  1
  Ge  Ge30  1  0.750000  0.088160  0.897212  1
  Ge  Ge31  1  0.750000  0.412711  0.397860  1
  Ge  Ge32  1  0.250000  0.594038  0.916007  1
  Ge  Ge33  1  0.250000  0.910216  0.427356  1
  Ge  Ge34  1  0.750000  0.410047  0.072080  1
  Ge  Ge35  1  0.750000  0.090354  0.573516  1
