# generated using pymatgen
data_YHo4AlBi2
_symmetry_space_group_name_H-M   'P 1'
_cell_length_a   8.98839080
_cell_length_b   8.98839146
_cell_length_c   6.46241500
_cell_angle_alpha   90.00009427
_cell_angle_beta   90.00008873
_cell_angle_gamma   119.83319047
_symmetry_Int_Tables_number   1
_chemical_formula_structural   YHo4AlBi2
_chemical_formula_sum   'Y2 Ho8 Al2 Bi4'
_cell_volume   452.91525361
_cell_formula_units_Z   2
loop_
 _symmetry_equiv_pos_site_id
 _symmetry_equiv_pos_as_xyz
  1  'x, y, z'
loop_
 _atom_site_type_symbol
 _atom_site_label
 _atom_site_symmetry_multiplicity
 _atom_site_fract_x
 _atom_site_fract_y
 _atom_site_fract_z
 _atom_site_occupancy
  Y  Y0  1  0.237507  0.998776  0.249997  1
  Y  Y1  1  0.998776  0.237507  0.249997  1
  Ho  Ho2  1  0.669050  0.325963  0.507274  1
  Ho  Ho3  1  0.325963  0.669050  0.507274  1
  Ho  Ho4  1  0.325956  0.669048  0.992732  1
  Ho  Ho5  1  0.669048  0.325956  0.992732  1
  Ho  Ho6  1  0.761248  0.761248  0.249999  1
  Ho  Ho7  1  0.233082  0.233082  0.749994  1
  Ho  Ho8  1  0.765092  0.013256  0.749999  1
  Ho  Ho9  1  0.013256  0.765092  0.749999  1
  Al  Al10  1  0.397092  0.001416  0.749999  1
  Al  Al11  1  0.001416  0.397092  0.749999  1
  Bi  Bi12  1  0.395570  0.395570  0.250004  1
  Bi  Bi13  1  0.601156  0.995457  0.249999  1
  Bi  Bi14  1  0.995457  0.601156  0.249999  1
  Bi  Bi15  1  0.610331  0.610331  0.750005  1
