# generated using pymatgen
data_La2Pr8Si5Sn
_symmetry_space_group_name_H-M   'P 1'
_cell_length_a   7.95816967
_cell_length_b   7.95817062
_cell_length_c   9.10466327
_cell_angle_alpha   115.91506321
_cell_angle_beta   115.91505711
_cell_angle_gamma   89.99999680
_symmetry_Int_Tables_number   1
_chemical_formula_structural   La2Pr8Si5Sn
_chemical_formula_sum   'La2 Pr8 Si5 Sn1'
_cell_volume   453.29703899
_cell_formula_units_Z   1
loop_
 _symmetry_equiv_pos_site_id
 _symmetry_equiv_pos_as_xyz
  1  'x, y, z'
loop_
 _atom_site_type_symbol
 _atom_site_label
 _atom_site_symmetry_multiplicity
 _atom_site_fract_x
 _atom_site_fract_y
 _atom_site_fract_z
 _atom_site_occupancy
  La  La0  1  0.503368  0.503368  0.006738  1
  La  La1  1  0.996632  0.996632  0.993262  1
  Pr  Pr2  1  0.971850  0.825602  0.285432  1
  Pr  Pr3  1  0.313583  0.459830  0.285432  1
  Pr  Pr4  1  0.825602  0.313583  0.285432  1
  Pr  Pr5  1  0.459830  0.971850  0.285432  1
  Pr  Pr6  1  0.040170  0.186417  0.714568  1
  Pr  Pr7  1  0.674398  0.528150  0.714568  1
  Pr  Pr8  1  0.186417  0.674398  0.714568  1
  Pr  Pr9  1  0.528150  0.040170  0.714568  1
  Si  Si10  1  0.250000  0.250000  0.500000  1
  Si  Si11  1  0.614228  0.885772  0.000000  1
  Si  Si12  1  0.385772  0.114228  0.000000  1
  Si  Si13  1  0.885772  0.385772  0.000000  1
  Si  Si14  1  0.114228  0.614228  0.000000  1
  Sn  Sn15  1  0.750000  0.750000  0.500000  1
