# generated using pymatgen
data_DyTh3(NiB4)4
_symmetry_space_group_name_H-M   'P 1'
_cell_length_a   6.93254594
_cell_length_b   6.93254727
_cell_length_c   6.93254692
_cell_angle_alpha   112.80441736
_cell_angle_beta   112.80442134
_cell_angle_gamma   102.99267891
_symmetry_Int_Tables_number   1
_chemical_formula_structural   DyTh3(NiB4)4
_chemical_formula_sum   'Dy1 Th3 Ni4 B16'
_cell_volume   254.06069195
_cell_formula_units_Z   1
loop_
 _symmetry_equiv_pos_site_id
 _symmetry_equiv_pos_as_xyz
  1  'x, y, z'
loop_
 _atom_site_type_symbol
 _atom_site_label
 _atom_site_symmetry_multiplicity
 _atom_site_fract_x
 _atom_site_fract_y
 _atom_site_fract_z
 _atom_site_occupancy
  Dy  Dy0  1  0.250000  0.750000  0.500000  1
  Th  Th1  1  0.796568  0.796568  0.000000  1
  Th  Th2  1  0.203432  0.203432  0.000000  1
  Th  Th3  1  0.750000  0.250000  0.500000  1
  Ni  Ni4  1  0.272594  0.501273  0.771320  1
  Ni  Ni5  1  0.729953  0.501273  0.228680  1
  Ni  Ni6  1  0.498727  0.727406  0.228680  1
  Ni  Ni7  1  0.498727  0.270047  0.771320  1
  B  B8  1  0.274507  0.111894  0.385882  1
  B  B9  1  0.726012  0.888624  0.614118  1
  B  B10  1  0.274507  0.888624  0.162612  1
  B  B11  1  0.726012  0.111894  0.837388  1
  B  B12  1  0.111376  0.725493  0.837388  1
  B  B13  1  0.888106  0.273988  0.162612  1
  B  B14  1  0.111376  0.273988  0.385882  1
  B  B15  1  0.888106  0.725493  0.614118  1
  B  B16  1  0.114291  0.112553  0.532265  1
  B  B17  1  0.580288  0.582025  0.467735  1
  B  B18  1  0.114291  0.582025  0.001738  1
  B  B19  1  0.580288  0.112553  0.998262  1
  B  B20  1  0.887447  0.885709  0.467735  1
  B  B21  1  0.417975  0.419712  0.532265  1
  B  B22  1  0.887447  0.419712  0.001738  1
  B  B23  1  0.417975  0.885709  0.998262  1
