# generated using pymatgen
data_Y15Er5Sn16
_symmetry_space_group_name_H-M   'P 1'
_cell_length_a   8.03780316
_cell_length_b   8.17885817
_cell_length_c   15.47374500
_cell_angle_alpha   90.00270434
_cell_angle_beta   90.00007897
_cell_angle_gamma   90.02303623
_symmetry_Int_Tables_number   1
_chemical_formula_structural   Y15Er5Sn16
_chemical_formula_sum   'Y15 Er5 Sn16'
_cell_volume   1017.24471855
_cell_formula_units_Z   1
loop_
 _symmetry_equiv_pos_site_id
 _symmetry_equiv_pos_as_xyz
  1  'x, y, z'
loop_
 _atom_site_type_symbol
 _atom_site_label
 _atom_site_symmetry_multiplicity
 _atom_site_fract_x
 _atom_site_fract_y
 _atom_site_fract_z
 _atom_site_occupancy
  Y  Y0  1  0.132866  0.336226  0.121800  1
  Y  Y1  1  0.632653  0.163737  0.121998  1
  Y  Y2  1  0.132631  0.336365  0.378133  1
  Y  Y3  1  0.367378  0.836371  0.622165  1
  Y  Y4  1  0.867442  0.663630  0.877863  1
  Y  Y5  1  0.522438  0.320795  0.901960  1
  Y  Y6  1  0.022576  0.179253  0.598051  1
  Y  Y7  1  0.477501  0.679289  0.402148  1
  Y  Y8  1  0.977434  0.820816  0.097894  1
  Y  Y9  1  0.477631  0.679334  0.097686  1
  Y  Y10  1  0.977482  0.820822  0.402363  1
  Y  Y11  1  0.522483  0.320753  0.597877  1
  Y  Y12  1  0.022408  0.179120  0.901879  1
  Y  Y13  1  0.801255  0.497223  0.250211  1
  Y  Y14  1  0.301557  0.002764  0.250058  1
  Er  Er15  1  0.367337  0.836306  0.877530  1
  Er  Er16  1  0.867278  0.663638  0.622240  1
  Er  Er17  1  0.632747  0.163595  0.378113  1
  Er  Er18  1  0.198610  0.503176  0.750008  1
  Er  Er19  1  0.698621  0.996862  0.749958  1
  Sn  Sn20  1  0.292717  0.034344  0.041096  1
  Sn  Sn21  1  0.791946  0.464444  0.458685  1
  Sn  Sn22  1  0.708081  0.964525  0.541838  1
  Sn  Sn23  1  0.208378  0.536068  0.957522  1
  Sn  Sn24  1  0.706414  0.964883  0.957566  1
  Sn  Sn25  1  0.206414  0.535129  0.542447  1
  Sn  Sn26  1  0.293745  0.035308  0.458011  1
  Sn  Sn27  1  0.792380  0.465081  0.041807  1
  Sn  Sn28  1  0.564725  0.619970  0.750048  1
  Sn  Sn29  1  0.064693  0.880039  0.749874  1
  Sn  Sn30  1  0.435182  0.380329  0.250468  1
  Sn  Sn31  1  0.934137  0.119196  0.250426  1
  Sn  Sn32  1  0.330858  0.147447  0.750304  1
  Sn  Sn33  1  0.830876  0.352627  0.749677  1
  Sn  Sn34  1  0.669490  0.853535  0.250288  1
  Sn  Sn35  1  0.169638  0.646999  0.250008  1
