# generated using pymatgen
data_Cs2KAl3F12
_symmetry_space_group_name_H-M   'P 1'
_cell_length_a   7.63509676
_cell_length_b   7.63509615
_cell_length_c   7.63509610
_cell_angle_alpha   56.18662129
_cell_angle_beta   56.18662609
_cell_angle_gamma   56.18661855
_symmetry_Int_Tables_number   1
_chemical_formula_structural   Cs2KAl3F12
_chemical_formula_sum   'Cs2 K1 Al3 F12'
_cell_volume   286.94255518
_cell_formula_units_Z   1
loop_
 _symmetry_equiv_pos_site_id
 _symmetry_equiv_pos_as_xyz
  1  'x, y, z'
loop_
 _atom_site_type_symbol
 _atom_site_label
 _atom_site_symmetry_multiplicity
 _atom_site_fract_x
 _atom_site_fract_y
 _atom_site_fract_z
 _atom_site_occupancy
  Cs  Cs0  1  0.621461  0.621461  0.621461  1
  Cs  Cs1  1  0.378539  0.378539  0.378539  1
  K  K2  1  0.000000  0.000000  0.000000  1
  Al  Al3  1  0.500000  0.000000  0.000000  1
  Al  Al4  1  0.000000  0.000000  0.500000  1
  Al  Al5  1  0.000000  0.500000  0.000000  1
  F  F6  1  0.101263  0.101263  0.574427  1
  F  F7  1  0.574427  0.101263  0.101263  1
  F  F8  1  0.101263  0.574427  0.101263  1
  F  F9  1  0.898737  0.425573  0.898737  1
  F  F10  1  0.898737  0.898737  0.425573  1
  F  F11  1  0.425573  0.898737  0.898737  1
  F  F12  1  0.912616  0.286197  0.286197  1
  F  F13  1  0.286197  0.286197  0.912616  1
  F  F14  1  0.286197  0.912616  0.286197  1
  F  F15  1  0.713803  0.087384  0.713803  1
  F  F16  1  0.087384  0.713803  0.713803  1
  F  F17  1  0.713803  0.713803  0.087384  1
