# generated using pymatgen
data_La3RhCl3
_symmetry_space_group_name_H-M   'P 1'
_cell_length_a   10.35444793
_cell_length_b   10.35444751
_cell_length_c   10.35444700
_cell_angle_alpha   109.47122355
_cell_angle_beta   109.47122273
_cell_angle_gamma   109.47121658
_symmetry_Int_Tables_number   1
_chemical_formula_structural   La3RhCl3
_chemical_formula_sum   'La12 Rh4 Cl12'
_cell_volume   854.59213758
_cell_formula_units_Z   4
loop_
 _symmetry_equiv_pos_site_id
 _symmetry_equiv_pos_as_xyz
  1  'x, y, z'
loop_
 _atom_site_type_symbol
 _atom_site_label
 _atom_site_symmetry_multiplicity
 _atom_site_fract_x
 _atom_site_fract_y
 _atom_site_fract_z
 _atom_site_occupancy
  La  La0  1  0.260007  0.010007  0.020014  1
  La  La1  1  0.020014  0.260007  0.010007  1
  La  La2  1  0.489993  0.750000  0.010007  1
  La  La3  1  0.750000  0.239993  0.260007  1
  La  La4  1  0.010007  0.020014  0.260007  1
  La  La5  1  0.010007  0.489993  0.750000  1
  La  La6  1  0.239993  0.260007  0.750000  1
  La  La7  1  0.260007  0.750000  0.239993  1
  La  La8  1  0.239993  0.479986  0.489993  1
  La  La9  1  0.479986  0.489993  0.239993  1
  La  La10  1  0.750000  0.010007  0.489993  1
  La  La11  1  0.489993  0.239993  0.479986  1
  Rh  Rh12  1  0.000000  0.250000  0.500000  1
  Rh  Rh13  1  0.250000  0.500000  0.000000  1
  Rh  Rh14  1  0.500000  0.000000  0.250000  1
  Rh  Rh15  1  0.250000  0.250000  0.250000  1
  Cl  Cl16  1  0.753652  0.746348  0.250000  1
  Cl  Cl17  1  0.503652  0.250000  0.996348  1
  Cl  Cl18  1  0.250000  0.996348  0.503652  1
  Cl  Cl19  1  0.507305  0.503652  0.753652  1
  Cl  Cl20  1  0.996348  0.992695  0.746348  1
  Cl  Cl21  1  0.746348  0.996348  0.992695  1
  Cl  Cl22  1  0.503652  0.753652  0.507305  1
  Cl  Cl23  1  0.753652  0.507305  0.503652  1
  Cl  Cl24  1  0.996348  0.503652  0.250000  1
  Cl  Cl25  1  0.992695  0.746348  0.996348  1
  Cl  Cl26  1  0.250000  0.753652  0.746348  1
  Cl  Cl27  1  0.746348  0.250000  0.753652  1
