# generated using pymatgen
data_Sm4Th(MnB3)2
_symmetry_space_group_name_H-M   'P 1'
_cell_length_a   5.48125477
_cell_length_b   5.48125660
_cell_length_c   8.36286109
_cell_angle_alpha   70.86990951
_cell_angle_beta   70.86990364
_cell_angle_gamma   60.00000181
_symmetry_Int_Tables_number   1
_chemical_formula_structural   Sm4Th(MnB3)2
_chemical_formula_sum   'Sm4 Th1 Mn2 B6'
_cell_volume   201.41255118
_cell_formula_units_Z   1
loop_
 _symmetry_equiv_pos_site_id
 _symmetry_equiv_pos_as_xyz
  1  'x, y, z'
loop_
 _atom_site_type_symbol
 _atom_site_label
 _atom_site_symmetry_multiplicity
 _atom_site_fract_x
 _atom_site_fract_y
 _atom_site_fract_z
 _atom_site_occupancy
  Sm  Sm0  1  0.748059  0.748059  0.755824  1
  Sm  Sm1  1  0.251941  0.251941  0.244176  1
  Sm  Sm2  1  0.584513  0.584513  0.246459  1
  Sm  Sm3  1  0.415487  0.415487  0.753541  1
  Th  Th4  1  0.000000  0.000000  0.000000  1
  Mn  Mn5  1  0.886026  0.886026  0.341921  1
  Mn  Mn6  1  0.113974  0.113974  0.658079  1
  B  B7  1  0.500000  0.165185  0.500000  1
  B  B8  1  0.834815  0.500000  0.500000  1
  B  B9  1  0.165185  0.834816  0.500000  1
  B  B10  1  0.165185  0.500000  0.500000  1
  B  B11  1  0.834815  0.165185  0.500000  1
  B  B12  1  0.500000  0.834815  0.500000  1
