# generated using pymatgen
data_Tb8Al(Pd7Pt)3
_symmetry_space_group_name_H-M   'P 1'
_cell_length_a   8.36483200
_cell_length_b   8.36582900
_cell_length_c   8.36594800
_cell_angle_alpha   90.00000000
_cell_angle_beta   90.00000000
_cell_angle_gamma   90.00000000
_symmetry_Int_Tables_number   1
_chemical_formula_structural   Tb8Al(Pd7Pt)3
_chemical_formula_sum   'Tb8 Al1 Pd21 Pt3'
_cell_volume   585.43861812
_cell_formula_units_Z   1
loop_
 _symmetry_equiv_pos_site_id
 _symmetry_equiv_pos_as_xyz
  1  'x, y, z'
loop_
 _atom_site_type_symbol
 _atom_site_label
 _atom_site_symmetry_multiplicity
 _atom_site_fract_x
 _atom_site_fract_y
 _atom_site_fract_z
 _atom_site_occupancy
  Tb  Tb0  1  0.251504  0.251739  0.251166  1
  Tb  Tb1  1  0.748489  0.748595  0.748419  1
  Tb  Tb2  1  0.748489  0.748595  0.251581  1
  Tb  Tb3  1  0.748489  0.251405  0.748419  1
  Tb  Tb4  1  0.251504  0.251739  0.748834  1
  Tb  Tb5  1  0.251504  0.748261  0.251166  1
  Tb  Tb6  1  0.251504  0.748261  0.748834  1
  Tb  Tb7  1  0.748489  0.251405  0.251581  1
  Al  Al8  1  0.000240  0.000000  0.000000  1
  Pd  Pd9  1  0.739866  0.500000  0.000000  1
  Pd  Pd10  1  0.999944  0.260274  0.500000  1
  Pd  Pd11  1  0.499953  0.260412  0.000000  1
  Pd  Pd12  1  0.999944  0.739726  0.500000  1
  Pd  Pd13  1  0.499953  0.739588  0.000000  1
  Pd  Pd14  1  0.500062  0.000000  0.260540  1
  Pd  Pd15  1  0.260190  0.000000  0.500000  1
  Pd  Pd16  1  0.500062  0.000000  0.739460  1
  Pd  Pd17  1  0.739883  0.000000  0.500000  1
  Pd  Pd18  1  0.000025  0.500000  0.260350  1
  Pd  Pd19  1  0.000025  0.500000  0.739650  1
  Pd  Pd20  1  0.252935  0.500000  0.500000  1
  Pd  Pd21  1  0.747056  0.500000  0.500000  1
  Pd  Pd22  1  0.500085  0.253226  0.500000  1
  Pd  Pd23  1  0.500085  0.746774  0.500000  1
  Pd  Pd24  1  0.499981  0.500000  0.253309  1
  Pd  Pd25  1  0.499981  0.500000  0.746691  1
  Pd  Pd26  1  0.999887  0.290559  0.000000  1
  Pd  Pd27  1  0.999887  0.709441  0.000000  1
  Pd  Pd28  1  0.999980  0.000000  0.290645  1
  Pd  Pd29  1  0.999980  0.000000  0.709355  1
  Pt  Pt30  1  0.260105  0.500000  0.000000  1
  Pt  Pt31  1  0.288977  0.000000  0.000000  1
  Pt  Pt32  1  0.710940  0.000000  0.000000  1
