# generated using pymatgen
data_Rb8Na4Nd3YSb8
_symmetry_space_group_name_H-M   'P 1'
_cell_length_a   11.45767554
_cell_length_b   11.45767532
_cell_length_c   7.57602056
_cell_angle_alpha   90.09519652
_cell_angle_beta   89.90480641
_cell_angle_gamma   97.70232290
_symmetry_Int_Tables_number   1
_chemical_formula_structural   Rb8Na4Nd3YSb8
_chemical_formula_sum   'Rb8 Na4 Nd3 Y1 Sb8'
_cell_volume   985.59168140
_cell_formula_units_Z   1
loop_
 _symmetry_equiv_pos_site_id
 _symmetry_equiv_pos_as_xyz
  1  'x, y, z'
loop_
 _atom_site_type_symbol
 _atom_site_label
 _atom_site_symmetry_multiplicity
 _atom_site_fract_x
 _atom_site_fract_y
 _atom_site_fract_z
 _atom_site_occupancy
  Rb  Rb0  1  0.069301  0.430705  0.250256  1
  Rb  Rb1  1  0.430705  0.069301  0.749744  1
  Rb  Rb2  1  0.930006  0.569382  0.749551  1
  Rb  Rb3  1  0.569382  0.930006  0.250449  1
  Rb  Rb4  1  0.677424  0.323119  0.214706  1
  Rb  Rb5  1  0.822521  0.177578  0.714142  1
  Rb  Rb6  1  0.323119  0.677424  0.785294  1
  Rb  Rb7  1  0.177578  0.822521  0.285858  1
  Na  Na8  1  0.382634  0.382634  0.000000  1
  Na  Na9  1  0.117594  0.117594  0.500000  1
  Na  Na10  1  0.617615  0.617615  0.000000  1
  Na  Na11  1  0.881938  0.881938  0.500000  1
  Nd  Nd12  1  0.132484  0.132484  0.000000  1
  Nd  Nd13  1  0.369118  0.369118  0.500000  1
  Nd  Nd14  1  0.866927  0.866927  0.000000  1
  Y  Y15  1  0.631210  0.631210  0.500000  1
  Sb  Sb16  1  0.845313  0.649582  0.255771  1
  Sb  Sb17  1  0.649582  0.845313  0.744229  1
  Sb  Sb18  1  0.149622  0.350426  0.750192  1
  Sb  Sb19  1  0.350426  0.149622  0.249808  1
  Sb  Sb20  1  0.897484  0.102176  0.217810  1
  Sb  Sb21  1  0.603374  0.402465  0.714091  1
  Sb  Sb22  1  0.102176  0.897484  0.782190  1
  Sb  Sb23  1  0.402465  0.603374  0.285909  1
