# generated using pymatgen
data_Tm3Al3ZnCu2
_symmetry_space_group_name_H-M   'P 1'
_cell_length_a   7.04192300
_cell_length_b   7.04192393
_cell_length_c   3.95941800
_cell_angle_alpha   90.00000000
_cell_angle_beta   90.00000000
_cell_angle_gamma   120.00000031
_symmetry_Int_Tables_number   1
_chemical_formula_structural   Tm3Al3ZnCu2
_chemical_formula_sum   'Tm3 Al3 Zn1 Cu2'
_cell_volume   170.03745065
_cell_formula_units_Z   1
loop_
 _symmetry_equiv_pos_site_id
 _symmetry_equiv_pos_as_xyz
  1  'x, y, z'
loop_
 _atom_site_type_symbol
 _atom_site_label
 _atom_site_symmetry_multiplicity
 _atom_site_fract_x
 _atom_site_fract_y
 _atom_site_fract_z
 _atom_site_occupancy
  Tm  Tm0  1  0.590588  0.005933  0.000000  1
  Tm  Tm1  1  0.994067  0.584656  0.000000  1
  Tm  Tm2  1  0.415344  0.409412  0.000000  1
  Al  Al3  1  0.236802  0.002226  0.500000  1
  Al  Al4  1  0.997774  0.234576  0.500000  1
  Al  Al5  1  0.765424  0.763198  0.500000  1
  Zn  Zn6  1  0.333333  0.666667  0.500000  1
  Cu  Cu7  1  0.000000  0.000000  0.000000  1
  Cu  Cu8  1  0.666667  0.333333  0.500000  1
