# generated using pymatgen
data_Pr6Al21Si3(Os3Ru)2
_symmetry_space_group_name_H-M   'P 1'
_cell_length_a   8.83646300
_cell_length_b   8.83646187
_cell_length_c   9.72311100
_cell_angle_alpha   90.00000000
_cell_angle_beta   90.00000000
_cell_angle_gamma   119.99999300
_symmetry_Int_Tables_number   1
_chemical_formula_structural   Pr6Al21Si3(Os3Ru)2
_chemical_formula_sum   'Pr6 Al21 Si3 Os6 Ru2'
_cell_volume   657.49548855
_cell_formula_units_Z   1
loop_
 _symmetry_equiv_pos_site_id
 _symmetry_equiv_pos_as_xyz
  1  'x, y, z'
loop_
 _atom_site_type_symbol
 _atom_site_label
 _atom_site_symmetry_multiplicity
 _atom_site_fract_x
 _atom_site_fract_y
 _atom_site_fract_z
 _atom_site_occupancy
  Pr  Pr0  1  0.192883  0.385766  0.247368  1
  Pr  Pr1  1  0.806388  0.612775  0.752957  1
  Pr  Pr2  1  0.614234  0.807117  0.247368  1
  Pr  Pr3  1  0.387225  0.193612  0.752957  1
  Pr  Pr4  1  0.192883  0.807117  0.247368  1
  Pr  Pr5  1  0.806388  0.193612  0.752957  1
  Al  Al6  1  0.333333  0.666667  0.491017  1
  Al  Al7  1  0.163094  0.326188  0.572595  1
  Al  Al8  1  0.836563  0.673128  0.425201  1
  Al  Al9  1  0.673812  0.836906  0.572595  1
  Al  Al10  1  0.836207  0.672415  0.075731  1
  Al  Al11  1  0.326872  0.163437  0.425201  1
  Al  Al12  1  0.163902  0.327803  0.924249  1
  Al  Al13  1  0.163094  0.836906  0.572595  1
  Al  Al14  1  0.327585  0.163793  0.075731  1
  Al  Al15  1  0.836563  0.163437  0.425201  1
  Al  Al16  1  0.672197  0.836098  0.924249  1
  Al  Al17  1  0.836207  0.163793  0.075731  1
  Al  Al18  1  0.163902  0.836098  0.924249  1
  Al  Al19  1  0.564719  0.129437  0.248740  1
  Al  Al20  1  0.435978  0.871956  0.748252  1
  Al  Al21  1  0.870563  0.435281  0.248740  1
  Al  Al22  1  0.128044  0.564022  0.748252  1
  Al  Al23  1  0.564719  0.435281  0.248740  1
  Al  Al24  1  0.435978  0.564022  0.748252  1
  Al  Al25  1  0.000000  0.000000  0.250088  1
  Al  Al26  1  0.000000  0.000000  0.749933  1
  Si  Si27  1  0.333333  0.666667  0.022040  1
  Si  Si28  1  0.666667  0.333333  0.979263  1
  Si  Si29  1  0.666667  0.333333  0.523312  1
  Os  Os30  1  0.499496  0.998992  0.999090  1
  Os  Os31  1  0.001008  0.500504  0.999090  1
  Os  Os32  1  0.504365  0.008731  0.500705  1
  Os  Os33  1  0.499496  0.500504  0.999090  1
  Os  Os34  1  0.991269  0.495635  0.500705  1
  Os  Os35  1  0.504365  0.495635  0.500705  1
  Ru  Ru36  1  0.000000  0.000000  0.999593  1
  Ru  Ru37  1  0.000000  0.000000  0.500090  1
