# generated using pymatgen
data_Sc15Al7(AsIr3)2
_symmetry_space_group_name_H-M   'P 1'
_cell_length_a   9.19710491
_cell_length_b   9.19710528
_cell_length_c   9.19710300
_cell_angle_alpha   60.03841051
_cell_angle_beta   60.03841639
_cell_angle_gamma   60.03841503
_symmetry_Int_Tables_number   1
_chemical_formula_structural   Sc15Al7(AsIr3)2
_chemical_formula_sum   'Sc15 Al7 As2 Ir6'
_cell_volume   550.57481224
_cell_formula_units_Z   1
loop_
 _symmetry_equiv_pos_site_id
 _symmetry_equiv_pos_as_xyz
  1  'x, y, z'
loop_
 _atom_site_type_symbol
 _atom_site_label
 _atom_site_symmetry_multiplicity
 _atom_site_fract_x
 _atom_site_fract_y
 _atom_site_fract_z
 _atom_site_occupancy
  Sc  Sc0  1  0.151154  0.151154  0.151154  1
  Sc  Sc1  1  0.205245  0.768161  0.205245  1
  Sc  Sc2  1  0.191361  0.805902  0.805902  1
  Sc  Sc3  1  0.768161  0.205245  0.205245  1
  Sc  Sc4  1  0.805902  0.805902  0.191361  1
  Sc  Sc5  1  0.205245  0.205245  0.768161  1
  Sc  Sc6  1  0.805902  0.191361  0.805902  1
  Sc  Sc7  1  0.376845  0.376845  0.376845  1
  Sc  Sc8  1  0.129547  0.625979  0.625979  1
  Sc  Sc9  1  0.625979  0.129547  0.625979  1
  Sc  Sc10  1  0.625979  0.625979  0.129547  1
  Sc  Sc11  1  0.381250  0.865544  0.381250  1
  Sc  Sc12  1  0.381250  0.381250  0.865544  1
  Sc  Sc13  1  0.865544  0.381250  0.381250  1
  Sc  Sc14  1  0.625371  0.625371  0.625371  1
  Al  Al15  1  0.839016  0.839016  0.839016  1
  Al  Al16  1  0.502992  0.163486  0.163486  1
  Al  Al17  1  0.163486  0.163486  0.502992  1
  Al  Al18  1  0.163486  0.502992  0.163486  1
  Al  Al19  1  0.840695  0.840695  0.485805  1
  Al  Al20  1  0.840695  0.485805  0.840695  1
  Al  Al21  1  0.485805  0.840695  0.840695  1
  As  As22  1  0.499288  0.499288  0.499288  1
  As  As23  1  0.007625  0.007625  0.007625  1
  Ir  Ir24  1  0.501325  0.501325  0.004101  1
  Ir  Ir25  1  0.999091  0.999091  0.507243  1
  Ir  Ir26  1  0.501325  0.004101  0.501325  1
  Ir  Ir27  1  0.004101  0.501325  0.501325  1
  Ir  Ir28  1  0.507243  0.999091  0.999091  1
  Ir  Ir29  1  0.999091  0.507243  0.999091  1
