# generated using pymatgen
data_Tb2DyYB16Mo3W
_symmetry_space_group_name_H-M   'P 1'
_cell_length_a   3.63085700
_cell_length_b   6.04174600
_cell_length_c   11.67319212
_cell_angle_alpha   89.99308493
_cell_angle_beta   90.00000000
_cell_angle_gamma   90.00000000
_symmetry_Int_Tables_number   1
_chemical_formula_structural   Tb2DyYB16Mo3W
_chemical_formula_sum   'Tb2 Dy1 Y1 B16 Mo3 W1'
_cell_volume   256.07149576
_cell_formula_units_Z   1
loop_
 _symmetry_equiv_pos_site_id
 _symmetry_equiv_pos_as_xyz
  1  'x, y, z'
loop_
 _atom_site_type_symbol
 _atom_site_label
 _atom_site_symmetry_multiplicity
 _atom_site_fract_x
 _atom_site_fract_y
 _atom_site_fract_z
 _atom_site_occupancy
  Tb  Tb0  1  0.000000  0.873104  0.850106  1
  Tb  Tb1  1  0.000000  0.627079  0.350172  1
  Dy  Dy2  1  0.000000  0.126806  0.149528  1
  Y  Y3  1  0.000000  0.373349  0.649898  1
  B  B4  1  0.500000  0.023449  0.693254  1
  B  B5  1  0.500000  0.975915  0.306533  1
  B  B6  1  0.500000  0.523755  0.806645  1
  B  B7  1  0.500000  0.476307  0.193111  1
  B  B8  1  0.500000  0.113570  0.547613  1
  B  B9  1  0.500000  0.886109  0.452907  1
  B  B10  1  0.500000  0.613675  0.952635  1
  B  B11  1  0.500000  0.385935  0.047463  1
  B  B12  1  0.500000  0.286962  0.313484  1
  B  B13  1  0.500000  0.713520  0.686053  1
  B  B14  1  0.500000  0.786545  0.185863  1
  B  B15  1  0.500000  0.213537  0.813906  1
  B  B16  1  0.500000  0.366570  0.468312  1
  B  B17  1  0.500000  0.633978  0.532175  1
  B  B18  1  0.500000  0.866522  0.032021  1
  B  B19  1  0.500000  0.133645  0.968194  1
  Mo  Mo20  1  0.000000  0.869836  0.584021  1
  Mo  Mo21  1  0.000000  0.629558  0.083594  1
  Mo  Mo22  1  0.000000  0.370199  0.916562  1
  W  W23  1  0.000000  0.130076  0.415953  1
