# generated using pymatgen
data_Sm5CoRuO12
_symmetry_space_group_name_H-M   'P 1'
_cell_length_a   6.96090602
_cell_length_b   6.96090514
_cell_length_c   7.45379024
_cell_angle_alpha   74.46545938
_cell_angle_beta   74.46545869
_cell_angle_gamma   50.29343182
_symmetry_Int_Tables_number   1
_chemical_formula_structural   Sm5CoRuO12
_chemical_formula_sum   'Sm5 Co1 Ru1 O12'
_cell_volume   265.41641702
_cell_formula_units_Z   1
loop_
 _symmetry_equiv_pos_site_id
 _symmetry_equiv_pos_as_xyz
  1  'x, y, z'
loop_
 _atom_site_type_symbol
 _atom_site_label
 _atom_site_symmetry_multiplicity
 _atom_site_fract_x
 _atom_site_fract_y
 _atom_site_fract_z
 _atom_site_occupancy
  Sm  Sm0  1  0.312518  0.297478  0.357096  1
  Sm  Sm1  1  0.702522  0.687482  0.642904  1
  Sm  Sm2  1  0.695279  0.690795  0.165176  1
  Sm  Sm3  1  0.309205  0.304721  0.834824  1
  Sm  Sm4  1  0.996462  0.003538  0.500000  1
  Co  Co5  1  0.748711  0.251289  0.000000  1
  Ru  Ru6  1  0.237291  0.762709  0.000000  1
  O  O7  1  0.099345  0.596779  0.576306  1
  O  O8  1  0.989129  0.009469  0.173547  1
  O  O9  1  0.403221  0.900655  0.423694  1
  O  O10  1  0.504100  0.496350  0.173719  1
  O  O11  1  0.098393  0.578582  0.079802  1
  O  O12  1  0.907244  0.401713  0.422727  1
  O  O13  1  0.990531  0.010871  0.826453  1
  O  O14  1  0.598287  0.092755  0.577273  1
  O  O15  1  0.503650  0.495900  0.826281  1
  O  O16  1  0.584933  0.102240  0.077674  1
  O  O17  1  0.421418  0.901607  0.920198  1
  O  O18  1  0.897760  0.415067  0.922326  1
