# generated using pymatgen
data_Dy3HoFeTc7
_symmetry_space_group_name_H-M   'P 1'
_cell_length_a   5.42452876
_cell_length_b   5.33630319
_cell_length_c   8.69643517
_cell_angle_alpha   90.00464889
_cell_angle_beta   90.01873747
_cell_angle_gamma   119.68216697
_symmetry_Int_Tables_number   1
_chemical_formula_structural   Dy3HoFeTc7
_chemical_formula_sum   'Dy3 Ho1 Fe1 Tc7'
_cell_volume   218.70383094
_cell_formula_units_Z   1
loop_
 _symmetry_equiv_pos_site_id
 _symmetry_equiv_pos_as_xyz
  1  'x, y, z'
loop_
 _atom_site_type_symbol
 _atom_site_label
 _atom_site_symmetry_multiplicity
 _atom_site_fract_x
 _atom_site_fract_y
 _atom_site_fract_z
 _atom_site_occupancy
  Dy  Dy0  1  0.333133  0.666098  0.438952  1
  Dy  Dy1  1  0.669392  0.334618  0.563370  1
  Dy  Dy2  1  0.669345  0.334577  0.936620  1
  Ho  Ho3  1  0.333135  0.666100  0.061324  1
  Fe  Fe4  1  0.657841  0.827962  0.750400  1
  Tc  Tc5  1  0.003879  0.002559  0.504809  1
  Tc  Tc6  1  0.004031  0.002646  0.994917  1
  Tc  Tc7  1  0.828633  0.168554  0.249647  1
  Tc  Tc8  1  0.828983  0.659616  0.249673  1
  Tc  Tc9  1  0.341279  0.170593  0.249684  1
  Tc  Tc10  1  0.164698  0.825826  0.750313  1
  Tc  Tc11  1  0.165653  0.340850  0.750289  1
