# generated using pymatgen
data_YTm9Al4(SiC4)2
_symmetry_space_group_name_H-M   'P 1'
_cell_length_a   10.62517813
_cell_length_b   10.61625056
_cell_length_c   3.47653100
_cell_angle_alpha   90.00000000
_cell_angle_beta   90.00000000
_cell_angle_gamma   89.94256044
_symmetry_Int_Tables_number   1
_chemical_formula_structural   YTm9Al4(SiC4)2
_chemical_formula_sum   'Y1 Tm9 Al4 Si2 C8'
_cell_volume   392.15094654
_cell_formula_units_Z   1
loop_
 _symmetry_equiv_pos_site_id
 _symmetry_equiv_pos_as_xyz
  1  'x, y, z'
loop_
 _atom_site_type_symbol
 _atom_site_label
 _atom_site_symmetry_multiplicity
 _atom_site_fract_x
 _atom_site_fract_y
 _atom_site_fract_z
 _atom_site_occupancy
  Y  Y0  1  0.776900  0.948879  0.500000  1
  Tm  Tm1  1  0.549592  0.725358  0.500000  1
  Tm  Tm2  1  0.448411  0.274379  0.500000  1
  Tm  Tm3  1  0.051027  0.773805  0.500000  1
  Tm  Tm4  1  0.949765  0.226505  0.500000  1
  Tm  Tm5  1  0.273820  0.550695  0.500000  1
  Tm  Tm6  1  0.726095  0.449111  0.500000  1
  Tm  Tm7  1  0.226941  0.050753  0.500000  1
  Tm  Tm8  1  0.500556  0.000206  0.000000  1
  Tm  Tm9  1  0.000008  0.500087  0.000000  1
  Al  Al10  1  0.702537  0.204048  0.000000  1
  Al  Al11  1  0.295912  0.797715  0.000000  1
  Al  Al12  1  0.202260  0.296077  0.000000  1
  Al  Al13  1  0.795985  0.701755  0.000000  1
  Si  Si14  1  0.499803  0.499573  0.000000  1
  Si  Si15  1  0.004303  0.001134  0.000000  1
  C  C16  1  0.628769  0.132872  0.500000  1
  C  C17  1  0.369001  0.868738  0.500000  1
  C  C18  1  0.130897  0.369854  0.500000  1
  C  C19  1  0.869197  0.630306  0.500000  1
  C  C20  1  0.162716  0.662517  0.000000  1
  C  C21  1  0.837340  0.337691  0.000000  1
  C  C22  1  0.660585  0.834995  0.000000  1
  C  C23  1  0.337583  0.162948  0.000000  1
