# generated using pymatgen
data_La2LuCuSe5
_symmetry_space_group_name_H-M   'P 1'
_cell_length_a   12.17500400
_cell_length_b   4.12948200
_cell_length_c   17.81613900
_cell_angle_alpha   90.00000000
_cell_angle_beta   90.00000000
_cell_angle_gamma   90.00000000
_symmetry_Int_Tables_number   1
_chemical_formula_structural   La2LuCuSe5
_chemical_formula_sum   'La8 Lu4 Cu4 Se20'
_cell_volume   895.73239743
_cell_formula_units_Z   4
loop_
 _symmetry_equiv_pos_site_id
 _symmetry_equiv_pos_as_xyz
  1  'x, y, z'
loop_
 _atom_site_type_symbol
 _atom_site_label
 _atom_site_symmetry_multiplicity
 _atom_site_fract_x
 _atom_site_fract_y
 _atom_site_fract_z
 _atom_site_occupancy
  La  La0  1  0.362116  0.250000  0.102477  1
  La  La1  1  0.012719  0.250000  0.175203  1
  La  La2  1  0.512719  0.250000  0.324798  1
  La  La3  1  0.862115  0.250000  0.397523  1
  La  La4  1  0.137885  0.749999  0.602477  1
  La  La5  1  0.487281  0.749999  0.675203  1
  La  La6  1  0.987281  0.749999  0.824798  1
  La  La7  1  0.637884  0.749999  0.897523  1
  Lu  Lu8  1  0.699075  0.749999  0.135745  1
  Lu  Lu9  1  0.199075  0.749999  0.364256  1
  Lu  Lu10  1  0.800925  0.250000  0.635745  1
  Lu  Lu11  1  0.300925  0.250000  0.864256  1
  Cu  Cu12  1  0.825700  0.250000  0.019730  1
  Cu  Cu13  1  0.325699  0.250000  0.480270  1
  Cu  Cu14  1  0.674301  0.749999  0.519730  1
  Cu  Cu15  1  0.174301  0.749999  0.980270  1
  Se  Se16  1  0.616441  0.250000  0.034308  1
  Se  Se17  1  0.904761  0.749999  0.071100  1
  Se  Se18  1  0.182462  0.749999  0.115589  1
  Se  Se19  1  0.487374  0.749999  0.197575  1
  Se  Se20  1  0.759290  0.250000  0.230246  1
  Se  Se21  1  0.259289  0.250000  0.269754  1
  Se  Se22  1  0.987373  0.749999  0.302425  1
  Se  Se23  1  0.682462  0.749999  0.384411  1
  Se  Se24  1  0.404761  0.749999  0.428900  1
  Se  Se25  1  0.116441  0.250000  0.465691  1
  Se  Se26  1  0.883559  0.749999  0.534308  1
  Se  Se27  1  0.595239  0.250000  0.571100  1
  Se  Se28  1  0.317539  0.250000  0.615589  1
  Se  Se29  1  0.012627  0.250000  0.697576  1
  Se  Se30  1  0.740711  0.749999  0.730246  1
  Se  Se31  1  0.240710  0.749999  0.769754  1
  Se  Se32  1  0.512626  0.250000  0.802425  1
  Se  Se33  1  0.817538  0.250000  0.884411  1
  Se  Se34  1  0.095239  0.250000  0.928900  1
  Se  Se35  1  0.383559  0.749999  0.965691  1
