# generated using pymatgen
data_Li4Ho2Pa2Ir3Rh
_symmetry_space_group_name_H-M   'P 1'
_cell_length_a   3.79522300
_cell_length_b   7.06201482
_cell_length_c   8.51724436
_cell_angle_alpha   92.49156953
_cell_angle_beta   90.00000000
_cell_angle_gamma   90.00000000
_symmetry_Int_Tables_number   1
_chemical_formula_structural   Li4Ho2Pa2Ir3Rh
_chemical_formula_sum   'Li4 Ho2 Pa2 Ir3 Rh1'
_cell_volume   228.06270306
_cell_formula_units_Z   1
loop_
 _symmetry_equiv_pos_site_id
 _symmetry_equiv_pos_as_xyz
  1  'x, y, z'
loop_
 _atom_site_type_symbol
 _atom_site_label
 _atom_site_symmetry_multiplicity
 _atom_site_fract_x
 _atom_site_fract_y
 _atom_site_fract_z
 _atom_site_occupancy
  Li  Li0  1  0.250000  0.119587  0.939825  1
  Li  Li1  1  0.750000  0.880518  0.059468  1
  Li  Li2  1  0.250000  0.626149  0.554257  1
  Li  Li3  1  0.750000  0.375645  0.445649  1
  Ho  Ho4  1  0.250000  0.056515  0.319558  1
  Ho  Ho5  1  0.750000  0.947093  0.678224  1
  Pa  Pa6  1  0.250000  0.546405  0.193006  1
  Pa  Pa7  1  0.750000  0.451205  0.809955  1
  Ir  Ir8  1  0.750000  0.752280  0.358620  1
  Ir  Ir9  1  0.250000  0.250206  0.641179  1
  Ir  Ir10  1  0.750000  0.281683  0.119447  1
  Rh  Rh11  1  0.250000  0.712713  0.880813  1
