# generated using pymatgen
data_Tm12ZnNi4Bi
_symmetry_space_group_name_H-M   'P 1'
_cell_length_a   8.27189771
_cell_length_b   8.26866270
_cell_length_c   8.27427620
_cell_angle_alpha   106.44071719
_cell_angle_beta   109.70847713
_cell_angle_gamma   112.32467705
_symmetry_Int_Tables_number   1
_chemical_formula_structural   Tm12ZnNi4Bi
_chemical_formula_sum   'Tm12 Zn1 Ni4 Bi1'
_cell_volume   434.47491329
_cell_formula_units_Z   1
loop_
 _symmetry_equiv_pos_site_id
 _symmetry_equiv_pos_as_xyz
  1  'x, y, z'
loop_
 _atom_site_type_symbol
 _atom_site_label
 _atom_site_symmetry_multiplicity
 _atom_site_fract_x
 _atom_site_fract_y
 _atom_site_fract_z
 _atom_site_occupancy
  Tm  Tm0  1  0.702230  0.275809  0.978039  1
  Tm  Tm1  1  0.297775  0.724328  0.022057  1
  Tm  Tm2  1  0.702123  0.724277  0.426414  1
  Tm  Tm3  1  0.297896  0.275757  0.573596  1
  Tm  Tm4  1  0.809137  0.131118  0.321889  1
  Tm  Tm5  1  0.809079  0.487248  0.678107  1
  Tm  Tm6  1  0.191090  0.869288  0.678317  1
  Tm  Tm7  1  0.190929  0.512426  0.321582  1
  Tm  Tm8  1  0.608207  0.787169  0.821062  1
  Tm  Tm9  1  0.966099  0.787296  0.178750  1
  Tm  Tm10  1  0.033767  0.212599  0.821236  1
  Tm  Tm11  1  0.391232  0.212527  0.178680  1
  Zn  Zn12  1  0.499812  0.499944  0.999941  1
  Ni  Ni13  1  0.854763  0.500530  0.353897  1
  Ni  Ni14  1  0.146460  0.500614  0.646464  1
  Ni  Ni15  1  0.998677  0.123003  0.123221  1
  Ni  Ni16  1  0.000729  0.876063  0.876775  1
  Bi  Bi17  1  0.499995  0.000005  0.499972  1
