# generated using pymatgen
data_DyTa6VS12
_symmetry_space_group_name_H-M   'P 1'
_cell_length_a   5.78187600
_cell_length_b   5.78187694
_cell_length_c   13.08560500
_cell_angle_alpha   90.00000000
_cell_angle_beta   90.00000000
_cell_angle_gamma   120.00000609
_symmetry_Int_Tables_number   1
_chemical_formula_structural   DyTa6VS12
_chemical_formula_sum   'Dy1 Ta6 V1 S12'
_cell_volume   378.84540905
_cell_formula_units_Z   1
loop_
 _symmetry_equiv_pos_site_id
 _symmetry_equiv_pos_as_xyz
  1  'x, y, z'
loop_
 _atom_site_type_symbol
 _atom_site_label
 _atom_site_symmetry_multiplicity
 _atom_site_fract_x
 _atom_site_fract_y
 _atom_site_fract_z
 _atom_site_occupancy
  Dy  Dy0  1  0.333333  0.666667  0.250000  1
  Ta  Ta1  1  0.000000  0.000000  0.517458  1
  Ta  Ta2  1  0.000000  0.000000  0.982542  1
  Ta  Ta3  1  0.333333  0.666667  0.983024  1
  Ta  Ta4  1  0.666667  0.333333  0.984433  1
  Ta  Ta5  1  0.666667  0.333333  0.515567  1
  Ta  Ta6  1  0.333333  0.666667  0.516976  1
  V  V7  1  0.666667  0.333333  0.750000  1
  S  S8  1  0.332093  0.329477  0.395358  1
  S  S9  1  0.670523  0.002616  0.395358  1
  S  S10  1  0.997384  0.667907  0.395358  1
  S  S11  1  0.333332  0.333556  0.636313  1
  S  S12  1  0.000224  0.666668  0.636313  1
  S  S13  1  0.666444  0.999776  0.636313  1
  S  S14  1  0.666444  0.666668  0.863687  1
  S  S15  1  0.333332  0.999776  0.863687  1
  S  S16  1  0.000224  0.333556  0.863687  1
  S  S17  1  0.670523  0.667907  0.104642  1
  S  S18  1  0.997384  0.329477  0.104642  1
  S  S19  1  0.332093  0.002616  0.104642  1
