# generated using pymatgen
data_PrY3(MoN3)4
_symmetry_space_group_name_H-M   'P 1'
_cell_length_a   7.31814325
_cell_length_b   7.31814386
_cell_length_c   6.26942661
_cell_angle_alpha   74.76394725
_cell_angle_beta   74.76395147
_cell_angle_gamma   82.58739890
_symmetry_Int_Tables_number   1
_chemical_formula_structural   PrY3(MoN3)4
_chemical_formula_sum   'Pr1 Y3 Mo4 N12'
_cell_volume   311.92345502
_cell_formula_units_Z   1
loop_
 _symmetry_equiv_pos_site_id
 _symmetry_equiv_pos_as_xyz
  1  'x, y, z'
loop_
 _atom_site_type_symbol
 _atom_site_label
 _atom_site_symmetry_multiplicity
 _atom_site_fract_x
 _atom_site_fract_y
 _atom_site_fract_z
 _atom_site_occupancy
  Pr  Pr0  1  0.696056  0.303944  0.750000  1
  Y  Y1  1  0.089765  0.910235  0.750000  1
  Y  Y2  1  0.299860  0.700140  0.250000  1
  Y  Y3  1  0.916562  0.083438  0.250000  1
  Mo  Mo4  1  0.379162  0.199496  0.242999  1
  Mo  Mo5  1  0.618379  0.801228  0.761505  1
  Mo  Mo6  1  0.800504  0.620838  0.257001  1
  Mo  Mo7  1  0.198772  0.381621  0.738495  1
  N  N8  1  0.620210  0.112981  0.166918  1
  N  N9  1  0.360298  0.359028  0.454373  1
  N  N10  1  0.005918  0.214081  0.850753  1
  N  N11  1  0.378641  0.892084  0.843169  1
  N  N12  1  0.785919  0.994082  0.649247  1
  N  N13  1  0.107916  0.621359  0.656831  1
  N  N14  1  0.887019  0.379790  0.333082  1
  N  N15  1  0.640817  0.650832  0.539487  1
  N  N16  1  0.640972  0.639702  0.045627  1
  N  N17  1  0.349168  0.359183  0.960513  1
  N  N18  1  0.002919  0.778856  0.149617  1
  N  N19  1  0.221144  0.997081  0.350383  1
