# generated using pymatgen
data_Tb3Ho(Co2Br)2
_symmetry_space_group_name_H-M   'P 1'
_cell_length_a   3.90391400
_cell_length_b   3.90391426
_cell_length_c   16.35193300
_cell_angle_alpha   90.00000000
_cell_angle_beta   90.00000000
_cell_angle_gamma   119.99999779
_symmetry_Int_Tables_number   1
_chemical_formula_structural   Tb3Ho(Co2Br)2
_chemical_formula_sum   'Tb3 Ho1 Co4 Br2'
_cell_volume   215.82425644
_cell_formula_units_Z   1
loop_
 _symmetry_equiv_pos_site_id
 _symmetry_equiv_pos_as_xyz
  1  'x, y, z'
loop_
 _atom_site_type_symbol
 _atom_site_label
 _atom_site_symmetry_multiplicity
 _atom_site_fract_x
 _atom_site_fract_y
 _atom_site_fract_z
 _atom_site_occupancy
  Tb  Tb0  1  0.000000  0.000000  0.108936  1
  Tb  Tb1  1  0.000000  0.000000  0.891384  1
  Tb  Tb2  1  0.000000  0.000000  0.608074  1
  Ho  Ho3  1  0.000000  0.000000  0.392503  1
  Co  Co4  1  0.333333  0.666667  0.501461  1
  Co  Co5  1  0.666667  0.333333  0.496590  1
  Co  Co6  1  0.666667  0.333333  0.002324  1
  Co  Co7  1  0.333333  0.666667  0.997918  1
  Br  Br8  1  0.333333  0.666667  0.251314  1
  Br  Br9  1  0.666667  0.333333  0.749497  1
