# generated using pymatgen
data_Ho6TaP12Rh17
_symmetry_space_group_name_H-M   'P 1'
_cell_length_a   3.93126800
_cell_length_b   11.18428600
_cell_length_c   12.77520400
_cell_angle_alpha   90.00000000
_cell_angle_beta   90.00000000
_cell_angle_gamma   90.00000000
_symmetry_Int_Tables_number   1
_chemical_formula_structural   Ho6TaP12Rh17
_chemical_formula_sum   'Ho6 Ta1 P12 Rh17'
_cell_volume   561.70560730
_cell_formula_units_Z   1
loop_
 _symmetry_equiv_pos_site_id
 _symmetry_equiv_pos_as_xyz
  1  'x, y, z'
loop_
 _atom_site_type_symbol
 _atom_site_label
 _atom_site_symmetry_multiplicity
 _atom_site_fract_x
 _atom_site_fract_y
 _atom_site_fract_z
 _atom_site_occupancy
  Ho  Ho0  1  0.000000  0.500000  0.522257  1
  Ho  Ho1  1  0.500000  0.000000  0.478306  1
  Ho  Ho2  1  0.500000  0.816436  0.206091  1
  Ho  Ho3  1  0.500000  0.183564  0.206091  1
  Ho  Ho4  1  0.000000  0.682106  0.797600  1
  Ho  Ho5  1  0.000000  0.317894  0.797600  1
  Ta  Ta6  1  0.500000  0.500000  0.157818  1
  P  P7  1  0.500000  0.315662  0.618988  1
  P  P8  1  0.500000  0.684338  0.618988  1
  P  P9  1  0.000000  0.185252  0.382865  1
  P  P10  1  0.000000  0.814748  0.382865  1
  P  P11  1  0.500000  0.500000  0.875436  1
  P  P12  1  0.000000  0.000000  0.121947  1
  P  P13  1  0.500000  0.848763  0.889203  1
  P  P14  1  0.500000  0.151237  0.889203  1
  P  P15  1  0.000000  0.656342  0.108946  1
  P  P16  1  0.000000  0.343658  0.108946  1
  P  P17  1  0.500000  0.500000  0.352136  1
  P  P18  1  0.000000  0.000000  0.649234  1
  Rh  Rh19  1  0.000000  0.500000  0.986008  1
  Rh  Rh20  1  0.500000  0.000000  0.020390  1
  Rh  Rh21  1  0.500000  0.293172  0.433314  1
  Rh  Rh22  1  0.500000  0.706828  0.433314  1
  Rh  Rh23  1  0.000000  0.202212  0.569178  1
  Rh  Rh24  1  0.000000  0.797788  0.569178  1
  Rh  Rh25  1  0.500000  0.872862  0.709144  1
  Rh  Rh26  1  0.500000  0.127138  0.709144  1
  Rh  Rh27  1  0.000000  0.627145  0.290399  1
  Rh  Rh28  1  0.000000  0.372855  0.290399  1
  Rh  Rh29  1  0.500000  0.331800  0.987417  1
  Rh  Rh30  1  0.500000  0.668200  0.987417  1
  Rh  Rh31  1  0.000000  0.166202  0.009973  1
  Rh  Rh32  1  0.000000  0.833798  0.009973  1
  Rh  Rh33  1  0.000000  0.000000  0.831876  1
  Rh  Rh34  1  0.500000  0.500000  0.698801  1
  Rh  Rh35  1  0.000000  0.000000  0.299551  1
