# generated using pymatgen
data_U4TcB12Mo
_symmetry_space_group_name_H-M   'P 1'
_cell_length_a   3.66673300
_cell_length_b   9.27535115
_cell_length_c   11.36136118
_cell_angle_alpha   90.02031592
_cell_angle_beta   90.00000000
_cell_angle_gamma   90.00000000
_symmetry_Int_Tables_number   1
_chemical_formula_structural   U4TcB12Mo
_chemical_formula_sum   'U8 Tc2 B24 Mo2'
_cell_volume   386.40255218
_cell_formula_units_Z   2
loop_
 _symmetry_equiv_pos_site_id
 _symmetry_equiv_pos_as_xyz
  1  'x, y, z'
loop_
 _atom_site_type_symbol
 _atom_site_label
 _atom_site_symmetry_multiplicity
 _atom_site_fract_x
 _atom_site_fract_y
 _atom_site_fract_z
 _atom_site_occupancy
  U  U0  1  0.000000  0.336106  0.407393  1
  U  U1  1  0.000000  0.663894  0.592607  1
  U  U2  1  0.000000  0.836288  0.092097  1
  U  U3  1  0.000000  0.163712  0.907903  1
  U  U4  1  0.000000  0.956780  0.395127  1
  U  U5  1  0.000000  0.043220  0.604873  1
  U  U6  1  0.000000  0.455555  0.104660  1
  U  U7  1  0.000000  0.544445  0.895340  1
  Tc  Tc8  1  0.000000  0.644163  0.320233  1
  Tc  Tc9  1  0.000000  0.355837  0.679767  1
  B  B10  1  0.500000  0.549837  0.432878  1
  B  B11  1  0.500000  0.450163  0.567122  1
  B  B12  1  0.500000  0.049829  0.066760  1
  B  B13  1  0.500000  0.950171  0.933240  1
  B  B14  1  0.500000  0.742547  0.423284  1
  B  B15  1  0.500000  0.257453  0.576716  1
  B  B16  1  0.500000  0.243419  0.075343  1
  B  B17  1  0.500000  0.756581  0.924657  1
  B  B18  1  0.500000  0.803005  0.273172  1
  B  B19  1  0.500000  0.196995  0.726828  1
  B  B20  1  0.500000  0.304645  0.227326  1
  B  B21  1  0.500000  0.695355  0.772674  1
  B  B22  1  0.500000  0.644170  0.188665  1
  B  B23  1  0.500000  0.355830  0.811335  1
  B  B24  1  0.500000  0.145344  0.313011  1
  B  B25  1  0.500000  0.854656  0.686989  1
  B  B26  1  0.500000  0.984748  0.218998  1
  B  B27  1  0.500000  0.015252  0.781002  1
  B  B28  1  0.500000  0.486174  0.281631  1
  B  B29  1  0.500000  0.513826  0.718369  1
  B  B30  1  0.500000  0.642646  0.040357  1
  B  B31  1  0.500000  0.357354  0.959643  1
  B  B32  1  0.500000  0.143458  0.461178  1
  B  B33  1  0.500000  0.856542  0.538822  1
  Mo  Mo34  1  0.000000  0.145009  0.180190  1
  Mo  Mo35  1  0.000000  0.854991  0.819810  1
