# generated using pymatgen
data_AcTh3(Al8Pt3)3
_symmetry_space_group_name_H-M   'P 1'
_cell_length_a   7.62982333
_cell_length_b   7.64635576
_cell_length_c   13.25660200
_cell_angle_alpha   84.51087558
_cell_angle_beta   78.96687304
_cell_angle_gamma   59.94683818
_symmetry_Int_Tables_number   1
_chemical_formula_structural   AcTh3(Al8Pt3)3
_chemical_formula_sum   'Ac1 Th3 Al24 Pt9'
_cell_volume   657.04727109
_cell_formula_units_Z   1
loop_
 _symmetry_equiv_pos_site_id
 _symmetry_equiv_pos_as_xyz
  1  'x, y, z'
loop_
 _atom_site_type_symbol
 _atom_site_label
 _atom_site_symmetry_multiplicity
 _atom_site_fract_x
 _atom_site_fract_y
 _atom_site_fract_z
 _atom_site_occupancy
  Ac  Ac0  1  0.394665  0.167678  0.808376  1
  Th  Th1  1  0.604522  0.832440  0.193803  1
  Th  Th2  1  0.733485  0.498883  0.806056  1
  Th  Th3  1  0.266299  0.501135  0.193899  1
  Al  Al4  1  0.689196  0.831521  0.947112  1
  Al  Al5  1  0.311595  0.166304  0.056727  1
  Al  Al6  1  0.146055  0.833128  0.560536  1
  Al  Al7  1  0.854397  0.166627  0.439126  1
  Al  Al8  1  0.481296  0.166781  0.556817  1
  Al  Al9  1  0.518586  0.833226  0.442283  1
  Al  Al10  1  0.211510  0.165548  0.336284  1
  Al  Al11  1  0.788931  0.834784  0.660768  1
  Al  Al12  1  0.437419  0.509395  0.660985  1
  Al  Al13  1  0.564118  0.489657  0.336246  1
  Al  Al14  1  0.113438  0.156480  0.659717  1
  Al  Al15  1  0.887605  0.844168  0.337542  1
  Al  Al16  1  0.348220  0.505006  0.947111  1
  Al  Al17  1  0.650946  0.497298  0.054700  1
  Al  Al18  1  0.012452  0.164846  0.957085  1
  Al  Al19  1  0.985044  0.835042  0.045129  1
  Al  Al20  1  0.186442  0.499998  0.442311  1
  Al  Al21  1  0.813746  0.500306  0.557185  1
  Al  Al22  1  0.738295  0.163735  0.184103  1
  Al  Al23  1  0.264504  0.828636  0.815885  1
  Al  Al24  1  0.054473  0.639651  0.814610  1
  Al  Al25  1  0.937341  0.365411  0.185771  1
  Al  Al26  1  0.865034  0.039741  0.815715  1
  Al  Al27  1  0.139370  0.962530  0.184787  1
  Pt  Pt28  1  0.118707  0.493974  0.636726  1
  Pt  Pt29  1  0.879957  0.508970  0.360931  1
  Pt  Pt30  1  0.656742  0.171298  0.002003  1
  Pt  Pt31  1  0.342625  0.827800  0.002252  1
  Pt  Pt32  1  0.536835  0.166795  0.360873  1
  Pt  Pt33  1  0.463279  0.830957  0.636711  1
  Pt  Pt34  1  0.781734  0.175076  0.635546  1
  Pt  Pt35  1  0.221942  0.824313  0.362025  1
  Pt  Pt36  1  0.999195  0.500862  0.002264  1
