# generated using pymatgen
data_U4NiIr3
_symmetry_space_group_name_H-M   'P 1'
_cell_length_a   5.71739098
_cell_length_b   5.68995781
_cell_length_c   5.68995900
_cell_angle_alpha   109.37335728
_cell_angle_beta   109.56890075
_cell_angle_gamma   109.56890876
_symmetry_Int_Tables_number   1
_chemical_formula_structural   U4NiIr3
_chemical_formula_sum   'U4 Ni1 Ir3'
_cell_volume   142.32107466
_cell_formula_units_Z   1
loop_
 _symmetry_equiv_pos_site_id
 _symmetry_equiv_pos_as_xyz
  1  'x, y, z'
loop_
 _atom_site_type_symbol
 _atom_site_label
 _atom_site_symmetry_multiplicity
 _atom_site_fract_x
 _atom_site_fract_y
 _atom_site_fract_z
 _atom_site_occupancy
  U  U0  1  0.014475  0.097674  0.015182  1
  U  U1  1  0.075301  0.500001  0.500001  1
  U  U2  1  0.499292  0.984818  0.582491  1
  U  U3  1  0.416802  0.417509  0.902328  1
  Ni  Ni4  1  0.588681  0.499999  0.499999  1
  Ir  Ir5  1  0.991860  0.581766  0.988363  1
  Ir  Ir6  1  0.503496  0.011637  0.093403  1
  Ir  Ir7  1  0.910094  0.906597  0.418233  1
