# generated using pymatgen
data_Hf4Al7V
_symmetry_space_group_name_H-M   'P 1'
_cell_length_a   5.28161400
_cell_length_b   5.28159590
_cell_length_c   8.62090800
_cell_angle_alpha   89.99993292
_cell_angle_beta   90.00000000
_cell_angle_gamma   120.00011335
_symmetry_Int_Tables_number   1
_chemical_formula_structural   Hf4Al7V
_chemical_formula_sum   'Hf4 Al7 V1'
_cell_volume   208.26436876
_cell_formula_units_Z   1
loop_
 _symmetry_equiv_pos_site_id
 _symmetry_equiv_pos_as_xyz
  1  'x, y, z'
loop_
 _atom_site_type_symbol
 _atom_site_label
 _atom_site_symmetry_multiplicity
 _atom_site_fract_x
 _atom_site_fract_y
 _atom_site_fract_z
 _atom_site_occupancy
  Hf  Hf0  1  0.333332  0.666666  0.060499  1
  Hf  Hf1  1  0.333333  0.666668  0.448462  1
  Hf  Hf2  1  0.666667  0.333332  0.551538  1
  Hf  Hf3  1  0.666668  0.333334  0.939501  1
  Al  Al4  1  0.338741  0.169366  0.244429  1
  Al  Al5  1  0.830625  0.169366  0.244429  1
  Al  Al6  1  0.830627  0.661253  0.244429  1
  Al  Al7  1  0.000000  0.000000  0.500000  1
  Al  Al8  1  0.169373  0.338746  0.755572  1
  Al  Al9  1  0.169374  0.830635  0.755572  1
  Al  Al10  1  0.661260  0.830635  0.755572  1
  V  V11  1  0.000000  0.000000  0.000000  1
