# generated using pymatgen
data_Yb3Zr(Si4Tc3)2
_symmetry_space_group_name_H-M   'P 1'
_cell_length_a   6.79375925
_cell_length_b   6.78241371
_cell_length_c   12.49103900
_cell_angle_alpha   90.15378207
_cell_angle_beta   90.35342026
_cell_angle_gamma   90.01558326
_symmetry_Int_Tables_number   1
_chemical_formula_structural   Yb3Zr(Si4Tc3)2
_chemical_formula_sum   'Yb6 Zr2 Si16 Tc12'
_cell_volume   575.55012091
_cell_formula_units_Z   2
loop_
 _symmetry_equiv_pos_site_id
 _symmetry_equiv_pos_as_xyz
  1  'x, y, z'
loop_
 _atom_site_type_symbol
 _atom_site_label
 _atom_site_symmetry_multiplicity
 _atom_site_fract_x
 _atom_site_fract_y
 _atom_site_fract_z
 _atom_site_occupancy
  Yb  Yb0  1  0.996114  0.662942  0.028452  1
  Yb  Yb1  1  0.004181  0.337336  0.528980  1
  Yb  Yb2  1  0.665499  0.991453  0.972850  1
  Yb  Yb3  1  0.160354  0.501538  0.778404  1
  Yb  Yb4  1  0.835500  0.492618  0.279089  1
  Yb  Yb5  1  0.506551  0.165251  0.220635  1
  Zr  Zr6  1  0.505296  0.846265  0.719701  1
  Zr  Zr7  1  0.344739  0.990638  0.466747  1
  Si  Si8  1  0.031586  0.718409  0.433632  1
  Si  Si9  1  0.972548  0.278804  0.934277  1
  Si  Si10  1  0.717697  0.033230  0.567986  1
  Si  Si11  1  0.217836  0.471448  0.185473  1
  Si  Si12  1  0.779400  0.531704  0.682071  1
  Si  Si13  1  0.468650  0.216758  0.819210  1
  Si  Si14  1  0.530918  0.780364  0.315916  1
  Si  Si15  1  0.282947  0.973630  0.065669  1
  Si  Si16  1  0.876551  0.806383  0.808424  1
  Si  Si17  1  0.126701  0.191179  0.313682  1
  Si  Si18  1  0.809241  0.875729  0.191527  1
  Si  Si19  1  0.306996  0.626603  0.564616  1
  Si  Si20  1  0.691006  0.377218  0.057401  1
  Si  Si21  1  0.620247  0.304588  0.441375  1
  Si  Si22  1  0.373242  0.693935  0.936216  1
  Si  Si23  1  0.197410  0.122952  0.685756  1
  Tc  Tc24  1  0.331360  0.485053  0.379856  1
  Tc  Tc25  1  0.829839  0.014743  0.377425  1
  Tc  Tc26  1  0.988384  0.169011  0.127691  1
  Tc  Tc27  1  0.021451  0.834977  0.623941  1
  Tc  Tc28  1  0.663940  0.520432  0.871454  1
  Tc  Tc29  1  0.479510  0.328416  0.623735  1
  Tc  Tc30  1  0.508589  0.670279  0.123091  1
  Tc  Tc31  1  0.172740  0.982564  0.867965  1
  Tc  Tc32  1  0.660191  0.678915  0.504322  1
  Tc  Tc33  1  0.818973  0.161182  0.748801  1
  Tc  Tc34  1  0.171039  0.834537  0.255505  1
  Tc  Tc35  1  0.332775  0.328918  0.998127  1
