# generated using pymatgen
data_Tm20Pt11Rh
_symmetry_space_group_name_H-M   'P 1'
_cell_length_a   10.85539000
_cell_length_b   10.85539000
_cell_length_c   6.39382000
_cell_angle_alpha   90.00000000
_cell_angle_beta   90.00000000
_cell_angle_gamma   90.00000000
_symmetry_Int_Tables_number   1
_chemical_formula_structural   Tm20Pt11Rh
_chemical_formula_sum   'Tm20 Pt11 Rh1'
_cell_volume   753.44450107
_cell_formula_units_Z   1
loop_
 _symmetry_equiv_pos_site_id
 _symmetry_equiv_pos_as_xyz
  1  'x, y, z'
loop_
 _atom_site_type_symbol
 _atom_site_label
 _atom_site_symmetry_multiplicity
 _atom_site_fract_x
 _atom_site_fract_y
 _atom_site_fract_z
 _atom_site_occupancy
  Tm  Tm0  1  0.292418  0.087888  0.377461  1
  Tm  Tm1  1  0.292364  0.911731  0.876868  1
  Tm  Tm2  1  0.707636  0.088269  0.876868  1
  Tm  Tm3  1  0.707582  0.912112  0.377461  1
  Tm  Tm4  1  0.588269  0.792364  0.876868  1
  Tm  Tm5  1  0.587888  0.207582  0.377461  1
  Tm  Tm6  1  0.412112  0.792418  0.377461  1
  Tm  Tm7  1  0.411731  0.207636  0.876868  1
  Tm  Tm8  1  0.206408  0.412452  0.620723  1
  Tm  Tm9  1  0.206926  0.587470  0.125719  1
  Tm  Tm10  1  0.793074  0.412530  0.125719  1
  Tm  Tm11  1  0.793592  0.587548  0.620723  1
  Tm  Tm12  1  0.912530  0.706926  0.125719  1
  Tm  Tm13  1  0.912452  0.293592  0.620723  1
  Tm  Tm14  1  0.087548  0.706408  0.620723  1
  Tm  Tm15  1  0.087470  0.293074  0.125719  1
  Tm  Tm16  1  0.000000  0.000000  0.500297  1
  Tm  Tm17  1  0.000000  0.000000  0.000066  1
  Tm  Tm18  1  0.500000  0.500000  0.000066  1
  Tm  Tm19  1  0.500000  0.500000  0.500297  1
  Pt  Pt20  1  0.846003  0.153411  0.249975  1
  Pt  Pt21  1  0.846301  0.846265  0.750067  1
  Pt  Pt22  1  0.153699  0.153735  0.750067  1
  Pt  Pt23  1  0.153997  0.846589  0.249975  1
  Pt  Pt24  1  0.653735  0.346301  0.750067  1
  Pt  Pt25  1  0.653411  0.653997  0.249975  1
  Pt  Pt26  1  0.346589  0.346003  0.249975  1
  Pt  Pt27  1  0.346265  0.653699  0.750067  1
  Pt  Pt28  1  0.500000  0.000000  0.117246  1
  Pt  Pt29  1  0.500000  0.000000  0.617718  1
  Pt  Pt30  1  0.000000  0.500000  0.880442  1
  Rh  Rh31  1  0.000000  0.500000  0.380615  1
