# generated using pymatgen
data_La8TbDyRu4
_symmetry_space_group_name_H-M   'P 1'
_cell_length_a   9.05683418
_cell_length_b   9.05683541
_cell_length_c   7.26707203
_cell_angle_alpha   85.60955201
_cell_angle_beta   85.60954368
_cell_angle_gamma   43.30021324
_symmetry_Int_Tables_number   1
_chemical_formula_structural   La8TbDyRu4
_chemical_formula_sum   'La8 Tb1 Dy1 Ru4'
_cell_volume   407.42257791
_cell_formula_units_Z   1
loop_
 _symmetry_equiv_pos_site_id
 _symmetry_equiv_pos_as_xyz
  1  'x, y, z'
loop_
 _atom_site_type_symbol
 _atom_site_label
 _atom_site_symmetry_multiplicity
 _atom_site_fract_x
 _atom_site_fract_y
 _atom_site_fract_z
 _atom_site_occupancy
  La  La0  1  0.202990  0.978463  0.591503  1
  La  La1  1  0.021537  0.797010  0.908497  1
  La  La2  1  0.210182  0.364198  0.315433  1
  La  La3  1  0.635802  0.789818  0.184567  1
  La  La4  1  0.789837  0.635951  0.684498  1
  La  La5  1  0.364049  0.210163  0.815502  1
  La  La6  1  0.978512  0.202870  0.091857  1
  La  La7  1  0.797130  0.021488  0.408143  1
  Tb  Tb8  1  0.570327  0.429673  0.750000  1
  Dy  Dy9  1  0.429860  0.570140  0.250000  1
  Ru  Ru10  1  0.178025  0.602369  0.579364  1
  Ru  Ru11  1  0.397631  0.821975  0.920636  1
  Ru  Ru12  1  0.821883  0.397766  0.420274  1
  Ru  Ru13  1  0.602234  0.178117  0.079726  1
