# generated using pymatgen
data_La3Pr3Cd4IrPd12
_symmetry_space_group_name_H-M   'P 1'
_cell_length_a   8.58938316
_cell_length_b   8.58938303
_cell_length_c   8.58938293
_cell_angle_alpha   110.00490850
_cell_angle_beta   109.48448655
_cell_angle_gamma   108.92605739
_symmetry_Int_Tables_number   1
_chemical_formula_structural   La3Pr3Cd4IrPd12
_chemical_formula_sum   'La3 Pr3 Cd4 Ir1 Pd12'
_cell_volume   487.78174612
_cell_formula_units_Z   1
loop_
 _symmetry_equiv_pos_site_id
 _symmetry_equiv_pos_as_xyz
  1  'x, y, z'
loop_
 _atom_site_type_symbol
 _atom_site_label
 _atom_site_symmetry_multiplicity
 _atom_site_fract_x
 _atom_site_fract_y
 _atom_site_fract_z
 _atom_site_occupancy
  La  La0  1  0.999796  0.294250  0.294046  1
  La  La1  1  0.999796  0.705750  0.705546  1
  La  La2  1  0.297603  0.000000  0.297603  1
  Pr  Pr3  1  0.700387  0.700442  0.999945  1
  Pr  Pr4  1  0.703219  0.000000  0.703219  1
  Pr  Pr5  1  0.299503  0.299558  0.999945  1
  Cd  Cd6  1  0.998770  0.999940  0.501769  1
  Cd  Cd7  1  0.501830  0.000060  0.998830  1
  Cd  Cd8  1  0.998770  0.497000  0.998830  1
  Cd  Cd9  1  0.501830  0.503000  0.501769  1
  Ir  Ir10  1  0.002514  0.000000  0.002514  1
  Pd  Pd11  1  0.342004  0.657679  0.999684  1
  Pd  Pd12  1  0.999614  0.343765  0.655849  1
  Pd  Pd13  1  0.656124  0.000258  0.342303  1
  Pd  Pd14  1  0.312083  0.656235  0.655849  1
  Pd  Pd15  1  0.656124  0.313820  0.655866  1
  Pd  Pd16  1  0.688240  0.344165  0.344074  1
  Pd  Pd17  1  0.342045  0.686180  0.342303  1
  Pd  Pd18  1  0.342004  0.342321  0.684326  1
  Pd  Pd19  1  0.999909  0.655835  0.344074  1
  Pd  Pd20  1  0.657895  0.658064  0.315958  1
  Pd  Pd21  1  0.342045  0.999742  0.655866  1
  Pd  Pd22  1  0.657895  0.341936  0.999831  1
