# generated using pymatgen
data_NdHo7(Si4Mo3)4
_symmetry_space_group_name_H-M   'P 1'
_cell_length_a   6.78099247
_cell_length_b   6.95893259
_cell_length_c   12.93902254
_cell_angle_alpha   90.09783410
_cell_angle_beta   90.02177189
_cell_angle_gamma   90.05621183
_symmetry_Int_Tables_number   1
_chemical_formula_structural   NdHo7(Si4Mo3)4
_chemical_formula_sum   'Nd1 Ho7 Si16 Mo12'
_cell_volume   610.57144182
_cell_formula_units_Z   1
loop_
 _symmetry_equiv_pos_site_id
 _symmetry_equiv_pos_as_xyz
  1  'x, y, z'
loop_
 _atom_site_type_symbol
 _atom_site_label
 _atom_site_symmetry_multiplicity
 _atom_site_fract_x
 _atom_site_fract_y
 _atom_site_fract_z
 _atom_site_occupancy
  Nd  Nd0  1  0.998076  0.165412  0.092910  1
  Ho  Ho1  1  0.497067  0.333230  0.094084  1
  Ho  Ho2  1  0.997129  0.167132  0.405885  1
  Ho  Ho3  1  0.502937  0.667283  0.594149  1
  Ho  Ho4  1  0.003288  0.833276  0.904960  1
  Ho  Ho5  1  0.503279  0.666519  0.905171  1
  Ho  Ho6  1  0.002880  0.832683  0.594140  1
  Ho  Ho7  1  0.497066  0.333123  0.406863  1
  Si  Si8  1  0.659197  0.041529  0.547495  1
  Si  Si9  1  0.159536  0.460428  0.951192  1
  Si  Si10  1  0.345336  0.955618  0.046932  1
  Si  Si11  1  0.841130  0.541420  0.452769  1
  Si  Si12  1  0.340608  0.958511  0.453021  1
  Si  Si13  1  0.839758  0.545651  0.046862  1
  Si  Si14  1  0.657013  0.041426  0.950949  1
  Si  Si15  1  0.159015  0.458210  0.547565  1
  Si  Si16  1  0.534708  0.365762  0.749548  1
  Si  Si17  1  0.034747  0.134488  0.749876  1
  Si  Si18  1  0.464885  0.634027  0.250449  1
  Si  Si19  1  0.964625  0.862982  0.251542  1
  Si  Si20  1  0.802669  0.629516  0.749529  1
  Si  Si21  1  0.303068  0.871097  0.749713  1
  Si  Si22  1  0.199149  0.373224  0.251581  1
  Si  Si23  1  0.694089  0.128298  0.251527  1
  Mo  Mo24  1  0.830436  0.335101  0.624940  1
  Mo  Mo25  1  0.331197  0.165488  0.874127  1
  Mo  Mo26  1  0.169977  0.664899  0.125384  1
  Mo  Mo27  1  0.668758  0.834283  0.375578  1
  Mo  Mo28  1  0.170015  0.664880  0.375773  1
  Mo  Mo29  1  0.668128  0.833564  0.125943  1
  Mo  Mo30  1  0.829549  0.336404  0.873731  1
  Mo  Mo31  1  0.330393  0.165308  0.625102  1
  Mo  Mo32  1  0.666085  0.998788  0.749393  1
  Mo  Mo33  1  0.166073  0.501367  0.749618  1
  Mo  Mo34  1  0.334645  0.999507  0.251061  1
  Mo  Mo35  1  0.833490  0.499568  0.250638  1
