# generated using pymatgen
data_Ba3Li3(RhN)4
_symmetry_space_group_name_H-M   'P 1'
_cell_length_a   4.19279039
_cell_length_b   7.54079972
_cell_length_c   10.05622403
_cell_angle_alpha   112.02009806
_cell_angle_beta   102.03255018
_cell_angle_gamma   89.99999890
_symmetry_Int_Tables_number   1
_chemical_formula_structural   Ba3Li3(RhN)4
_chemical_formula_sum   'Ba3 Li3 Rh4 N4'
_cell_volume   287.20495671
_cell_formula_units_Z   1
loop_
 _symmetry_equiv_pos_site_id
 _symmetry_equiv_pos_as_xyz
  1  'x, y, z'
loop_
 _atom_site_type_symbol
 _atom_site_label
 _atom_site_symmetry_multiplicity
 _atom_site_fract_x
 _atom_site_fract_y
 _atom_site_fract_z
 _atom_site_occupancy
  Ba  Ba0  1  0.000000  0.000000  0.000000  1
  Ba  Ba1  1  0.221426  0.221426  0.442853  1
  Ba  Ba2  1  0.778575  0.778574  0.557147  1
  Li  Li3  1  0.500001  0.500000  0.000000  1
  Li  Li4  1  0.113920  0.613919  0.227837  1
  Li  Li5  1  0.886082  0.386081  0.772163  1
  Rh  Rh6  1  0.616220  0.365040  0.232438  1
  Rh  Rh7  1  0.616220  0.867400  0.232438  1
  Rh  Rh8  1  0.383781  0.132600  0.767562  1
  Rh  Rh9  1  0.383781  0.634961  0.767562  1
  N  N10  1  0.615944  0.115943  0.231888  1
  N  N11  1  0.615096  0.615095  0.230190  1
  N  N12  1  0.384904  0.384904  0.769809  1
  N  N13  1  0.384057  0.884056  0.768112  1
