# generated using pymatgen
data_Ba3LiSb2H
_symmetry_space_group_name_H-M   'P 1'
_cell_length_a   4.97544600
_cell_length_b   13.53879000
_cell_length_c   13.82144700
_cell_angle_alpha   90.00000000
_cell_angle_beta   90.00000000
_cell_angle_gamma   90.00000000
_symmetry_Int_Tables_number   1
_chemical_formula_structural   Ba3LiSb2H
_chemical_formula_sum   'Ba12 Li4 Sb8 H4'
_cell_volume   931.03365848
_cell_formula_units_Z   4
loop_
 _symmetry_equiv_pos_site_id
 _symmetry_equiv_pos_as_xyz
  1  'x, y, z'
loop_
 _atom_site_type_symbol
 _atom_site_label
 _atom_site_symmetry_multiplicity
 _atom_site_fract_x
 _atom_site_fract_y
 _atom_site_fract_z
 _atom_site_occupancy
  Ba  Ba0  1  0.250000  0.063512  0.623180  1
  Ba  Ba1  1  0.250000  0.563512  0.876820  1
  Ba  Ba2  1  0.750000  0.936488  0.376820  1
  Ba  Ba3  1  0.750000  0.436488  0.123180  1
  Ba  Ba4  1  0.250000  0.206580  0.295598  1
  Ba  Ba5  1  0.250000  0.706580  0.204402  1
  Ba  Ba6  1  0.750000  0.793420  0.704402  1
  Ba  Ba7  1  0.750000  0.293420  0.795598  1
  Ba  Ba8  1  0.250000  0.371375  0.561815  1
  Ba  Ba9  1  0.250000  0.871375  0.938185  1
  Ba  Ba10  1  0.750000  0.628625  0.438185  1
  Ba  Ba11  1  0.750000  0.128625  0.061815  1
  Li  Li12  1  0.250000  0.140916  0.854407  1
  Li  Li13  1  0.250000  0.640916  0.645593  1
  Li  Li14  1  0.750000  0.859084  0.145593  1
  Li  Li15  1  0.750000  0.359084  0.354407  1
  Sb  Sb16  1  0.250000  0.308558  0.987339  1
  Sb  Sb17  1  0.250000  0.808558  0.512661  1
  Sb  Sb18  1  0.750000  0.691442  0.012661  1
  Sb  Sb19  1  0.750000  0.191442  0.487339  1
  Sb  Sb20  1  0.250000  0.471131  0.323554  1
  Sb  Sb21  1  0.250000  0.971131  0.176446  1
  Sb  Sb22  1  0.750000  0.528869  0.676446  1
  Sb  Sb23  1  0.750000  0.028869  0.823554  1
  H  H24  1  0.250000  0.231046  0.733158  1
  H  H25  1  0.250000  0.731046  0.766842  1
  H  H26  1  0.750000  0.768954  0.266842  1
  H  H27  1  0.750000  0.268954  0.233158  1
