# generated using pymatgen
data_Pr3Y5Cd2OsPt
_symmetry_space_group_name_H-M   'P 1'
_cell_length_a   9.81960957
_cell_length_b   9.81960999
_cell_length_c   9.86899800
_cell_angle_alpha   59.83348459
_cell_angle_beta   59.83348317
_cell_angle_gamma   59.88513665
_symmetry_Int_Tables_number   1
_chemical_formula_structural   Pr3Y5Cd2OsPt
_chemical_formula_sum   'Pr6 Y10 Cd4 Os2 Pt2'
_cell_volume   670.61357247
_cell_formula_units_Z   2
loop_
 _symmetry_equiv_pos_site_id
 _symmetry_equiv_pos_as_xyz
  1  'x, y, z'
loop_
 _atom_site_type_symbol
 _atom_site_label
 _atom_site_symmetry_multiplicity
 _atom_site_fract_x
 _atom_site_fract_y
 _atom_site_fract_z
 _atom_site_occupancy
  Pr  Pr0  1  0.940264  0.554267  0.563183  1
  Pr  Pr1  1  0.554267  0.940264  0.942285  1
  Pr  Pr2  1  0.554267  0.940264  0.563183  1
  Pr  Pr3  1  0.940264  0.554267  0.942285  1
  Pr  Pr4  1  0.560807  0.560807  0.939193  1
  Pr  Pr5  1  0.941853  0.941853  0.558147  1
  Y  Y6  1  0.348280  0.348280  0.351818  1
  Y  Y7  1  0.348280  0.348280  0.951622  1
  Y  Y8  1  0.344461  0.959652  0.347943  1
  Y  Y9  1  0.959652  0.344461  0.347943  1
  Y  Y10  1  0.816369  0.186236  0.189369  1
  Y  Y11  1  0.186236  0.816369  0.808026  1
  Y  Y12  1  0.186236  0.816369  0.189369  1
  Y  Y13  1  0.816369  0.186236  0.808026  1
  Y  Y14  1  0.186672  0.186672  0.813328  1
  Y  Y15  1  0.809624  0.809624  0.190376  1
  Cd  Cd16  1  0.578852  0.578852  0.579362  1
  Cd  Cd17  1  0.578852  0.578852  0.262934  1
  Cd  Cd18  1  0.579568  0.261086  0.579672  1
  Cd  Cd19  1  0.261086  0.579568  0.579672  1
  Os  Os20  1  0.143577  0.143577  0.137107  1
  Os  Os21  1  0.143577  0.143577  0.575741  1
  Pt  Pt22  1  0.144162  0.576426  0.139706  1
  Pt  Pt23  1  0.576426  0.144162  0.139706  1
