# generated using pymatgen
data_CaTmTi3O8
_symmetry_space_group_name_H-M   'P 1'
_cell_length_a   6.31622293
_cell_length_b   6.31622141
_cell_length_c   5.08521424
_cell_angle_alpha   71.96771659
_cell_angle_beta   71.96771763
_cell_angle_gamma   57.73364857
_symmetry_Int_Tables_number   1
_chemical_formula_structural   CaTmTi3O8
_chemical_formula_sum   'Ca1 Tm1 Ti3 O8'
_cell_volume   160.47020142
_cell_formula_units_Z   1
loop_
 _symmetry_equiv_pos_site_id
 _symmetry_equiv_pos_as_xyz
  1  'x, y, z'
loop_
 _atom_site_type_symbol
 _atom_site_label
 _atom_site_symmetry_multiplicity
 _atom_site_fract_x
 _atom_site_fract_y
 _atom_site_fract_z
 _atom_site_occupancy
  Ca  Ca0  1  0.275455  0.275455  0.664998  1
  Tm  Tm1  1  0.728221  0.728221  0.336304  1
  Ti  Ti2  1  0.000496  0.000496  0.496674  1
  Ti  Ti3  1  0.735025  0.266348  0.001077  1
  Ti  Ti4  1  0.266348  0.735025  0.001077  1
  O  O5  1  0.396323  0.396323  0.950180  1
  O  O6  1  0.608980  0.608980  0.064120  1
  O  O7  1  0.896705  0.896705  0.913949  1
  O  O8  1  0.100770  0.100770  0.091476  1
  O  O9  1  0.337733  0.881133  0.593542  1
  O  O10  1  0.881133  0.337733  0.593542  1
  O  O11  1  0.100071  0.672740  0.396530  1
  O  O12  1  0.672740  0.100071  0.396530  1
