# generated using pymatgen
data_Y3ThMgOs
_symmetry_space_group_name_H-M   'P 1'
_cell_length_a   9.82395064
_cell_length_b   9.82395113
_cell_length_c   9.82395200
_cell_angle_alpha   60.00000380
_cell_angle_beta   60.00000214
_cell_angle_gamma   60.00000503
_symmetry_Int_Tables_number   1
_chemical_formula_structural   Y3ThMgOs
_chemical_formula_sum   'Y12 Th4 Mg4 Os4'
_cell_volume   670.41486439
_cell_formula_units_Z   4
loop_
 _symmetry_equiv_pos_site_id
 _symmetry_equiv_pos_as_xyz
  1  'x, y, z'
loop_
 _atom_site_type_symbol
 _atom_site_label
 _atom_site_symmetry_multiplicity
 _atom_site_fract_x
 _atom_site_fract_y
 _atom_site_fract_z
 _atom_site_occupancy
  Y  Y0  1  0.062491  0.437509  0.437509  1
  Y  Y1  1  0.437509  0.062491  0.062491  1
  Y  Y2  1  0.437509  0.062491  0.437509  1
  Y  Y3  1  0.062491  0.437509  0.062491  1
  Y  Y4  1  0.437509  0.437509  0.062491  1
  Y  Y5  1  0.062491  0.062491  0.437509  1
  Y  Y6  1  0.187308  0.812692  0.812692  1
  Y  Y7  1  0.812692  0.187308  0.187308  1
  Y  Y8  1  0.812692  0.187308  0.812692  1
  Y  Y9  1  0.187308  0.812692  0.187308  1
  Y  Y10  1  0.812692  0.812692  0.187308  1
  Y  Y11  1  0.187308  0.187308  0.812692  1
  Th  Th12  1  0.595763  0.595763  0.595763  1
  Th  Th13  1  0.595763  0.595763  0.212710  1
  Th  Th14  1  0.595763  0.212710  0.595763  1
  Th  Th15  1  0.212710  0.595763  0.595763  1
  Mg  Mg16  1  0.830099  0.830099  0.830099  1
  Mg  Mg17  1  0.830099  0.830099  0.509704  1
  Mg  Mg18  1  0.830099  0.509704  0.830099  1
  Mg  Mg19  1  0.509704  0.830099  0.830099  1
  Os  Os20  1  0.392854  0.392854  0.392854  1
  Os  Os21  1  0.392854  0.392854  0.821438  1
  Os  Os22  1  0.392854  0.821438  0.392854  1
  Os  Os23  1  0.821438  0.392854  0.392854  1
