# generated using pymatgen
data_Hf4V4SiAs3
_symmetry_space_group_name_H-M   'P 1'
_cell_length_a   3.54517100
_cell_length_b   6.77502404
_cell_length_c   8.10727196
_cell_angle_alpha   90.05812914
_cell_angle_beta   90.00000000
_cell_angle_gamma   90.00000000
_symmetry_Int_Tables_number   1
_chemical_formula_structural   Hf4V4SiAs3
_chemical_formula_sum   'Hf4 V4 Si1 As3'
_cell_volume   194.72537402
_cell_formula_units_Z   1
loop_
 _symmetry_equiv_pos_site_id
 _symmetry_equiv_pos_as_xyz
  1  'x, y, z'
loop_
 _atom_site_type_symbol
 _atom_site_label
 _atom_site_symmetry_multiplicity
 _atom_site_fract_x
 _atom_site_fract_y
 _atom_site_fract_z
 _atom_site_occupancy
  Hf  Hf0  1  0.250000  0.044993  0.833072  1
  Hf  Hf1  1  0.250000  0.546584  0.663446  1
  Hf  Hf2  1  0.750000  0.951888  0.170130  1
  Hf  Hf3  1  0.750000  0.461200  0.333067  1
  V  V4  1  0.250000  0.125076  0.440815  1
  V  V5  1  0.250000  0.628135  0.060095  1
  V  V6  1  0.750000  0.870654  0.556280  1
  V  V7  1  0.750000  0.370483  0.941542  1
  Si  Si8  1  0.250000  0.759340  0.363064  1
  As  As9  1  0.250000  0.257488  0.139575  1
  As  As10  1  0.750000  0.242923  0.637353  1
  As  As11  1  0.750000  0.741236  0.861561  1
