# generated using pymatgen
data_Li3Dy5Pt4
_symmetry_space_group_name_H-M   'P 1'
_cell_length_a   4.06760200
_cell_length_b   7.13804021
_cell_length_c   8.71052800
_cell_angle_alpha   88.75348067
_cell_angle_beta   90.00000000
_cell_angle_gamma   90.00000000
_symmetry_Int_Tables_number   1
_chemical_formula_structural   Li3Dy5Pt4
_chemical_formula_sum   'Li3 Dy5 Pt4'
_cell_volume   252.84777478
_cell_formula_units_Z   1
loop_
 _symmetry_equiv_pos_site_id
 _symmetry_equiv_pos_as_xyz
  1  'x, y, z'
loop_
 _atom_site_type_symbol
 _atom_site_label
 _atom_site_symmetry_multiplicity
 _atom_site_fract_x
 _atom_site_fract_y
 _atom_site_fract_z
 _atom_site_occupancy
  Li  Li0  1  0.250000  0.124387  0.444309  1
  Li  Li1  1  0.250000  0.647713  0.070575  1
  Li  Li2  1  0.750000  0.875999  0.552291  1
  Dy  Dy3  1  0.250000  0.023668  0.807665  1
  Dy  Dy4  1  0.250000  0.556745  0.661483  1
  Dy  Dy5  1  0.750000  0.943502  0.181395  1
  Dy  Dy6  1  0.750000  0.457061  0.330305  1
  Dy  Dy7  1  0.750000  0.373730  0.944268  1
  Pt  Pt8  1  0.250000  0.748602  0.373188  1
  Pt  Pt9  1  0.250000  0.234206  0.133501  1
  Pt  Pt10  1  0.750000  0.259191  0.628457  1
  Pt  Pt11  1  0.750000  0.755193  0.872561  1
