# generated using pymatgen
data_Dy15TmInHg5Ir2
_symmetry_space_group_name_H-M   'P 1'
_cell_length_a   10.24429269
_cell_length_b   10.23310426
_cell_length_c   7.22303192
_cell_angle_alpha   89.87949015
_cell_angle_beta   90.17164349
_cell_angle_gamma   120.38703149
_symmetry_Int_Tables_number   1
_chemical_formula_structural   Dy15TmInHg5Ir2
_chemical_formula_sum   'Dy15 Tm1 In1 Hg5 Ir2'
_cell_volume   653.17643098
_cell_formula_units_Z   1
loop_
 _symmetry_equiv_pos_site_id
 _symmetry_equiv_pos_as_xyz
  1  'x, y, z'
loop_
 _atom_site_type_symbol
 _atom_site_label
 _atom_site_symmetry_multiplicity
 _atom_site_fract_x
 _atom_site_fract_y
 _atom_site_fract_z
 _atom_site_occupancy
  Dy  Dy0  1  0.925931  0.466719  0.516109  1
  Dy  Dy1  1  0.537377  0.462288  0.521905  1
  Dy  Dy2  1  0.468349  0.927068  0.019229  1
  Dy  Dy3  1  0.072999  0.531457  0.018629  1
  Dy  Dy4  1  0.460189  0.539362  0.014789  1
  Dy  Dy5  1  0.168876  0.342940  0.706823  1
  Dy  Dy6  1  0.656828  0.831550  0.706167  1
  Dy  Dy7  1  0.174183  0.827233  0.722170  1
  Dy  Dy8  1  0.819326  0.651081  0.205182  1
  Dy  Dy9  1  0.349065  0.180108  0.206563  1
  Dy  Dy10  1  0.827993  0.171185  0.214519  1
  Dy  Dy11  1  0.667439  0.331626  0.898678  1
  Dy  Dy12  1  0.335930  0.665456  0.399197  1
  Dy  Dy13  1  0.005141  0.995637  0.493817  1
  Dy  Dy14  1  0.002677  0.998199  0.994385  1
  Tm  Tm15  1  0.533948  0.075272  0.516712  1
  In  In16  1  0.164141  0.834998  0.268244  1
  Hg  Hg17  1  0.832993  0.668062  0.770738  1
  Hg  Hg18  1  0.332076  0.166980  0.770922  1
  Hg  Hg19  1  0.831381  0.168230  0.771932  1
  Hg  Hg20  1  0.167339  0.333589  0.272967  1
  Hg  Hg21  1  0.666270  0.832486  0.272519  1
  Ir  Ir22  1  0.666487  0.331598  0.281494  1
  Ir  Ir23  1  0.333061  0.666874  0.780514  1
