# generated using pymatgen
data_Tb2Er10OsRu3
_symmetry_space_group_name_H-M   'P 1'
_cell_length_a   6.27721004
_cell_length_b   7.30840850
_cell_length_c   9.04287500
_cell_angle_alpha   90.00000000
_cell_angle_beta   90.00000000
_cell_angle_gamma   90.07594018
_symmetry_Int_Tables_number   1
_chemical_formula_structural   Tb2Er10OsRu3
_chemical_formula_sum   'Tb2 Er10 Os1 Ru3'
_cell_volume   414.85432346
_cell_formula_units_Z   1
loop_
 _symmetry_equiv_pos_site_id
 _symmetry_equiv_pos_as_xyz
  1  'x, y, z'
loop_
 _atom_site_type_symbol
 _atom_site_label
 _atom_site_symmetry_multiplicity
 _atom_site_fract_x
 _atom_site_fract_y
 _atom_site_fract_z
 _atom_site_occupancy
  Tb  Tb0  1  0.868535  0.540306  0.250000  1
  Tb  Tb1  1  0.631906  0.040079  0.250000  1
  Er  Er2  1  0.333764  0.675431  0.062208  1
  Er  Er3  1  0.167218  0.175880  0.436271  1
  Er  Er4  1  0.668034  0.324344  0.564167  1
  Er  Er5  1  0.831490  0.823538  0.935222  1
  Er  Er6  1  0.668034  0.324344  0.935833  1
  Er  Er7  1  0.831490  0.823538  0.564778  1
  Er  Er8  1  0.333764  0.675431  0.437792  1
  Er  Er9  1  0.167218  0.175880  0.063729  1
  Er  Er10  1  0.130624  0.460387  0.750000  1
  Er  Er11  1  0.367625  0.961273  0.750000  1
  Os  Os12  1  0.539452  0.616471  0.750000  1
  Ru  Ru13  1  0.039705  0.883623  0.250000  1
  Ru  Ru14  1  0.460170  0.383245  0.250000  1
  Ru  Ru15  1  0.960970  0.116230  0.750000  1
