# generated using pymatgen
data_Sm8Tm12Si15Os
_symmetry_space_group_name_H-M   'P 1'
_cell_length_a   7.36569296
_cell_length_b   7.75260122
_cell_length_c   14.52326200
_cell_angle_alpha   90.00000000
_cell_angle_beta   90.00000000
_cell_angle_gamma   90.10165534
_symmetry_Int_Tables_number   1
_chemical_formula_structural   Sm8Tm12Si15Os
_chemical_formula_sum   'Sm8 Tm12 Si15 Os1'
_cell_volume   829.32459404
_cell_formula_units_Z   1
loop_
 _symmetry_equiv_pos_site_id
 _symmetry_equiv_pos_as_xyz
  1  'x, y, z'
loop_
 _atom_site_type_symbol
 _atom_site_label
 _atom_site_symmetry_multiplicity
 _atom_site_fract_x
 _atom_site_fract_y
 _atom_site_fract_z
 _atom_site_occupancy
  Sm  Sm0  1  0.018439  0.183086  0.097258  1
  Sm  Sm1  1  0.984453  0.827323  0.903360  1
  Sm  Sm2  1  0.482299  0.677767  0.903885  1
  Sm  Sm3  1  0.984453  0.827323  0.596640  1
  Sm  Sm4  1  0.517140  0.321364  0.096414  1
  Sm  Sm5  1  0.018439  0.183086  0.402742  1
  Sm  Sm6  1  0.517140  0.321364  0.403586  1
  Sm  Sm7  1  0.482299  0.677767  0.596115  1
  Tm  Tm8  1  0.152104  0.505517  0.750000  1
  Tm  Tm9  1  0.842233  0.489300  0.250000  1
  Tm  Tm10  1  0.342275  0.013678  0.250000  1
  Tm  Tm11  1  0.665152  0.990066  0.750000  1
  Tm  Tm12  1  0.312594  0.173331  0.626767  1
  Tm  Tm13  1  0.677308  0.824883  0.374820  1
  Tm  Tm14  1  0.176701  0.679726  0.375319  1
  Tm  Tm15  1  0.677308  0.824883  0.125180  1
  Tm  Tm16  1  0.834189  0.313709  0.626467  1
  Tm  Tm17  1  0.312594  0.173331  0.873233  1
  Tm  Tm18  1  0.834189  0.313709  0.873533  1
  Tm  Tm19  1  0.176701  0.679726  0.124681  1
  Si  Si20  1  0.972208  0.889782  0.250000  1
  Si  Si21  1  0.473247  0.610811  0.250000  1
  Si  Si22  1  0.526729  0.393135  0.750000  1
  Si  Si23  1  0.277119  0.868413  0.750000  1
  Si  Si24  1  0.720331  0.129120  0.250000  1
  Si  Si25  1  0.222297  0.373592  0.250000  1
  Si  Si26  1  0.768946  0.621272  0.750000  1
  Si  Si27  1  0.154500  0.472926  0.537392  1
  Si  Si28  1  0.849912  0.533549  0.461984  1
  Si  Si29  1  0.349526  0.968298  0.460554  1
  Si  Si30  1  0.849912  0.533549  0.038016  1
  Si  Si31  1  0.647916  0.030886  0.537837  1
  Si  Si32  1  0.154500  0.472926  0.962608  1
  Si  Si33  1  0.647916  0.030886  0.962163  1
  Si  Si34  1  0.349526  0.968298  0.039446  1
  Os  Os35  1  0.027412  0.101619  0.750000  1
