# generated using pymatgen
data_HoLu(Th2In5)2
_symmetry_space_group_name_H-M   'P 1'
_cell_length_a   6.57752049
_cell_length_b   6.57752127
_cell_length_c   10.31683400
_cell_angle_alpha   90.00000000
_cell_angle_beta   90.00000000
_cell_angle_gamma   102.33656771
_symmetry_Int_Tables_number   1
_chemical_formula_structural   HoLu(Th2In5)2
_chemical_formula_sum   'Ho1 Lu1 Th4 In10'
_cell_volume   436.03887323
_cell_formula_units_Z   1
loop_
 _symmetry_equiv_pos_site_id
 _symmetry_equiv_pos_as_xyz
  1  'x, y, z'
loop_
 _atom_site_type_symbol
 _atom_site_label
 _atom_site_symmetry_multiplicity
 _atom_site_fract_x
 _atom_site_fract_y
 _atom_site_fract_z
 _atom_site_occupancy
  Ho  Ho0  1  0.131499  0.131499  0.750000  1
  Lu  Lu1  1  0.868257  0.868257  0.250000  1
  Th  Th2  1  0.706229  0.293676  0.000070  1
  Th  Th3  1  0.706229  0.293676  0.499930  1
  Th  Th4  1  0.293676  0.706229  0.000070  1
  Th  Th5  1  0.293676  0.706229  0.499930  1
  In  In6  1  0.510469  0.510469  0.750000  1
  In  In7  1  0.489889  0.489889  0.250000  1
  In  In8  1  0.811270  0.811270  0.545715  1
  In  In9  1  0.188597  0.188597  0.453849  1
  In  In10  1  0.811270  0.811270  0.954285  1
  In  In11  1  0.188597  0.188597  0.046151  1
  In  In12  1  0.993537  0.568110  0.750000  1
  In  In13  1  0.432387  0.006308  0.250000  1
  In  In14  1  0.006308  0.432387  0.250000  1
  In  In15  1  0.568110  0.993537  0.750000  1
