# generated using pymatgen
data_Hf4Fe2Si4IrRh
_symmetry_space_group_name_H-M   'P 1'
_cell_length_a   3.93527700
_cell_length_b   6.42347607
_cell_length_c   7.23550171
_cell_angle_alpha   90.98164636
_cell_angle_beta   90.00000000
_cell_angle_gamma   90.00000000
_symmetry_Int_Tables_number   1
_chemical_formula_structural   Hf4Fe2Si4IrRh
_chemical_formula_sum   'Hf4 Fe2 Si4 Ir1 Rh1'
_cell_volume   182.87330947
_cell_formula_units_Z   1
loop_
 _symmetry_equiv_pos_site_id
 _symmetry_equiv_pos_as_xyz
  1  'x, y, z'
loop_
 _atom_site_type_symbol
 _atom_site_label
 _atom_site_symmetry_multiplicity
 _atom_site_fract_x
 _atom_site_fract_y
 _atom_site_fract_z
 _atom_site_occupancy
  Hf  Hf0  1  0.250000  0.506646  0.183332  1
  Hf  Hf1  1  0.750000  0.492205  0.817586  1
  Hf  Hf2  1  0.250000  0.013684  0.299979  1
  Hf  Hf3  1  0.750000  0.988288  0.699957  1
  Fe  Fe4  1  0.750000  0.847266  0.064485  1
  Fe  Fe5  1  0.250000  0.152886  0.934276  1
  Si  Si6  1  0.250000  0.788860  0.899836  1
  Si  Si7  1  0.750000  0.210647  0.100655  1
  Si  Si8  1  0.250000  0.274753  0.625244  1
  Si  Si9  1  0.750000  0.725187  0.375061  1
  Ir  Ir10  1  0.750000  0.343514  0.431319  1
  Rh  Rh11  1  0.250000  0.656066  0.568270  1
