# generated using pymatgen
data_ZrSc8Re4Se
_symmetry_space_group_name_H-M   'P 1'
_cell_length_a   8.58866796
_cell_length_b   8.73149935
_cell_length_c   8.70563203
_cell_angle_alpha   119.90553807
_cell_angle_beta   90.00210391
_cell_angle_gamma   90.08139749
_symmetry_Int_Tables_number   1
_chemical_formula_structural   ZrSc8Re4Se
_chemical_formula_sum   'Zr2 Sc16 Re8 Se2'
_cell_volume   565.92330676
_cell_formula_units_Z   2
loop_
 _symmetry_equiv_pos_site_id
 _symmetry_equiv_pos_as_xyz
  1  'x, y, z'
loop_
 _atom_site_type_symbol
 _atom_site_label
 _atom_site_symmetry_multiplicity
 _atom_site_fract_x
 _atom_site_fract_y
 _atom_site_fract_z
 _atom_site_occupancy
  Zr  Zr0  1  0.544039  0.806975  0.613282  1
  Zr  Zr1  1  0.544006  0.806965  0.193688  1
  Sc  Sc2  1  0.547590  0.389176  0.194583  1
  Sc  Sc3  1  0.453503  0.195617  0.387911  1
  Sc  Sc4  1  0.453530  0.195623  0.807694  1
  Sc  Sc5  1  0.453588  0.611184  0.805594  1
  Sc  Sc6  1  0.046090  0.193605  0.387493  1
  Sc  Sc7  1  0.046052  0.193608  0.806085  1
  Sc  Sc8  1  0.046404  0.611054  0.805523  1
  Sc  Sc9  1  0.953612  0.805694  0.611657  1
  Sc  Sc10  1  0.953638  0.805681  0.194067  1
  Sc  Sc11  1  0.954238  0.387713  0.193868  1
  Sc  Sc12  1  0.750295  0.458175  0.915956  1
  Sc  Sc13  1  0.750299  0.458182  0.542237  1
  Sc  Sc14  1  0.750001  0.083948  0.541978  1
  Sc  Sc15  1  0.250365  0.541889  0.084741  1
  Sc  Sc16  1  0.250360  0.541888  0.457137  1
  Sc  Sc17  1  0.250670  0.915594  0.457794  1
  Re  Re18  1  0.749733  0.107323  0.214098  1
  Re  Re19  1  0.749719  0.107355  0.893198  1
  Re  Re20  1  0.749183  0.783839  0.891918  1
  Re  Re21  1  0.251042  0.892073  0.785272  1
  Re  Re22  1  0.251043  0.892051  0.106831  1
  Re  Re23  1  0.250048  0.214051  0.107027  1
  Re  Re24  1  0.499982  0.003582  0.001787  1
  Re  Re25  1  0.999107  0.998603  0.999307  1
  Se  Se26  1  0.751891  0.665369  0.332659  1
  Se  Se27  1  0.249971  0.333185  0.666618  1
