# generated using pymatgen
data_Ho8Tm3PaGa20
_symmetry_space_group_name_H-M   'P 1'
_cell_length_a   6.11392468
_cell_length_b   9.56947480
_cell_length_c   11.45185732
_cell_angle_alpha   90.00615075
_cell_angle_beta   89.87070717
_cell_angle_gamma   90.08759457
_symmetry_Int_Tables_number   1
_chemical_formula_structural   Ho8Tm3PaGa20
_chemical_formula_sum   'Ho8 Tm3 Pa1 Ga20'
_cell_volume   670.01187467
_cell_formula_units_Z   1
loop_
 _symmetry_equiv_pos_site_id
 _symmetry_equiv_pos_as_xyz
  1  'x, y, z'
loop_
 _atom_site_type_symbol
 _atom_site_label
 _atom_site_symmetry_multiplicity
 _atom_site_fract_x
 _atom_site_fract_y
 _atom_site_fract_z
 _atom_site_occupancy
  Ho  Ho0  1  0.851283  0.748858  0.074803  1
  Ho  Ho1  1  0.609246  0.988269  0.851609  1
  Ho  Ho2  1  0.112365  0.010929  0.648459  1
  Ho  Ho3  1  0.388970  0.489459  0.149139  1
  Ho  Ho4  1  0.110679  0.488938  0.648900  1
  Ho  Ho5  1  0.388300  0.011519  0.148746  1
  Ho  Ho6  1  0.889448  0.989690  0.351703  1
  Ho  Ho7  1  0.609314  0.510582  0.850297  1
  Tm  Tm8  1  0.650730  0.749291  0.574897  1
  Tm  Tm9  1  0.149826  0.249741  0.924058  1
  Tm  Tm10  1  0.352826  0.252694  0.425401  1
  Pa  Pa11  1  0.887900  0.510280  0.352643  1
  Ga  Ga12  1  0.873470  0.053383  0.091414  1
  Ga  Ga13  1  0.627568  0.445908  0.589503  1
  Ga  Ga14  1  0.126231  0.552944  0.908703  1
  Ga  Ga15  1  0.374343  0.949114  0.409153  1
  Ga  Ga16  1  0.125873  0.947126  0.909784  1
  Ga  Ga17  1  0.377526  0.553812  0.409415  1
  Ga  Ga18  1  0.873788  0.445269  0.090103  1
  Ga  Ga19  1  0.627216  0.052501  0.591465  1
  Ga  Ga20  1  0.172309  0.749889  0.253849  1
  Ga  Ga21  1  0.326266  0.749700  0.751763  1
  Ga  Ga22  1  0.825415  0.249106  0.748687  1
  Ga  Ga23  1  0.673049  0.249834  0.246842  1
  Ga  Ga24  1  0.375224  0.750150  0.005158  1
  Ga  Ga25  1  0.122652  0.749562  0.502803  1
  Ga  Ga26  1  0.621897  0.249336  0.993957  1
  Ga  Ga27  1  0.876686  0.249661  0.495046  1
  Ga  Ga28  1  0.602012  0.751063  0.298508  1
  Ga  Ga29  1  0.899006  0.750189  0.796962  1
  Ga  Ga30  1  0.398715  0.249425  0.701665  1
  Ga  Ga31  1  0.099865  0.251780  0.204565  1
