# generated using pymatgen
data_Li2Dy2ErAgSn3
_symmetry_space_group_name_H-M   'P 1'
_cell_length_a   7.30100700
_cell_length_b   7.30346334
_cell_length_c   4.57982700
_cell_angle_alpha   90.00000000
_cell_angle_beta   90.00000000
_cell_angle_gamma   119.98887055
_symmetry_Int_Tables_number   1
_chemical_formula_structural   Li2Dy2ErAgSn3
_chemical_formula_sum   'Li2 Dy2 Er1 Ag1 Sn3'
_cell_volume   211.51443786
_cell_formula_units_Z   1
loop_
 _symmetry_equiv_pos_site_id
 _symmetry_equiv_pos_as_xyz
  1  'x, y, z'
loop_
 _atom_site_type_symbol
 _atom_site_label
 _atom_site_symmetry_multiplicity
 _atom_site_fract_x
 _atom_site_fract_y
 _atom_site_fract_z
 _atom_site_occupancy
  Li  Li0  1  0.004241  0.232831  0.500000  1
  Li  Li1  1  0.771410  0.767169  0.500000  1
  Dy  Dy2  1  0.001713  0.567838  0.000000  1
  Dy  Dy3  1  0.433874  0.432162  0.000000  1
  Er  Er4  1  0.554349  0.000000  0.000000  1
  Ag  Ag5  1  0.236809  0.000000  0.500000  1
  Sn  Sn6  1  0.990570  0.000000  0.000000  1
  Sn  Sn7  1  0.672337  0.337641  0.500000  1
  Sn  Sn8  1  0.334695  0.662359  0.500000  1
