# generated using pymatgen
data_Dy10Y2Co4IrPb
_symmetry_space_group_name_H-M   'P 1'
_cell_length_a   8.32450723
_cell_length_b   8.32450679
_cell_length_c   8.32450625
_cell_angle_alpha   106.93766056
_cell_angle_beta   110.38597376
_cell_angle_gamma   111.12025129
_symmetry_Int_Tables_number   1
_chemical_formula_structural   Dy10Y2Co4IrPb
_chemical_formula_sum   'Dy10 Y2 Co4 Ir1 Pb1'
_cell_volume   443.40549248
_cell_formula_units_Z   1
loop_
 _symmetry_equiv_pos_site_id
 _symmetry_equiv_pos_as_xyz
  1  'x, y, z'
loop_
 _atom_site_type_symbol
 _atom_site_label
 _atom_site_symmetry_multiplicity
 _atom_site_fract_x
 _atom_site_fract_y
 _atom_site_fract_z
 _atom_site_occupancy
  Dy  Dy0  1  0.894429  0.711258  0.183172  1
  Dy  Dy1  1  0.528086  0.711258  0.816828  1
  Dy  Dy2  1  0.306940  0.621069  0.314129  1
  Dy  Dy3  1  0.306940  0.992812  0.685871  1
  Dy  Dy4  1  0.692989  0.379453  0.686464  1
  Dy  Dy5  1  0.692989  0.006525  0.313536  1
  Dy  Dy6  1  0.195812  0.211384  0.407408  1
  Dy  Dy7  1  0.803977  0.788406  0.592592  1
  Dy  Dy8  1  0.195812  0.788406  0.984427  1
  Dy  Dy9  1  0.803977  0.211384  0.015573  1
  Y  Y10  1  0.473122  0.288844  0.184279  1
  Y  Y11  1  0.104565  0.288844  0.815721  1
  Co  Co12  1  0.501020  0.612322  0.111302  1
  Co  Co13  1  0.501020  0.389719  0.888698  1
  Co  Co14  1  0.379677  0.999976  0.379701  1
  Co  Co15  1  0.620275  0.999976  0.620299  1
  Ir  Ir16  1  0.998599  0.998599  0.000000  1
  Pb  Pb17  1  0.999770  0.499770  0.500000  1
