# generated using pymatgen
data_PuU(NiAs)2
_symmetry_space_group_name_H-M   'P 1'
_cell_length_a   4.09844700
_cell_length_b   4.09844620
_cell_length_c   15.12911900
_cell_angle_alpha   90.00000000
_cell_angle_beta   90.00000000
_cell_angle_gamma   120.00001457
_symmetry_Int_Tables_number   1
_chemical_formula_structural   PuU(NiAs)2
_chemical_formula_sum   'Pu2 U2 Ni4 As4'
_cell_volume   220.08111016
_cell_formula_units_Z   2
loop_
 _symmetry_equiv_pos_site_id
 _symmetry_equiv_pos_as_xyz
  1  'x, y, z'
loop_
 _atom_site_type_symbol
 _atom_site_label
 _atom_site_symmetry_multiplicity
 _atom_site_fract_x
 _atom_site_fract_y
 _atom_site_fract_z
 _atom_site_occupancy
  Pu  Pu0  1  0.000000  0.000000  0.000000  1
  Pu  Pu1  1  0.000000  0.000000  0.500000  1
  U  U2  1  0.000000  0.000000  0.250000  1
  U  U3  1  0.000000  0.000000  0.750000  1
  Ni  Ni4  1  0.333333  0.666667  0.152598  1
  Ni  Ni5  1  0.666667  0.333333  0.847402  1
  Ni  Ni6  1  0.666667  0.333333  0.652598  1
  Ni  Ni7  1  0.333333  0.666667  0.347402  1
  As  As8  1  0.333333  0.666667  0.619702  1
  As  As9  1  0.666667  0.333333  0.380298  1
  As  As10  1  0.666667  0.333333  0.119702  1
  As  As11  1  0.333333  0.666667  0.880298  1
