# generated using pymatgen
data_La2NdLu(ZnSn)4
_symmetry_space_group_name_H-M   'P 1'
_cell_length_a   4.57300300
_cell_length_b   4.57300345
_cell_length_c   16.60216500
_cell_angle_alpha   90.00000000
_cell_angle_beta   90.00000000
_cell_angle_gamma   120.00000398
_symmetry_Int_Tables_number   1
_chemical_formula_structural   La2NdLu(ZnSn)4
_chemical_formula_sum   'La2 Nd1 Lu1 Zn4 Sn4'
_cell_volume   300.67571702
_cell_formula_units_Z   1
loop_
 _symmetry_equiv_pos_site_id
 _symmetry_equiv_pos_as_xyz
  1  'x, y, z'
loop_
 _atom_site_type_symbol
 _atom_site_label
 _atom_site_symmetry_multiplicity
 _atom_site_fract_x
 _atom_site_fract_y
 _atom_site_fract_z
 _atom_site_occupancy
  La  La0  1  0.000000  0.000000  0.994739  1
  La  La1  1  0.000000  0.000000  0.505261  1
  Nd  Nd2  1  0.000000  0.000000  0.250000  1
  Lu  Lu3  1  0.000000  0.000000  0.750000  1
  Zn  Zn4  1  0.333333  0.666667  0.158633  1
  Zn  Zn5  1  0.666667  0.333333  0.831443  1
  Zn  Zn6  1  0.666667  0.333333  0.668557  1
  Zn  Zn7  1  0.333333  0.666667  0.341367  1
  Sn  Sn8  1  0.333333  0.666667  0.622778  1
  Sn  Sn9  1  0.666667  0.333333  0.384302  1
  Sn  Sn10  1  0.666667  0.333333  0.115698  1
  Sn  Sn11  1  0.333333  0.666667  0.877222  1
