# generated using pymatgen
data_Nd5In4PdPt
_symmetry_space_group_name_H-M   'P 1'
_cell_length_a   3.78493900
_cell_length_b   8.32439771
_cell_length_c   18.77013006
_cell_angle_alpha   90.11023988
_cell_angle_beta   90.00000000
_cell_angle_gamma   90.00000000
_symmetry_Int_Tables_number   1
_chemical_formula_structural   Nd5In4PdPt
_chemical_formula_sum   'Nd10 In8 Pd2 Pt2'
_cell_volume   591.39572896
_cell_formula_units_Z   2
loop_
 _symmetry_equiv_pos_site_id
 _symmetry_equiv_pos_as_xyz
  1  'x, y, z'
loop_
 _atom_site_type_symbol
 _atom_site_label
 _atom_site_symmetry_multiplicity
 _atom_site_fract_x
 _atom_site_fract_y
 _atom_site_fract_z
 _atom_site_occupancy
  Nd  Nd0  1  0.000000  0.119972  0.416017  1
  Nd  Nd1  1  0.000000  0.880028  0.583983  1
  Nd  Nd2  1  0.000000  0.380717  0.915256  1
  Nd  Nd3  1  0.000000  0.619283  0.084744  1
  Nd  Nd4  1  0.000000  0.245916  0.218976  1
  Nd  Nd5  1  0.000000  0.754084  0.781024  1
  Nd  Nd6  1  0.000000  0.261765  0.719402  1
  Nd  Nd7  1  0.000000  0.738235  0.280598  1
  Nd  Nd8  1  0.000000  0.000000  0.000000  1
  Nd  Nd9  1  0.000000  0.500000  0.500000  1
  In  In10  1  0.500000  0.423120  0.350243  1
  In  In11  1  0.500000  0.576880  0.649757  1
  In  In12  1  0.500000  0.073381  0.848895  1
  In  In13  1  0.500000  0.926619  0.151105  1
  In  In14  1  0.500000  0.292002  0.068078  1
  In  In15  1  0.500000  0.707998  0.931922  1
  In  In16  1  0.500000  0.206929  0.568802  1
  In  In17  1  0.500000  0.793071  0.431198  1
  Pd  Pd18  1  0.500000  0.022317  0.303639  1
  Pd  Pd19  1  0.500000  0.977683  0.696361  1
  Pt  Pt20  1  0.500000  0.476229  0.803610  1
  Pt  Pt21  1  0.500000  0.523771  0.196390  1
