# generated using pymatgen
data_Gd4Er13Tm3Pb16
_symmetry_space_group_name_H-M   'P 1'
_cell_length_a   8.16641102
_cell_length_b   15.53423901
_cell_length_c   8.22657300
_cell_angle_alpha   89.99899677
_cell_angle_beta   90.00394301
_cell_angle_gamma   89.99877922
_symmetry_Int_Tables_number   1
_chemical_formula_structural   Gd4Er13Tm3Pb16
_chemical_formula_sum   'Gd4 Er13 Tm3 Pb16'
_cell_volume   1043.61466170
_cell_formula_units_Z   1
loop_
 _symmetry_equiv_pos_site_id
 _symmetry_equiv_pos_as_xyz
  1  'x, y, z'
loop_
 _atom_site_type_symbol
 _atom_site_label
 _atom_site_symmetry_multiplicity
 _atom_site_fract_x
 _atom_site_fract_y
 _atom_site_fract_z
 _atom_site_occupancy
  Gd  Gd0  1  0.532250  0.402734  0.322858  1
  Gd  Gd1  1  0.032434  0.097182  0.177227  1
  Gd  Gd2  1  0.468015  0.902759  0.677259  1
  Gd  Gd3  1  0.967940  0.597157  0.822756  1
  Er  Er4  1  0.625755  0.621191  0.157192  1
  Er  Er5  1  0.126099  0.878749  0.342667  1
  Er  Er6  1  0.373987  0.121296  0.842803  1
  Er  Er7  1  0.874094  0.378582  0.657118  1
  Er  Er8  1  0.376310  0.378386  0.842816  1
  Er  Er9  1  0.876382  0.121826  0.657320  1
  Er  Er10  1  0.623668  0.878411  0.157157  1
  Er  Er11  1  0.123814  0.621642  0.342783  1
  Er  Er12  1  0.462292  0.599983  0.676014  1
  Er  Er13  1  0.962624  0.899984  0.824384  1
  Er  Er14  1  0.537481  0.100126  0.324150  1
  Er  Er15  1  0.037407  0.400021  0.175937  1
  Er  Er16  1  0.792262  0.750717  0.495402  1
  Tm  Tm17  1  0.292246  0.749397  0.004602  1
  Tm  Tm18  1  0.207726  0.250554  0.504620  1
  Tm  Tm19  1  0.707689  0.249410  0.995523  1
  Pb  Pb20  1  0.717847  0.455427  0.967146  1
  Pb  Pb21  1  0.217916  0.044568  0.532707  1
  Pb  Pb22  1  0.282202  0.955391  0.032721  1
  Pb  Pb23  1  0.781987  0.544409  0.467247  1
  Pb  Pb24  1  0.285564  0.542152  0.037936  1
  Pb  Pb25  1  0.785934  0.958077  0.461856  1
  Pb  Pb26  1  0.714313  0.042223  0.962135  1
  Pb  Pb27  1  0.214140  0.457824  0.537733  1
  Pb  Pb28  1  0.429763  0.749307  0.373452  1
  Pb  Pb29  1  0.930195  0.750660  0.126101  1
  Pb  Pb30  1  0.569680  0.249326  0.626507  1
  Pb  Pb31  1  0.069730  0.250677  0.873700  1
  Pb  Pb32  1  0.652902  0.748729  0.845757  1
  Pb  Pb33  1  0.153122  0.751165  0.654718  1
  Pb  Pb34  1  0.346968  0.248801  0.154630  1
  Pb  Pb35  1  0.847262  0.251156  0.345064  1
