# generated using pymatgen
data_NaNi2(Sb6Ru)2
_symmetry_space_group_name_H-M   'P 1'
_cell_length_a   8.09499080
_cell_length_b   8.06420996
_cell_length_c   8.06420902
_cell_angle_alpha   109.13013827
_cell_angle_beta   109.53195323
_cell_angle_gamma   109.59663705
_symmetry_Int_Tables_number   1
_chemical_formula_structural   NaNi2(Sb6Ru)2
_chemical_formula_sum   'Na1 Ni2 Sb12 Ru2'
_cell_volume   406.01247181
_cell_formula_units_Z   1
loop_
 _symmetry_equiv_pos_site_id
 _symmetry_equiv_pos_as_xyz
  1  'x, y, z'
loop_
 _atom_site_type_symbol
 _atom_site_label
 _atom_site_symmetry_multiplicity
 _atom_site_fract_x
 _atom_site_fract_y
 _atom_site_fract_z
 _atom_site_occupancy
  Na  Na0  1  0.000000  0.000000  0.000000  1
  Ni  Ni1  1  0.500000  0.500000  0.500000  1
  Ni  Ni2  1  0.500000  0.000000  0.000000  1
  Sb  Sb3  1  0.660065  0.840413  0.503582  1
  Sb  Sb4  1  0.339935  0.159587  0.496418  1
  Sb  Sb5  1  0.839230  0.180600  0.336627  1
  Sb  Sb6  1  0.817057  0.659971  0.157086  1
  Sb  Sb7  1  0.839230  0.502603  0.658630  1
  Sb  Sb8  1  0.182943  0.340029  0.842914  1
  Sb  Sb9  1  0.160770  0.819400  0.663373  1
  Sb  Sb10  1  0.504166  0.662578  0.841588  1
  Sb  Sb11  1  0.495834  0.337422  0.158412  1
  Sb  Sb12  1  0.160770  0.497397  0.341370  1
  Sb  Sb13  1  0.339935  0.843518  0.180348  1
  Sb  Sb14  1  0.660065  0.156482  0.819652  1
  Ru  Ru15  1  0.000000  0.000000  0.500000  1
  Ru  Ru16  1  0.000000  0.500000  0.000000  1
