# generated using pymatgen
data_Nd8Si12OsAu3
_symmetry_space_group_name_H-M   'P 1'
_cell_length_a   8.29150400
_cell_length_b   8.29151630
_cell_length_c   8.58860400
_cell_angle_alpha   89.99879939
_cell_angle_beta   90.00124281
_cell_angle_gamma   119.99960956
_symmetry_Int_Tables_number   1
_chemical_formula_structural   Nd8Si12OsAu3
_chemical_formula_sum   'Nd8 Si12 Os1 Au3'
_cell_volume   511.35462987
_cell_formula_units_Z   1
loop_
 _symmetry_equiv_pos_site_id
 _symmetry_equiv_pos_as_xyz
  1  'x, y, z'
loop_
 _atom_site_type_symbol
 _atom_site_label
 _atom_site_symmetry_multiplicity
 _atom_site_fract_x
 _atom_site_fract_y
 _atom_site_fract_z
 _atom_site_occupancy
  Nd  Nd0  1  0.999995  0.000011  0.749836  1
  Nd  Nd1  1  0.000013  0.000005  0.250215  1
  Nd  Nd2  1  0.495608  0.504358  0.756711  1
  Nd  Nd3  1  0.495576  0.991202  0.756707  1
  Nd  Nd4  1  0.008816  0.504414  0.756710  1
  Nd  Nd5  1  0.497074  0.502888  0.243307  1
  Nd  Nd6  1  0.005724  0.502840  0.243290  1
  Nd  Nd7  1  0.497148  0.994293  0.243294  1
  Si  Si8  1  0.838621  0.161380  0.999171  1
  Si  Si9  1  0.838625  0.677236  0.999222  1
  Si  Si10  1  0.322761  0.161374  0.999222  1
  Si  Si11  1  0.836663  0.163331  0.500579  1
  Si  Si12  1  0.836679  0.673340  0.500651  1
  Si  Si13  1  0.326663  0.163317  0.500649  1
  Si  Si14  1  0.163010  0.836979  0.499426  1
  Si  Si15  1  0.673980  0.836987  0.499432  1
  Si  Si16  1  0.163008  0.326016  0.499432  1
  Si  Si17  1  0.168914  0.831082  0.001197  1
  Si  Si18  1  0.662180  0.831091  0.001149  1
  Si  Si19  1  0.168911  0.337826  0.001149  1
  Os  Os20  1  0.333365  0.666664  0.001317  1
  Au  Au21  1  0.666660  0.333341  0.997421  1
  Au  Au22  1  0.666670  0.333348  0.502395  1
  Au  Au23  1  0.333337  0.666674  0.497517  1
