# generated using pymatgen
data_Dy2YP2S
_symmetry_space_group_name_H-M   'P 1'
_cell_length_a   6.91267274
_cell_length_b   6.91267324
_cell_length_c   6.91267136
_cell_angle_alpha   146.52332426
_cell_angle_beta   132.13037272
_cell_angle_gamma   59.67326724
_symmetry_Int_Tables_number   1
_chemical_formula_structural   Dy2YP2S
_chemical_formula_sum   'Dy2 Y1 P2 S1'
_cell_volume   133.91754885
_cell_formula_units_Z   1
loop_
 _symmetry_equiv_pos_site_id
 _symmetry_equiv_pos_as_xyz
  1  'x, y, z'
loop_
 _atom_site_type_symbol
 _atom_site_label
 _atom_site_symmetry_multiplicity
 _atom_site_fract_x
 _atom_site_fract_y
 _atom_site_fract_z
 _atom_site_occupancy
  Dy  Dy0  1  0.499963  0.999963  0.500000  1
  Dy  Dy1  1  0.828614  0.328614  0.500000  1
  Y  Y2  1  0.171376  0.671376  0.500000  1
  P  P3  1  0.665602  0.665602  0.000000  1
  P  P4  1  0.334665  0.334665  0.000000  1
  S  S5  1  0.999780  0.999780  0.000000  1
