# generated using pymatgen
data_Dy3Ho3Co2(P3Rh4)4
_symmetry_space_group_name_H-M   'P 1'
_cell_length_a   3.86301300
_cell_length_b   11.13038603
_cell_length_c   12.78114404
_cell_angle_alpha   90.00897611
_cell_angle_beta   90.00000000
_cell_angle_gamma   90.00000000
_symmetry_Int_Tables_number   1
_chemical_formula_structural   Dy3Ho3Co2(P3Rh4)4
_chemical_formula_sum   'Dy3 Ho3 Co2 P12 Rh16'
_cell_volume   549.54861889
_cell_formula_units_Z   1
loop_
 _symmetry_equiv_pos_site_id
 _symmetry_equiv_pos_as_xyz
  1  'x, y, z'
loop_
 _atom_site_type_symbol
 _atom_site_label
 _atom_site_symmetry_multiplicity
 _atom_site_fract_x
 _atom_site_fract_y
 _atom_site_fract_z
 _atom_site_occupancy
  Dy  Dy0  1  0.000000  0.500018  0.521943  1
  Dy  Dy1  1  0.500000  0.999983  0.478119  1
  Dy  Dy2  1  0.000000  0.314819  0.798167  1
  Ho  Ho3  1  0.500000  0.814831  0.201848  1
  Ho  Ho4  1  0.500000  0.185159  0.201829  1
  Ho  Ho5  1  0.000000  0.685222  0.798150  1
  Co  Co6  1  0.000000  0.500074  0.979210  1
  Co  Co7  1  0.500000  0.999979  0.020879  1
  P  P8  1  0.500000  0.500091  0.881300  1
  P  P9  1  0.000000  0.000005  0.118823  1
  P  P10  1  0.500000  0.499982  0.351648  1
  P  P11  1  0.000000  0.000031  0.648325  1
  P  P12  1  0.500000  0.315754  0.619485  1
  P  P13  1  0.500000  0.684235  0.619622  1
  P  P14  1  0.000000  0.184237  0.380369  1
  P  P15  1  0.000000  0.815777  0.380372  1
  P  P16  1  0.500000  0.853403  0.895882  1
  P  P17  1  0.500000  0.146480  0.895975  1
  P  P18  1  0.000000  0.646614  0.104137  1
  P  P19  1  0.000000  0.353374  0.104121  1
  Rh  Rh20  1  0.500000  0.500010  0.168462  1
  Rh  Rh21  1  0.000000  0.000002  0.831675  1
  Rh  Rh22  1  0.500000  0.500202  0.703201  1
  Rh  Rh23  1  0.000000  0.999994  0.296634  1
  Rh  Rh24  1  0.500000  0.336679  0.994155  1
  Rh  Rh25  1  0.500000  0.663361  0.994012  1
  Rh  Rh26  1  0.000000  0.163309  0.006107  1
  Rh  Rh27  1  0.000000  0.836631  0.006030  1
  Rh  Rh28  1  0.500000  0.293855  0.430114  1
  Rh  Rh29  1  0.500000  0.706163  0.430114  1
  Rh  Rh30  1  0.000000  0.206175  0.569675  1
  Rh  Rh31  1  0.000000  0.793787  0.569759  1
  Rh  Rh32  1  0.500000  0.873209  0.712333  1
  Rh  Rh33  1  0.500000  0.126562  0.712201  1
  Rh  Rh34  1  0.000000  0.626769  0.287656  1
  Rh  Rh35  1  0.000000  0.373226  0.287667  1
