# generated using pymatgen
data_Hf6Mn3Co3N2
_symmetry_space_group_name_H-M   'P 1'
_cell_length_a   8.25965413
_cell_length_b   8.28282973
_cell_length_c   8.28283028
_cell_angle_alpha   60.12564031
_cell_angle_beta   60.09252283
_cell_angle_gamma   60.09251516
_symmetry_Int_Tables_number   1
_chemical_formula_structural   Hf6Mn3Co3N2
_chemical_formula_sum   'Hf12 Mn6 Co6 N4'
_cell_volume   401.62626348
_cell_formula_units_Z   2
loop_
 _symmetry_equiv_pos_site_id
 _symmetry_equiv_pos_as_xyz
  1  'x, y, z'
loop_
 _atom_site_type_symbol
 _atom_site_label
 _atom_site_symmetry_multiplicity
 _atom_site_fract_x
 _atom_site_fract_y
 _atom_site_fract_z
 _atom_site_occupancy
  Hf  Hf0  1  0.190494  0.191358  0.810097  1
  Hf  Hf1  1  0.444344  0.054790  0.056521  1
  Hf  Hf2  1  0.057907  0.440391  0.443795  1
  Hf  Hf3  1  0.441950  0.439903  0.058642  1
  Hf  Hf4  1  0.444867  0.052925  0.445631  1
  Hf  Hf5  1  0.059506  0.439903  0.058642  1
  Hf  Hf6  1  0.808050  0.191358  0.810097  1
  Hf  Hf7  1  0.805656  0.193479  0.195210  1
  Hf  Hf8  1  0.192093  0.806205  0.809609  1
  Hf  Hf9  1  0.193423  0.804369  0.197075  1
  Hf  Hf10  1  0.056577  0.052925  0.445631  1
  Hf  Hf11  1  0.805133  0.804369  0.197075  1
  Mn  Mn12  1  0.623453  0.126565  0.626530  1
  Mn  Mn13  1  0.626547  0.623470  0.123435  1
  Mn  Mn14  1  0.125000  0.621680  0.628320  1
  Mn  Mn15  1  0.625000  0.621680  0.628320  1
  Mn  Mn16  1  0.822498  0.531784  0.823220  1
  Mn  Mn17  1  0.427502  0.426780  0.718216  1
  Co  Co18  1  0.739113  0.422349  0.417349  1
  Co  Co19  1  0.421189  0.422349  0.417349  1
  Co  Co20  1  0.510887  0.832651  0.827651  1
  Co  Co21  1  0.828811  0.832651  0.827651  1
  Co  Co22  1  0.827886  0.832341  0.511887  1
  Co  Co23  1  0.422114  0.738113  0.417659  1
  N  N24  1  0.123831  0.626121  0.126216  1
  N  N25  1  0.126169  0.123784  0.623879  1
  N  N26  1  0.625000  0.122856  0.127144  1
  N  N27  1  0.125000  0.122856  0.127144  1
