# generated using pymatgen
data_LaMo2(PO4)3
_symmetry_space_group_name_H-M   'P 1'
_cell_length_a   8.89155526
_cell_length_b   8.89155549
_cell_length_c   9.26974060
_cell_angle_alpha   61.28023567
_cell_angle_beta   61.28023652
_cell_angle_gamma   59.99967497
_symmetry_Int_Tables_number   1
_chemical_formula_structural   LaMo2(PO4)3
_chemical_formula_sum   'La2 Mo4 P6 O24'
_cell_volume   528.01378357
_cell_formula_units_Z   2
loop_
 _symmetry_equiv_pos_site_id
 _symmetry_equiv_pos_as_xyz
  1  'x, y, z'
loop_
 _atom_site_type_symbol
 _atom_site_label
 _atom_site_symmetry_multiplicity
 _atom_site_fract_x
 _atom_site_fract_y
 _atom_site_fract_z
 _atom_site_occupancy
  La  La0  1  0.007203  0.495708  0.747225  1
  La  La1  1  0.504292  0.992797  0.252775  1
  Mo  Mo2  1  0.650587  0.140778  0.810808  1
  Mo  Mo3  1  0.859222  0.349413  0.189192  1
  Mo  Mo4  1  0.152214  0.642179  0.307631  1
  Mo  Mo5  1  0.357821  0.847786  0.692369  1
  P  P6  1  0.255777  0.450965  0.000206  1
  P  P7  1  0.462376  0.244898  0.500974  1
  P  P8  1  0.047122  0.952878  0.500000  1
  P  P9  1  0.961103  0.038897  0.000000  1
  P  P10  1  0.549035  0.744223  0.999794  1
  P  P11  1  0.755102  0.537624  0.499026  1
  O  O12  1  0.021192  0.106106  0.332368  1
  O  O13  1  0.797715  0.514386  0.329225  1
  O  O14  1  0.416756  0.261097  0.005913  1
  O  O15  1  0.306207  0.599746  0.832705  1
  O  O16  1  0.235264  0.927660  0.500119  1
  O  O17  1  0.616236  0.287435  0.335407  1
  O  O18  1  0.485614  0.202285  0.670775  1
  O  O19  1  0.093804  0.429975  0.993795  1
  O  O20  1  0.438767  0.082506  0.498190  1
  O  O21  1  0.274259  0.407874  0.500535  1
  O  O22  1  0.893894  0.978808  0.667632  1
  O  O23  1  0.072340  0.764736  0.499881  1
  O  O24  1  0.938891  0.228234  0.994763  1
  O  O25  1  0.110285  0.008501  0.832083  1
  O  O26  1  0.570025  0.906196  0.006205  1
  O  O27  1  0.738903  0.583244  0.994087  1
  O  O28  1  0.917494  0.561233  0.501810  1
  O  O29  1  0.519383  0.793819  0.831402  1
  O  O30  1  0.400254  0.693793  0.167295  1
  O  O31  1  0.771766  0.061109  0.005237  1
  O  O32  1  0.712565  0.383764  0.664593  1
  O  O33  1  0.592126  0.725741  0.499465  1
  O  O34  1  0.206181  0.480617  0.168598  1
  O  O35  1  0.991499  0.889715  0.167917  1
