# generated using pymatgen
data_Hf6Al9(CoSi)7
_symmetry_space_group_name_H-M   'P 1'
_cell_length_a   8.34796168
_cell_length_b   8.37737908
_cell_length_c   8.37932729
_cell_angle_alpha   60.01489500
_cell_angle_beta   59.90167017
_cell_angle_gamma   59.89543816
_symmetry_Int_Tables_number   1
_chemical_formula_structural   Hf6Al9(CoSi)7
_chemical_formula_sum   'Hf6 Al9 Co7 Si7'
_cell_volume   413.77462163
_cell_formula_units_Z   1
loop_
 _symmetry_equiv_pos_site_id
 _symmetry_equiv_pos_as_xyz
  1  'x, y, z'
loop_
 _atom_site_type_symbol
 _atom_site_label
 _atom_site_symmetry_multiplicity
 _atom_site_fract_x
 _atom_site_fract_y
 _atom_site_fract_z
 _atom_site_occupancy
  Hf  Hf0  1  0.692384  0.307451  0.307422  1
  Hf  Hf1  1  0.309389  0.692248  0.692254  1
  Hf  Hf2  1  0.309384  0.692258  0.306084  1
  Hf  Hf3  1  0.692419  0.307431  0.692731  1
  Hf  Hf4  1  0.309397  0.306111  0.692238  1
  Hf  Hf5  1  0.692386  0.692733  0.307434  1
  Al  Al6  1  0.999186  0.667007  0.666897  1
  Al  Al7  1  0.120189  0.120440  0.120556  1
  Al  Al8  1  0.882111  0.881226  0.881127  1
  Al  Al9  1  0.120168  0.120430  0.638967  1
  Al  Al10  1  0.120217  0.638912  0.120489  1
  Al  Al11  1  0.882128  0.881251  0.355378  1
  Al  Al12  1  0.882085  0.355452  0.881181  1
  Al  Al13  1  0.638244  0.120606  0.120592  1
  Al  Al14  1  0.359783  0.880040  0.880074  1
  Co  Co15  1  0.498967  0.001309  0.001324  1
  Co  Co16  1  0.000710  0.495415  0.495424  1
  Co  Co17  1  0.000680  0.495430  0.008465  1
  Co  Co18  1  0.498974  0.001328  0.498393  1
  Co  Co19  1  0.000704  0.008435  0.495436  1
  Co  Co20  1  0.498961  0.498395  0.001341  1
  Co  Co21  1  0.001022  0.999659  0.999668  1
  Si  Si22  1  0.339009  0.340696  0.340625  1
  Si  Si23  1  0.664961  0.661195  0.661261  1
  Si  Si24  1  0.339090  0.340734  0.979553  1
  Si  Si25  1  0.338934  0.979628  0.340735  1
  Si  Si26  1  0.664879  0.661143  0.012736  1
  Si  Si27  1  0.665029  0.012654  0.661140  1
  Si  Si28  1  0.978609  0.340384  0.340477  1
