# generated using pymatgen
data_Ho2Tm14Tl5InRh2
_symmetry_space_group_name_H-M   'P 1'
_cell_length_a   10.26211850
_cell_length_b   10.26211776
_cell_length_c   7.05191022
_cell_angle_alpha   90.02320256
_cell_angle_beta   89.97679614
_cell_angle_gamma   119.92199782
_symmetry_Int_Tables_number   1
_chemical_formula_structural   Ho2Tm14Tl5InRh2
_chemical_formula_sum   'Ho2 Tm14 Tl5 In1 Rh2'
_cell_volume   643.65359259
_cell_formula_units_Z   1
loop_
 _symmetry_equiv_pos_site_id
 _symmetry_equiv_pos_as_xyz
  1  'x, y, z'
loop_
 _atom_site_type_symbol
 _atom_site_label
 _atom_site_symmetry_multiplicity
 _atom_site_fract_x
 _atom_site_fract_y
 _atom_site_fract_z
 _atom_site_occupancy
  Ho  Ho0  1  0.532594  0.067221  0.516150  1
  Ho  Ho1  1  0.932779  0.467406  0.516150  1
  Tm  Tm2  1  0.534585  0.465415  0.517834  1
  Tm  Tm3  1  0.465191  0.930187  0.018000  1
  Tm  Tm4  1  0.069813  0.534809  0.018000  1
  Tm  Tm5  1  0.465108  0.534892  0.017711  1
  Tm  Tm6  1  0.176240  0.352196  0.717340  1
  Tm  Tm7  1  0.647804  0.823760  0.717340  1
  Tm  Tm8  1  0.175965  0.824035  0.719968  1
  Tm  Tm9  1  0.822921  0.647365  0.216186  1
  Tm  Tm10  1  0.352635  0.177079  0.216186  1
  Tm  Tm11  1  0.823862  0.176138  0.215839  1
  Tm  Tm12  1  0.666618  0.333382  0.897584  1
  Tm  Tm13  1  0.333362  0.666638  0.397720  1
  Tm  Tm14  1  0.000867  0.999133  0.496833  1
  Tm  Tm15  1  0.000679  0.999321  0.998813  1
  Tl  Tl16  1  0.836668  0.673761  0.764909  1
  Tl  Tl17  1  0.326239  0.163332  0.764909  1
  Tl  Tl18  1  0.837132  0.162868  0.764882  1
  Tl  Tl19  1  0.162848  0.326209  0.265283  1
  Tl  Tl20  1  0.673791  0.837152  0.265283  1
  In  In21  1  0.162721  0.837279  0.263561  1
  Rh  Rh22  1  0.666126  0.333874  0.285141  1
  Rh  Rh23  1  0.333455  0.666545  0.786381  1
