# generated using pymatgen
data_Li2Sc3CoNi8As7
_symmetry_space_group_name_H-M   'P 1'
_cell_length_a   9.57251368
_cell_length_b   9.52442775
_cell_length_c   3.81065900
_cell_angle_alpha   90.00000000
_cell_angle_beta   90.00000000
_cell_angle_gamma   119.67212769
_symmetry_Int_Tables_number   1
_chemical_formula_structural   Li2Sc3CoNi8As7
_chemical_formula_sum   'Li2 Sc3 Co1 Ni8 As7'
_cell_volume   301.87072239
_cell_formula_units_Z   1
loop_
 _symmetry_equiv_pos_site_id
 _symmetry_equiv_pos_as_xyz
  1  'x, y, z'
loop_
 _atom_site_type_symbol
 _atom_site_label
 _atom_site_symmetry_multiplicity
 _atom_site_fract_x
 _atom_site_fract_y
 _atom_site_fract_z
 _atom_site_occupancy
  Li  Li0  1  0.782814  0.221603  0.500000  1
  Li  Li1  1  0.997837  0.003193  0.500000  1
  Sc  Sc2  1  0.776520  0.562333  0.500000  1
  Sc  Sc3  1  0.439200  0.209258  0.500000  1
  Sc  Sc4  1  0.324528  0.658682  0.000000  1
  Co  Co5  1  0.275483  0.385116  0.500000  1
  Ni  Ni6  1  0.626433  0.896790  0.500000  1
  Ni  Ni7  1  0.108091  0.722659  0.500000  1
  Ni  Ni8  1  0.499054  0.457482  0.000000  1
  Ni  Ni9  1  0.543720  0.038831  0.000000  1
  Ni  Ni10  1  0.959914  0.504718  0.000000  1
  Ni  Ni11  1  0.723107  0.760545  0.000000  1
  Ni  Ni12  1  0.247288  0.970311  0.000000  1
  Ni  Ni13  1  0.034149  0.278445  0.000000  1
  As  As14  1  0.980198  0.769632  0.000000  1
  As  As15  1  0.237110  0.217914  0.000000  1
  As  As16  1  0.789353  0.031400  0.000000  1
  As  As17  1  0.670543  0.330268  0.000000  1
  As  As18  1  0.526117  0.620303  0.500000  1
  As  As19  1  0.380518  0.903167  0.500000  1
  As  As20  1  0.078025  0.457351  0.500000  1
