# generated using pymatgen
data_Ti4CuSi4Ir3
_symmetry_space_group_name_H-M   'P 1'
_cell_length_a   3.80818300
_cell_length_b   6.28302102
_cell_length_c   7.27497101
_cell_angle_alpha   88.97272281
_cell_angle_beta   90.00000000
_cell_angle_gamma   90.00000000
_symmetry_Int_Tables_number   1
_chemical_formula_structural   Ti4CuSi4Ir3
_chemical_formula_sum   'Ti4 Cu1 Si4 Ir3'
_cell_volume   174.03948165
_cell_formula_units_Z   1
loop_
 _symmetry_equiv_pos_site_id
 _symmetry_equiv_pos_as_xyz
  1  'x, y, z'
loop_
 _atom_site_type_symbol
 _atom_site_label
 _atom_site_symmetry_multiplicity
 _atom_site_fract_x
 _atom_site_fract_y
 _atom_site_fract_z
 _atom_site_occupancy
  Ti  Ti0  1  0.250000  0.027119  0.827243  1
  Ti  Ti1  1  0.250000  0.522212  0.680106  1
  Ti  Ti2  1  0.750000  0.967752  0.175087  1
  Ti  Ti3  1  0.750000  0.476585  0.319561  1
  Cu  Cu4  1  0.250000  0.152072  0.437811  1
  Si  Si5  1  0.250000  0.761237  0.379080  1
  Si  Si6  1  0.250000  0.263588  0.125777  1
  Si  Si7  1  0.750000  0.235260  0.625591  1
  Si  Si8  1  0.750000  0.732692  0.871114  1
  Ir  Ir9  1  0.250000  0.654469  0.063732  1
  Ir  Ir10  1  0.750000  0.859229  0.555916  1
  Ir  Ir11  1  0.750000  0.347784  0.938983  1
