# generated using pymatgen
data_Pr2YEr3(IrO7)2
_symmetry_space_group_name_H-M   'P 1'
_cell_length_a   6.45842770
_cell_length_b   6.45383718
_cell_length_c   7.50090100
_cell_angle_alpha   90.00000000
_cell_angle_beta   90.00000000
_cell_angle_gamma   109.61733179
_symmetry_Int_Tables_number   1
_chemical_formula_structural   Pr2YEr3(IrO7)2
_chemical_formula_sum   'Pr2 Y1 Er3 Ir2 O14'
_cell_volume   294.50239319
_cell_formula_units_Z   1
loop_
 _symmetry_equiv_pos_site_id
 _symmetry_equiv_pos_as_xyz
  1  'x, y, z'
loop_
 _atom_site_type_symbol
 _atom_site_label
 _atom_site_symmetry_multiplicity
 _atom_site_fract_x
 _atom_site_fract_y
 _atom_site_fract_z
 _atom_site_occupancy
  Pr  Pr0  1  0.998857  0.999317  0.999178  1
  Pr  Pr1  1  0.998857  0.999317  0.500822  1
  Y  Y2  1  0.061579  0.515547  0.250000  1
  Er  Er3  1  0.485914  0.939114  0.750000  1
  Er  Er4  1  0.514266  0.060295  0.250000  1
  Er  Er5  1  0.938393  0.486295  0.750000  1
  Ir  Ir6  1  0.498990  0.499155  0.999254  1
  Ir  Ir7  1  0.498990  0.499155  0.500746  1
  O  O8  1  0.594471  0.593958  0.750000  1
  O  O9  1  0.414143  0.409466  0.250000  1
  O  O10  1  0.837339  0.124005  0.750000  1
  O  O11  1  0.162036  0.879914  0.250000  1
  O  O12  1  0.124461  0.838100  0.750000  1
  O  O13  1  0.875016  0.159351  0.250000  1
  O  O14  1  0.440320  0.178779  0.966149  1
  O  O15  1  0.558184  0.820165  0.466728  1
  O  O16  1  0.179144  0.437986  0.964079  1
  O  O17  1  0.820696  0.561577  0.468813  1
  O  O18  1  0.440320  0.178779  0.533851  1
  O  O19  1  0.558184  0.820165  0.033272  1
  O  O20  1  0.820696  0.561577  0.031187  1
  O  O21  1  0.179144  0.437986  0.535921  1
