# generated using pymatgen
data_Tb2Tc5P7Ir5Rh2
_symmetry_space_group_name_H-M   'P 1'
_cell_length_a   3.97477600
_cell_length_b   9.46948644
_cell_length_c   9.50134236
_cell_angle_alpha   119.62673389
_cell_angle_beta   90.00048264
_cell_angle_gamma   90.00010992
_symmetry_Int_Tables_number   1
_chemical_formula_structural   Tb2Tc5P7Ir5Rh2
_chemical_formula_sum   'Tb2 Tc5 P7 Ir5 Rh2'
_cell_volume   310.86793538
_cell_formula_units_Z   1
loop_
 _symmetry_equiv_pos_site_id
 _symmetry_equiv_pos_as_xyz
  1  'x, y, z'
loop_
 _atom_site_type_symbol
 _atom_site_label
 _atom_site_symmetry_multiplicity
 _atom_site_fract_x
 _atom_site_fract_y
 _atom_site_fract_z
 _atom_site_occupancy
  Tb  Tb0  1  0.261975  0.668704  0.333950  1
  Tb  Tb1  1  0.762077  0.333222  0.666295  1
  Tc  Tc2  1  0.761893  0.092153  0.868744  1
  Tc  Tc3  1  0.761850  0.131631  0.221628  1
  Tc  Tc4  1  0.761876  0.780194  0.908126  1
  Tc  Tc5  1  0.261871  0.887436  0.160978  1
  Tc  Tc6  1  0.261939  0.839717  0.727462  1
  P  P7  1  0.261442  0.994826  0.997360  1
  P  P8  1  0.761945  0.880780  0.599041  1
  P  P9  1  0.761865  0.403429  0.285758  1
  P  P10  1  0.761815  0.720143  0.121048  1
  P  P11  1  0.262103  0.114934  0.412111  1
  P  P12  1  0.262046  0.586474  0.703162  1
  P  P13  1  0.262000  0.295521  0.880020  1
  Ir  Ir14  1  0.261826  0.270929  0.110118  1
  Ir  Ir15  1  0.761956  0.609624  0.554070  1
  Ir  Ir16  1  0.261941  0.367370  0.437567  1
  Ir  Ir17  1  0.261849  0.561782  0.930775  1
  Ir  Ir18  1  0.261966  0.069903  0.631904  1
  Rh  Rh19  1  0.761823  0.445847  0.057361  1
  Rh  Rh20  1  0.761943  0.945379  0.392527  1
