# generated using pymatgen
data_HoSc(SbO4)2
_symmetry_space_group_name_H-M   'P 1'
_cell_length_a   5.31194655
_cell_length_b   7.47142761
_cell_length_c   7.56457457
_cell_angle_alpha   80.92550345
_cell_angle_beta   86.93126739
_cell_angle_gamma   91.10097488
_symmetry_Int_Tables_number   1
_chemical_formula_structural   HoSc(SbO4)2
_chemical_formula_sum   'Ho2 Sc2 Sb4 O16'
_cell_volume   295.92237313
_cell_formula_units_Z   2
loop_
 _symmetry_equiv_pos_site_id
 _symmetry_equiv_pos_as_xyz
  1  'x, y, z'
loop_
 _atom_site_type_symbol
 _atom_site_label
 _atom_site_symmetry_multiplicity
 _atom_site_fract_x
 _atom_site_fract_y
 _atom_site_fract_z
 _atom_site_occupancy
  Ho  Ho0  1  0.749102  0.376457  0.372885  1
  Ho  Ho1  1  0.250898  0.623543  0.627115  1
  Sc  Sc2  1  0.720145  0.867940  0.334434  1
  Sc  Sc3  1  0.279855  0.132060  0.665566  1
  Sb  Sb4  1  0.774433  0.310322  0.839349  1
  Sb  Sb5  1  0.225567  0.689678  0.160651  1
  Sb  Sb6  1  0.247233  0.185996  0.171530  1
  Sb  Sb7  1  0.752767  0.814004  0.828470  1
  O  O8  1  0.901438  0.806169  0.069553  1
  O  O9  1  0.098562  0.193831  0.930447  1
  O  O10  1  0.386627  0.936416  0.177669  1
  O  O11  1  0.613373  0.063584  0.822331  1
  O  O12  1  0.096865  0.434035  0.176562  1
  O  O13  1  0.903135  0.565965  0.823438  1
  O  O14  1  0.580582  0.312252  0.071939  1
  O  O15  1  0.419418  0.687748  0.928061  1
  O  O16  1  0.995807  0.318693  0.610931  1
  O  O17  1  0.004193  0.681307  0.389069  1
  O  O18  1  0.414701  0.182989  0.402481  1
  O  O19  1  0.585299  0.817011  0.597519  1
  O  O20  1  0.491589  0.615586  0.330437  1
  O  O21  1  0.508411  0.384414  0.669563  1
  O  O22  1  0.926150  0.104285  0.304072  1
  O  O23  1  0.073850  0.895715  0.695928  1
