# generated using pymatgen
data_ZrU2PaSb5
_symmetry_space_group_name_H-M   'P 1'
_cell_length_a   9.28474730
_cell_length_b   9.28882352
_cell_length_c   6.18125100
_cell_angle_alpha   90.00000000
_cell_angle_beta   90.00000000
_cell_angle_gamma   120.01452198
_symmetry_Int_Tables_number   1
_chemical_formula_structural   ZrU2PaSb5
_chemical_formula_sum   'Zr2 U4 Pa2 Sb10'
_cell_volume   461.60897104
_cell_formula_units_Z   2
loop_
 _symmetry_equiv_pos_site_id
 _symmetry_equiv_pos_as_xyz
  1  'x, y, z'
loop_
 _atom_site_type_symbol
 _atom_site_label
 _atom_site_symmetry_multiplicity
 _atom_site_fract_x
 _atom_site_fract_y
 _atom_site_fract_z
 _atom_site_occupancy
  Zr  Zr0  1  0.998642  0.999321  0.000000  1
  Zr  Zr1  1  0.998642  0.999321  0.500000  1
  U  U2  1  0.000129  0.613597  0.250000  1
  U  U3  1  0.000129  0.386532  0.750000  1
  U  U4  1  0.614221  0.614119  0.750000  1
  U  U5  1  0.614221  0.000103  0.250000  1
  Pa  Pa6  1  0.387258  0.999521  0.750000  1
  Pa  Pa7  1  0.387258  0.387737  0.250000  1
  Sb  Sb8  1  0.666956  0.333478  0.500000  1
  Sb  Sb9  1  0.333727  0.666864  0.000000  1
  Sb  Sb10  1  0.727641  0.999615  0.750000  1
  Sb  Sb11  1  0.727641  0.728026  0.250000  1
  Sb  Sb12  1  0.333727  0.666864  0.500000  1
  Sb  Sb13  1  0.666956  0.333478  0.000000  1
  Sb  Sb14  1  0.271970  0.999807  0.250000  1
  Sb  Sb15  1  0.271970  0.272163  0.750000  1
  Sb  Sb16  1  0.999456  0.727932  0.750000  1
  Sb  Sb17  1  0.999456  0.271524  0.250000  1
