# generated using pymatgen
data_Pr2BeSiBr
_symmetry_space_group_name_H-M   'P 1'
_cell_length_a   3.89619000
_cell_length_b   3.89619042
_cell_length_c   17.53466600
_cell_angle_alpha   90.00000000
_cell_angle_beta   90.00000000
_cell_angle_gamma   119.99999646
_symmetry_Int_Tables_number   1
_chemical_formula_structural   Pr2BeSiBr
_chemical_formula_sum   'Pr4 Be2 Si2 Br2'
_cell_volume   230.51991263
_cell_formula_units_Z   2
loop_
 _symmetry_equiv_pos_site_id
 _symmetry_equiv_pos_as_xyz
  1  'x, y, z'
loop_
 _atom_site_type_symbol
 _atom_site_label
 _atom_site_symmetry_multiplicity
 _atom_site_fract_x
 _atom_site_fract_y
 _atom_site_fract_z
 _atom_site_occupancy
  Pr  Pr0  1  0.000000  0.000000  0.616412  1
  Pr  Pr1  1  0.000000  0.000000  0.382773  1
  Pr  Pr2  1  0.000000  0.000000  0.116412  1
  Pr  Pr3  1  0.000000  0.000000  0.882773  1
  Be  Be4  1  0.666667  0.333333  0.501768  1
  Be  Be5  1  0.333333  0.666667  0.001768  1
  Si  Si6  1  0.666667  0.333333  0.998742  1
  Si  Si7  1  0.333333  0.666667  0.498742  1
  Br  Br8  1  0.666667  0.333333  0.250305  1
  Br  Br9  1  0.333333  0.666667  0.750305  1
