# generated using pymatgen
data_Hf6SiPN2
_symmetry_space_group_name_H-M   'P 1'
_cell_length_a   5.74261608
_cell_length_b   5.74261638
_cell_length_c   8.39966300
_cell_angle_alpha   90.00000000
_cell_angle_beta   90.00000000
_cell_angle_gamma   145.37470904
_symmetry_Int_Tables_number   1
_chemical_formula_structural   Hf6SiPN2
_chemical_formula_sum   'Hf6 Si1 P1 N2'
_cell_volume   157.39395674
_cell_formula_units_Z   1
loop_
 _symmetry_equiv_pos_site_id
 _symmetry_equiv_pos_as_xyz
  1  'x, y, z'
loop_
 _atom_site_type_symbol
 _atom_site_label
 _atom_site_symmetry_multiplicity
 _atom_site_fract_x
 _atom_site_fract_y
 _atom_site_fract_z
 _atom_site_occupancy
  Hf  Hf0  1  0.634266  0.365734  0.441424  1
  Hf  Hf1  1  0.367614  0.632386  0.554294  1
  Hf  Hf2  1  0.634266  0.365734  0.058576  1
  Hf  Hf3  1  0.367614  0.632386  0.945706  1
  Hf  Hf4  1  0.935466  0.064534  0.250000  1
  Hf  Hf5  1  0.058342  0.941658  0.750000  1
  Si  Si6  1  0.744115  0.255885  0.750000  1
  P  P7  1  0.256301  0.743699  0.250000  1
  N  N8  1  0.001008  0.998992  0.497826  1
  N  N9  1  0.001008  0.998992  0.002174  1
