# generated using pymatgen
data_Lu3Sc2AlIr2Au
_symmetry_space_group_name_H-M   'P 1'
_cell_length_a   7.20637835
_cell_length_b   7.12614895
_cell_length_c   4.22894900
_cell_angle_alpha   90.00000000
_cell_angle_beta   90.00000000
_cell_angle_gamma   119.36109181
_symmetry_Int_Tables_number   1
_chemical_formula_structural   Lu3Sc2AlIr2Au
_chemical_formula_sum   'Lu3 Sc2 Al1 Ir2 Au1'
_cell_volume   189.27584819
_cell_formula_units_Z   1
loop_
 _symmetry_equiv_pos_site_id
 _symmetry_equiv_pos_as_xyz
  1  'x, y, z'
loop_
 _atom_site_type_symbol
 _atom_site_label
 _atom_site_symmetry_multiplicity
 _atom_site_fract_x
 _atom_site_fract_y
 _atom_site_fract_z
 _atom_site_occupancy
  Lu  Lu0  1  0.405347  0.400740  0.500000  1
  Lu  Lu1  1  0.616042  0.030140  0.500000  1
  Lu  Lu2  1  0.984563  0.566415  0.500000  1
  Sc  Sc3  1  0.758174  0.755984  0.000000  1
  Sc  Sc4  1  0.246110  0.012031  0.000000  1
  Al  Al5  1  0.990693  0.239943  0.000000  1
  Ir  Ir6  1  0.671634  0.336997  0.000000  1
  Ir  Ir7  1  0.001315  0.997726  0.500000  1
  Au  Au8  1  0.326122  0.660025  0.000000  1
