# generated using pymatgen
data_UP2Se7
_symmetry_space_group_name_H-M   'P 1'
_cell_length_a   9.42795677
_cell_length_b   9.43282160
_cell_length_c   17.01307770
_cell_angle_alpha   99.00510578
_cell_angle_beta   98.99594507
_cell_angle_gamma   115.88684664
_symmetry_Int_Tables_number   1
_chemical_formula_structural   UP2Se7
_chemical_formula_sum   'U4 P8 Se28'
_cell_volume   1300.71828253
_cell_formula_units_Z   4
loop_
 _symmetry_equiv_pos_site_id
 _symmetry_equiv_pos_as_xyz
  1  'x, y, z'
loop_
 _atom_site_type_symbol
 _atom_site_label
 _atom_site_symmetry_multiplicity
 _atom_site_fract_x
 _atom_site_fract_y
 _atom_site_fract_z
 _atom_site_occupancy
  U  U0  1  0.512484  0.762538  0.024706  1
  U  U1  1  0.737419  0.987441  0.475226  1
  U  U2  1  0.262570  0.012561  0.524779  1
  U  U3  1  0.487501  0.237456  0.975302  1
  P  P4  1  0.372509  0.009394  0.136367  1
  P  P5  1  0.763877  0.626420  0.135995  1
  P  P6  1  0.873052  0.735802  0.363930  1
  P  P7  1  0.491105  0.127791  0.363643  1
  P  P8  1  0.508866  0.872220  0.636374  1
  P  P9  1  0.126989  0.264208  0.636045  1
  P  P10  1  0.236107  0.373568  0.864003  1
  P  P11  1  0.627474  0.990575  0.863635  1
  Se  Se12  1  0.825107  0.497079  0.037073  1
  Se  Se13  1  0.212034  0.039123  0.037211  1
  Se  Se14  1  0.617762  0.121177  0.109943  1
  Se  Se15  1  0.492157  0.489002  0.109823  1
  Se  Se16  1  0.321151  0.763056  0.145823  1
  Se  Se17  1  0.825931  0.882321  0.144640  1
  Se  Se18  1  0.346198  0.154316  0.250111  1
  Se  Se19  1  0.903696  0.595969  0.250072  1
  Se  Se20  1  0.617310  0.674430  0.355295  1
  Se  Se21  1  0.737300  0.178441  0.354180  1
  Se  Se22  1  0.010831  0.007334  0.390048  1
  Se  Se23  1  0.378749  0.882600  0.389944  1
  Se  Se24  1  0.461684  0.288024  0.463092  1
  Se  Se25  1  0.002486  0.675236  0.463127  1
  Se  Se26  1  0.538462  0.712076  0.536940  1
  Se  Se27  1  0.997517  0.324752  0.536867  1
  Se  Se28  1  0.621232  0.117363  0.610027  1
  Se  Se29  1  0.989113  0.992670  0.609913  1
  Se  Se30  1  0.262666  0.821506  0.645832  1
  Se  Se31  1  0.382769  0.325641  0.644740  1
  Se  Se32  1  0.653770  0.845645  0.749890  1
  Se  Se33  1  0.096290  0.404080  0.749912  1
  Se  Se34  1  0.174115  0.117710  0.855367  1
  Se  Se35  1  0.678837  0.236890  0.854225  1
  Se  Se36  1  0.507854  0.510921  0.890152  1
  Se  Se37  1  0.382211  0.878890  0.890022  1
  Se  Se38  1  0.788057  0.960944  0.962800  1
  Se  Se39  1  0.174756  0.502828  0.962925  1
