# generated using pymatgen
data_Lu5In2Sb
_symmetry_space_group_name_H-M   'P 1'
_cell_length_a   6.42970601
_cell_length_b   8.80623286
_cell_length_c   8.78010987
_cell_angle_alpha   119.90128489
_cell_angle_beta   90.00071653
_cell_angle_gamma   89.99906401
_symmetry_Int_Tables_number   1
_chemical_formula_structural   Lu5In2Sb
_chemical_formula_sum   'Lu10 In4 Sb2'
_cell_volume   430.96599626
_cell_formula_units_Z   2
loop_
 _symmetry_equiv_pos_site_id
 _symmetry_equiv_pos_as_xyz
  1  'x, y, z'
loop_
 _atom_site_type_symbol
 _atom_site_label
 _atom_site_symmetry_multiplicity
 _atom_site_fract_x
 _atom_site_fract_y
 _atom_site_fract_z
 _atom_site_occupancy
  Lu  Lu0  1  0.495965  0.333851  0.668099  1
  Lu  Lu1  1  0.495897  0.666170  0.334205  1
  Lu  Lu2  1  0.004092  0.666263  0.334261  1
  Lu  Lu3  1  0.003979  0.333776  0.668075  1
  Lu  Lu4  1  0.749996  0.232756  0.995553  1
  Lu  Lu5  1  0.750021  0.767141  0.762818  1
  Lu  Lu6  1  0.750063  0.999985  0.238096  1
  Lu  Lu7  1  0.250013  0.764001  0.000365  1
  Lu  Lu8  1  0.250018  0.236041  0.236322  1
  Lu  Lu9  1  0.249991  0.999926  0.764170  1
  In  In10  1  0.749980  0.000062  0.596309  1
  In  In11  1  0.250037  0.396422  0.001205  1
  In  In12  1  0.250046  0.603814  0.605184  1
  In  In13  1  0.249959  0.999767  0.399373  1
  Sb  Sb14  1  0.749972  0.604894  0.000437  1
  Sb  Sb15  1  0.749972  0.395133  0.395527  1
