# generated using pymatgen
data_Tb2DyV(Co4P3)2
_symmetry_space_group_name_H-M   'P 1'
_cell_length_a   3.68560100
_cell_length_b   10.56014100
_cell_length_c   12.24017500
_cell_angle_alpha   90.00000000
_cell_angle_beta   90.00000000
_cell_angle_gamma   90.00000000
_symmetry_Int_Tables_number   1
_chemical_formula_structural   Tb2DyV(Co4P3)2
_chemical_formula_sum   'Tb4 Dy2 V2 Co16 P12'
_cell_volume   476.39331773
_cell_formula_units_Z   2
loop_
 _symmetry_equiv_pos_site_id
 _symmetry_equiv_pos_as_xyz
  1  'x, y, z'
loop_
 _atom_site_type_symbol
 _atom_site_label
 _atom_site_symmetry_multiplicity
 _atom_site_fract_x
 _atom_site_fract_y
 _atom_site_fract_z
 _atom_site_occupancy
  Tb  Tb0  1  0.000000  0.500000  0.523007  1
  Tb  Tb1  1  0.500000  0.000000  0.476880  1
  Tb  Tb2  1  0.000000  0.681438  0.795689  1
  Tb  Tb3  1  0.000000  0.318562  0.795689  1
  Dy  Dy4  1  0.500000  0.818803  0.204214  1
  Dy  Dy5  1  0.500000  0.181197  0.204214  1
  V  V6  1  0.500000  0.500000  0.153536  1
  V  V7  1  0.000000  0.000000  0.846549  1
  Co  Co8  1  0.500000  0.500000  0.702083  1
  Co  Co9  1  0.000000  0.000000  0.297650  1
  Co  Co10  1  0.000000  0.500000  0.987291  1
  Co  Co11  1  0.500000  0.000000  0.013347  1
  Co  Co12  1  0.500000  0.332345  0.993205  1
  Co  Co13  1  0.500000  0.667655  0.993205  1
  Co  Co14  1  0.000000  0.167349  0.007448  1
  Co  Co15  1  0.000000  0.832651  0.007448  1
  Co  Co16  1  0.500000  0.295772  0.430841  1
  Co  Co17  1  0.500000  0.704228  0.430841  1
  Co  Co18  1  0.000000  0.204036  0.568657  1
  Co  Co19  1  0.000000  0.795964  0.568657  1
  Co  Co20  1  0.500000  0.879099  0.707780  1
  Co  Co21  1  0.500000  0.120901  0.707780  1
  Co  Co22  1  0.000000  0.621183  0.291957  1
  Co  Co23  1  0.000000  0.378817  0.291957  1
  P  P24  1  0.500000  0.500000  0.882819  1
  P  P25  1  0.000000  0.000000  0.117837  1
  P  P26  1  0.500000  0.500000  0.346180  1
  P  P27  1  0.000000  0.000000  0.653732  1
  P  P28  1  0.500000  0.310591  0.615458  1
  P  P29  1  0.500000  0.689409  0.615458  1
  P  P30  1  0.000000  0.189169  0.383888  1
  P  P31  1  0.000000  0.810831  0.383888  1
  P  P32  1  0.500000  0.846311  0.892414  1
  P  P33  1  0.500000  0.153689  0.892414  1
  P  P34  1  0.000000  0.654132  0.107994  1
  P  P35  1  0.000000  0.345868  0.107994  1
