# generated using pymatgen
data_La2Yb9CeRu4
_symmetry_space_group_name_H-M   'P 1'
_cell_length_a   6.45258153
_cell_length_b   7.52138779
_cell_length_c   9.63063900
_cell_angle_alpha   90.00000000
_cell_angle_beta   90.00000000
_cell_angle_gamma   88.50882959
_symmetry_Int_Tables_number   1
_chemical_formula_structural   La2Yb9CeRu4
_chemical_formula_sum   'La2 Yb9 Ce1 Ru4'
_cell_volume   467.23942952
_cell_formula_units_Z   1
loop_
 _symmetry_equiv_pos_site_id
 _symmetry_equiv_pos_as_xyz
  1  'x, y, z'
loop_
 _atom_site_type_symbol
 _atom_site_label
 _atom_site_symmetry_multiplicity
 _atom_site_fract_x
 _atom_site_fract_y
 _atom_site_fract_z
 _atom_site_occupancy
  La  La0  1  0.132297  0.442782  0.750000  1
  La  La1  1  0.361192  0.942114  0.750000  1
  Yb  Yb2  1  0.343562  0.668428  0.069538  1
  Yb  Yb3  1  0.166482  0.168853  0.429267  1
  Yb  Yb4  1  0.662025  0.328108  0.569307  1
  Yb  Yb5  1  0.836259  0.830876  0.932428  1
  Yb  Yb6  1  0.662025  0.328108  0.930693  1
  Yb  Yb7  1  0.836259  0.830876  0.567572  1
  Yb  Yb8  1  0.343562  0.668428  0.430462  1
  Yb  Yb9  1  0.166482  0.168853  0.070733  1
  Yb  Yb10  1  0.861158  0.543383  0.250000  1
  Ce  Ce11  1  0.660626  0.059945  0.250000  1
  Ru  Ru12  1  0.974886  0.900697  0.250000  1
  Ru  Ru13  1  0.496709  0.338789  0.250000  1
  Ru  Ru14  1  0.984708  0.142485  0.750000  1
  Ru  Ru15  1  0.511769  0.637278  0.750000  1
