# generated using pymatgen
data_PuPaNiB10
_symmetry_space_group_name_H-M   'P 1'
_cell_length_a   4.12912000
_cell_length_b   5.56236934
_cell_length_c   11.04849444
_cell_angle_alpha   90.10448149
_cell_angle_beta   90.00000000
_cell_angle_gamma   90.00000000
_symmetry_Int_Tables_number   1
_chemical_formula_structural   PuPaNiB10
_chemical_formula_sum   'Pu2 Pa2 Ni2 B20'
_cell_volume   253.75797863
_cell_formula_units_Z   2
loop_
 _symmetry_equiv_pos_site_id
 _symmetry_equiv_pos_as_xyz
  1  'x, y, z'
loop_
 _atom_site_type_symbol
 _atom_site_label
 _atom_site_symmetry_multiplicity
 _atom_site_fract_x
 _atom_site_fract_y
 _atom_site_fract_z
 _atom_site_occupancy
  Pu  Pu0  1  0.500000  0.316400  0.858821  1
  Pu  Pu1  1  0.500000  0.683600  0.141179  1
  Pa  Pa2  1  0.500000  0.813976  0.639231  1
  Pa  Pa3  1  0.500000  0.186024  0.360769  1
  Ni  Ni4  1  0.000000  0.500000  0.500000  1
  Ni  Ni5  1  0.000000  0.000000  0.000000  1
  B  B6  1  0.000000  0.125403  0.539437  1
  B  B7  1  0.000000  0.874597  0.460563  1
  B  B8  1  0.000000  0.625945  0.960330  1
  B  B9  1  0.000000  0.374055  0.039670  1
  B  B10  1  0.000000  0.155355  0.697738  1
  B  B11  1  0.000000  0.844645  0.302262  1
  B  B12  1  0.301746  0.200286  0.113594  1
  B  B13  1  0.301746  0.799714  0.886406  1
  B  B14  1  0.697650  0.700085  0.386184  1
  B  B15  1  0.697650  0.299915  0.613816  1
  B  B16  1  0.698254  0.799714  0.886406  1
  B  B17  1  0.698254  0.200286  0.113594  1
  B  B18  1  0.302350  0.299915  0.613816  1
  B  B19  1  0.302350  0.700085  0.386184  1
  B  B20  1  0.000000  0.030195  0.187425  1
  B  B21  1  0.000000  0.969805  0.812575  1
  B  B22  1  0.000000  0.529313  0.312652  1
  B  B23  1  0.000000  0.470687  0.687348  1
  B  B24  1  0.000000  0.342372  0.198017  1
  B  B25  1  0.000000  0.657628  0.801983  1
