# generated using pymatgen
data_PrNd3(Si4Tc3)2
_symmetry_space_group_name_H-M   'P 1'
_cell_length_a   8.18006062
_cell_length_b   5.70187306
_cell_length_c   7.04216151
_cell_angle_alpha   76.93933853
_cell_angle_beta   89.95630697
_cell_angle_gamma   89.99902113
_symmetry_Int_Tables_number   1
_chemical_formula_structural   PrNd3(Si4Tc3)2
_chemical_formula_sum   'Pr1 Nd3 Si8 Tc6'
_cell_volume   319.96128914
_cell_formula_units_Z   1
loop_
 _symmetry_equiv_pos_site_id
 _symmetry_equiv_pos_as_xyz
  1  'x, y, z'
loop_
 _atom_site_type_symbol
 _atom_site_label
 _atom_site_symmetry_multiplicity
 _atom_site_fract_x
 _atom_site_fract_y
 _atom_site_fract_z
 _atom_site_occupancy
  Pr  Pr0  1  0.930625  0.562946  0.252419  1
  Nd  Nd1  1  0.430698  0.936672  0.748245  1
  Nd  Nd2  1  0.069437  0.436802  0.748239  1
  Nd  Nd3  1  0.569358  0.063363  0.251821  1
  Si  Si4  1  0.587892  0.611277  0.110221  1
  Si  Si5  1  0.088501  0.889573  0.888442  1
  Si  Si6  1  0.411580  0.388836  0.889296  1
  Si  Si7  1  0.911529  0.111230  0.109792  1
  Si  Si8  1  0.751408  0.718100  0.589594  1
  Si  Si9  1  0.252336  0.782898  0.411153  1
  Si  Si10  1  0.248856  0.281782  0.411090  1
  Si  Si11  1  0.747735  0.216725  0.589395  1
  Tc  Tc12  1  0.293313  0.609913  0.121579  1
  Tc  Tc13  1  0.793030  0.890643  0.878228  1
  Tc  Tc14  1  0.706653  0.390216  0.878135  1
  Tc  Tc15  1  0.206785  0.109497  0.121437  1
  Tc  Tc16  1  0.499995  0.499970  0.500028  1
  Tc  Tc17  1  0.000267  0.999559  0.500885  1
