# generated using pymatgen
data_Tb9Sm(CoTe)4
_symmetry_space_group_name_H-M   'P 1'
_cell_length_a   7.82256905
_cell_length_b   7.82256883
_cell_length_c   15.07429800
_cell_angle_alpha   90.00000000
_cell_angle_beta   90.00000000
_cell_angle_gamma   150.40196942
_symmetry_Int_Tables_number   1
_chemical_formula_structural   Tb9Sm(CoTe)4
_chemical_formula_sum   'Tb9 Sm1 Co4 Te4'
_cell_volume   455.60182455
_cell_formula_units_Z   1
loop_
 _symmetry_equiv_pos_site_id
 _symmetry_equiv_pos_as_xyz
  1  'x, y, z'
loop_
 _atom_site_type_symbol
 _atom_site_label
 _atom_site_symmetry_multiplicity
 _atom_site_fract_x
 _atom_site_fract_y
 _atom_site_fract_z
 _atom_site_occupancy
  Tb  Tb0  1  0.960409  0.039591  0.126093  1
  Tb  Tb1  1  0.040023  0.959977  0.874250  1
  Tb  Tb2  1  0.040023  0.959977  0.625750  1
  Tb  Tb3  1  0.960409  0.039591  0.373907  1
  Tb  Tb4  1  0.741453  0.258547  0.630373  1
  Tb  Tb5  1  0.258104  0.741896  0.369287  1
  Tb  Tb6  1  0.258104  0.741896  0.130713  1
  Tb  Tb7  1  0.741453  0.258547  0.869627  1
  Tb  Tb8  1  0.605139  0.394861  0.250000  1
  Sm  Sm9  1  0.394527  0.605473  0.750000  1
  Co  Co10  1  0.411230  0.588770  0.250000  1
  Co  Co11  1  0.589383  0.410617  0.750000  1
  Co  Co12  1  0.820278  0.179722  0.250000  1
  Co  Co13  1  0.179556  0.820444  0.750000  1
  Te  Te14  1  0.617684  0.382316  0.038553  1
  Te  Te15  1  0.382269  0.617731  0.962417  1
  Te  Te16  1  0.382269  0.617731  0.537583  1
  Te  Te17  1  0.617684  0.382316  0.461447  1
