# generated using pymatgen
data_Ac(Yb2Ag3)2
_symmetry_space_group_name_H-M   'P 1'
_cell_length_a   16.11207100
_cell_length_b   16.11207049
_cell_length_c   4.05135300
_cell_angle_alpha   90.00000000
_cell_angle_beta   90.00000000
_cell_angle_gamma   164.23160891
_symmetry_Int_Tables_number   1
_chemical_formula_structural   Ac(Yb2Ag3)2
_chemical_formula_sum   'Ac1 Yb4 Ag6'
_cell_volume   285.80600616
_cell_formula_units_Z   1
loop_
 _symmetry_equiv_pos_site_id
 _symmetry_equiv_pos_as_xyz
  1  'x, y, z'
loop_
 _atom_site_type_symbol
 _atom_site_label
 _atom_site_symmetry_multiplicity
 _atom_site_fract_x
 _atom_site_fract_y
 _atom_site_fract_z
 _atom_site_occupancy
  Ac  Ac0  1  0.000000  0.000000  0.000000  1
  Yb  Yb1  1  0.621756  0.378242  0.000000  1
  Yb  Yb2  1  0.378242  0.621756  0.000000  1
  Yb  Yb3  1  0.800917  0.199081  0.500001  1
  Yb  Yb4  1  0.199081  0.800917  0.500001  1
  Ag  Ag5  1  0.720735  0.279263  0.000000  1
  Ag  Ag6  1  0.279263  0.720735  0.000000  1
  Ag  Ag7  1  0.899873  0.100126  0.500001  1
  Ag  Ag8  1  0.545333  0.454665  0.500001  1
  Ag  Ag9  1  0.454665  0.545333  0.500001  1
  Ag  Ag10  1  0.100126  0.899873  0.500001  1
