# generated using pymatgen
data_Ga12MoIr3
_symmetry_space_group_name_H-M   'P 1'
_cell_length_a   6.59359212
_cell_length_b   6.59359212
_cell_length_c   6.91309400
_cell_angle_alpha   90.00000000
_cell_angle_beta   90.00000000
_cell_angle_gamma   89.97803265
_symmetry_Int_Tables_number   1
_chemical_formula_structural   Ga12MoIr3
_chemical_formula_sum   'Ga12 Mo1 Ir3'
_cell_volume   300.54989926
_cell_formula_units_Z   1
loop_
 _symmetry_equiv_pos_site_id
 _symmetry_equiv_pos_as_xyz
  1  'x, y, z'
loop_
 _atom_site_type_symbol
 _atom_site_label
 _atom_site_symmetry_multiplicity
 _atom_site_fract_x
 _atom_site_fract_y
 _atom_site_fract_z
 _atom_site_occupancy
  Ga  Ga0  1  0.998329  0.502426  0.500000  1
  Ga  Ga1  1  0.512104  0.004891  0.000000  1
  Ga  Ga2  1  0.497574  0.001671  0.500000  1
  Ga  Ga3  1  0.995109  0.487896  0.000000  1
  Ga  Ga4  1  0.347217  0.652783  0.239780  1
  Ga  Ga5  1  0.655231  0.344769  0.229659  1
  Ga  Ga6  1  0.158577  0.152555  0.735339  1
  Ga  Ga7  1  0.847445  0.841423  0.735339  1
  Ga  Ga8  1  0.655231  0.344769  0.770341  1
  Ga  Ga9  1  0.347217  0.652783  0.760220  1
  Ga  Ga10  1  0.847445  0.841423  0.264661  1
  Ga  Ga11  1  0.158577  0.152555  0.264661  1
  Mo  Mo12  1  0.153204  0.846796  0.500000  1
  Ir  Ir13  1  0.830401  0.169599  0.500000  1
  Ir  Ir14  1  0.337483  0.341144  0.000000  1
  Ir  Ir15  1  0.658856  0.662517  0.000000  1
