# generated using pymatgen
data_Rb8Er2Tm4BeBr20
_symmetry_space_group_name_H-M   'P 1'
_cell_length_a   12.26584903
_cell_length_b   12.27402098
_cell_length_c   12.27412685
_cell_angle_alpha   59.95509693
_cell_angle_beta   60.02101613
_cell_angle_gamma   60.02270387
_symmetry_Int_Tables_number   1
_chemical_formula_structural   Rb8Er2Tm4BeBr20
_chemical_formula_sum   'Rb8 Er2 Tm4 Be1 Br20'
_cell_volume   1306.63958113
_cell_formula_units_Z   1
loop_
 _symmetry_equiv_pos_site_id
 _symmetry_equiv_pos_as_xyz
  1  'x, y, z'
loop_
 _atom_site_type_symbol
 _atom_site_label
 _atom_site_symmetry_multiplicity
 _atom_site_fract_x
 _atom_site_fract_y
 _atom_site_fract_z
 _atom_site_occupancy
  Rb  Rb0  1  0.359147  0.359128  0.359124  1
  Rb  Rb1  1  0.640853  0.640872  0.640876  1
  Rb  Rb2  1  0.359114  0.359145  0.922620  1
  Rb  Rb3  1  0.359117  0.922650  0.359137  1
  Rb  Rb4  1  0.640886  0.640855  0.077380  1
  Rb  Rb5  1  0.640883  0.077350  0.640863  1
  Rb  Rb6  1  0.922634  0.359111  0.359117  1
  Rb  Rb7  1  0.077366  0.640889  0.640883  1
  Er  Er8  1  0.846399  0.153587  0.153607  1
  Er  Er9  1  0.153601  0.846413  0.846393  1
  Tm  Tm10  1  0.153433  0.846573  0.153432  1
  Tm  Tm11  1  0.846567  0.153427  0.846568  1
  Tm  Tm12  1  0.153431  0.153439  0.846577  1
  Tm  Tm13  1  0.846569  0.846561  0.153423  1
  Be  Be14  1  0.000000  0.000000  0.000000  1
  Br  Br15  1  0.329042  0.000014  0.000005  1
  Br  Br16  1  0.670958  0.999986  0.999995  1
  Br  Br17  1  0.000000  0.329043  0.670959  1
  Br  Br18  1  0.000000  0.670957  0.329041  1
  Br  Br19  1  0.000670  0.329561  0.999347  1
  Br  Br20  1  0.670445  0.999332  0.329555  1
  Br  Br21  1  0.999330  0.670439  0.000653  1
  Br  Br22  1  0.329555  0.000668  0.670445  1
  Br  Br23  1  0.000666  0.999349  0.329550  1
  Br  Br24  1  0.999334  0.000651  0.670450  1
  Br  Br25  1  0.670449  0.329558  0.999336  1
  Br  Br26  1  0.329551  0.670442  0.000664  1
  Br  Br27  1  0.680809  0.319199  0.319200  1
  Br  Br28  1  0.319191  0.680801  0.680800  1
  Br  Br29  1  0.318412  0.681596  0.318425  1
  Br  Br30  1  0.681588  0.318404  0.681575  1
  Br  Br31  1  0.318430  0.318418  0.681583  1
  Br  Br32  1  0.681570  0.681582  0.318417  1
  Br  Br33  1  0.249972  0.250001  0.249977  1
  Br  Br34  1  0.750028  0.749999  0.750023  1
