# generated using pymatgen
data_Ho3B6(IrRu)4
_symmetry_space_group_name_H-M   'P 1'
_cell_length_a   9.99191146
_cell_length_b   9.19473124
_cell_length_c   5.54584765
_cell_angle_alpha   81.28017218
_cell_angle_beta   65.44753173
_cell_angle_gamma   33.05038506
_symmetry_Int_Tables_number   1
_chemical_formula_structural   Ho3B6(IrRu)4
_chemical_formula_sum   'Ho3 B6 Ir4 Ru4'
_cell_volume   232.03478488
_cell_formula_units_Z   1
loop_
 _symmetry_equiv_pos_site_id
 _symmetry_equiv_pos_as_xyz
  1  'x, y, z'
loop_
 _atom_site_type_symbol
 _atom_site_label
 _atom_site_symmetry_multiplicity
 _atom_site_fract_x
 _atom_site_fract_y
 _atom_site_fract_z
 _atom_site_occupancy
  Ho  Ho0  1  0.999956  0.999956  0.000044  1
  Ho  Ho1  1  0.821339  0.821339  0.178661  1
  Ho  Ho2  1  0.178767  0.178767  0.821233  1
  B  B3  1  0.671123  0.329226  0.677413  1
  B  B4  1  0.329226  0.671123  0.322239  1
  B  B5  1  0.170410  0.483118  0.516776  1
  B  B6  1  0.483118  0.170410  0.829697  1
  B  B7  1  0.825173  0.520797  0.488768  1
  B  B8  1  0.520797  0.825173  0.165263  1
  Ir  Ir9  1  0.914098  0.914098  0.585902  1
  Ir  Ir10  1  0.414214  0.414214  0.585786  1
  Ir  Ir11  1  0.585286  0.585286  0.414714  1
  Ir  Ir12  1  0.249875  0.249875  0.250125  1
  Ru  Ru13  1  0.750411  0.750411  0.749589  1
  Ru  Ru14  1  0.086573  0.086573  0.413427  1
  Ru  Ru15  1  0.586063  0.586063  0.913937  1
  Ru  Ru16  1  0.413572  0.413572  0.086428  1
