# generated using pymatgen
data_Tb3Y3ScCo17P12
_symmetry_space_group_name_H-M   'P 1'
_cell_length_a   3.71799800
_cell_length_b   10.59691600
_cell_length_c   12.29951200
_cell_angle_alpha   89.99922406
_cell_angle_beta   90.00000000
_cell_angle_gamma   90.00000000
_symmetry_Int_Tables_number   1
_chemical_formula_structural   Tb3Y3ScCo17P12
_chemical_formula_sum   'Tb3 Y3 Sc1 Co17 P12'
_cell_volume   484.59231679
_cell_formula_units_Z   1
loop_
 _symmetry_equiv_pos_site_id
 _symmetry_equiv_pos_as_xyz
  1  'x, y, z'
loop_
 _atom_site_type_symbol
 _atom_site_label
 _atom_site_symmetry_multiplicity
 _atom_site_fract_x
 _atom_site_fract_y
 _atom_site_fract_z
 _atom_site_occupancy
  Tb  Tb0  1  0.000000  0.500004  0.527778  1
  Tb  Tb1  1  0.500000  0.999996  0.477898  1
  Tb  Tb2  1  0.000000  0.317370  0.795567  1
  Y  Y3  1  0.500000  0.821327  0.207485  1
  Y  Y4  1  0.500000  0.178669  0.207480  1
  Y  Y5  1  0.000000  0.682641  0.795562  1
  Sc  Sc6  1  0.500000  0.500003  0.152481  1
  Co  Co7  1  0.000000  0.000003  0.837151  1
  Co  Co8  1  0.500000  0.500002  0.703811  1
  Co  Co9  1  0.000000  0.999999  0.295645  1
  Co  Co10  1  0.000000  0.500008  0.984629  1
  Co  Co11  1  0.500000  0.000005  0.012990  1
  Co  Co12  1  0.500000  0.326643  0.990004  1
  Co  Co13  1  0.500000  0.673352  0.989997  1
  Co  Co14  1  0.000000  0.162024  0.001306  1
  Co  Co15  1  0.000000  0.837971  0.001304  1
  Co  Co16  1  0.500000  0.294766  0.434169  1
  Co  Co17  1  0.500000  0.705235  0.434172  1
  Co  Co18  1  0.000000  0.201896  0.570627  1
  Co  Co19  1  0.000000  0.798104  0.570631  1
  Co  Co20  1  0.500000  0.880690  0.707944  1
  Co  Co21  1  0.500000  0.119299  0.707940  1
  Co  Co22  1  0.000000  0.622237  0.296715  1
  Co  Co23  1  0.000000  0.377765  0.296715  1
  P  P24  1  0.500000  0.500005  0.883578  1
  P  P25  1  0.000000  0.000002  0.115543  1
  P  P26  1  0.500000  0.500000  0.357463  1
  P  P27  1  0.000000  0.000002  0.655338  1
  P  P28  1  0.500000  0.308515  0.617568  1
  P  P29  1  0.500000  0.691478  0.617581  1
  P  P30  1  0.000000  0.189431  0.386534  1
  P  P31  1  0.000000  0.810567  0.386535  1
  P  P32  1  0.500000  0.852016  0.889082  1
  P  P33  1  0.500000  0.147978  0.889093  1
  P  P34  1  0.000000  0.663229  0.100845  1
  P  P35  1  0.000000  0.336769  0.100842  1
