# generated using pymatgen
data_Tm10IrPtRh4
_symmetry_space_group_name_H-M   'P 1'
_cell_length_a   10.79689196
_cell_length_b   10.79627500
_cell_length_c   6.29144000
_cell_angle_alpha   90.00000000
_cell_angle_beta   90.03300828
_cell_angle_gamma   90.00000000
_symmetry_Int_Tables_number   1
_chemical_formula_structural   Tm10IrPtRh4
_chemical_formula_sum   'Tm20 Ir2 Pt2 Rh8'
_cell_volume   733.36922462
_cell_formula_units_Z   2
loop_
 _symmetry_equiv_pos_site_id
 _symmetry_equiv_pos_as_xyz
  1  'x, y, z'
loop_
 _atom_site_type_symbol
 _atom_site_label
 _atom_site_symmetry_multiplicity
 _atom_site_fract_x
 _atom_site_fract_y
 _atom_site_fract_z
 _atom_site_occupancy
  Tm  Tm0  1  0.291467  0.089898  0.376411  1
  Tm  Tm1  1  0.291467  0.910102  0.876411  1
  Tm  Tm2  1  0.705431  0.088434  0.874910  1
  Tm  Tm3  1  0.705431  0.911566  0.374910  1
  Tm  Tm4  1  0.584323  0.791031  0.877859  1
  Tm  Tm5  1  0.584323  0.208969  0.377859  1
  Tm  Tm6  1  0.410143  0.791262  0.378258  1
  Tm  Tm7  1  0.410143  0.208738  0.878258  1
  Tm  Tm8  1  0.209692  0.412979  0.621539  1
  Tm  Tm9  1  0.209692  0.587021  0.121539  1
  Tm  Tm10  1  0.791772  0.412936  0.122648  1
  Tm  Tm11  1  0.791772  0.587064  0.622648  1
  Tm  Tm12  1  0.913847  0.707480  0.126002  1
  Tm  Tm13  1  0.913847  0.292520  0.626002  1
  Tm  Tm14  1  0.091759  0.706478  0.622362  1
  Tm  Tm15  1  0.091759  0.293522  0.122362  1
  Tm  Tm16  1  0.002519  0.999154  0.500192  1
  Tm  Tm17  1  0.002519  0.000846  0.000192  1
  Tm  Tm18  1  0.499867  0.499446  0.999801  1
  Tm  Tm19  1  0.499867  0.500554  0.499801  1
  Ir  Ir20  1  0.346697  0.345122  0.250670  1
  Ir  Ir21  1  0.346697  0.654878  0.750670  1
  Pt  Pt22  1  0.844828  0.153851  0.250464  1
  Pt  Pt23  1  0.844828  0.846149  0.750464  1
  Rh  Rh24  1  0.152798  0.154012  0.749565  1
  Rh  Rh25  1  0.152798  0.845988  0.249565  1
  Rh  Rh26  1  0.656016  0.345929  0.749274  1
  Rh  Rh27  1  0.656016  0.654071  0.249274  1
  Rh  Rh28  1  0.499890  0.999733  0.122690  1
  Rh  Rh29  1  0.499890  0.000267  0.622690  1
  Rh  Rh30  1  0.998952  0.499772  0.877355  1
  Rh  Rh31  1  0.998952  0.500228  0.377355  1
