# generated using pymatgen
data_Sr3Te2(BrO3)2
_symmetry_space_group_name_H-M   'P 1'
_cell_length_a   9.09529585
_cell_length_b   9.09528784
_cell_length_c   11.32613597
_cell_angle_alpha   74.24211875
_cell_angle_beta   74.24210408
_cell_angle_gamma   37.08372334
_symmetry_Int_Tables_number   1
_chemical_formula_structural   Sr3Te2(BrO3)2
_chemical_formula_sum   'Sr6 Te4 Br4 O12'
_cell_volume   541.28842459
_cell_formula_units_Z   2
loop_
 _symmetry_equiv_pos_site_id
 _symmetry_equiv_pos_as_xyz
  1  'x, y, z'
loop_
 _atom_site_type_symbol
 _atom_site_label
 _atom_site_symmetry_multiplicity
 _atom_site_fract_x
 _atom_site_fract_y
 _atom_site_fract_z
 _atom_site_occupancy
  Sr  Sr0  1  0.667015  0.667011  0.604549  1
  Sr  Sr1  1  0.746253  0.746250  0.213480  1
  Sr  Sr2  1  0.332988  0.332986  0.395451  1
  Sr  Sr3  1  0.980813  0.980809  0.186999  1
  Sr  Sr4  1  0.019191  0.019188  0.813001  1
  Sr  Sr5  1  0.253750  0.253746  0.786520  1
  Te  Te6  1  0.397900  0.397895  0.058528  1
  Te  Te7  1  0.875529  0.875527  0.576553  1
  Te  Te8  1  0.124474  0.124469  0.423448  1
  Te  Te9  1  0.602105  0.602103  0.941472  1
  Br  Br10  1  0.181138  0.181176  0.098411  1
  Br  Br11  1  0.534745  0.534745  0.297121  1
  Br  Br12  1  0.465255  0.465255  0.702879  1
  Br  Br13  1  0.818824  0.818861  0.901589  1
  O  O14  1  0.555930  0.040624  0.600071  1
  O  O15  1  0.902452  0.902449  0.404098  1
  O  O16  1  0.403809  0.865060  0.812576  1
  O  O17  1  0.444073  0.959372  0.399929  1
  O  O18  1  0.134941  0.596191  0.187424  1
  O  O19  1  0.040627  0.555927  0.600071  1
  O  O20  1  0.865062  0.403807  0.812576  1
  O  O21  1  0.596194  0.134937  0.187424  1
  O  O22  1  0.284866  0.715135  0.000000  1
  O  O23  1  0.097552  0.097547  0.595903  1
  O  O24  1  0.959376  0.444070  0.399929  1
  O  O25  1  0.715138  0.284863  0.000000  1
