# generated using pymatgen
data_Ce3Ho4Tm3(Al2Co3)2
_symmetry_space_group_name_H-M   'P 1'
_cell_length_a   8.17738403
_cell_length_b   8.17738374
_cell_length_c   8.17738400
_cell_angle_alpha   110.07388706
_cell_angle_beta   110.07389378
_cell_angle_gamma   110.07388469
_symmetry_Int_Tables_number   1
_chemical_formula_structural   Ce3Ho4Tm3(Al2Co3)2
_chemical_formula_sum   'Ce3 Ho4 Tm3 Al4 Co6'
_cell_volume   411.28061119
_cell_formula_units_Z   1
loop_
 _symmetry_equiv_pos_site_id
 _symmetry_equiv_pos_as_xyz
  1  'x, y, z'
loop_
 _atom_site_type_symbol
 _atom_site_label
 _atom_site_symmetry_multiplicity
 _atom_site_fract_x
 _atom_site_fract_y
 _atom_site_fract_z
 _atom_site_occupancy
  Ce  Ce0  1  0.256441  0.203060  0.947543  1
  Ce  Ce1  1  0.947543  0.256441  0.203060  1
  Ce  Ce2  1  0.203060  0.947543  0.256441  1
  Ho  Ho3  1  0.788058  0.788058  0.788058  1
  Ho  Ho4  1  0.308583  0.565049  0.750078  1
  Ho  Ho5  1  0.750078  0.308583  0.565049  1
  Ho  Ho6  1  0.565049  0.750078  0.308583  1
  Tm  Tm7  1  0.715378  0.506605  0.994345  1
  Tm  Tm8  1  0.994345  0.715378  0.506605  1
  Tm  Tm9  1  0.506605  0.994345  0.715378  1
  Al  Al10  1  0.411002  0.411002  0.411002  1
  Al  Al11  1  0.093479  0.498211  0.002470  1
  Al  Al12  1  0.002470  0.093479  0.498211  1
  Al  Al13  1  0.498211  0.002470  0.093479  1
  Co  Co14  1  0.906876  0.122954  0.754266  1
  Co  Co15  1  0.754266  0.906876  0.122954  1
  Co  Co16  1  0.122954  0.754266  0.906876  1
  Co  Co17  1  0.219776  0.592659  0.363168  1
  Co  Co18  1  0.363168  0.219776  0.592659  1
  Co  Co19  1  0.592659  0.363168  0.219776  1
