# generated using pymatgen
data_Ba3MnAl10O20
_symmetry_space_group_name_H-M   'P 1'
_cell_length_a   9.73688110
_cell_length_b   9.73688088
_cell_length_c   5.02559937
_cell_angle_alpha   75.79225279
_cell_angle_beta   75.79224918
_cell_angle_gamma   71.99151411
_symmetry_Int_Tables_number   1
_chemical_formula_structural   Ba3MnAl10O20
_chemical_formula_sum   'Ba3 Mn1 Al10 O20'
_cell_volume   431.76662295
_cell_formula_units_Z   1
loop_
 _symmetry_equiv_pos_site_id
 _symmetry_equiv_pos_as_xyz
  1  'x, y, z'
loop_
 _atom_site_type_symbol
 _atom_site_label
 _atom_site_symmetry_multiplicity
 _atom_site_fract_x
 _atom_site_fract_y
 _atom_site_fract_z
 _atom_site_occupancy
  Ba  Ba0  1  0.000000  0.000000  0.000000  1
  Ba  Ba1  1  0.278443  0.278443  0.745560  1
  Ba  Ba2  1  0.721557  0.721557  0.254440  1
  Mn  Mn3  1  0.500000  0.500000  0.000000  1
  Al  Al4  1  0.846709  0.424143  0.835252  1
  Al  Al5  1  0.575857  0.153291  0.164748  1
  Al  Al6  1  0.153291  0.575857  0.164748  1
  Al  Al7  1  0.424143  0.846709  0.835252  1
  Al  Al8  1  0.366117  0.633883  0.500000  1
  Al  Al9  1  0.633883  0.366117  0.500000  1
  Al  Al10  1  0.992902  0.712677  0.660957  1
  Al  Al11  1  0.287323  0.007098  0.339043  1
  Al  Al12  1  0.007098  0.287323  0.339043  1
  Al  Al13  1  0.712677  0.992902  0.660957  1
  O  O14  1  0.551232  0.310412  0.888104  1
  O  O15  1  0.689588  0.448768  0.111896  1
  O  O16  1  0.448768  0.689588  0.111896  1
  O  O17  1  0.310412  0.551232  0.888104  1
  O  O18  1  0.709469  0.014926  0.001863  1
  O  O19  1  0.985074  0.290531  0.998137  1
  O  O20  1  0.290531  0.985074  0.998137  1
  O  O21  1  0.014926  0.709469  0.001863  1
  O  O22  1  0.437542  0.437542  0.388501  1
  O  O23  1  0.562458  0.562458  0.611499  1
  O  O24  1  0.893524  0.893524  0.535433  1
  O  O25  1  0.106476  0.106476  0.464567  1
  O  O26  1  0.881444  0.595720  0.691879  1
  O  O27  1  0.404280  0.118556  0.308121  1
  O  O28  1  0.118556  0.404280  0.308121  1
  O  O29  1  0.595720  0.881444  0.691879  1
  O  O30  1  0.170873  0.657826  0.437823  1
  O  O31  1  0.342174  0.829127  0.562177  1
  O  O32  1  0.829127  0.342174  0.562177  1
  O  O33  1  0.657826  0.170873  0.437823  1
