# generated using pymatgen
data_V3Re3Si2
_symmetry_space_group_name_H-M   'P 1'
_cell_length_a   4.76257543
_cell_length_b   4.76257487
_cell_length_c   4.76257498
_cell_angle_alpha   89.88352864
_cell_angle_beta   89.88353378
_cell_angle_gamma   89.88352298
_symmetry_Int_Tables_number   1
_chemical_formula_structural   V3Re3Si2
_chemical_formula_sum   'V3 Re3 Si2'
_cell_volume   108.02463824
_cell_formula_units_Z   1
loop_
 _symmetry_equiv_pos_site_id
 _symmetry_equiv_pos_as_xyz
  1  'x, y, z'
loop_
 _atom_site_type_symbol
 _atom_site_label
 _atom_site_symmetry_multiplicity
 _atom_site_fract_x
 _atom_site_fract_y
 _atom_site_fract_z
 _atom_site_occupancy
  V  V0  1  0.000000  0.751224  0.248776  1
  V  V1  1  0.751224  0.248776  0.000000  1
  V  V2  1  0.248776  0.000000  0.751224  1
  Re  Re3  1  0.500000  0.751991  0.248009  1
  Re  Re4  1  0.751991  0.248009  0.500000  1
  Re  Re5  1  0.248009  0.500000  0.751991  1
  Si  Si6  1  0.246344  0.246344  0.246344  1
  Si  Si7  1  0.753656  0.753656  0.753656  1
