# generated using pymatgen
data_Ti8Al15Ir(RuRh2)2
_symmetry_space_group_name_H-M   'P 1'
_cell_length_a   8.64349080
_cell_length_b   8.64984328
_cell_length_c   8.64720426
_cell_angle_alpha   120.12823599
_cell_angle_beta   119.76350555
_cell_angle_gamma   90.01830131
_symmetry_Int_Tables_number   1
_chemical_formula_structural   Ti8Al15Ir(RuRh2)2
_chemical_formula_sum   'Ti8 Al15 Ir1 Ru2 Rh4'
_cell_volume   457.81906219
_cell_formula_units_Z   1
loop_
 _symmetry_equiv_pos_site_id
 _symmetry_equiv_pos_as_xyz
  1  'x, y, z'
loop_
 _atom_site_type_symbol
 _atom_site_label
 _atom_site_symmetry_multiplicity
 _atom_site_fract_x
 _atom_site_fract_y
 _atom_site_fract_z
 _atom_site_occupancy
  Ti  Ti0  1  0.788764  0.289751  0.073731  1
  Ti  Ti1  1  0.217149  0.289504  0.500825  1
  Ti  Ti2  1  0.209174  0.710926  0.503438  1
  Ti  Ti3  1  0.220110  0.719500  0.927083  1
  Ti  Ti4  1  0.790902  0.719290  0.500010  1
  Ti  Ti5  1  0.779809  0.277475  0.495074  1
  Ti  Ti6  1  0.380356  0.124034  0.748685  1
  Ti  Ti7  1  0.380242  0.634515  0.254084  1
  Al  Al8  1  0.995653  0.495743  0.500108  1
  Al  Al9  1  0.152988  0.345233  0.192004  1
  Al  Al10  1  0.154896  0.965032  0.812054  1
  Al  Al11  1  0.149872  0.349085  0.803340  1
  Al  Al12  1  0.544298  0.347645  0.197671  1
  Al  Al13  1  0.847541  0.650192  0.802699  1
  Al  Al14  1  0.846055  0.040725  0.192509  1
  Al  Al15  1  0.843459  0.652532  0.188593  1
  Al  Al16  1  0.464909  0.653965  0.809718  1
  Al  Al17  1  0.379392  0.121748  0.257948  1
  Al  Al18  1  0.863487  0.122357  0.742947  1
  Al  Al19  1  0.620352  0.875520  0.253365  1
  Al  Al20  1  0.620544  0.365003  0.744589  1
  Al  Al21  1  0.619640  0.877817  0.742945  1
  Al  Al22  1  0.135414  0.877809  0.257323  1
  Ir  Ir23  1  0.001508  0.000031  0.501711  1
  Ru  Ru24  1  0.498288  0.000077  0.998470  1
  Ru  Ru25  1  0.497013  0.497748  0.000421  1
  Rh  Rh26  1  0.498833  0.499573  0.498542  1
  Rh  Rh27  1  0.001361  0.500125  0.001403  1
  Rh  Rh28  1  0.998998  0.998657  0.999231  1
  Rh  Rh29  1  0.498990  0.998385  0.499473  1
