# generated using pymatgen
data_MgAl3(GaRh2)4
_symmetry_space_group_name_H-M   'P 1'
_cell_length_a   6.05561400
_cell_length_b   6.05520300
_cell_length_c   6.07411100
_cell_angle_alpha   90.00000000
_cell_angle_beta   90.00000000
_cell_angle_gamma   90.00000000
_symmetry_Int_Tables_number   1
_chemical_formula_structural   MgAl3(GaRh2)4
_chemical_formula_sum   'Mg1 Al3 Ga4 Rh8'
_cell_volume   222.72533244
_cell_formula_units_Z   1
loop_
 _symmetry_equiv_pos_site_id
 _symmetry_equiv_pos_as_xyz
  1  'x, y, z'
loop_
 _atom_site_type_symbol
 _atom_site_label
 _atom_site_symmetry_multiplicity
 _atom_site_fract_x
 _atom_site_fract_y
 _atom_site_fract_z
 _atom_site_occupancy
  Mg  Mg0  1  0.249842  0.750000  0.500000  1
  Al  Al1  1  0.749824  0.250000  0.000000  1
  Al  Al2  1  0.250187  0.750000  0.000000  1
  Al  Al3  1  0.750177  0.250000  0.500000  1
  Ga  Ga4  1  0.250141  0.250000  0.000000  1
  Ga  Ga5  1  0.749861  0.750000  0.000000  1
  Ga  Ga6  1  0.750132  0.750000  0.499991  1
  Ga  Ga7  1  0.249861  0.250000  0.500009  1
  Rh  Rh8  1  0.996171  0.003829  0.245890  1
  Rh  Rh9  1  0.996171  0.496165  0.245890  1
  Rh  Rh10  1  0.503821  0.003827  0.246076  1
  Rh  Rh11  1  0.503821  0.496179  0.246076  1
  Rh  Rh12  1  0.503824  0.003827  0.753925  1
  Rh  Rh13  1  0.503824  0.496167  0.753925  1
  Rh  Rh14  1  0.996171  0.003829  0.754111  1
  Rh  Rh15  1  0.996171  0.496177  0.754111  1
