# generated using pymatgen
data_Y8Ga3Ir
_symmetry_space_group_name_H-M   'P 1'
_cell_length_a   10.09367100
_cell_length_b   10.09403492
_cell_length_c   7.08017700
_cell_angle_alpha   90.00000000
_cell_angle_beta   90.00000000
_cell_angle_gamma   120.00133581
_symmetry_Int_Tables_number   1
_chemical_formula_structural   Y8Ga3Ir
_chemical_formula_sum   'Y16 Ga6 Ir2'
_cell_volume   624.71631536
_cell_formula_units_Z   2
loop_
 _symmetry_equiv_pos_site_id
 _symmetry_equiv_pos_as_xyz
  1  'x, y, z'
loop_
 _atom_site_type_symbol
 _atom_site_label
 _atom_site_symmetry_multiplicity
 _atom_site_fract_x
 _atom_site_fract_y
 _atom_site_fract_z
 _atom_site_occupancy
  Y  Y0  1  0.465495  0.534523  0.475629  1
  Y  Y1  1  0.069055  0.534528  0.475662  1
  Y  Y2  1  0.465495  0.930973  0.475628  1
  Y  Y3  1  0.534505  0.465477  0.975629  1
  Y  Y4  1  0.930945  0.465472  0.975662  1
  Y  Y5  1  0.534505  0.069027  0.975628  1
  Y  Y6  1  0.829248  0.170682  0.278633  1
  Y  Y7  1  0.341456  0.170727  0.278633  1
  Y  Y8  1  0.829249  0.658567  0.278632  1
  Y  Y9  1  0.170752  0.829318  0.778633  1
  Y  Y10  1  0.658544  0.829273  0.778633  1
  Y  Y11  1  0.170751  0.341433  0.778632  1
  Y  Y12  1  0.333370  0.666686  0.107209  1
  Y  Y13  1  0.666630  0.333314  0.607209  1
  Y  Y14  1  0.999988  0.999994  0.503505  1
  Y  Y15  1  0.000012  0.000006  0.003505  1
  Ga  Ga16  1  0.163695  0.836298  0.228307  1
  Ga  Ga17  1  0.672597  0.836299  0.228269  1
  Ga  Ga18  1  0.163696  0.327401  0.228309  1
  Ga  Ga19  1  0.836305  0.163702  0.728307  1
  Ga  Ga20  1  0.327403  0.163701  0.728269  1
  Ga  Ga21  1  0.836304  0.672599  0.728309  1
  Ir  Ir22  1  0.333340  0.666670  0.713864  1
  Ir  Ir23  1  0.666660  0.333330  0.213864  1
