# generated using pymatgen
data_La4Mn(NiSb4)2
_symmetry_space_group_name_H-M   'P 1'
_cell_length_a   11.02375726
_cell_length_b   11.02375755
_cell_length_c   11.02375724
_cell_angle_alpha   146.92640128
_cell_angle_beta   146.92640277
_cell_angle_gamma   47.47276871
_symmetry_Int_Tables_number   1
_chemical_formula_structural   La4Mn(NiSb4)2
_chemical_formula_sum   'La4 Mn1 Ni2 Sb8'
_cell_volume   397.40006914
_cell_formula_units_Z   1
loop_
 _symmetry_equiv_pos_site_id
 _symmetry_equiv_pos_as_xyz
  1  'x, y, z'
loop_
 _atom_site_type_symbol
 _atom_site_label
 _atom_site_symmetry_multiplicity
 _atom_site_fract_x
 _atom_site_fract_y
 _atom_site_fract_z
 _atom_site_occupancy
  La  La0  1  0.632089  0.130611  0.000000  1
  La  La1  1  0.130611  0.632089  0.000000  1
  La  La2  1  0.869389  0.869389  0.501478  1
  La  La3  1  0.367911  0.367911  0.498522  1
  Mn  Mn4  1  0.000000  0.000000  0.000000  1
  Ni  Ni5  1  0.500000  0.000000  0.500000  1
  Ni  Ni6  1  0.000000  0.500000  0.500000  1
  Sb  Sb7  1  0.249874  0.249874  0.000000  1
  Sb  Sb8  1  0.750126  0.750126  0.000000  1
  Sb  Sb9  1  0.250000  0.750000  0.500000  1
  Sb  Sb10  1  0.750000  0.250000  0.500000  1
  Sb  Sb11  1  0.323350  0.803584  0.000000  1
  Sb  Sb12  1  0.803584  0.323350  0.000000  1
  Sb  Sb13  1  0.196416  0.196416  0.519766  1
  Sb  Sb14  1  0.676650  0.676650  0.480234  1
