# generated using pymatgen
data_YbTc(PO3)6
_symmetry_space_group_name_H-M   'P 1'
_cell_length_a   6.83270200
_cell_length_b   6.83270206
_cell_length_c   10.14479000
_cell_angle_alpha   90.00000000
_cell_angle_beta   90.00000000
_cell_angle_gamma   120.00000939
_symmetry_Int_Tables_number   1
_chemical_formula_structural   YbTc(PO3)6
_chemical_formula_sum   'Yb1 Tc1 P6 O18'
_cell_volume   410.16501608
_cell_formula_units_Z   1
loop_
 _symmetry_equiv_pos_site_id
 _symmetry_equiv_pos_as_xyz
  1  'x, y, z'
loop_
 _atom_site_type_symbol
 _atom_site_label
 _atom_site_symmetry_multiplicity
 _atom_site_fract_x
 _atom_site_fract_y
 _atom_site_fract_z
 _atom_site_occupancy
  Yb  Yb0  1  0.000000  0.000000  0.500000  1
  Tc  Tc1  1  0.000000  0.000000  0.000000  1
  P  P2  1  0.730332  0.121508  0.769240  1
  P  P3  1  0.878492  0.269668  0.230760  1
  P  P4  1  0.730332  0.608824  0.230760  1
  P  P5  1  0.878492  0.608824  0.769240  1
  P  P6  1  0.391176  0.269668  0.769240  1
  P  P7  1  0.391176  0.121508  0.230760  1
  O  O8  1  0.901739  0.513268  0.209151  1
  O  O9  1  0.901739  0.388472  0.790849  1
  O  O10  1  0.486732  0.098261  0.790849  1
  O  O11  1  0.611528  0.098261  0.209151  1
  O  O12  1  0.755407  0.044741  0.637364  1
  O  O13  1  0.756633  0.000267  0.888684  1
  O  O14  1  0.486732  0.388472  0.209151  1
  O  O15  1  0.755407  0.710666  0.362636  1
  O  O16  1  0.756633  0.756366  0.111316  1
  O  O17  1  0.611528  0.513268  0.790849  1
  O  O18  1  0.955259  0.244593  0.362636  1
  O  O19  1  0.999733  0.243367  0.111316  1
  O  O20  1  0.243634  0.243367  0.888684  1
  O  O21  1  0.289334  0.244593  0.637364  1
  O  O22  1  0.999733  0.756366  0.888684  1
  O  O23  1  0.955259  0.710666  0.637364  1
  O  O24  1  0.243634  0.000267  0.111316  1
  O  O25  1  0.289334  0.044741  0.362636  1
