# generated using pymatgen
data_DyEr(Al5Os)4
_symmetry_space_group_name_H-M   'P 1'
_cell_length_a   6.85206090
_cell_length_b   6.85206036
_cell_length_c   9.16433700
_cell_angle_alpha   90.00000000
_cell_angle_beta   90.00000000
_cell_angle_gamma   96.54792932
_symmetry_Int_Tables_number   1
_chemical_formula_structural   DyEr(Al5Os)4
_chemical_formula_sum   'Dy1 Er1 Al20 Os4'
_cell_volume   427.46560877
_cell_formula_units_Z   1
loop_
 _symmetry_equiv_pos_site_id
 _symmetry_equiv_pos_as_xyz
  1  'x, y, z'
loop_
 _atom_site_type_symbol
 _atom_site_label
 _atom_site_symmetry_multiplicity
 _atom_site_fract_x
 _atom_site_fract_y
 _atom_site_fract_z
 _atom_site_occupancy
  Dy  Dy0  1  0.370968  0.629032  0.250000  1
  Er  Er1  1  0.629469  0.370531  0.750000  1
  Al  Al2  1  0.281446  0.020175  0.750000  1
  Al  Al3  1  0.019879  0.281370  0.250000  1
  Al  Al4  1  0.718630  0.980121  0.250000  1
  Al  Al5  1  0.979825  0.718554  0.750000  1
  Al  Al6  1  0.876359  0.123641  0.953105  1
  Al  Al7  1  0.123588  0.876412  0.045148  1
  Al  Al8  1  0.876359  0.123641  0.546895  1
  Al  Al9  1  0.123588  0.876412  0.454852  1
  Al  Al10  1  0.645709  0.916413  0.750000  1
  Al  Al11  1  0.915184  0.645637  0.250000  1
  Al  Al12  1  0.354363  0.084816  0.250000  1
  Al  Al13  1  0.083587  0.354291  0.750000  1
  Al  Al14  1  0.344686  0.655314  0.899054  1
  Al  Al15  1  0.656303  0.343697  0.100836  1
  Al  Al16  1  0.344686  0.655314  0.600946  1
  Al  Al17  1  0.656303  0.343697  0.399164  1
  Al  Al18  1  0.723521  0.723818  0.999596  1
  Al  Al19  1  0.723521  0.723818  0.500404  1
  Al  Al20  1  0.276182  0.276479  0.999596  1
  Al  Al21  1  0.276182  0.276479  0.500404  1
  Os  Os22  1  0.499825  0.999993  0.000045  1
  Os  Os23  1  0.000007  0.500175  0.000045  1
  Os  Os24  1  0.499825  0.999993  0.499955  1
  Os  Os25  1  0.000007  0.500175  0.499955  1
