# generated using pymatgen
data_Ac2In3Hg
_symmetry_space_group_name_H-M   'P 1'
_cell_length_a   6.54621195
_cell_length_b   6.50510652
_cell_length_c   6.50510518
_cell_angle_alpha   133.66578012
_cell_angle_beta   103.49687979
_cell_angle_gamma   94.25600937
_symmetry_Int_Tables_number   1
_chemical_formula_structural   Ac2In3Hg
_chemical_formula_sum   'Ac2 In3 Hg1'
_cell_volume   183.61960999
_cell_formula_units_Z   1
loop_
 _symmetry_equiv_pos_site_id
 _symmetry_equiv_pos_as_xyz
  1  'x, y, z'
loop_
 _atom_site_type_symbol
 _atom_site_label
 _atom_site_symmetry_multiplicity
 _atom_site_fract_x
 _atom_site_fract_y
 _atom_site_fract_z
 _atom_site_occupancy
  Ac  Ac0  1  0.712120  0.965312  0.746808  1
  Ac  Ac1  1  0.284770  0.034133  0.250637  1
  In  In2  1  0.881794  0.335584  0.546209  1
  In  In3  1  0.291901  0.337193  0.954708  1
  In  In4  1  0.117140  0.662883  0.454258  1
  Hg  Hg5  1  0.712275  0.664896  0.047379  1
