# generated using pymatgen
data_Ca4FeCo5N6
_symmetry_space_group_name_H-M   'P 1'
_cell_length_a   6.32234859
_cell_length_b   6.29848818
_cell_length_c   6.15607585
_cell_angle_alpha   87.71997974
_cell_angle_beta   88.14564703
_cell_angle_gamma   117.52376054
_symmetry_Int_Tables_number   1
_chemical_formula_structural   Ca4FeCo5N6
_chemical_formula_sum   'Ca4 Fe1 Co5 N6'
_cell_volume   216.86857702
_cell_formula_units_Z   1
loop_
 _symmetry_equiv_pos_site_id
 _symmetry_equiv_pos_as_xyz
  1  'x, y, z'
loop_
 _atom_site_type_symbol
 _atom_site_label
 _atom_site_symmetry_multiplicity
 _atom_site_fract_x
 _atom_site_fract_y
 _atom_site_fract_z
 _atom_site_occupancy
  Ca  Ca0  1  0.830649  0.678519  0.897445  1
  Ca  Ca1  1  0.325151  0.168487  0.603671  1
  Ca  Ca2  1  0.171522  0.325928  0.104480  1
  Ca  Ca3  1  0.679954  0.831508  0.395191  1
  Fe  Fe4  1  0.161374  0.553596  0.605821  1
  Co  Co5  1  0.812624  0.189399  0.750342  1
  Co  Co6  1  0.186389  0.810680  0.251987  1
  Co  Co7  1  0.556531  0.163586  0.107657  1
  Co  Co8  1  0.440972  0.837917  0.894155  1
  Co  Co9  1  0.833308  0.439440  0.389818  1
  N  N10  1  0.415956  0.584710  0.745136  1
  N  N11  1  0.582083  0.419462  0.247225  1
  N  N12  1  0.018159  0.738594  0.513869  1
  N  N13  1  0.741395  0.017737  0.007671  1
  N  N14  1  0.988048  0.259424  0.492349  1
  N  N15  1  0.255885  0.981011  0.993182  1
