# generated using pymatgen
data_Tb5Ce2Ho9(CdRh)4
_symmetry_space_group_name_H-M   'P 1'
_cell_length_a   9.72055148
_cell_length_b   9.60771107
_cell_length_c   9.60771200
_cell_angle_alpha   59.63211216
_cell_angle_beta   59.61072346
_cell_angle_gamma   59.61072000
_symmetry_Int_Tables_number   1
_chemical_formula_structural   Tb5Ce2Ho9(CdRh)4
_chemical_formula_sum   'Tb5 Ce2 Ho9 Cd4 Rh4'
_cell_volume   628.96651741
_cell_formula_units_Z   1
loop_
 _symmetry_equiv_pos_site_id
 _symmetry_equiv_pos_as_xyz
  1  'x, y, z'
loop_
 _atom_site_type_symbol
 _atom_site_label
 _atom_site_symmetry_multiplicity
 _atom_site_fract_x
 _atom_site_fract_y
 _atom_site_fract_z
 _atom_site_occupancy
  Tb  Tb0  1  0.564953  0.563563  0.936450  1
  Tb  Tb1  1  0.935173  0.563625  0.936334  1
  Tb  Tb2  1  0.562013  0.938032  0.938038  1
  Tb  Tb3  1  0.935179  0.936415  0.563582  1
  Tb  Tb4  1  0.564987  0.936373  0.563613  1
  Ce  Ce5  1  0.956982  0.346543  0.346349  1
  Ce  Ce6  1  0.349894  0.346232  0.346419  1
  Ho  Ho7  1  0.937462  0.562596  0.562589  1
  Ho  Ho8  1  0.188086  0.187957  0.812353  1
  Ho  Ho9  1  0.811569  0.187995  0.812431  1
  Ho  Ho10  1  0.187352  0.812675  0.812721  1
  Ho  Ho11  1  0.811578  0.812456  0.187971  1
  Ho  Ho12  1  0.188116  0.812344  0.187955  1
  Ho  Ho13  1  0.812878  0.187116  0.187085  1
  Ho  Ho14  1  0.350408  0.352307  0.946914  1
  Ho  Ho15  1  0.350393  0.946899  0.352287  1
  Cd  Cd16  1  0.581858  0.579992  0.256218  1
  Cd  Cd17  1  0.581853  0.256227  0.579978  1
  Cd  Cd18  1  0.257620  0.580241  0.580271  1
  Cd  Cd19  1  0.581873  0.580308  0.580314  1
  Rh  Rh20  1  0.139967  0.149781  0.570074  1
  Rh  Rh21  1  0.140042  0.570074  0.149819  1
  Rh  Rh22  1  0.570250  0.145144  0.145174  1
  Rh  Rh23  1  0.139517  0.145106  0.145058  1
