# generated using pymatgen
data_Ce3DyEr12(CdRu)4
_symmetry_space_group_name_H-M   'P 1'
_cell_length_a   9.58111934
_cell_length_b   9.58111987
_cell_length_c   9.53980609
_cell_angle_alpha   59.85663742
_cell_angle_beta   59.85663592
_cell_angle_gamma   59.99999753
_symmetry_Int_Tables_number   1
_chemical_formula_structural   Ce3DyEr12(CdRu)4
_chemical_formula_sum   'Ce3 Dy1 Er12 Cd4 Ru4'
_cell_volume   617.89199595
_cell_formula_units_Z   1
loop_
 _symmetry_equiv_pos_site_id
 _symmetry_equiv_pos_as_xyz
  1  'x, y, z'
loop_
 _atom_site_type_symbol
 _atom_site_label
 _atom_site_symmetry_multiplicity
 _atom_site_fract_x
 _atom_site_fract_y
 _atom_site_fract_z
 _atom_site_occupancy
  Ce  Ce0  1  0.346990  0.963895  0.342125  1
  Ce  Ce1  1  0.963895  0.346990  0.342125  1
  Ce  Ce2  1  0.346990  0.346990  0.342125  1
  Dy  Dy3  1  0.351506  0.351506  0.945483  1
  Er  Er4  1  0.564099  0.564099  0.935643  1
  Er  Er5  1  0.936158  0.564099  0.935643  1
  Er  Er6  1  0.564099  0.936158  0.935643  1
  Er  Er7  1  0.937241  0.937241  0.562791  1
  Er  Er8  1  0.562728  0.937241  0.562791  1
  Er  Er9  1  0.937241  0.562728  0.562791  1
  Er  Er10  1  0.187272  0.187272  0.814206  1
  Er  Er11  1  0.811249  0.187272  0.814206  1
  Er  Er12  1  0.187271  0.811250  0.814206  1
  Er  Er13  1  0.811600  0.811601  0.188162  1
  Er  Er14  1  0.188638  0.811600  0.188161  1
  Er  Er15  1  0.811600  0.188639  0.188162  1
  Cd  Cd16  1  0.581235  0.581235  0.256294  1
  Cd  Cd17  1  0.581203  0.257366  0.580228  1
  Cd  Cd18  1  0.257366  0.581203  0.580228  1
  Cd  Cd19  1  0.581203  0.581203  0.580228  1
  Ru  Ru20  1  0.143985  0.143985  0.568045  1
  Ru  Ru21  1  0.138593  0.569242  0.153571  1
  Ru  Ru22  1  0.569242  0.138593  0.153571  1
  Ru  Ru23  1  0.138593  0.138593  0.153571  1
