# generated using pymatgen
data_Nd2Eu2MgZn3Rh4
_symmetry_space_group_name_H-M   'P 1'
_cell_length_a   4.19785000
_cell_length_b   7.17087428
_cell_length_c   8.33484002
_cell_angle_alpha   89.89747072
_cell_angle_beta   90.00000000
_cell_angle_gamma   90.00000000
_symmetry_Int_Tables_number   1
_chemical_formula_structural   Nd2Eu2MgZn3Rh4
_chemical_formula_sum   'Nd2 Eu2 Mg1 Zn3 Rh4'
_cell_volume   250.89707440
_cell_formula_units_Z   1
loop_
 _symmetry_equiv_pos_site_id
 _symmetry_equiv_pos_as_xyz
  1  'x, y, z'
loop_
 _atom_site_type_symbol
 _atom_site_label
 _atom_site_symmetry_multiplicity
 _atom_site_fract_x
 _atom_site_fract_y
 _atom_site_fract_z
 _atom_site_occupancy
  Nd  Nd0  1  0.250000  0.539227  0.821546  1
  Nd  Nd1  1  0.750000  0.468601  0.180617  1
  Eu  Eu2  1  0.750000  0.965347  0.314448  1
  Eu  Eu3  1  0.250000  0.025192  0.688307  1
  Mg  Mg4  1  0.750000  0.361003  0.561154  1
  Zn  Zn5  1  0.750000  0.863394  0.937576  1
  Zn  Zn6  1  0.250000  0.137211  0.061766  1
  Zn  Zn7  1  0.250000  0.637647  0.437482  1
  Rh  Rh8  1  0.750000  0.730599  0.626665  1
  Rh  Rh9  1  0.250000  0.270722  0.366646  1
  Rh  Rh10  1  0.250000  0.763119  0.118523  1
  Rh  Rh11  1  0.750000  0.237938  0.885272  1
