# generated using pymatgen
data_Pa(Al5Ru)2
_symmetry_space_group_name_H-M   'P 1'
_cell_length_a   6.84144972
_cell_length_b   6.84145069
_cell_length_c   9.14513100
_cell_angle_alpha   90.00000000
_cell_angle_beta   90.00000000
_cell_angle_gamma   97.62794090
_symmetry_Int_Tables_number   1
_chemical_formula_structural   Pa(Al5Ru)2
_chemical_formula_sum   'Pa2 Al20 Ru4'
_cell_volume   424.25411454
_cell_formula_units_Z   2
loop_
 _symmetry_equiv_pos_site_id
 _symmetry_equiv_pos_as_xyz
  1  'x, y, z'
loop_
 _atom_site_type_symbol
 _atom_site_label
 _atom_site_symmetry_multiplicity
 _atom_site_fract_x
 _atom_site_fract_y
 _atom_site_fract_z
 _atom_site_occupancy
  Pa  Pa0  1  0.876170  0.123830  0.750000  1
  Pa  Pa1  1  0.123830  0.876170  0.250000  1
  Al  Al2  1  0.778506  0.778506  0.000000  1
  Al  Al3  1  0.778506  0.778506  0.500000  1
  Al  Al4  1  0.221494  0.221494  0.000000  1
  Al  Al5  1  0.221494  0.221494  0.500000  1
  Al  Al6  1  0.623814  0.376186  0.950983  1
  Al  Al7  1  0.376186  0.623814  0.049017  1
  Al  Al8  1  0.623814  0.376186  0.549017  1
  Al  Al9  1  0.376186  0.623814  0.450983  1
  Al  Al10  1  0.845033  0.154967  0.397671  1
  Al  Al11  1  0.154967  0.845033  0.602329  1
  Al  Al12  1  0.845033  0.154967  0.102329  1
  Al  Al13  1  0.154967  0.845033  0.897671  1
  Al  Al14  1  0.407889  0.141243  0.750000  1
  Al  Al15  1  0.141243  0.407889  0.250000  1
  Al  Al16  1  0.592111  0.858757  0.250000  1
  Al  Al17  1  0.858757  0.592111  0.750000  1
  Al  Al18  1  0.517883  0.778468  0.750000  1
  Al  Al19  1  0.778468  0.517883  0.250000  1
  Al  Al20  1  0.482117  0.221532  0.250000  1
  Al  Al21  1  0.221532  0.482117  0.750000  1
  Ru  Ru22  1  0.500000  0.000000  0.000000  1
  Ru  Ru23  1  0.000000  0.500000  0.000000  1
  Ru  Ru24  1  0.500000  0.000000  0.500000  1
  Ru  Ru25  1  0.000000  0.500000  0.500000  1
