# generated using pymatgen
data_LiEr2(Co3As2)3
_symmetry_space_group_name_H-M   'P 1'
_cell_length_a   3.78354800
_cell_length_b   10.67317000
_cell_length_c   12.22491500
_cell_angle_alpha   90.00000000
_cell_angle_beta   90.00000000
_cell_angle_gamma   90.00000000
_symmetry_Int_Tables_number   1
_chemical_formula_structural   LiEr2(Co3As2)3
_chemical_formula_sum   'Li2 Er4 Co18 As12'
_cell_volume   493.67203105
_cell_formula_units_Z   2
loop_
 _symmetry_equiv_pos_site_id
 _symmetry_equiv_pos_as_xyz
  1  'x, y, z'
loop_
 _atom_site_type_symbol
 _atom_site_label
 _atom_site_symmetry_multiplicity
 _atom_site_fract_x
 _atom_site_fract_y
 _atom_site_fract_z
 _atom_site_occupancy
  Li  Li0  1  0.250000  0.700125  0.991155  1
  Li  Li1  1  0.250000  0.799875  0.491155  1
  Er  Er2  1  0.250000  0.577583  0.701296  1
  Er  Er3  1  0.250000  0.922417  0.201296  1
  Er  Er4  1  0.750000  0.422314  0.299036  1
  Er  Er5  1  0.750000  0.077686  0.799036  1
  Co  Co6  1  0.750000  0.292130  0.006769  1
  Co  Co7  1  0.750000  0.207870  0.506769  1
  Co  Co8  1  0.250000  0.405225  0.486995  1
  Co  Co9  1  0.250000  0.094775  0.986995  1
  Co  Co10  1  0.750000  0.589016  0.515704  1
  Co  Co11  1  0.750000  0.910984  0.015704  1
  Co  Co12  1  0.250000  0.218638  0.176849  1
  Co  Co13  1  0.250000  0.281362  0.676849  1
  Co  Co14  1  0.750000  0.786433  0.824079  1
  Co  Co15  1  0.750000  0.713567  0.324079  1
  Co  Co16  1  0.250000  0.882413  0.697870  1
  Co  Co17  1  0.250000  0.617587  0.197870  1
  Co  Co18  1  0.750000  0.119005  0.301386  1
  Co  Co19  1  0.750000  0.380995  0.801386  1
  Co  Co20  1  0.250000  0.465063  0.930798  1
  Co  Co21  1  0.250000  0.034937  0.430798  1
  Co  Co22  1  0.750000  0.531279  0.066699  1
  Co  Co23  1  0.750000  0.968721  0.566699  1
  As  As24  1  0.250000  0.417905  0.113835  1
  As  As25  1  0.250000  0.082095  0.613835  1
  As  As26  1  0.750000  0.581747  0.882501  1
  As  As27  1  0.750000  0.918253  0.382501  1
  As  As28  1  0.250000  0.265761  0.868696  1
  As  As29  1  0.250000  0.234239  0.368696  1
  As  As30  1  0.750000  0.732155  0.134936  1
  As  As31  1  0.750000  0.767845  0.634936  1
  As  As32  1  0.250000  0.601639  0.393083  1
  As  As33  1  0.250000  0.898361  0.893083  1
  As  As34  1  0.750000  0.395686  0.608314  1
  As  As35  1  0.750000  0.104314  0.108314  1
