# generated using pymatgen
data_ScSn3Pt2
_symmetry_space_group_name_H-M   'P 1'
_cell_length_a   6.44337900
_cell_length_b   4.56868700
_cell_length_c   9.18222600
_cell_angle_alpha   90.00000000
_cell_angle_beta   90.00000000
_cell_angle_gamma   90.00000000
_symmetry_Int_Tables_number   1
_chemical_formula_structural   ScSn3Pt2
_chemical_formula_sum   'Sc2 Sn6 Pt4'
_cell_volume   270.30436610
_cell_formula_units_Z   2
loop_
 _symmetry_equiv_pos_site_id
 _symmetry_equiv_pos_as_xyz
  1  'x, y, z'
loop_
 _atom_site_type_symbol
 _atom_site_label
 _atom_site_symmetry_multiplicity
 _atom_site_fract_x
 _atom_site_fract_y
 _atom_site_fract_z
 _atom_site_occupancy
  Sc  Sc0  1  0.005635  0.000000  0.377778  1
  Sc  Sc1  1  0.505636  0.500000  0.622221  1
  Sn  Sn2  1  0.496260  0.500000  0.123734  1
  Sn  Sn3  1  0.996261  0.000000  0.876265  1
  Sn  Sn4  1  0.990296  0.500000  0.135390  1
  Sn  Sn5  1  0.505256  0.000000  0.382604  1
  Sn  Sn6  1  0.005257  0.500000  0.617396  1
  Sn  Sn7  1  0.490295  0.000000  0.864609  1
  Pt  Pt8  1  0.744989  0.000000  0.124551  1
  Pt  Pt9  1  0.257565  0.500000  0.373817  1
  Pt  Pt10  1  0.757566  0.000000  0.626183  1
  Pt  Pt11  1  0.244988  0.500000  0.875450  1
