# generated using pymatgen
data_La12RuPt(RhBr6)2
_symmetry_space_group_name_H-M   'P 1'
_cell_length_a   10.65776470
_cell_length_b   10.57647660
_cell_length_c   10.65776445
_cell_angle_alpha   109.26810204
_cell_angle_beta   109.46725178
_cell_angle_gamma   109.26811102
_symmetry_Int_Tables_number   1
_chemical_formula_structural   La12RuPt(RhBr6)2
_chemical_formula_sum   'La12 Ru1 Pt1 Rh2 Br12'
_cell_volume   929.45698661
_cell_formula_units_Z   1
loop_
 _symmetry_equiv_pos_site_id
 _symmetry_equiv_pos_as_xyz
  1  'x, y, z'
loop_
 _atom_site_type_symbol
 _atom_site_label
 _atom_site_symmetry_multiplicity
 _atom_site_fract_x
 _atom_site_fract_y
 _atom_site_fract_z
 _atom_site_occupancy
  La  La0  1  0.266235  0.750000  0.233765  1
  La  La1  1  0.484759  0.750000  0.015241  1
  La  La2  1  0.238054  0.468814  0.479445  1
  La  La3  1  0.020555  0.031186  0.261946  1
  La  La4  1  0.236916  0.267549  0.754861  1
  La  La5  1  0.017376  0.487859  0.754464  1
  La  La6  1  0.481517  0.236018  0.468369  1
  La  La7  1  0.263978  0.018875  0.032396  1
  La  La8  1  0.745139  0.232451  0.263084  1
  La  La9  1  0.745536  0.012141  0.482624  1
  La  La10  1  0.467604  0.481125  0.236022  1
  La  La11  1  0.031631  0.263982  0.018483  1
  Ru  Ru12  1  0.250198  0.250000  0.249802  1
  Pt  Pt13  1  0.999763  0.250000  0.500237  1
  Rh  Rh14  1  0.500671  0.999093  0.249922  1
  Rh  Rh15  1  0.250078  0.500907  0.999329  1
  Br  Br16  1  0.250118  0.994737  0.505929  1
  Br  Br17  1  0.511119  0.505679  0.755626  1
  Br  Br18  1  0.250349  0.754807  0.745114  1
  Br  Br19  1  0.988473  0.743878  0.994225  1
  Br  Br20  1  0.994071  0.505263  0.249882  1
  Br  Br21  1  0.744374  0.994321  0.988881  1
  Br  Br22  1  0.754886  0.745193  0.249651  1
  Br  Br23  1  0.505775  0.756122  0.511527  1
  Br  Br24  1  0.505723  0.250000  0.994277  1
  Br  Br25  1  0.755883  0.511180  0.506025  1
  Br  Br26  1  0.745241  0.250000  0.754759  1
  Br  Br27  1  0.993975  0.988820  0.744117  1
