# generated using pymatgen
data_Rb2Ag2SnSe4
_symmetry_space_group_name_H-M   'P 1'
_cell_length_a   6.17693900
_cell_length_b   7.81582739
_cell_length_c   12.63058550
_cell_angle_alpha   66.21035946
_cell_angle_beta   90.00000000
_cell_angle_gamma   90.00000000
_symmetry_Int_Tables_number   1
_chemical_formula_structural   Rb2Ag2SnSe4
_chemical_formula_sum   'Rb4 Ag4 Sn2 Se8'
_cell_volume   557.96676327
_cell_formula_units_Z   2
loop_
 _symmetry_equiv_pos_site_id
 _symmetry_equiv_pos_as_xyz
  1  'x, y, z'
loop_
 _atom_site_type_symbol
 _atom_site_label
 _atom_site_symmetry_multiplicity
 _atom_site_fract_x
 _atom_site_fract_y
 _atom_site_fract_z
 _atom_site_occupancy
  Rb  Rb0  1  0.523708  0.000000  0.250000  1
  Rb  Rb1  1  0.000000  0.000000  0.000000  1
  Rb  Rb2  1  0.476292  0.000000  0.750000  1
  Rb  Rb3  1  0.000000  0.000000  0.500000  1
  Ag  Ag4  1  0.750289  0.500923  0.030994  1
  Ag  Ag5  1  0.249711  0.500923  0.530994  1
  Ag  Ag6  1  0.249711  0.499077  0.969006  1
  Ag  Ag7  1  0.750289  0.499077  0.469006  1
  Sn  Sn8  1  0.249847  0.500000  0.250000  1
  Sn  Sn9  1  0.750153  0.500000  0.750000  1
  Se  Se10  1  0.032737  0.723375  0.314543  1
  Se  Se11  1  0.529866  0.276897  0.924558  1
  Se  Se12  1  0.470134  0.723103  0.075442  1
  Se  Se13  1  0.529866  0.723103  0.575442  1
  Se  Se14  1  0.032737  0.276625  0.185457  1
  Se  Se15  1  0.470134  0.276897  0.424558  1
  Se  Se16  1  0.967263  0.723375  0.814543  1
  Se  Se17  1  0.967263  0.276625  0.685457  1
