# generated using pymatgen
data_DyEr4Bi2As
_symmetry_space_group_name_H-M   'P 1'
_cell_length_a   8.02211100
_cell_length_b   9.13145100
_cell_length_c   11.90625100
_cell_angle_alpha   90.00000000
_cell_angle_beta   90.00000000
_cell_angle_gamma   90.00000000
_symmetry_Int_Tables_number   1
_chemical_formula_structural   DyEr4Bi2As
_chemical_formula_sum   'Dy4 Er16 Bi8 As4'
_cell_volume   872.17471852
_cell_formula_units_Z   4
loop_
 _symmetry_equiv_pos_site_id
 _symmetry_equiv_pos_as_xyz
  1  'x, y, z'
loop_
 _atom_site_type_symbol
 _atom_site_label
 _atom_site_symmetry_multiplicity
 _atom_site_fract_x
 _atom_site_fract_y
 _atom_site_fract_z
 _atom_site_occupancy
  Dy  Dy0  1  0.164852  0.750000  0.214371  1
  Dy  Dy1  1  0.335148  0.750000  0.714371  1
  Dy  Dy2  1  0.835148  0.250000  0.785629  1
  Dy  Dy3  1  0.664852  0.250000  0.285629  1
  Er  Er4  1  0.818592  0.557058  0.062122  1
  Er  Er5  1  0.681408  0.942942  0.562122  1
  Er  Er6  1  0.181408  0.057058  0.937878  1
  Er  Er7  1  0.318592  0.442942  0.437878  1
  Er  Er8  1  0.181408  0.442942  0.937878  1
  Er  Er9  1  0.318592  0.057058  0.437878  1
  Er  Er10  1  0.818592  0.942942  0.062122  1
  Er  Er11  1  0.681408  0.557058  0.562122  1
  Er  Er12  1  0.467419  0.750000  0.002107  1
  Er  Er13  1  0.032581  0.750000  0.502107  1
  Er  Er14  1  0.532581  0.250000  0.997893  1
  Er  Er15  1  0.967419  0.250000  0.497893  1
  Er  Er16  1  0.640199  0.750000  0.295241  1
  Er  Er17  1  0.859801  0.750000  0.795241  1
  Er  Er18  1  0.359801  0.250000  0.704759  1
  Er  Er19  1  0.140199  0.250000  0.204759  1
  Bi  Bi20  1  0.931330  0.510190  0.325776  1
  Bi  Bi21  1  0.568670  0.989810  0.825776  1
  Bi  Bi22  1  0.068670  0.010190  0.674224  1
  Bi  Bi23  1  0.431330  0.489810  0.174224  1
  Bi  Bi24  1  0.068670  0.489810  0.674224  1
  Bi  Bi25  1  0.431330  0.010190  0.174224  1
  Bi  Bi26  1  0.931330  0.989810  0.325776  1
  Bi  Bi27  1  0.568670  0.510190  0.825776  1
  As  As28  1  0.408785  0.750000  0.478135  1
  As  As29  1  0.091215  0.750000  0.978135  1
  As  As30  1  0.591215  0.250000  0.521865  1
  As  As31  1  0.908785  0.250000  0.021865  1
