# generated using pymatgen
data_Tb3MgCd2Ga3
_symmetry_space_group_name_H-M   'P 1'
_cell_length_a   7.27738754
_cell_length_b   7.27738742
_cell_length_c   4.43860100
_cell_angle_alpha   90.00000000
_cell_angle_beta   90.00000000
_cell_angle_gamma   120.04433995
_symmetry_Int_Tables_number   1
_chemical_formula_structural   Tb3MgCd2Ga3
_chemical_formula_sum   'Tb3 Mg1 Cd2 Ga3'
_cell_volume   203.48552519
_cell_formula_units_Z   1
loop_
 _symmetry_equiv_pos_site_id
 _symmetry_equiv_pos_as_xyz
  1  'x, y, z'
loop_
 _atom_site_type_symbol
 _atom_site_label
 _atom_site_symmetry_multiplicity
 _atom_site_fract_x
 _atom_site_fract_y
 _atom_site_fract_z
 _atom_site_occupancy
  Tb  Tb0  1  0.574901  0.001159  0.000000  1
  Tb  Tb1  1  0.001159  0.574901  0.000000  1
  Tb  Tb2  1  0.422497  0.422497  0.000000  1
  Mg  Mg3  1  0.759138  0.759138  0.500000  1
  Cd  Cd4  1  0.247306  0.998288  0.500000  1
  Cd  Cd5  1  0.998288  0.247306  0.500000  1
  Ga  Ga6  1  0.336456  0.665244  0.500000  1
  Ga  Ga7  1  0.665244  0.336456  0.500000  1
  Ga  Ga8  1  0.995010  0.995010  0.000000  1
