# generated using pymatgen
data_Sc2Co5P6Ir4Ru
_symmetry_space_group_name_H-M   'P 1'
_cell_length_a   3.75706800
_cell_length_b   10.42226300
_cell_length_c   12.05456200
_cell_angle_alpha   90.00000000
_cell_angle_beta   90.00000000
_cell_angle_gamma   90.00000000
_symmetry_Int_Tables_number   1
_chemical_formula_structural   Sc2Co5P6Ir4Ru
_chemical_formula_sum   'Sc4 Co10 P12 Ir8 Ru2'
_cell_volume   472.02230212
_cell_formula_units_Z   2
loop_
 _symmetry_equiv_pos_site_id
 _symmetry_equiv_pos_as_xyz
  1  'x, y, z'
loop_
 _atom_site_type_symbol
 _atom_site_label
 _atom_site_symmetry_multiplicity
 _atom_site_fract_x
 _atom_site_fract_y
 _atom_site_fract_z
 _atom_site_occupancy
  Sc  Sc0  1  0.250000  0.587602  0.714526  1
  Sc  Sc1  1  0.250000  0.912398  0.214526  1
  Sc  Sc2  1  0.750000  0.418974  0.290047  1
  Sc  Sc3  1  0.750000  0.081026  0.790047  1
  Co  Co4  1  0.750000  0.775358  0.823537  1
  Co  Co5  1  0.750000  0.724642  0.323537  1
  Co  Co6  1  0.250000  0.878452  0.696997  1
  Co  Co7  1  0.250000  0.621548  0.196997  1
  Co  Co8  1  0.750000  0.109690  0.300026  1
  Co  Co9  1  0.750000  0.390310  0.800026  1
  Co  Co10  1  0.250000  0.462851  0.932388  1
  Co  Co11  1  0.250000  0.037149  0.432388  1
  Co  Co12  1  0.750000  0.538133  0.067445  1
  Co  Co13  1  0.750000  0.961867  0.567445  1
  P  P14  1  0.250000  0.431949  0.112895  1
  P  P15  1  0.250000  0.068051  0.612895  1
  P  P16  1  0.750000  0.576996  0.886617  1
  P  P17  1  0.750000  0.923004  0.386617  1
  P  P18  1  0.250000  0.270699  0.870149  1
  P  P19  1  0.250000  0.229301  0.370149  1
  P  P20  1  0.750000  0.728260  0.141834  1
  P  P21  1  0.750000  0.771740  0.641834  1
  P  P22  1  0.250000  0.603364  0.374970  1
  P  P23  1  0.250000  0.896636  0.874970  1
  P  P24  1  0.750000  0.404614  0.619329  1
  P  P25  1  0.750000  0.095386  0.119329  1
  Ir  Ir26  1  0.250000  0.711982  0.982293  1
  Ir  Ir27  1  0.250000  0.788018  0.482293  1
  Ir  Ir28  1  0.250000  0.413655  0.474875  1
  Ir  Ir29  1  0.250000  0.086345  0.974875  1
  Ir  Ir30  1  0.750000  0.597734  0.525107  1
  Ir  Ir31  1  0.750000  0.902266  0.025107  1
  Ir  Ir32  1  0.250000  0.227217  0.179907  1
  Ir  Ir33  1  0.250000  0.272784  0.679907  1
  Ru  Ru34  1  0.750000  0.280746  0.007057  1
  Ru  Ru35  1  0.750000  0.219254  0.507057  1
