# generated using pymatgen
data_CaNd8Tm11Sn16
_symmetry_space_group_name_H-M   'P 1'
_cell_length_a   8.09835685
_cell_length_b   8.25546601
_cell_length_c   15.57672800
_cell_angle_alpha   90.08837144
_cell_angle_beta   90.03868604
_cell_angle_gamma   90.12665028
_symmetry_Int_Tables_number   1
_chemical_formula_structural   CaNd8Tm11Sn16
_chemical_formula_sum   'Ca1 Nd8 Tm11 Sn16'
_cell_volume   1041.38918190
_cell_formula_units_Z   1
loop_
 _symmetry_equiv_pos_site_id
 _symmetry_equiv_pos_as_xyz
  1  'x, y, z'
loop_
 _atom_site_type_symbol
 _atom_site_label
 _atom_site_symmetry_multiplicity
 _atom_site_fract_x
 _atom_site_fract_y
 _atom_site_fract_z
 _atom_site_occupancy
  Ca  Ca0  1  0.014978  0.179302  0.906303  1
  Nd  Nd1  1  0.855483  0.663448  0.878970  1
  Nd  Nd2  1  0.511693  0.323340  0.903326  1
  Nd  Nd3  1  0.007451  0.178793  0.591581  1
  Nd  Nd4  1  0.488025  0.676681  0.403697  1
  Nd  Nd5  1  0.989072  0.820819  0.098221  1
  Nd  Nd6  1  0.487425  0.675499  0.098892  1
  Nd  Nd7  1  0.989272  0.822092  0.403049  1
  Nd  Nd8  1  0.510104  0.321041  0.594305  1
  Tm  Tm9  1  0.350021  0.837429  0.872388  1
  Tm  Tm10  1  0.852192  0.661754  0.622578  1
  Tm  Tm11  1  0.646262  0.162599  0.375108  1
  Tm  Tm12  1  0.146259  0.338159  0.123399  1
  Tm  Tm13  1  0.648334  0.165799  0.128744  1
  Tm  Tm14  1  0.146948  0.335375  0.375581  1
  Tm  Tm15  1  0.354347  0.836443  0.622524  1
  Tm  Tm16  1  0.187260  0.501997  0.748798  1
  Tm  Tm17  1  0.685963  0.998734  0.748533  1
  Tm  Tm18  1  0.812996  0.497341  0.252152  1
  Tm  Tm19  1  0.314025  0.002776  0.251484  1
  Sn  Sn20  1  0.318025  0.038567  0.043204  1
  Sn  Sn21  1  0.809004  0.458327  0.457338  1
  Sn  Sn22  1  0.690572  0.956842  0.540522  1
  Sn  Sn23  1  0.202382  0.544121  0.959636  1
  Sn  Sn24  1  0.675410  0.963582  0.961640  1
  Sn  Sn25  1  0.190163  0.540852  0.540911  1
  Sn  Sn26  1  0.309216  0.041232  0.457355  1
  Sn  Sn27  1  0.806814  0.459283  0.048571  1
  Sn  Sn28  1  0.549872  0.624358  0.746877  1
  Sn  Sn29  1  0.051200  0.879162  0.746411  1
  Sn  Sn30  1  0.447376  0.376132  0.251565  1
  Sn  Sn31  1  0.951798  0.123787  0.249098  1
  Sn  Sn32  1  0.319733  0.144318  0.747527  1
  Sn  Sn33  1  0.820033  0.351928  0.748104  1
  Sn  Sn34  1  0.680600  0.854295  0.251411  1
  Sn  Sn35  1  0.179690  0.643792  0.250193  1
