# generated using pymatgen
data_Ba3LuTl(ReO6)2
_symmetry_space_group_name_H-M   'P 1'
_cell_length_a   10.08888359
_cell_length_b   10.08888450
_cell_length_c   10.08888346
_cell_angle_alpha   33.72270237
_cell_angle_beta   33.72269536
_cell_angle_gamma   33.72269636
_symmetry_Int_Tables_number   1
_chemical_formula_structural   Ba3LuTl(ReO6)2
_chemical_formula_sum   'Ba3 Lu1 Tl1 Re2 O12'
_cell_volume   281.99984476
_cell_formula_units_Z   1
loop_
 _symmetry_equiv_pos_site_id
 _symmetry_equiv_pos_as_xyz
  1  'x, y, z'
loop_
 _atom_site_type_symbol
 _atom_site_label
 _atom_site_symmetry_multiplicity
 _atom_site_fract_x
 _atom_site_fract_y
 _atom_site_fract_z
 _atom_site_occupancy
  Ba  Ba0  1  0.291785  0.291785  0.291785  1
  Ba  Ba1  1  0.866132  0.866132  0.866132  1
  Ba  Ba2  1  0.130676  0.130676  0.130676  1
  Lu  Lu3  1  0.001956  0.001956  0.001956  1
  Tl  Tl4  1  0.711772  0.711772  0.711772  1
  Re  Re5  1  0.579602  0.579602  0.579602  1
  Re  Re6  1  0.420625  0.420625  0.420625  1
  O  O7  1  0.223296  0.687514  0.223296  1
  O  O8  1  0.223296  0.223296  0.687514  1
  O  O9  1  0.687514  0.223296  0.223296  1
  O  O10  1  0.778081  0.306025  0.778081  1
  O  O11  1  0.778081  0.778081  0.306025  1
  O  O12  1  0.306025  0.778081  0.778081  1
  O  O13  1  0.390127  0.856309  0.390127  1
  O  O14  1  0.390127  0.390127  0.856309  1
  O  O15  1  0.856309  0.390127  0.390127  1
  O  O16  1  0.609318  0.145958  0.609318  1
  O  O17  1  0.609318  0.609318  0.145958  1
  O  O18  1  0.145958  0.609318  0.609318  1
