# generated using pymatgen
data_CeDyHo6(Si3Rh)4
_symmetry_space_group_name_H-M   'P 1'
_cell_length_a   8.16731600
_cell_length_b   8.16731638
_cell_length_c   7.90664500
_cell_angle_alpha   90.00000000
_cell_angle_beta   90.00000000
_cell_angle_gamma   120.00000656
_symmetry_Int_Tables_number   1
_chemical_formula_structural   CeDyHo6(Si3Rh)4
_chemical_formula_sum   'Ce1 Dy1 Ho6 Si12 Rh4'
_cell_volume   456.75318182
_cell_formula_units_Z   1
loop_
 _symmetry_equiv_pos_site_id
 _symmetry_equiv_pos_as_xyz
  1  'x, y, z'
loop_
 _atom_site_type_symbol
 _atom_site_label
 _atom_site_symmetry_multiplicity
 _atom_site_fract_x
 _atom_site_fract_y
 _atom_site_fract_z
 _atom_site_occupancy
  Ce  Ce0  1  0.000000  0.000000  0.750000  1
  Dy  Dy1  1  0.000000  0.000000  0.250000  1
  Ho  Ho2  1  0.508810  0.491190  0.250000  1
  Ho  Ho3  1  0.508810  0.017620  0.250000  1
  Ho  Ho4  1  0.982380  0.491190  0.250000  1
  Ho  Ho5  1  0.491364  0.508636  0.750000  1
  Ho  Ho6  1  0.491364  0.982728  0.750000  1
  Ho  Ho7  1  0.017272  0.508636  0.750000  1
  Si  Si8  1  0.167334  0.832666  0.500086  1
  Si  Si9  1  0.167334  0.334666  0.500086  1
  Si  Si10  1  0.665334  0.832666  0.500086  1
  Si  Si11  1  0.832972  0.167028  0.499427  1
  Si  Si12  1  0.832972  0.665945  0.499427  1
  Si  Si13  1  0.334055  0.167028  0.499427  1
  Si  Si14  1  0.832972  0.167028  0.000573  1
  Si  Si15  1  0.832972  0.665945  0.000573  1
  Si  Si16  1  0.334055  0.167028  0.000573  1
  Si  Si17  1  0.167334  0.832666  0.999914  1
  Si  Si18  1  0.167334  0.334666  0.999914  1
  Si  Si19  1  0.665334  0.832666  0.999914  1
  Rh  Rh20  1  0.333333  0.666667  0.465000  1
  Rh  Rh21  1  0.666667  0.333333  0.532389  1
  Rh  Rh22  1  0.666667  0.333333  0.967611  1
  Rh  Rh23  1  0.333333  0.666667  0.035000  1
