# generated using pymatgen
data_Tb2Y3Bi2Sb
_symmetry_space_group_name_H-M   'P 1'
_cell_length_a   8.22236300
_cell_length_b   9.49413500
_cell_length_c   12.05945600
_cell_angle_alpha   90.00000000
_cell_angle_beta   90.00000000
_cell_angle_gamma   90.00000000
_symmetry_Int_Tables_number   1
_chemical_formula_structural   Tb2Y3Bi2Sb
_chemical_formula_sum   'Tb8 Y12 Bi8 Sb4'
_cell_volume   941.41207861
_cell_formula_units_Z   4
loop_
 _symmetry_equiv_pos_site_id
 _symmetry_equiv_pos_as_xyz
  1  'x, y, z'
loop_
 _atom_site_type_symbol
 _atom_site_label
 _atom_site_symmetry_multiplicity
 _atom_site_fract_x
 _atom_site_fract_y
 _atom_site_fract_z
 _atom_site_occupancy
  Tb  Tb0  1  0.029448  0.750000  0.988240  1
  Tb  Tb1  1  0.529448  0.750000  0.511760  1
  Tb  Tb2  1  0.970552  0.250000  0.011760  1
  Tb  Tb3  1  0.470552  0.250000  0.488240  1
  Tb  Tb4  1  0.183439  0.750000  0.718477  1
  Tb  Tb5  1  0.683439  0.750000  0.781523  1
  Tb  Tb6  1  0.816561  0.250000  0.281523  1
  Tb  Tb7  1  0.316561  0.250000  0.218477  1
  Y  Y8  1  0.309743  0.439131  0.941197  1
  Y  Y9  1  0.809743  0.060869  0.558803  1
  Y  Y10  1  0.690257  0.939131  0.058803  1
  Y  Y11  1  0.190257  0.560869  0.441197  1
  Y  Y12  1  0.690257  0.560869  0.058803  1
  Y  Y13  1  0.190257  0.939131  0.441197  1
  Y  Y14  1  0.309743  0.060869  0.941197  1
  Y  Y15  1  0.809743  0.439131  0.558803  1
  Y  Y16  1  0.354147  0.750000  0.212660  1
  Y  Y17  1  0.854147  0.750000  0.287340  1
  Y  Y18  1  0.645853  0.250000  0.787340  1
  Y  Y19  1  0.145853  0.250000  0.712660  1
  Bi  Bi20  1  0.433502  0.004000  0.673967  1
  Bi  Bi21  1  0.933502  0.496000  0.826033  1
  Bi  Bi22  1  0.566498  0.504000  0.326033  1
  Bi  Bi23  1  0.066498  0.996000  0.173967  1
  Bi  Bi24  1  0.566498  0.996000  0.326033  1
  Bi  Bi25  1  0.066498  0.504000  0.173967  1
  Bi  Bi26  1  0.433502  0.496000  0.673967  1
  Bi  Bi27  1  0.933502  0.004000  0.826033  1
  Sb  Sb28  1  0.410468  0.750000  0.959317  1
  Sb  Sb29  1  0.910468  0.750000  0.540683  1
  Sb  Sb30  1  0.589532  0.250000  0.040683  1
  Sb  Sb31  1  0.089532  0.250000  0.459317  1
