# generated using pymatgen
data_Li3GaPt
_symmetry_space_group_name_H-M   'P 1'
_cell_length_a   5.19880843
_cell_length_b   5.19880692
_cell_length_c   5.19880568
_cell_angle_alpha   48.88965421
_cell_angle_beta   48.88965177
_cell_angle_gamma   48.88966301
_symmetry_Int_Tables_number   1
_chemical_formula_structural   Li3GaPt
_chemical_formula_sum   'Li3 Ga1 Pt1'
_cell_volume   73.22088567
_cell_formula_units_Z   1
loop_
 _symmetry_equiv_pos_site_id
 _symmetry_equiv_pos_as_xyz
  1  'x, y, z'
loop_
 _atom_site_type_symbol
 _atom_site_label
 _atom_site_symmetry_multiplicity
 _atom_site_fract_x
 _atom_site_fract_y
 _atom_site_fract_z
 _atom_site_occupancy
  Li  Li0  1  0.999117  0.999117  0.999117  1
  Li  Li1  1  0.596229  0.596229  0.596229  1
  Li  Li2  1  0.402265  0.402265  0.402265  1
  Ga  Ga3  1  0.811363  0.811363  0.811363  1
  Pt  Pt4  1  0.191026  0.191026  0.191026  1
