# generated using pymatgen
data_Zr5Pa(GaRh)6
_symmetry_space_group_name_H-M   'P 1'
_cell_length_a   7.20802861
_cell_length_b   7.20631434
_cell_length_c   7.08540900
_cell_angle_alpha   90.00000000
_cell_angle_beta   90.00000000
_cell_angle_gamma   120.03637675
_symmetry_Int_Tables_number   1
_chemical_formula_structural   Zr5Pa(GaRh)6
_chemical_formula_sum   'Zr5 Pa1 Ga6 Rh6'
_cell_volume   318.61480357
_cell_formula_units_Z   1
loop_
 _symmetry_equiv_pos_site_id
 _symmetry_equiv_pos_as_xyz
  1  'x, y, z'
loop_
 _atom_site_type_symbol
 _atom_site_label
 _atom_site_symmetry_multiplicity
 _atom_site_fract_x
 _atom_site_fract_y
 _atom_site_fract_z
 _atom_site_occupancy
  Zr  Zr0  1  0.397025  0.396437  0.750000  1
  Zr  Zr1  1  0.005911  0.605852  0.750000  1
  Zr  Zr2  1  0.603435  0.008533  0.250000  1
  Zr  Zr3  1  0.407516  0.400628  0.250000  1
  Zr  Zr4  1  0.999352  0.594598  0.250000  1
  Pa  Pa5  1  0.587404  0.992398  0.750000  1
  Ga  Ga6  1  0.252651  0.999128  0.013131  1
  Ga  Ga7  1  0.737978  0.726743  0.498358  1
  Ga  Ga8  1  0.010693  0.273882  0.502596  1
  Ga  Ga9  1  0.010693  0.273882  0.997404  1
  Ga  Ga10  1  0.737978  0.726743  0.001642  1
  Ga  Ga11  1  0.252651  0.999128  0.486869  1
  Rh  Rh12  1  0.664170  0.323567  0.989819  1
  Rh  Rh13  1  0.664170  0.323567  0.510181  1
  Rh  Rh14  1  0.341351  0.676582  0.006180  1
  Rh  Rh15  1  0.341351  0.676582  0.493820  1
  Rh  Rh16  1  0.997093  0.998469  0.750000  1
  Rh  Rh17  1  0.988578  0.003278  0.250000  1
