# generated using pymatgen
data_Ta2Si2OsPd
_symmetry_space_group_name_H-M   'P 1'
_cell_length_a   3.82513100
_cell_length_b   6.43608784
_cell_length_c   7.39081702
_cell_angle_alpha   88.42942082
_cell_angle_beta   90.00000000
_cell_angle_gamma   90.00000000
_symmetry_Int_Tables_number   1
_chemical_formula_structural   Ta2Si2OsPd
_chemical_formula_sum   'Ta4 Si4 Os2 Pd2'
_cell_volume   181.88527453
_cell_formula_units_Z   2
loop_
 _symmetry_equiv_pos_site_id
 _symmetry_equiv_pos_as_xyz
  1  'x, y, z'
loop_
 _atom_site_type_symbol
 _atom_site_label
 _atom_site_symmetry_multiplicity
 _atom_site_fract_x
 _atom_site_fract_y
 _atom_site_fract_z
 _atom_site_occupancy
  Ta  Ta0  1  0.250000  0.518092  0.182707  1
  Ta  Ta1  1  0.750000  0.481908  0.817293  1
  Ta  Ta2  1  0.750000  0.971471  0.660968  1
  Ta  Ta3  1  0.250000  0.028529  0.339032  1
  Si  Si4  1  0.250000  0.761750  0.871945  1
  Si  Si5  1  0.750000  0.238250  0.128055  1
  Si  Si6  1  0.750000  0.731598  0.375953  1
  Si  Si7  1  0.250000  0.268402  0.624047  1
  Os  Os8  1  0.250000  0.645351  0.562002  1
  Os  Os9  1  0.750000  0.354649  0.437998  1
  Pd  Pd10  1  0.750000  0.854768  0.064481  1
  Pd  Pd11  1  0.250000  0.145232  0.935519  1
