# generated using pymatgen
data_TbY4Pa3(ReB6)4
_symmetry_space_group_name_H-M   'P 1'
_cell_length_a   3.71124300
_cell_length_b   9.21076791
_cell_length_c   11.55031400
_cell_angle_alpha   89.83544888
_cell_angle_beta   90.00000000
_cell_angle_gamma   90.00000000
_symmetry_Int_Tables_number   1
_chemical_formula_structural   TbY4Pa3(ReB6)4
_chemical_formula_sum   'Tb1 Y4 Pa3 Re4 B24'
_cell_volume   394.82735120
_cell_formula_units_Z   1
loop_
 _symmetry_equiv_pos_site_id
 _symmetry_equiv_pos_as_xyz
  1  'x, y, z'
loop_
 _atom_site_type_symbol
 _atom_site_label
 _atom_site_symmetry_multiplicity
 _atom_site_fract_x
 _atom_site_fract_y
 _atom_site_fract_z
 _atom_site_occupancy
  Tb  Tb0  1  0.000000  0.677701  0.587321  1
  Y  Y1  1  0.000000  0.445825  0.124543  1
  Y  Y2  1  0.000000  0.555107  0.873416  1
  Y  Y3  1  0.000000  0.943946  0.375524  1
  Y  Y4  1  0.000000  0.053295  0.625370  1
  Pa  Pa5  1  0.000000  0.822880  0.087262  1
  Pa  Pa6  1  0.000000  0.176652  0.912248  1
  Pa  Pa7  1  0.000000  0.324564  0.413502  1
  Re  Re8  1  0.000000  0.138375  0.177635  1
  Re  Re9  1  0.000000  0.864320  0.825482  1
  Re  Re10  1  0.000000  0.637830  0.319337  1
  Re  Re11  1  0.000000  0.359098  0.678431  1
  B  B12  1  0.500000  0.053184  0.067675  1
  B  B13  1  0.500000  0.947602  0.933667  1
  B  B14  1  0.500000  0.552531  0.431605  1
  B  B15  1  0.500000  0.445565  0.566916  1
  B  B16  1  0.500000  0.247383  0.079296  1
  B  B17  1  0.500000  0.753268  0.920351  1
  B  B18  1  0.500000  0.746888  0.420501  1
  B  B19  1  0.500000  0.252925  0.579213  1
  B  B20  1  0.500000  0.292813  0.233597  1
  B  B21  1  0.500000  0.708187  0.767162  1
  B  B22  1  0.500000  0.792728  0.267083  1
  B  B23  1  0.500000  0.206788  0.733333  1
  B  B24  1  0.500000  0.133965  0.314445  1
  B  B25  1  0.500000  0.866721  0.686607  1
  B  B26  1  0.500000  0.634220  0.185549  1
  B  B27  1  0.500000  0.365889  0.813184  1
  B  B28  1  0.500000  0.483201  0.286613  1
  B  B29  1  0.500000  0.516545  0.713228  1
  B  B30  1  0.500000  0.983447  0.214023  1
  B  B31  1  0.500000  0.016394  0.786566  1
  B  B32  1  0.500000  0.114184  0.468134  1
  B  B33  1  0.500000  0.885903  0.531979  1
  B  B34  1  0.500000  0.616482  0.031826  1
  B  B35  1  0.500000  0.383593  0.967374  1
