# generated using pymatgen
data_Nd4B20IrRu
_symmetry_space_group_name_H-M   'P 1'
_cell_length_a   4.22389500
_cell_length_b   5.75919665
_cell_length_c   11.46940628
_cell_angle_alpha   90.29190090
_cell_angle_beta   90.00000000
_cell_angle_gamma   90.00000000
_symmetry_Int_Tables_number   1
_chemical_formula_structural   Nd4B20IrRu
_chemical_formula_sum   'Nd4 B20 Ir1 Ru1'
_cell_volume   279.00393119
_cell_formula_units_Z   1
loop_
 _symmetry_equiv_pos_site_id
 _symmetry_equiv_pos_as_xyz
  1  'x, y, z'
loop_
 _atom_site_type_symbol
 _atom_site_label
 _atom_site_symmetry_multiplicity
 _atom_site_fract_x
 _atom_site_fract_y
 _atom_site_fract_z
 _atom_site_occupancy
  Nd  Nd0  1  0.500000  0.291062  0.864016  1
  Nd  Nd1  1  0.500000  0.708938  0.135984  1
  Nd  Nd2  1  0.500000  0.784361  0.629342  1
  Nd  Nd3  1  0.500000  0.215639  0.370658  1
  B  B4  1  0.000000  0.120263  0.542853  1
  B  B5  1  0.000000  0.879737  0.457147  1
  B  B6  1  0.000000  0.619464  0.957223  1
  B  B7  1  0.000000  0.380536  0.042777  1
  B  B8  1  0.000000  0.137669  0.697570  1
  B  B9  1  0.000000  0.862331  0.302430  1
  B  B10  1  0.300118  0.219639  0.118168  1
  B  B11  1  0.300118  0.780361  0.881832  1
  B  B12  1  0.700451  0.719099  0.381792  1
  B  B13  1  0.700451  0.280901  0.618208  1
  B  B14  1  0.699882  0.780361  0.881832  1
  B  B15  1  0.699882  0.219639  0.118168  1
  B  B16  1  0.299549  0.280901  0.618208  1
  B  B17  1  0.299549  0.719099  0.381792  1
  B  B18  1  0.000000  0.056345  0.192774  1
  B  B19  1  0.000000  0.943655  0.807226  1
  B  B20  1  0.000000  0.555729  0.307579  1
  B  B21  1  0.000000  0.444271  0.692421  1
  B  B22  1  0.000000  0.362119  0.197006  1
  B  B23  1  0.000000  0.637881  0.802994  1
  Ir  Ir24  1  0.000000  0.000000  0.000000  1
  Ru  Ru25  1  0.000000  0.500000  0.500000  1
