# generated using pymatgen
data_Ce4VMoC4
_symmetry_space_group_name_H-M   'P 1'
_cell_length_a   5.59445200
_cell_length_b   5.59500900
_cell_length_c   10.34463300
_cell_angle_alpha   90.00000000
_cell_angle_beta   90.00000000
_cell_angle_gamma   90.00000000
_symmetry_Int_Tables_number   1
_chemical_formula_structural   Ce4VMoC4
_chemical_formula_sum   'Ce8 V2 Mo2 C8'
_cell_volume   323.79745364
_cell_formula_units_Z   2
loop_
 _symmetry_equiv_pos_site_id
 _symmetry_equiv_pos_as_xyz
  1  'x, y, z'
loop_
 _atom_site_type_symbol
 _atom_site_label
 _atom_site_symmetry_multiplicity
 _atom_site_fract_x
 _atom_site_fract_y
 _atom_site_fract_z
 _atom_site_occupancy
  Ce  Ce0  1  0.183193  0.183740  0.345024  1
  Ce  Ce1  1  0.316597  0.682897  0.845261  1
  Ce  Ce2  1  0.683193  0.316260  0.845024  1
  Ce  Ce3  1  0.683193  0.316260  0.154976  1
  Ce  Ce4  1  0.316597  0.682897  0.154739  1
  Ce  Ce5  1  0.183193  0.183740  0.654976  1
  Ce  Ce6  1  0.816597  0.817103  0.345261  1
  Ce  Ce7  1  0.816597  0.817103  0.654739  1
  V  V8  1  0.325320  0.674714  0.500000  1
  V  V9  1  0.825320  0.825286  0.000000  1
  Mo  Mo10  1  0.179520  0.179607  0.000000  1
  Mo  Mo11  1  0.679520  0.320393  0.500000  1
  C  C12  1  0.997540  0.996842  0.144198  1
  C  C13  1  0.497540  0.503158  0.644198  1
  C  C14  1  0.494250  0.993949  0.500000  1
  C  C15  1  0.497540  0.503158  0.355802  1
  C  C16  1  0.997540  0.996842  0.855802  1
  C  C17  1  0.506247  0.994453  0.000000  1
  C  C18  1  0.994250  0.506051  0.000000  1
  C  C19  1  0.006247  0.505547  0.500000  1
