# generated using pymatgen
data_PmAsS
_symmetry_space_group_name_H-M   'P 1'
_cell_length_a   3.90875300
_cell_length_b   7.89219492
_cell_length_c   8.75137992
_cell_angle_alpha   89.60806665
_cell_angle_beta   90.00000000
_cell_angle_gamma   90.00000000
_symmetry_Int_Tables_number   1
_chemical_formula_structural   PmAsS
_chemical_formula_sum   'Pm4 As4 S4'
_cell_volume   269.96185733
_cell_formula_units_Z   4
loop_
 _symmetry_equiv_pos_site_id
 _symmetry_equiv_pos_as_xyz
  1  'x, y, z'
loop_
 _atom_site_type_symbol
 _atom_site_label
 _atom_site_symmetry_multiplicity
 _atom_site_fract_x
 _atom_site_fract_y
 _atom_site_fract_z
 _atom_site_occupancy
  Pm  Pm0  1  0.250046  0.123750  0.208193  1
  Pm  Pm1  1  0.750046  0.376250  0.791807  1
  Pm  Pm2  1  0.749954  0.876250  0.791807  1
  Pm  Pm3  1  0.249954  0.623750  0.208193  1
  As  As4  1  0.750016  0.143300  0.501517  1
  As  As5  1  0.250016  0.356700  0.498483  1
  As  As6  1  0.249984  0.856700  0.498483  1
  As  As7  1  0.749984  0.643300  0.501517  1
  S  S8  1  0.250009  0.124811  0.873243  1
  S  S9  1  0.750009  0.375189  0.126757  1
  S  S10  1  0.749991  0.875189  0.126757  1
  S  S11  1  0.249991  0.624811  0.873243  1
