# generated using pymatgen
data_PrNd5(SnRh)4
_symmetry_space_group_name_H-M   'P 1'
_cell_length_a   5.96596681
_cell_length_b   8.51286768
_cell_length_c   13.84389095
_cell_angle_alpha   90.05537893
_cell_angle_beta   90.30190856
_cell_angle_gamma   90.11946088
_symmetry_Int_Tables_number   1
_chemical_formula_structural   PrNd5(SnRh)4
_chemical_formula_sum   'Pr2 Nd10 Sn8 Rh8'
_cell_volume   703.08479294
_cell_formula_units_Z   2
loop_
 _symmetry_equiv_pos_site_id
 _symmetry_equiv_pos_as_xyz
  1  'x, y, z'
loop_
 _atom_site_type_symbol
 _atom_site_label
 _atom_site_symmetry_multiplicity
 _atom_site_fract_x
 _atom_site_fract_y
 _atom_site_fract_z
 _atom_site_occupancy
  Pr  Pr0  1  0.165002  0.395282  0.094904  1
  Pr  Pr1  1  0.834998  0.604718  0.905096  1
  Nd  Nd2  1  0.631242  0.252024  0.250563  1
  Nd  Nd3  1  0.368758  0.747976  0.749437  1
  Nd  Nd4  1  0.369095  0.752892  0.249706  1
  Nd  Nd5  1  0.630905  0.247108  0.750294  1
  Nd  Nd6  1  0.833627  0.604446  0.594869  1
  Nd  Nd7  1  0.833869  0.895901  0.405449  1
  Nd  Nd8  1  0.166373  0.395554  0.405131  1
  Nd  Nd9  1  0.166131  0.104099  0.594551  1
  Nd  Nd10  1  0.165699  0.104063  0.904885  1
  Nd  Nd11  1  0.834301  0.895937  0.095115  1
  Sn  Sn12  1  0.130238  0.104021  0.250019  1
  Sn  Sn13  1  0.869762  0.895979  0.749981  1
  Sn  Sn14  1  0.869573  0.605546  0.250880  1
  Sn  Sn15  1  0.130427  0.394454  0.749120  1
  Sn  Sn16  1  0.662364  0.249110  0.000154  1
  Sn  Sn17  1  0.337636  0.750890  0.999846  1
  Sn  Sn18  1  0.337718  0.749916  0.499995  1
  Sn  Sn19  1  0.662282  0.250084  0.500005  1
  Rh  Rh20  1  0.381918  0.038560  0.093422  1
  Rh  Rh21  1  0.618082  0.961440  0.906578  1
  Rh  Rh22  1  0.618959  0.961484  0.592662  1
  Rh  Rh23  1  0.617691  0.539111  0.406989  1
  Rh  Rh24  1  0.381041  0.038516  0.407338  1
  Rh  Rh25  1  0.382309  0.460889  0.593011  1
  Rh  Rh26  1  0.381687  0.460804  0.906736  1
  Rh  Rh27  1  0.618313  0.539196  0.093264  1
