# generated using pymatgen
data_Tm2Ga10Ru3
_symmetry_space_group_name_H-M   'P 1'
_cell_length_a   8.90877700
_cell_length_b   8.90877700
_cell_length_c   6.37518900
_cell_angle_alpha   90.00000000
_cell_angle_beta   90.00000000
_cell_angle_gamma   90.00000000
_symmetry_Int_Tables_number   1
_chemical_formula_structural   Tm2Ga10Ru3
_chemical_formula_sum   'Tm4 Ga20 Ru6'
_cell_volume   505.97521141
_cell_formula_units_Z   2
loop_
 _symmetry_equiv_pos_site_id
 _symmetry_equiv_pos_as_xyz
  1  'x, y, z'
loop_
 _atom_site_type_symbol
 _atom_site_label
 _atom_site_symmetry_multiplicity
 _atom_site_fract_x
 _atom_site_fract_y
 _atom_site_fract_z
 _atom_site_occupancy
  Tm  Tm0  1  0.183305  0.316695  0.000000  1
  Tm  Tm1  1  0.683305  0.183305  0.000000  1
  Tm  Tm2  1  0.816695  0.683305  0.000000  1
  Tm  Tm3  1  0.316695  0.816695  0.000000  1
  Ga  Ga4  1  0.500000  0.000000  0.283283  1
  Ga  Ga5  1  0.500000  0.000000  0.716717  1
  Ga  Ga6  1  0.293122  0.561229  0.707598  1
  Ga  Ga7  1  0.000000  0.500000  0.283283  1
  Ga  Ga8  1  0.000000  0.500000  0.716717  1
  Ga  Ga9  1  0.061229  0.793122  0.707598  1
  Ga  Ga10  1  0.206878  0.061229  0.292402  1
  Ga  Ga11  1  0.061229  0.793122  0.292402  1
  Ga  Ga12  1  0.706878  0.438771  0.707598  1
  Ga  Ga13  1  0.206878  0.061229  0.707598  1
  Ga  Ga14  1  0.938771  0.206878  0.707598  1
  Ga  Ga15  1  0.706878  0.438771  0.292402  1
  Ga  Ga16  1  0.561229  0.706878  0.292402  1
  Ga  Ga17  1  0.938771  0.206878  0.292402  1
  Ga  Ga18  1  0.561229  0.706878  0.707598  1
  Ga  Ga19  1  0.793122  0.938771  0.292402  1
  Ga  Ga20  1  0.438771  0.293122  0.707598  1
  Ga  Ga21  1  0.793122  0.938771  0.707598  1
  Ga  Ga22  1  0.438771  0.293122  0.292402  1
  Ga  Ga23  1  0.293122  0.561229  0.292402  1
  Ru  Ru24  1  0.178182  0.321818  0.500000  1
  Ru  Ru25  1  0.321818  0.821818  0.500000  1
  Ru  Ru26  1  0.821818  0.678182  0.500000  1
  Ru  Ru27  1  0.000000  0.000000  0.000000  1
  Ru  Ru28  1  0.678182  0.178182  0.500000  1
  Ru  Ru29  1  0.500000  0.500000  0.000000  1
