# generated using pymatgen
data_HoGa6Cu5Ni
_symmetry_space_group_name_H-M   'P 1'
_cell_length_a   5.13949777
_cell_length_b   6.59326915
_cell_length_c   6.61110404
_cell_angle_alpha   79.86267182
_cell_angle_beta   66.99591075
_cell_angle_gamma   66.97364353
_symmetry_Int_Tables_number   1
_chemical_formula_structural   HoGa6Cu5Ni
_chemical_formula_sum   'Ho1 Ga6 Cu5 Ni1'
_cell_volume   189.70879360
_cell_formula_units_Z   1
loop_
 _symmetry_equiv_pos_site_id
 _symmetry_equiv_pos_as_xyz
  1  'x, y, z'
loop_
 _atom_site_type_symbol
 _atom_site_label
 _atom_site_symmetry_multiplicity
 _atom_site_fract_x
 _atom_site_fract_y
 _atom_site_fract_z
 _atom_site_occupancy
  Ho  Ho0  1  0.000000  0.000000  0.000000  1
  Ga  Ga1  1  0.688813  0.804591  0.811443  1
  Ga  Ga2  1  0.311187  0.195409  0.188557  1
  Ga  Ga3  1  0.351541  0.649941  0.657763  1
  Ga  Ga4  1  0.648459  0.350059  0.342237  1
  Ga  Ga5  1  0.011338  0.648821  0.342262  1
  Ga  Ga6  1  0.988662  0.351179  0.657738  1
  Cu  Cu7  1  0.000000  0.500000  0.000000  1
  Cu  Cu8  1  0.000000  0.000000  0.500000  1
  Cu  Cu9  1  0.500000  0.000000  0.500000  1
  Cu  Cu10  1  0.500843  0.233375  0.763962  1
  Cu  Cu11  1  0.499157  0.766625  0.236038  1
  Ni  Ni12  1  0.500000  0.500000  0.000000  1
