# generated using pymatgen
data_Ho2Er(In2Ni)2
_symmetry_space_group_name_H-M   'P 1'
_cell_length_a   7.72251720
_cell_length_b   7.72069538
_cell_length_c   3.77660600
_cell_angle_alpha   90.00000000
_cell_angle_beta   90.00000000
_cell_angle_gamma   119.90207031
_symmetry_Int_Tables_number   1
_chemical_formula_structural   Ho2Er(In2Ni)2
_chemical_formula_sum   'Ho2 Er1 In4 Ni2'
_cell_volume   195.19798543
_cell_formula_units_Z   1
loop_
 _symmetry_equiv_pos_site_id
 _symmetry_equiv_pos_as_xyz
  1  'x, y, z'
loop_
 _atom_site_type_symbol
 _atom_site_label
 _atom_site_symmetry_multiplicity
 _atom_site_fract_x
 _atom_site_fract_y
 _atom_site_fract_z
 _atom_site_occupancy
  Ho  Ho0  1  0.700550  0.949019  0.500000  1
  Ho  Ho1  1  0.248624  0.300145  0.500000  1
  Er  Er2  1  0.050934  0.752095  0.500000  1
  In  In3  1  0.915811  0.334206  0.000000  1
  In  In4  1  0.417149  0.083995  0.000000  1
  In  In5  1  0.667319  0.581651  0.000000  1
  In  In6  1  0.332990  0.666828  0.000000  1
  Ni  Ni7  1  0.665978  0.332356  0.500000  1
  Ni  Ni8  1  0.000647  0.999702  0.000000  1
