# generated using pymatgen
data_Lu6InCoRu
_symmetry_space_group_name_H-M   'P 1'
_cell_length_a   8.25072884
_cell_length_b   8.25072914
_cell_length_c   8.25072938
_cell_angle_alpha   112.59668833
_cell_angle_beta   110.98986115
_cell_angle_gamma   104.92505401
_symmetry_Int_Tables_number   1
_chemical_formula_structural   Lu6InCoRu
_chemical_formula_sum   'Lu12 In2 Co2 Ru2'
_cell_volume   430.25705813
_cell_formula_units_Z   2
loop_
 _symmetry_equiv_pos_site_id
 _symmetry_equiv_pos_as_xyz
  1  'x, y, z'
loop_
 _atom_site_type_symbol
 _atom_site_label
 _atom_site_symmetry_multiplicity
 _atom_site_fract_x
 _atom_site_fract_y
 _atom_site_fract_z
 _atom_site_occupancy
  Lu  Lu0  1  0.446063  0.242861  0.203203  1
  Lu  Lu1  1  0.553937  0.757139  0.796797  1
  Lu  Lu2  1  0.039658  0.242861  0.796797  1
  Lu  Lu3  1  0.960342  0.757139  0.203203  1
  Lu  Lu4  1  0.185491  0.286691  0.472181  1
  Lu  Lu5  1  0.814509  0.713309  0.527819  1
  Lu  Lu6  1  0.185491  0.713309  0.898800  1
  Lu  Lu7  1  0.814509  0.286691  0.101200  1
  Lu  Lu8  1  0.322212  0.636539  0.314327  1
  Lu  Lu9  1  0.677788  0.363461  0.685673  1
  Lu  Lu10  1  0.322212  0.007885  0.685673  1
  Lu  Lu11  1  0.677788  0.992115  0.314327  1
  In  In12  1  0.500000  0.500000  0.000000  1
  In  In13  1  0.000000  0.000000  0.000000  1
  Co  Co14  1  0.113668  0.613668  0.500000  1
  Co  Co15  1  0.886332  0.386332  0.500000  1
  Ru  Ru16  1  0.331350  0.000000  0.331350  1
  Ru  Ru17  1  0.668650  0.000000  0.668650  1
