# generated using pymatgen
data_Pr16Sm4Si15Pt
_symmetry_space_group_name_H-M   'P 1'
_cell_length_a   7.91342450
_cell_length_b   7.89633005
_cell_length_c   15.26517722
_cell_angle_alpha   89.97428187
_cell_angle_beta   89.77704880
_cell_angle_gamma   90.10313119
_symmetry_Int_Tables_number   1
_chemical_formula_structural   Pr16Sm4Si15Pt
_chemical_formula_sum   'Pr16 Sm4 Si15 Pt1'
_cell_volume   953.86644177
_cell_formula_units_Z   1
loop_
 _symmetry_equiv_pos_site_id
 _symmetry_equiv_pos_as_xyz
  1  'x, y, z'
loop_
 _atom_site_type_symbol
 _atom_site_label
 _atom_site_symmetry_multiplicity
 _atom_site_fract_x
 _atom_site_fract_y
 _atom_site_fract_z
 _atom_site_occupancy
  Pr  Pr0  1  0.374360  0.010388  0.448046  1
  Pr  Pr1  1  0.490232  0.874841  0.698805  1
  Pr  Pr2  1  0.510690  0.123433  0.197730  1
  Pr  Pr3  1  0.876503  0.488322  0.300735  1
  Pr  Pr4  1  0.122509  0.510457  0.800926  1
  Pr  Pr5  1  0.626420  0.988403  0.948907  1
  Pr  Pr6  1  0.004672  0.374946  0.551455  1
  Pr  Pr7  1  0.989429  0.625874  0.052126  1
  Pr  Pr8  1  0.134690  0.986483  0.875191  1
  Pr  Pr9  1  0.517925  0.630961  0.126260  1
  Pr  Pr10  1  0.475965  0.364535  0.628404  1
  Pr  Pr11  1  0.627608  0.517923  0.873696  1
  Pr  Pr12  1  0.371739  0.481854  0.372960  1
  Pr  Pr13  1  0.872489  0.021140  0.376302  1
  Pr  Pr14  1  0.981140  0.127122  0.124138  1
  Pr  Pr15  1  0.022062  0.875433  0.623077  1
  Sm  Sm16  1  0.306464  0.307204  0.999560  1
  Sm  Sm17  1  0.190634  0.809414  0.249940  1
  Sm  Sm18  1  0.814421  0.187817  0.750423  1
  Sm  Sm19  1  0.691262  0.687642  0.499830  1
  Si  Si20  1  0.332031  0.693521  0.952025  1
  Si  Si21  1  0.664789  0.305076  0.452861  1
  Si  Si22  1  0.696108  0.334138  0.048399  1
  Si  Si23  1  0.306886  0.668826  0.546584  1
  Si  Si24  1  0.807446  0.831228  0.203874  1
  Si  Si25  1  0.169315  0.195015  0.297062  1
  Si  Si26  1  0.833726  0.805311  0.797569  1
  Si  Si27  1  0.287676  0.923355  0.060571  1
  Si  Si28  1  0.578724  0.786384  0.311354  1
  Si  Si29  1  0.432269  0.207869  0.814100  1
  Si  Si30  1  0.784235  0.579865  0.688862  1
  Si  Si31  1  0.212957  0.423904  0.188742  1
  Si  Si32  1  0.706578  0.073348  0.559456  1
  Si  Si33  1  0.921377  0.288141  0.940327  1
  Si  Si34  1  0.078544  0.715115  0.439443  1
  Pt  Pt35  1  0.186125  0.174711  0.700263  1
