# generated using pymatgen
data_Li5Gd4Cd29
_symmetry_space_group_name_H-M   'P 1'
_cell_length_a   7.50671766
_cell_length_b   7.50671716
_cell_length_c   15.43348800
_cell_angle_alpha   82.04241359
_cell_angle_beta   82.04240642
_cell_angle_gamma   82.75106534
_symmetry_Int_Tables_number   1
_chemical_formula_structural   Li5Gd4Cd29
_chemical_formula_sum   'Li5 Gd4 Cd29'
_cell_volume   847.92889387
_cell_formula_units_Z   1
loop_
 _symmetry_equiv_pos_site_id
 _symmetry_equiv_pos_as_xyz
  1  'x, y, z'
loop_
 _atom_site_type_symbol
 _atom_site_label
 _atom_site_symmetry_multiplicity
 _atom_site_fract_x
 _atom_site_fract_y
 _atom_site_fract_z
 _atom_site_occupancy
  Li  Li0  1  0.000000  0.000000  0.750000  1
  Li  Li1  1  0.001137  0.499860  0.998593  1
  Li  Li2  1  0.998863  0.500140  0.501407  1
  Li  Li3  1  0.500140  0.998863  0.501407  1
  Li  Li4  1  0.499860  0.001137  0.998593  1
  Gd  Gd5  1  0.663353  0.663353  0.333248  1
  Gd  Gd6  1  0.660617  0.660617  0.832102  1
  Gd  Gd7  1  0.336647  0.336647  0.166752  1
  Gd  Gd8  1  0.339383  0.339383  0.667898  1
  Cd  Cd9  1  0.299995  0.701102  0.998906  1
  Cd  Cd10  1  0.298898  0.700005  0.501094  1
  Cd  Cd11  1  0.697083  0.003069  0.145463  1
  Cd  Cd12  1  0.702830  0.000041  0.649893  1
  Cd  Cd13  1  0.996931  0.302917  0.354537  1
  Cd  Cd14  1  0.999959  0.297170  0.850107  1
  Cd  Cd15  1  0.302917  0.996931  0.354537  1
  Cd  Cd16  1  0.297170  0.999959  0.850107  1
  Cd  Cd17  1  0.003069  0.697083  0.145463  1
  Cd  Cd18  1  0.000041  0.702830  0.649893  1
  Cd  Cd19  1  0.700005  0.298898  0.501094  1
  Cd  Cd20  1  0.701102  0.299995  0.998906  1
  Cd  Cd21  1  0.347980  0.347980  0.430507  1
  Cd  Cd22  1  0.351327  0.351327  0.924450  1
  Cd  Cd23  1  0.358536  0.841845  0.175045  1
  Cd  Cd24  1  0.348665  0.854585  0.675369  1
  Cd  Cd25  1  0.841845  0.358536  0.175045  1
  Cd  Cd26  1  0.854585  0.348665  0.675369  1
  Cd  Cd27  1  0.652020  0.652020  0.069493  1
  Cd  Cd28  1  0.648673  0.648673  0.575550  1
  Cd  Cd29  1  0.641464  0.158155  0.324955  1
  Cd  Cd30  1  0.651335  0.145415  0.824631  1
  Cd  Cd31  1  0.158155  0.641464  0.324955  1
  Cd  Cd32  1  0.145415  0.651335  0.824631  1
  Cd  Cd33  1  0.890510  0.890510  0.450043  1
  Cd  Cd34  1  0.895274  0.895274  0.944775  1
  Cd  Cd35  1  0.109490  0.109490  0.049957  1
  Cd  Cd36  1  0.104726  0.104726  0.555225  1
  Cd  Cd37  1  0.000000  0.000000  0.250000  1
