# generated using pymatgen
data_Dy10Ho2Tc3Ru
_symmetry_space_group_name_H-M   'P 1'
_cell_length_a   6.29380615
_cell_length_b   7.37940321
_cell_length_c   9.15006403
_cell_angle_alpha   89.98851191
_cell_angle_beta   90.05305599
_cell_angle_gamma   90.00978249
_symmetry_Int_Tables_number   1
_chemical_formula_structural   Dy10Ho2Tc3Ru
_chemical_formula_sum   'Dy10 Ho2 Tc3 Ru1'
_cell_volume   424.97025681
_cell_formula_units_Z   1
loop_
 _symmetry_equiv_pos_site_id
 _symmetry_equiv_pos_as_xyz
  1  'x, y, z'
loop_
 _atom_site_type_symbol
 _atom_site_label
 _atom_site_symmetry_multiplicity
 _atom_site_fract_x
 _atom_site_fract_y
 _atom_site_fract_z
 _atom_site_occupancy
  Dy  Dy0  1  0.335792  0.676358  0.063933  1
  Dy  Dy1  1  0.162018  0.175620  0.436848  1
  Dy  Dy2  1  0.661573  0.324635  0.562984  1
  Dy  Dy3  1  0.837011  0.824333  0.937265  1
  Dy  Dy4  1  0.661653  0.324298  0.937051  1
  Dy  Dy5  1  0.836968  0.823903  0.562734  1
  Dy  Dy6  1  0.874242  0.541362  0.250116  1
  Dy  Dy7  1  0.625984  0.040202  0.249921  1
  Dy  Dy8  1  0.130867  0.457853  0.749957  1
  Dy  Dy9  1  0.373367  0.957031  0.749989  1
  Ho  Ho10  1  0.336017  0.676214  0.436322  1
  Ho  Ho11  1  0.161965  0.175508  0.062743  1
  Tc  Tc12  1  0.039945  0.884770  0.250119  1
  Tc  Tc13  1  0.461355  0.386720  0.249864  1
  Tc  Tc14  1  0.962438  0.115547  0.750599  1
  Ru  Ru15  1  0.538805  0.615646  0.749555  1
