# generated using pymatgen
data_Pr3Sn3Ir2Pd
_symmetry_space_group_name_H-M   'P 1'
_cell_length_a   7.61873900
_cell_length_b   7.61873917
_cell_length_c   4.16326600
_cell_angle_alpha   90.00000000
_cell_angle_beta   90.00000000
_cell_angle_gamma   119.99999493
_symmetry_Int_Tables_number   1
_chemical_formula_structural   Pr3Sn3Ir2Pd
_chemical_formula_sum   'Pr3 Sn3 Ir2 Pd1'
_cell_volume   209.28158461
_cell_formula_units_Z   1
loop_
 _symmetry_equiv_pos_site_id
 _symmetry_equiv_pos_as_xyz
  1  'x, y, z'
loop_
 _atom_site_type_symbol
 _atom_site_label
 _atom_site_symmetry_multiplicity
 _atom_site_fract_x
 _atom_site_fract_y
 _atom_site_fract_z
 _atom_site_occupancy
  Pr  Pr0  1  0.594884  0.008433  0.000000  1
  Pr  Pr1  1  0.991567  0.586451  0.000000  1
  Pr  Pr2  1  0.413549  0.405116  0.000000  1
  Sn  Sn3  1  0.250996  0.001885  0.500000  1
  Sn  Sn4  1  0.998115  0.249111  0.500000  1
  Sn  Sn5  1  0.750889  0.749004  0.500000  1
  Ir  Ir6  1  0.666667  0.333333  0.500000  1
  Ir  Ir7  1  0.000000  0.000000  0.000000  1
  Pd  Pd8  1  0.333333  0.666667  0.500000  1
