# generated using pymatgen
data_Dy9MgNi4BiSb
_symmetry_space_group_name_H-M   'P 1'
_cell_length_a   8.67889609
_cell_length_b   8.67889659
_cell_length_c   8.67889577
_cell_angle_alpha   128.38980021
_cell_angle_beta   128.38981541
_cell_angle_gamma   75.99439535
_symmetry_Int_Tables_number   1
_chemical_formula_structural   Dy9MgNi4BiSb
_chemical_formula_sum   'Dy9 Mg1 Ni4 Bi1 Sb1'
_cell_volume   390.48273677
_cell_formula_units_Z   1
loop_
 _symmetry_equiv_pos_site_id
 _symmetry_equiv_pos_as_xyz
  1  'x, y, z'
loop_
 _atom_site_type_symbol
 _atom_site_label
 _atom_site_symmetry_multiplicity
 _atom_site_fract_x
 _atom_site_fract_y
 _atom_site_fract_z
 _atom_site_occupancy
  Dy  Dy0  1  0.498873  0.498873  0.000000  1
  Dy  Dy1  1  0.804112  0.282517  0.824110  1
  Dy  Dy2  1  0.200380  0.713524  0.176378  1
  Dy  Dy3  1  0.458406  0.980001  0.175890  1
  Dy  Dy4  1  0.282517  0.458406  0.478405  1
  Dy  Dy5  1  0.024001  0.200380  0.486855  1
  Dy  Dy6  1  0.537147  0.024001  0.823622  1
  Dy  Dy7  1  0.713524  0.537147  0.513145  1
  Dy  Dy8  1  0.980001  0.804112  0.521595  1
  Mg  Mg9  1  0.999354  0.999354  0.000000  1
  Ni  Ni10  1  0.130224  0.623718  0.753547  1
  Ni  Ni11  1  0.870170  0.376676  0.246453  1
  Ni  Ni12  1  0.623718  0.870170  0.493494  1
  Ni  Ni13  1  0.376676  0.130224  0.506506  1
  Bi  Bi14  1  0.741941  0.741941  0.000000  1
  Sb  Sb15  1  0.258956  0.258956  0.000000  1
