# generated using pymatgen
data_Dy2HoCd3Pt2
_symmetry_space_group_name_H-M   'P 1'
_cell_length_a   7.64335200
_cell_length_b   7.63415233
_cell_length_c   3.70556600
_cell_angle_alpha   90.00000000
_cell_angle_beta   90.00000000
_cell_angle_gamma   120.03987134
_symmetry_Int_Tables_number   1
_chemical_formula_structural   Dy2HoCd3Pt2
_chemical_formula_sum   'Dy2 Ho1 Cd3 Pt2'
_cell_volume   187.17818846
_cell_formula_units_Z   1
loop_
 _symmetry_equiv_pos_site_id
 _symmetry_equiv_pos_as_xyz
  1  'x, y, z'
loop_
 _atom_site_type_symbol
 _atom_site_label
 _atom_site_symmetry_multiplicity
 _atom_site_fract_x
 _atom_site_fract_y
 _atom_site_fract_z
 _atom_site_occupancy
  Dy  Dy0  1  0.424976  0.425015  0.500000  1
  Dy  Dy1  1  0.999959  0.574985  0.500000  1
  Ho  Ho2  1  0.574906  0.000000  0.500000  1
  Cd  Cd3  1  0.227761  0.000000  0.000000  1
  Cd  Cd4  1  0.999731  0.227294  0.000000  1
  Cd  Cd5  1  0.772437  0.772705  0.000000  1
  Pt  Pt6  1  0.666479  0.332730  0.000000  1
  Pt  Pt7  1  0.333750  0.667270  0.000000  1
