# generated using pymatgen
data_Ac16Ir15
_symmetry_space_group_name_H-M   'P 1'
_cell_length_a   9.23042800
_cell_length_b   10.01871165
_cell_length_c   10.04300096
_cell_angle_alpha   73.87272870
_cell_angle_beta   90.00000000
_cell_angle_gamma   90.00000000
_symmetry_Int_Tables_number   1
_chemical_formula_structural   Ac16Ir15
_chemical_formula_sum   'Ac16 Ir15'
_cell_volume   892.19764838
_cell_formula_units_Z   1
loop_
 _symmetry_equiv_pos_site_id
 _symmetry_equiv_pos_as_xyz
  1  'x, y, z'
loop_
 _atom_site_type_symbol
 _atom_site_label
 _atom_site_symmetry_multiplicity
 _atom_site_fract_x
 _atom_site_fract_y
 _atom_site_fract_z
 _atom_site_occupancy
  Ac  Ac0  1  0.246195  0.548586  0.285067  1
  Ac  Ac1  1  0.000000  0.291698  0.047522  1
  Ac  Ac2  1  0.751955  0.037933  0.791583  1
  Ac  Ac3  1  0.500000  0.795204  0.535433  1
  Ac  Ac4  1  0.000000  0.708302  0.952478  1
  Ac  Ac5  1  0.753805  0.451414  0.714933  1
  Ac  Ac6  1  0.500000  0.204796  0.464567  1
  Ac  Ac7  1  0.248045  0.962067  0.208417  1
  Ac  Ac8  1  0.500000  0.292545  0.048848  1
  Ac  Ac9  1  0.248045  0.037933  0.791583  1
  Ac  Ac10  1  0.000000  0.790181  0.539331  1
  Ac  Ac11  1  0.753805  0.548586  0.285067  1
  Ac  Ac12  1  0.751955  0.962067  0.208417  1
  Ac  Ac13  1  0.500000  0.707455  0.951152  1
  Ac  Ac14  1  0.246195  0.451414  0.714933  1
  Ac  Ac15  1  0.000000  0.209819  0.460669  1
  Ir  Ir16  1  0.249677  0.500000  0.000000  1
  Ir  Ir17  1  0.000000  0.247298  0.753823  1
  Ir  Ir18  1  0.746235  0.000000  0.500000  1
  Ir  Ir19  1  0.500000  0.763233  0.234936  1
  Ir  Ir20  1  0.000000  0.752702  0.246177  1
  Ir  Ir21  1  0.750323  0.500000  0.000000  1
  Ir  Ir22  1  0.500000  0.236767  0.765064  1
  Ir  Ir23  1  0.253765  0.000000  0.500000  1
  Ir  Ir24  1  0.000000  0.500000  0.500000  1
  Ir  Ir25  1  0.747515  0.253120  0.256200  1
  Ir  Ir26  1  0.500000  0.000000  0.000000  1
  Ir  Ir27  1  0.252485  0.746880  0.743800  1
  Ir  Ir28  1  0.252485  0.253120  0.256200  1
  Ir  Ir29  1  0.000000  0.000000  0.000000  1
  Ir  Ir30  1  0.747515  0.746880  0.743800  1
