# generated using pymatgen
data_LiY4Er3(B6Os)4
_symmetry_space_group_name_H-M   'P 1'
_cell_length_a   3.61873900
_cell_length_b   9.06913183
_cell_length_c   11.45334430
_cell_angle_alpha   89.92731075
_cell_angle_beta   90.00000000
_cell_angle_gamma   90.00000000
_symmetry_Int_Tables_number   1
_chemical_formula_structural   LiY4Er3(B6Os)4
_chemical_formula_sum   'Li1 Y4 Er3 B24 Os4'
_cell_volume   375.88495442
_cell_formula_units_Z   1
loop_
 _symmetry_equiv_pos_site_id
 _symmetry_equiv_pos_as_xyz
  1  'x, y, z'
loop_
 _atom_site_type_symbol
 _atom_site_label
 _atom_site_symmetry_multiplicity
 _atom_site_fract_x
 _atom_site_fract_y
 _atom_site_fract_z
 _atom_site_occupancy
  Li  Li0  1  0.000000  0.944476  0.372619  1
  Y  Y1  1  0.000000  0.320159  0.410942  1
  Y  Y2  1  0.000000  0.680629  0.581269  1
  Y  Y3  1  0.000000  0.823654  0.091815  1
  Y  Y4  1  0.000000  0.177323  0.917171  1
  Er  Er5  1  0.000000  0.055416  0.624389  1
  Er  Er6  1  0.000000  0.443054  0.130273  1
  Er  Er7  1  0.000000  0.556876  0.871781  1
  B  B8  1  0.500000  0.556837  0.432239  1
  B  B9  1  0.500000  0.446363  0.565917  1
  B  B10  1  0.500000  0.053004  0.069418  1
  B  B11  1  0.500000  0.946506  0.933055  1
  B  B12  1  0.500000  0.755847  0.417589  1
  B  B13  1  0.500000  0.249758  0.579601  1
  B  B14  1  0.500000  0.247852  0.082675  1
  B  B15  1  0.500000  0.751361  0.918966  1
  B  B16  1  0.500000  0.795670  0.267255  1
  B  B17  1  0.500000  0.207667  0.733276  1
  B  B18  1  0.500000  0.288147  0.235553  1
  B  B19  1  0.500000  0.709025  0.764746  1
  B  B20  1  0.500000  0.632130  0.187217  1
  B  B21  1  0.500000  0.368532  0.814549  1
  B  B22  1  0.500000  0.124065  0.317015  1
  B  B23  1  0.500000  0.869602  0.683257  1
  B  B24  1  0.500000  0.979907  0.215905  1
  B  B25  1  0.500000  0.017573  0.786008  1
  B  B26  1  0.500000  0.483630  0.288486  1
  B  B27  1  0.500000  0.517159  0.712014  1
  B  B28  1  0.500000  0.605183  0.029609  1
  B  B29  1  0.500000  0.395418  0.971875  1
  B  B30  1  0.500000  0.093175  0.468569  1
  B  B31  1  0.500000  0.901782  0.521916  1
  Os  Os32  1  0.000000  0.642592  0.321438  1
  Os  Os33  1  0.000000  0.360860  0.678968  1
  Os  Os34  1  0.000000  0.135771  0.182122  1
  Os  Os35  1  0.000000  0.862997  0.820501  1
