# generated using pymatgen
data_Dy3(In2Pd)2
_symmetry_space_group_name_H-M   'P 1'
_cell_length_a   7.86859300
_cell_length_b   7.86859338
_cell_length_c   3.88300500
_cell_angle_alpha   90.00000000
_cell_angle_beta   90.00000000
_cell_angle_gamma   120.00001102
_symmetry_Int_Tables_number   1
_chemical_formula_structural   Dy3(In2Pd)2
_chemical_formula_sum   'Dy3 In4 Pd2'
_cell_volume   208.20574961
_cell_formula_units_Z   1
loop_
 _symmetry_equiv_pos_site_id
 _symmetry_equiv_pos_as_xyz
  1  'x, y, z'
loop_
 _atom_site_type_symbol
 _atom_site_label
 _atom_site_symmetry_multiplicity
 _atom_site_fract_x
 _atom_site_fract_y
 _atom_site_fract_z
 _atom_site_occupancy
  Dy  Dy0  1  0.053864  0.309549  0.500000  1
  Dy  Dy1  1  0.690451  0.744314  0.500000  1
  Dy  Dy2  1  0.255686  0.946136  0.500000  1
  In  In3  1  0.667586  0.076297  0.000000  1
  In  In4  1  0.923703  0.591290  0.000000  1
  In  In5  1  0.408710  0.332414  0.000000  1
  In  In6  1  0.333333  0.666667  0.000000  1
  Pd  Pd7  1  0.666667  0.333333  0.500000  1
  Pd  Pd8  1  0.000000  0.000000  0.000000  1
