# generated using pymatgen
data_TaFeCl8
_symmetry_space_group_name_H-M   'P 1'
_cell_length_a   9.96146380
_cell_length_b   9.96146356
_cell_length_c   8.78999600
_cell_angle_alpha   90.00000000
_cell_angle_beta   90.00000000
_cell_angle_gamma   128.51939971
_symmetry_Int_Tables_number   1
_chemical_formula_structural   TaFeCl8
_chemical_formula_sum   'Ta2 Fe2 Cl16'
_cell_volume   682.43666483
_cell_formula_units_Z   2
loop_
 _symmetry_equiv_pos_site_id
 _symmetry_equiv_pos_as_xyz
  1  'x, y, z'
loop_
 _atom_site_type_symbol
 _atom_site_label
 _atom_site_symmetry_multiplicity
 _atom_site_fract_x
 _atom_site_fract_y
 _atom_site_fract_z
 _atom_site_occupancy
  Ta  Ta0  1  0.884013  0.115987  0.250000  1
  Ta  Ta1  1  0.115987  0.884013  0.750000  1
  Fe  Fe2  1  0.314561  0.685439  0.750000  1
  Fe  Fe3  1  0.685439  0.314561  0.250000  1
  Cl  Cl4  1  0.378216  0.621784  0.543040  1
  Cl  Cl5  1  0.621784  0.378216  0.456960  1
  Cl  Cl6  1  0.421681  0.967647  0.750000  1
  Cl  Cl7  1  0.967647  0.421681  0.250000  1
  Cl  Cl8  1  0.578319  0.032353  0.250000  1
  Cl  Cl9  1  0.032353  0.578319  0.750000  1
  Cl  Cl10  1  0.237024  0.166351  0.750000  1
  Cl  Cl11  1  0.166351  0.237024  0.250000  1
  Cl  Cl12  1  0.762976  0.833649  0.250000  1
  Cl  Cl13  1  0.833649  0.762976  0.750000  1
  Cl  Cl14  1  0.133319  0.866681  0.488733  1
  Cl  Cl15  1  0.866681  0.133319  0.511267  1
  Cl  Cl16  1  0.866681  0.133319  0.988733  1
  Cl  Cl17  1  0.133319  0.866681  0.011267  1
  Cl  Cl18  1  0.378216  0.621784  0.956960  1
  Cl  Cl19  1  0.621784  0.378216  0.043040  1
