# generated using pymatgen
data_Nd4OsCl4
_symmetry_space_group_name_H-M   'P 1'
_cell_length_a   8.99284520
_cell_length_b   8.99284607
_cell_length_c   6.68564670
_cell_angle_alpha   90.17672066
_cell_angle_beta   90.17672490
_cell_angle_gamma   89.68049570
_symmetry_Int_Tables_number   1
_chemical_formula_structural   Nd4OsCl4
_chemical_formula_sum   'Nd8 Os2 Cl8'
_cell_volume   540.66323542
_cell_formula_units_Z   2
loop_
 _symmetry_equiv_pos_site_id
 _symmetry_equiv_pos_as_xyz
  1  'x, y, z'
loop_
 _atom_site_type_symbol
 _atom_site_label
 _atom_site_symmetry_multiplicity
 _atom_site_fract_x
 _atom_site_fract_y
 _atom_site_fract_z
 _atom_site_occupancy
  Nd  Nd0  1  0.104440  0.741412  0.987464  1
  Nd  Nd1  1  0.258588  0.895560  0.512536  1
  Nd  Nd2  1  0.895560  0.258588  0.012536  1
  Nd  Nd3  1  0.741412  0.104440  0.487464  1
  Nd  Nd4  1  0.742380  0.895689  0.001299  1
  Nd  Nd5  1  0.104311  0.257620  0.498701  1
  Nd  Nd6  1  0.257620  0.104311  0.998701  1
  Nd  Nd7  1  0.895689  0.742380  0.501299  1
  Os  Os8  1  0.004262  0.995738  0.250000  1
  Os  Os9  1  0.995738  0.004262  0.750000  1
  Cl  Cl10  1  0.412824  0.823367  0.916800  1
  Cl  Cl11  1  0.176633  0.587176  0.583200  1
  Cl  Cl12  1  0.587176  0.176633  0.083200  1
  Cl  Cl13  1  0.823367  0.412824  0.416800  1
  Cl  Cl14  1  0.820343  0.588114  0.914753  1
  Cl  Cl15  1  0.411886  0.179657  0.585247  1
  Cl  Cl16  1  0.179657  0.411886  0.085247  1
  Cl  Cl17  1  0.588114  0.820343  0.414753  1
