# generated using pymatgen
data_Tb6Fe11Co5(P6Ru)2
_symmetry_space_group_name_H-M   'P 1'
_cell_length_a   3.74964000
_cell_length_b   10.58992971
_cell_length_c   12.24791888
_cell_angle_alpha   89.95731575
_cell_angle_beta   90.00000000
_cell_angle_gamma   90.00000000
_symmetry_Int_Tables_number   1
_chemical_formula_structural   Tb6Fe11Co5(P6Ru)2
_chemical_formula_sum   'Tb6 Fe11 Co5 P12 Ru2'
_cell_volume   486.34542146
_cell_formula_units_Z   1
loop_
 _symmetry_equiv_pos_site_id
 _symmetry_equiv_pos_as_xyz
  1  'x, y, z'
loop_
 _atom_site_type_symbol
 _atom_site_label
 _atom_site_symmetry_multiplicity
 _atom_site_fract_x
 _atom_site_fract_y
 _atom_site_fract_z
 _atom_site_occupancy
  Tb  Tb0  1  0.000000  0.498957  0.525839  1
  Tb  Tb1  1  0.500000  0.001004  0.473972  1
  Tb  Tb2  1  0.500000  0.820586  0.208243  1
  Tb  Tb3  1  0.500000  0.181378  0.204738  1
  Tb  Tb4  1  0.000000  0.679906  0.791636  1
  Tb  Tb5  1  0.000000  0.318700  0.795760  1
  Fe  Fe6  1  0.000000  0.504895  0.988868  1
  Fe  Fe7  1  0.500000  0.995155  0.011715  1
  Fe  Fe8  1  0.500000  0.333754  0.993037  1
  Fe  Fe9  1  0.500000  0.674587  0.994476  1
  Fe  Fe10  1  0.000000  0.166971  0.007896  1
  Fe  Fe11  1  0.000000  0.826200  0.005248  1
  Fe  Fe12  1  0.500000  0.297801  0.429638  1
  Fe  Fe13  1  0.500000  0.700963  0.429076  1
  Fe  Fe14  1  0.000000  0.200967  0.570587  1
  Fe  Fe15  1  0.000000  0.797739  0.568590  1
  Fe  Fe16  1  0.500000  0.881981  0.706352  1
  Co  Co17  1  0.500000  0.500306  0.700097  1
  Co  Co18  1  0.000000  0.999360  0.300008  1
  Co  Co19  1  0.500000  0.120081  0.711270  1
  Co  Co20  1  0.000000  0.618706  0.291888  1
  Co  Co21  1  0.000000  0.380094  0.289327  1
  P  P22  1  0.500000  0.500642  0.884602  1
  P  P23  1  0.000000  0.999710  0.115362  1
  P  P24  1  0.500000  0.498342  0.347559  1
  P  P25  1  0.000000  0.997731  0.653946  1
  P  P26  1  0.500000  0.305557  0.614461  1
  P  P27  1  0.500000  0.694626  0.613185  1
  P  P28  1  0.000000  0.193983  0.385995  1
  P  P29  1  0.000000  0.805896  0.386553  1
  P  P30  1  0.500000  0.849475  0.887554  1
  P  P31  1  0.500000  0.155115  0.899623  1
  P  P32  1  0.000000  0.651788  0.110589  1
  P  P33  1  0.000000  0.345299  0.101012  1
  Ru  Ru34  1  0.500000  0.501979  0.156032  1
  Ru  Ru35  1  0.000000  0.999766  0.845267  1
