# generated using pymatgen
data_La3Pr(C2F)2
_symmetry_space_group_name_H-M   'P 1'
_cell_length_a   7.29711935
_cell_length_b   7.31869818
_cell_length_c   6.71471088
_cell_angle_alpha   107.12745002
_cell_angle_beta   107.23319710
_cell_angle_gamma   34.63478318
_symmetry_Int_Tables_number   1
_chemical_formula_structural   La3Pr(C2F)2
_chemical_formula_sum   'La3 Pr1 C4 F2'
_cell_volume   193.80723693
_cell_formula_units_Z   1
loop_
 _symmetry_equiv_pos_site_id
 _symmetry_equiv_pos_as_xyz
  1  'x, y, z'
loop_
 _atom_site_type_symbol
 _atom_site_label
 _atom_site_symmetry_multiplicity
 _atom_site_fract_x
 _atom_site_fract_y
 _atom_site_fract_z
 _atom_site_occupancy
  La  La0  1  0.819685  0.464026  0.113443  1
  La  La1  1  0.539370  0.179501  0.389247  1
  La  La2  1  0.462682  0.820534  0.612117  1
  Pr  Pr3  1  0.180339  0.532000  0.885983  1
  C  C4  1  0.350505  0.095587  0.015030  1
  C  C5  1  0.906943  0.650250  0.486399  1
  C  C6  1  0.096402  0.348044  0.515074  1
  C  C7  1  0.652297  0.905182  0.984872  1
  F  F8  1  0.424973  0.572782  0.246156  1
  F  F9  1  0.566806  0.432095  0.751676  1
