# generated using pymatgen
data_TbY2Mg3Ge2Pd
_symmetry_space_group_name_H-M   'P 1'
_cell_length_a   7.31315197
_cell_length_b   7.31315328
_cell_length_c   4.27964900
_cell_angle_alpha   90.00000000
_cell_angle_beta   90.00000000
_cell_angle_gamma   120.13363860
_symmetry_Int_Tables_number   1
_chemical_formula_structural   TbY2Mg3Ge2Pd
_chemical_formula_sum   'Tb1 Y2 Mg3 Ge2 Pd1'
_cell_volume   197.95279900
_cell_formula_units_Z   1
loop_
 _symmetry_equiv_pos_site_id
 _symmetry_equiv_pos_as_xyz
  1  'x, y, z'
loop_
 _atom_site_type_symbol
 _atom_site_label
 _atom_site_symmetry_multiplicity
 _atom_site_fract_x
 _atom_site_fract_y
 _atom_site_fract_z
 _atom_site_occupancy
  Tb  Tb0  1  0.416379  0.416379  0.500000  1
  Y  Y1  1  0.999860  0.583197  0.500000  1
  Y  Y2  1  0.583197  0.999860  0.500000  1
  Mg  Mg3  1  0.757947  0.757947  0.000000  1
  Mg  Mg4  1  0.242183  0.999869  0.000000  1
  Mg  Mg5  1  0.999869  0.242183  0.000000  1
  Ge  Ge6  1  0.666728  0.333462  0.000000  1
  Ge  Ge7  1  0.333462  0.666728  0.000000  1
  Pd  Pd8  1  0.000374  0.000374  0.500000  1
