# generated using pymatgen
data_Ho8MgCdOsPd
_symmetry_space_group_name_H-M   'P 1'
_cell_length_a   9.65756337
_cell_length_b   9.65756315
_cell_length_c   9.79961400
_cell_angle_alpha   59.51223330
_cell_angle_beta   59.51223406
_cell_angle_gamma   59.04712601
_symmetry_Int_Tables_number   1
_chemical_formula_structural   Ho8MgCdOsPd
_chemical_formula_sum   'Ho16 Mg2 Cd2 Os2 Pd2'
_cell_volume   636.80770382
_cell_formula_units_Z   2
loop_
 _symmetry_equiv_pos_site_id
 _symmetry_equiv_pos_as_xyz
  1  'x, y, z'
loop_
 _atom_site_type_symbol
 _atom_site_label
 _atom_site_symmetry_multiplicity
 _atom_site_fract_x
 _atom_site_fract_y
 _atom_site_fract_z
 _atom_site_occupancy
  Ho  Ho0  1  0.349385  0.349385  0.354636  1
  Ho  Ho1  1  0.349385  0.349385  0.946594  1
  Ho  Ho2  1  0.342969  0.959295  0.348869  1
  Ho  Ho3  1  0.959295  0.342969  0.348869  1
  Ho  Ho4  1  0.816627  0.186202  0.189741  1
  Ho  Ho5  1  0.186202  0.816627  0.807431  1
  Ho  Ho6  1  0.186202  0.816627  0.189741  1
  Ho  Ho7  1  0.816627  0.186202  0.807431  1
  Ho  Ho8  1  0.188223  0.188223  0.811777  1
  Ho  Ho9  1  0.810986  0.810986  0.189014  1
  Ho  Ho10  1  0.938616  0.557419  0.568335  1
  Ho  Ho11  1  0.557419  0.938616  0.935631  1
  Ho  Ho12  1  0.557419  0.938616  0.568335  1
  Ho  Ho13  1  0.938616  0.557419  0.935631  1
  Ho  Ho14  1  0.565937  0.565937  0.934063  1
  Ho  Ho15  1  0.938186  0.938186  0.561814  1
  Mg  Mg16  1  0.575610  0.575610  0.580415  1
  Mg  Mg17  1  0.575610  0.575610  0.268362  1
  Cd  Cd18  1  0.582117  0.253553  0.582165  1
  Cd  Cd19  1  0.253553  0.582117  0.582165  1
  Os  Os20  1  0.146118  0.146118  0.135160  1
  Os  Os21  1  0.146118  0.146118  0.572603  1
  Pd  Pd22  1  0.146584  0.572200  0.140608  1
  Pd  Pd23  1  0.572200  0.146584  0.140608  1
