# generated using pymatgen
data_Hf3NbAl2Au
_symmetry_space_group_name_H-M   'P 1'
_cell_length_a   5.27415670
_cell_length_b   5.27415741
_cell_length_c   5.33823200
_cell_angle_alpha   90.00000000
_cell_angle_beta   90.00000000
_cell_angle_gamma   118.58394136
_symmetry_Int_Tables_number   1
_chemical_formula_structural   Hf3NbAl2Au
_chemical_formula_sum   'Hf3 Nb1 Al2 Au1'
_cell_volume   130.39351678
_cell_formula_units_Z   1
loop_
 _symmetry_equiv_pos_site_id
 _symmetry_equiv_pos_as_xyz
  1  'x, y, z'
loop_
 _atom_site_type_symbol
 _atom_site_label
 _atom_site_symmetry_multiplicity
 _atom_site_fract_x
 _atom_site_fract_y
 _atom_site_fract_z
 _atom_site_occupancy
  Hf  Hf0  1  0.000000  0.000000  0.738733  1
  Hf  Hf1  1  0.328448  0.671552  0.495630  1
  Hf  Hf2  1  0.671552  0.328448  0.495630  1
  Nb  Nb3  1  0.000000  0.000000  0.261668  1
  Al  Al4  1  0.500000  0.000000  0.004039  1
  Al  Al5  1  0.000000  0.500000  0.004039  1
  Au  Au6  1  0.500000  0.500000  0.000260  1
