# generated using pymatgen
data_Zr6Fe8Co8Si7
_symmetry_space_group_name_H-M   'P 1'
_cell_length_a   8.09095116
_cell_length_b   8.09095128
_cell_length_c   8.09095200
_cell_angle_alpha   59.99999707
_cell_angle_beta   59.99999656
_cell_angle_gamma   60.00000058
_symmetry_Int_Tables_number   1
_chemical_formula_structural   Zr6Fe8Co8Si7
_chemical_formula_sum   'Zr6 Fe8 Co8 Si7'
_cell_volume   374.52755345
_cell_formula_units_Z   1
loop_
 _symmetry_equiv_pos_site_id
 _symmetry_equiv_pos_as_xyz
  1  'x, y, z'
loop_
 _atom_site_type_symbol
 _atom_site_label
 _atom_site_symmetry_multiplicity
 _atom_site_fract_x
 _atom_site_fract_y
 _atom_site_fract_z
 _atom_site_occupancy
  Zr  Zr0  1  0.705750  0.705750  0.294250  1
  Zr  Zr1  1  0.294250  0.705750  0.294250  1
  Zr  Zr2  1  0.705750  0.294250  0.294250  1
  Zr  Zr3  1  0.294250  0.294250  0.705750  1
  Zr  Zr4  1  0.705750  0.294250  0.705750  1
  Zr  Zr5  1  0.294250  0.705750  0.705750  1
  Fe  Fe6  1  0.676381  0.676381  0.970859  1
  Fe  Fe7  1  0.676381  0.970859  0.676381  1
  Fe  Fe8  1  0.970859  0.676381  0.676381  1
  Fe  Fe9  1  0.676381  0.676381  0.676381  1
  Fe  Fe10  1  0.323619  0.323619  0.029141  1
  Fe  Fe11  1  0.323619  0.029141  0.323619  1
  Fe  Fe12  1  0.029141  0.323619  0.323619  1
  Fe  Fe13  1  0.323619  0.323619  0.323619  1
  Co  Co14  1  0.880188  0.880188  0.359438  1
  Co  Co15  1  0.880188  0.359438  0.880188  1
  Co  Co16  1  0.359438  0.880188  0.880188  1
  Co  Co17  1  0.880188  0.880188  0.880188  1
  Co  Co18  1  0.119812  0.119812  0.640562  1
  Co  Co19  1  0.119812  0.640562  0.119812  1
  Co  Co20  1  0.640562  0.119812  0.119812  1
  Co  Co21  1  0.119812  0.119812  0.119812  1
  Si  Si22  1  0.000000  0.000000  0.000000  1
  Si  Si23  1  0.000000  0.000000  0.500000  1
  Si  Si24  1  0.500000  0.000000  0.500000  1
  Si  Si25  1  0.000000  0.500000  0.500000  1
  Si  Si26  1  0.500000  0.500000  0.000000  1
  Si  Si27  1  0.000000  0.500000  0.000000  1
  Si  Si28  1  0.500000  0.000000  0.000000  1
