# generated using pymatgen
data_Pu5Te9
_symmetry_space_group_name_H-M   'P 1'
_cell_length_a   13.18981102
_cell_length_b   13.18981031
_cell_length_c   10.85864200
_cell_angle_alpha   80.21386815
_cell_angle_beta   80.21386869
_cell_angle_gamma   26.94614451
_symmetry_Int_Tables_number   1
_chemical_formula_structural   Pu5Te9
_chemical_formula_sum   'Pu10 Te18'
_cell_volume   842.86954611
_cell_formula_units_Z   2
loop_
 _symmetry_equiv_pos_site_id
 _symmetry_equiv_pos_as_xyz
  1  'x, y, z'
loop_
 _atom_site_type_symbol
 _atom_site_label
 _atom_site_symmetry_multiplicity
 _atom_site_fract_x
 _atom_site_fract_y
 _atom_site_fract_z
 _atom_site_occupancy
  Pu  Pu0  1  0.947494  0.041912  0.239920  1
  Pu  Pu1  1  0.146788  0.247589  0.841804  1
  Pu  Pu2  1  0.343888  0.450060  0.435481  1
  Pu  Pu3  1  0.537297  0.654293  0.033003  1
  Pu  Pu4  1  0.753897  0.833739  0.635593  1
  Pu  Pu5  1  0.345707  0.462703  0.966997  1
  Pu  Pu6  1  0.549940  0.656112  0.564519  1
  Pu  Pu7  1  0.752411  0.853212  0.158196  1
  Pu  Pu8  1  0.958088  0.052506  0.760080  1
  Pu  Pu9  1  0.166261  0.246103  0.364407  1
  Te  Te10  1  0.473176  0.569223  0.818458  1
  Te  Te11  1  0.070242  0.177547  0.616713  1
  Te  Te12  1  0.866161  0.980738  0.016313  1
  Te  Te13  1  0.681503  0.760702  0.418863  1
  Te  Te14  1  0.271993  0.373959  0.217722  1
  Te  Te15  1  0.019262  0.133839  0.983687  1
  Te  Te16  1  0.626041  0.728007  0.782278  1
  Te  Te17  1  0.430777  0.526824  0.181542  1
  Te  Te18  1  0.239298  0.318497  0.581137  1
  Te  Te19  1  0.822453  0.929758  0.383287  1
  Te  Te20  1  0.699060  0.300940  0.500000  1
  Te  Te21  1  0.300120  0.901886  0.298321  1
  Te  Te22  1  0.098114  0.699880  0.701679  1
  Te  Te23  1  0.893073  0.492272  0.115095  1
  Te  Te24  1  0.507728  0.106927  0.884905  1
  Te  Te25  1  0.001370  0.601378  0.896742  1
  Te  Te26  1  0.199236  0.800764  0.500000  1
  Te  Te27  1  0.398622  0.998630  0.103258  1
