# generated using pymatgen
data_ReMo3(PN3)4
_symmetry_space_group_name_H-M   'P 1'
_cell_length_a   6.52573129
_cell_length_b   6.52573011
_cell_length_c   4.91930595
_cell_angle_alpha   81.17272631
_cell_angle_beta   81.17272111
_cell_angle_gamma   81.75469034
_symmetry_Int_Tables_number   1
_chemical_formula_structural   ReMo3(PN3)4
_chemical_formula_sum   'Re1 Mo3 P4 N12'
_cell_volume   203.00918691
_cell_formula_units_Z   1
loop_
 _symmetry_equiv_pos_site_id
 _symmetry_equiv_pos_as_xyz
  1  'x, y, z'
loop_
 _atom_site_type_symbol
 _atom_site_label
 _atom_site_symmetry_multiplicity
 _atom_site_fract_x
 _atom_site_fract_y
 _atom_site_fract_z
 _atom_site_occupancy
  Re  Re0  1  0.073284  0.926716  0.750000  1
  Mo  Mo1  1  0.760471  0.239529  0.750000  1
  Mo  Mo2  1  0.931760  0.068240  0.250000  1
  Mo  Mo3  1  0.241210  0.758790  0.250000  1
  P  P4  1  0.232799  0.400606  0.803854  1
  P  P5  1  0.400345  0.233575  0.303425  1
  P  P6  1  0.766425  0.599655  0.196575  1
  P  P7  1  0.599394  0.767201  0.696146  1
  N  N8  1  0.290131  0.435751  0.106553  1
  N  N9  1  0.053953  0.229102  0.861589  1
  N  N10  1  0.946534  0.768757  0.136024  1
  N  N11  1  0.435243  0.292582  0.605898  1
  N  N12  1  0.621090  0.152322  0.127120  1
  N  N13  1  0.377033  0.851160  0.867073  1
  N  N14  1  0.847678  0.378910  0.372880  1
  N  N15  1  0.707418  0.564757  0.894102  1
  N  N16  1  0.770898  0.946047  0.638411  1
  N  N17  1  0.148840  0.622967  0.632927  1
  N  N18  1  0.231243  0.053466  0.363976  1
  N  N19  1  0.564249  0.709869  0.393447  1
