# generated using pymatgen
data_TaCu3TeSe3
_symmetry_space_group_name_H-M   'P 1'
_cell_length_a   5.79203048
_cell_length_b   5.79203048
_cell_length_c   5.79203048
_cell_angle_alpha   90.78467947
_cell_angle_beta   90.78467947
_cell_angle_gamma   90.78467947
_symmetry_Int_Tables_number   1
_chemical_formula_structural   TaCu3TeSe3
_chemical_formula_sum   'Ta1 Cu3 Te1 Se3'
_cell_volume   194.25365034
_cell_formula_units_Z   1
loop_
 _symmetry_equiv_pos_site_id
 _symmetry_equiv_pos_as_xyz
  1  'x, y, z'
loop_
 _atom_site_type_symbol
 _atom_site_label
 _atom_site_symmetry_multiplicity
 _atom_site_fract_x
 _atom_site_fract_y
 _atom_site_fract_z
 _atom_site_occupancy
  Ta  Ta0  1  0.998561  0.998561  0.998561  1
  Cu  Cu1  1  0.500961  0.994364  0.994364  1
  Cu  Cu2  1  0.994364  0.994364  0.500961  1
  Cu  Cu3  1  0.994364  0.500961  0.994364  1
  Te  Te4  1  0.267955  0.267955  0.267955  1
  Se  Se5  1  0.752366  0.752366  0.239062  1
  Se  Se6  1  0.752366  0.239062  0.752366  1
  Se  Se7  1  0.239062  0.752366  0.752366  1
