# generated using pymatgen
data_Ho8In4Cu5Pd3
_symmetry_space_group_name_H-M   'P 1'
_cell_length_a   7.66073731
_cell_length_b   7.65644737
_cell_length_c   7.30280016
_cell_angle_alpha   89.88776449
_cell_angle_beta   89.96376167
_cell_angle_gamma   90.03008558
_symmetry_Int_Tables_number   1
_chemical_formula_structural   Ho8In4Cu5Pd3
_chemical_formula_sum   'Ho8 In4 Cu5 Pd3'
_cell_volume   428.33770738
_cell_formula_units_Z   1
loop_
 _symmetry_equiv_pos_site_id
 _symmetry_equiv_pos_as_xyz
  1  'x, y, z'
loop_
 _atom_site_type_symbol
 _atom_site_label
 _atom_site_symmetry_multiplicity
 _atom_site_fract_x
 _atom_site_fract_y
 _atom_site_fract_z
 _atom_site_occupancy
  Ho  Ho0  1  0.173900  0.170191  0.000208  1
  Ho  Ho1  1  0.831402  0.827073  0.001495  1
  Ho  Ho2  1  0.668117  0.329781  0.500458  1
  Ho  Ho3  1  0.327406  0.671350  0.500166  1
  Ho  Ho4  1  0.674268  0.324121  0.999970  1
  Ho  Ho5  1  0.321919  0.676017  0.000274  1
  Ho  Ho6  1  0.825787  0.821754  0.498204  1
  Ho  Ho7  1  0.179444  0.174954  0.499775  1
  In  In8  1  0.505355  0.999866  0.249123  1
  In  In9  1  0.505670  0.997070  0.750966  1
  In  In10  1  0.997924  0.495422  0.250846  1
  In  In11  1  0.994107  0.495542  0.749753  1
  Cu  Cu12  1  0.380139  0.381213  0.244332  1
  Cu  Cu13  1  0.624586  0.626603  0.757076  1
  Cu  Cu14  1  0.618477  0.619034  0.242910  1
  Cu  Cu15  1  0.875126  0.125087  0.742022  1
  Cu  Cu16  1  0.875558  0.126231  0.257327  1
  Pd  Pd17  1  0.377568  0.379999  0.755149  1
  Pd  Pd18  1  0.121414  0.878944  0.254915  1
  Pd  Pd19  1  0.121831  0.879748  0.745033  1
