# generated using pymatgen
data_Zr3Al(ZnCu3)2
_symmetry_space_group_name_H-M   'P 1'
_cell_length_a   4.43381607
_cell_length_b   6.15459510
_cell_length_c   13.30476209
_cell_angle_alpha   90.00970716
_cell_angle_beta   89.99185212
_cell_angle_gamma   89.98192347
_symmetry_Int_Tables_number   1
_chemical_formula_structural   Zr3Al(ZnCu3)2
_chemical_formula_sum   'Zr6 Al2 Zn4 Cu12'
_cell_volume   363.06487936
_cell_formula_units_Z   2
loop_
 _symmetry_equiv_pos_site_id
 _symmetry_equiv_pos_as_xyz
  1  'x, y, z'
loop_
 _atom_site_type_symbol
 _atom_site_label
 _atom_site_symmetry_multiplicity
 _atom_site_fract_x
 _atom_site_fract_y
 _atom_site_fract_z
 _atom_site_occupancy
  Zr  Zr0  1  0.000125  0.499785  0.997711  1
  Zr  Zr1  1  0.498482  0.999813  0.168719  1
  Zr  Zr2  1  0.001349  0.500188  0.335760  1
  Zr  Zr3  1  0.499134  0.000117  0.497262  1
  Zr  Zr4  1  0.001956  0.500030  0.669656  1
  Zr  Zr5  1  0.499119  0.000055  0.830835  1
  Al  Al6  1  0.999719  0.999961  0.001178  1
  Al  Al7  1  0.499223  0.499897  0.165564  1
  Zn  Zn8  1  0.000380  0.999870  0.333872  1
  Zn  Zn9  1  0.499674  0.499927  0.500248  1
  Zn  Zn10  1  0.000944  0.000026  0.666399  1
  Zn  Zn11  1  0.499739  0.499999  0.832703  1
  Cu  Cu12  1  0.500381  0.245175  0.999938  1
  Cu  Cu13  1  0.500300  0.754448  0.000032  1
  Cu  Cu14  1  0.997872  0.254947  0.166529  1
  Cu  Cu15  1  0.998072  0.744872  0.166501  1
  Cu  Cu16  1  0.502260  0.257704  0.331917  1
  Cu  Cu17  1  0.501206  0.742356  0.332296  1
  Cu  Cu18  1  0.998464  0.249778  0.503361  1
  Cu  Cu19  1  0.999031  0.750571  0.503890  1
  Cu  Cu20  1  0.502770  0.250518  0.663026  1
  Cu  Cu21  1  0.502087  0.749518  0.663056  1
  Cu  Cu22  1  0.998833  0.241623  0.834508  1
  Cu  Cu23  1  0.998894  0.758819  0.835037  1
