# generated using pymatgen
data_Y16CdHg3Pt4
_symmetry_space_group_name_H-M   'P 1'
_cell_length_a   9.71293376
_cell_length_b   9.70944252
_cell_length_c   9.70944300
_cell_angle_alpha   60.00000177
_cell_angle_beta   60.01189131
_cell_angle_gamma   60.01189380
_symmetry_Int_Tables_number   1
_chemical_formula_structural   Y16CdHg3Pt4
_chemical_formula_sum   'Y16 Cd1 Hg3 Pt4'
_cell_volume   647.59291683
_cell_formula_units_Z   1
loop_
 _symmetry_equiv_pos_site_id
 _symmetry_equiv_pos_as_xyz
  1  'x, y, z'
loop_
 _atom_site_type_symbol
 _atom_site_label
 _atom_site_symmetry_multiplicity
 _atom_site_fract_x
 _atom_site_fract_y
 _atom_site_fract_z
 _atom_site_occupancy
  Y  Y0  1  0.354802  0.353636  0.353636  1
  Y  Y1  1  0.354802  0.353636  0.937926  1
  Y  Y2  1  0.354802  0.937926  0.353636  1
  Y  Y3  1  0.935733  0.354756  0.354756  1
  Y  Y4  1  0.809934  0.189939  0.189939  1
  Y  Y5  1  0.188988  0.810689  0.810689  1
  Y  Y6  1  0.188988  0.810689  0.189635  1
  Y  Y7  1  0.809934  0.189939  0.810188  1
  Y  Y8  1  0.188988  0.189635  0.810689  1
  Y  Y9  1  0.809934  0.810188  0.189939  1
  Y  Y10  1  0.933372  0.564905  0.564905  1
  Y  Y11  1  0.564191  0.935685  0.935685  1
  Y  Y12  1  0.564191  0.935685  0.564439  1
  Y  Y13  1  0.933372  0.564905  0.936817  1
  Y  Y14  1  0.564191  0.564439  0.935685  1
  Y  Y15  1  0.933372  0.936817  0.564905  1
  Cd  Cd16  1  0.254110  0.581963  0.581963  1
  Hg  Hg17  1  0.585405  0.587292  0.587292  1
  Hg  Hg18  1  0.585405  0.587292  0.240010  1
  Hg  Hg19  1  0.585405  0.240010  0.587292  1
  Pt  Pt20  1  0.143559  0.143708  0.143708  1
  Pt  Pt21  1  0.143559  0.143708  0.569026  1
  Pt  Pt22  1  0.143559  0.569026  0.143708  1
  Pt  Pt23  1  0.569406  0.143531  0.143531  1
