# generated using pymatgen
data_Zr10Tl2In4CuP
_symmetry_space_group_name_H-M   'P 1'
_cell_length_a   8.75212121
_cell_length_b   8.74891065
_cell_length_c   5.86843904
_cell_angle_alpha   90.01295702
_cell_angle_beta   89.99352566
_cell_angle_gamma   119.98786070
_symmetry_Int_Tables_number   1
_chemical_formula_structural   Zr10Tl2In4CuP
_chemical_formula_sum   'Zr10 Tl2 In4 Cu1 P1'
_cell_volume   389.20071939
_cell_formula_units_Z   1
loop_
 _symmetry_equiv_pos_site_id
 _symmetry_equiv_pos_as_xyz
  1  'x, y, z'
loop_
 _atom_site_type_symbol
 _atom_site_label
 _atom_site_symmetry_multiplicity
 _atom_site_fract_x
 _atom_site_fract_y
 _atom_site_fract_z
 _atom_site_occupancy
  Zr  Zr0  1  0.748937  0.747849  0.256779  1
  Zr  Zr1  1  0.251063  0.998912  0.256779  1
  Zr  Zr2  1  0.000000  0.252472  0.256728  1
  Zr  Zr3  1  0.252593  0.252294  0.743160  1
  Zr  Zr4  1  0.747407  0.999702  0.743160  1
  Zr  Zr5  1  0.000000  0.747498  0.743491  1
  Zr  Zr6  1  0.667149  0.333796  0.501288  1
  Zr  Zr7  1  0.332851  0.666649  0.501288  1
  Zr  Zr8  1  0.332770  0.666576  0.998918  1
  Zr  Zr9  1  0.667230  0.333805  0.998918  1
  Tl  Tl10  1  0.389700  0.389677  0.245132  1
  Tl  Tl11  1  0.610300  0.999978  0.245132  1
  In  In12  1  0.000000  0.610323  0.245015  1
  In  In13  1  0.610956  0.610935  0.754759  1
  In  In14  1  0.389044  0.999979  0.754759  1
  In  In15  1  0.000000  0.389643  0.754841  1
  Cu  Cu16  1  0.000000  0.999811  0.999556  1
  P  P17  1  0.000000  0.000102  0.500297  1
