# generated using pymatgen
data_Sr4Sm3Gd(BO4)4
_symmetry_space_group_name_H-M   'P 1'
_cell_length_a   3.76254800
_cell_length_b   9.86466257
_cell_length_c   11.02947076
_cell_angle_alpha   89.93529129
_cell_angle_beta   90.00000000
_cell_angle_gamma   90.00000000
_symmetry_Int_Tables_number   1
_chemical_formula_structural   Sr4Sm3Gd(BO4)4
_chemical_formula_sum   'Sr4 Sm3 Gd1 B4 O16'
_cell_volume   409.37251422
_cell_formula_units_Z   1
loop_
 _symmetry_equiv_pos_site_id
 _symmetry_equiv_pos_as_xyz
  1  'x, y, z'
loop_
 _atom_site_type_symbol
 _atom_site_label
 _atom_site_symmetry_multiplicity
 _atom_site_fract_x
 _atom_site_fract_y
 _atom_site_fract_z
 _atom_site_occupancy
  Sr  Sr0  1  0.250000  0.661910  0.081895  1
  Sr  Sr1  1  0.750000  0.338054  0.916672  1
  Sr  Sr2  1  0.750000  0.163101  0.418909  1
  Sr  Sr3  1  0.250000  0.837470  0.582444  1
  Sm  Sm4  1  0.250000  0.085191  0.112371  1
  Sm  Sm5  1  0.750000  0.915226  0.887622  1
  Sm  Sm6  1  0.750000  0.584347  0.388508  1
  Gd  Gd7  1  0.250000  0.416382  0.612636  1
  B  B8  1  0.250000  0.365304  0.204195  1
  B  B9  1  0.750000  0.634571  0.795253  1
  B  B10  1  0.750000  0.864915  0.295922  1
  B  B11  1  0.250000  0.135318  0.702979  1
  O  O12  1  0.250000  0.492905  0.257274  1
  O  O13  1  0.750000  0.507073  0.742282  1
  O  O14  1  0.750000  0.992921  0.243477  1
  O  O15  1  0.250000  0.008171  0.757262  1
  O  O16  1  0.250000  0.247410  0.274712  1
  O  O17  1  0.750000  0.752853  0.725092  1
  O  O18  1  0.750000  0.747016  0.225551  1
  O  O19  1  0.250000  0.254212  0.772133  1
  O  O20  1  0.250000  0.352940  0.077042  1
  O  O21  1  0.750000  0.646656  0.922382  1
  O  O22  1  0.750000  0.851412  0.423076  1
  O  O23  1  0.250000  0.145983  0.575923  1
  O  O24  1  0.250000  0.611519  0.502560  1
  O  O25  1  0.750000  0.386924  0.502131  1
  O  O26  1  0.750000  0.113502  0.998540  1
  O  O27  1  0.250000  0.886715  0.001154  1
