# generated using pymatgen
data_PrNd9(RuRh)2
_symmetry_space_group_name_H-M   'P 1'
_cell_length_a   9.02366218
_cell_length_b   9.02421171
_cell_length_c   7.35441555
_cell_angle_alpha   83.63917288
_cell_angle_beta   83.67026651
_cell_angle_gamma   42.87263277
_symmetry_Int_Tables_number   1
_chemical_formula_structural   PrNd9(RuRh)2
_chemical_formula_sum   'Pr1 Nd9 Ru2 Rh2'
_cell_volume   404.57853831
_cell_formula_units_Z   1
loop_
 _symmetry_equiv_pos_site_id
 _symmetry_equiv_pos_as_xyz
  1  'x, y, z'
loop_
 _atom_site_type_symbol
 _atom_site_label
 _atom_site_symmetry_multiplicity
 _atom_site_fract_x
 _atom_site_fract_y
 _atom_site_fract_z
 _atom_site_occupancy
  Pr  Pr0  1  0.010696  0.801243  0.918173  1
  Nd  Nd1  1  0.198540  0.989658  0.582058  1
  Nd  Nd2  1  0.983052  0.202566  0.086508  1
  Nd  Nd3  1  0.797402  0.017097  0.413576  1
  Nd  Nd4  1  0.361306  0.208792  0.814710  1
  Nd  Nd5  1  0.790953  0.638689  0.685127  1
  Nd  Nd6  1  0.645392  0.788739  0.187869  1
  Nd  Nd7  1  0.211291  0.354403  0.312301  1
  Nd  Nd8  1  0.571426  0.428680  0.749877  1
  Nd  Nd9  1  0.426922  0.573118  0.250096  1
  Ru  Ru10  1  0.820417  0.402494  0.426977  1
  Ru  Ru11  1  0.596853  0.180178  0.073235  1
  Rh  Rh12  1  0.180707  0.594783  0.575029  1
  Rh  Rh13  1  0.405043  0.819561  0.924463  1
