# generated using pymatgen
data_Tb5Er3Sc11Si16Hg
_symmetry_space_group_name_H-M   'P 1'
_cell_length_a   7.05401494
_cell_length_b   7.39755475
_cell_length_c   14.03519388
_cell_angle_alpha   90.00362284
_cell_angle_beta   90.05924367
_cell_angle_gamma   89.88483954
_symmetry_Int_Tables_number   1
_chemical_formula_structural   Tb5Er3Sc11Si16Hg
_chemical_formula_sum   'Tb5 Er3 Sc11 Si16 Hg1'
_cell_volume   732.38909613
_cell_formula_units_Z   1
loop_
 _symmetry_equiv_pos_site_id
 _symmetry_equiv_pos_as_xyz
  1  'x, y, z'
loop_
 _atom_site_type_symbol
 _atom_site_label
 _atom_site_symmetry_multiplicity
 _atom_site_fract_x
 _atom_site_fract_y
 _atom_site_fract_z
 _atom_site_occupancy
  Tb  Tb0  1  0.009600  0.173668  0.097509  1
  Tb  Tb1  1  0.990642  0.816841  0.901336  1
  Tb  Tb2  1  0.484828  0.672404  0.901772  1
  Tb  Tb3  1  0.990509  0.816700  0.596976  1
  Tb  Tb4  1  0.510805  0.324723  0.097971  1
  Er  Er5  1  0.010827  0.174666  0.402924  1
  Er  Er6  1  0.510475  0.323902  0.402834  1
  Er  Er7  1  0.484814  0.673188  0.597637  1
  Sc  Sc8  1  0.837985  0.497707  0.250818  1
  Sc  Sc9  1  0.339568  0.003832  0.250871  1
  Sc  Sc10  1  0.657374  0.997819  0.749554  1
  Sc  Sc11  1  0.325759  0.183552  0.625416  1
  Sc  Sc12  1  0.671412  0.823806  0.375709  1
  Sc  Sc13  1  0.169384  0.680630  0.373580  1
  Sc  Sc14  1  0.671087  0.824121  0.125623  1
  Sc  Sc15  1  0.838436  0.325287  0.625000  1
  Sc  Sc16  1  0.324925  0.182951  0.873857  1
  Sc  Sc17  1  0.839082  0.325753  0.873796  1
  Sc  Sc18  1  0.169715  0.680467  0.127615  1
  Si  Si19  1  0.027627  0.095540  0.748927  1
  Si  Si20  1  0.967765  0.887982  0.250849  1
  Si  Si21  1  0.467037  0.618165  0.251007  1
  Si  Si22  1  0.545021  0.378610  0.749341  1
  Si  Si23  1  0.291421  0.887635  0.749030  1
  Si  Si24  1  0.712784  0.128661  0.251743  1
  Si  Si25  1  0.212286  0.373136  0.251567  1
  Si  Si26  1  0.769053  0.630337  0.748736  1
  Si  Si27  1  0.164308  0.458480  0.527617  1
  Si  Si28  1  0.841627  0.533711  0.460682  1
  Si  Si29  1  0.343828  0.966800  0.461949  1
  Si  Si30  1  0.842714  0.536166  0.038613  1
  Si  Si31  1  0.656081  0.033416  0.540223  1
  Si  Si32  1  0.161697  0.458942  0.972345  1
  Si  Si33  1  0.657122  0.033743  0.959720  1
  Si  Si34  1  0.344580  0.965840  0.037905  1
  Hg  Hg35  1  0.157821  0.510816  0.748949  1
