# generated using pymatgen
data_Ta12MnCr3(Os2C)4
_symmetry_space_group_name_H-M   'P 1'
_cell_length_a   8.28822395
_cell_length_b   8.28822366
_cell_length_c   8.28822379
_cell_angle_alpha   59.92256515
_cell_angle_beta   59.92256930
_cell_angle_gamma   59.92256773
_symmetry_Int_Tables_number   1
_chemical_formula_structural   Ta12MnCr3(Os2C)4
_chemical_formula_sum   'Ta12 Mn1 Cr3 Os8 C4'
_cell_volume   401.88882081
_cell_formula_units_Z   1
loop_
 _symmetry_equiv_pos_site_id
 _symmetry_equiv_pos_as_xyz
  1  'x, y, z'
loop_
 _atom_site_type_symbol
 _atom_site_label
 _atom_site_symmetry_multiplicity
 _atom_site_fract_x
 _atom_site_fract_y
 _atom_site_fract_z
 _atom_site_occupancy
  Ta  Ta0  1  0.557698  0.942461  0.557698  1
  Ta  Ta1  1  0.307539  0.692302  0.692302  1
  Ta  Ta2  1  0.693100  0.307228  0.307228  1
  Ta  Ta3  1  0.307228  0.693100  0.307228  1
  Ta  Ta4  1  0.692302  0.692302  0.307539  1
  Ta  Ta5  1  0.307228  0.307228  0.693100  1
  Ta  Ta6  1  0.557698  0.557698  0.942461  1
  Ta  Ta7  1  0.942461  0.557698  0.557698  1
  Ta  Ta8  1  0.556900  0.942772  0.942772  1
  Ta  Ta9  1  0.942772  0.942772  0.556900  1
  Ta  Ta10  1  0.692302  0.307539  0.692302  1
  Ta  Ta11  1  0.942772  0.556900  0.942772  1
  Mn  Mn12  1  0.125000  0.125000  0.125000  1
  Cr  Cr13  1  0.625000  0.125000  0.125000  1
  Cr  Cr14  1  0.125000  0.625000  0.125000  1
  Cr  Cr15  1  0.125000  0.125000  0.625000  1
  Os  Os16  1  0.917489  0.917489  0.917489  1
  Os  Os17  1  0.003239  0.332300  0.332300  1
  Os  Os18  1  0.332300  0.003239  0.332300  1
  Os  Os19  1  0.332300  0.332300  0.003239  1
  Os  Os20  1  0.917700  0.246761  0.917700  1
  Os  Os21  1  0.917700  0.917700  0.246761  1
  Os  Os22  1  0.246761  0.917700  0.917700  1
  Os  Os23  1  0.332511  0.332511  0.332511  1
  C  C24  1  0.625000  0.625000  0.625000  1
  C  C25  1  0.125000  0.625000  0.625000  1
  C  C26  1  0.625000  0.125000  0.625000  1
  C  C27  1  0.625000  0.625000  0.125000  1
