# generated using pymatgen
data_La3Ce(NdSb5)4
_symmetry_space_group_name_H-M   'P 1'
_cell_length_a   4.31727800
_cell_length_b   13.59430826
_cell_length_c   15.26364000
_cell_angle_alpha   77.79425809
_cell_angle_beta   90.00000000
_cell_angle_gamma   90.00000000
_symmetry_Int_Tables_number   1
_chemical_formula_structural   La3Ce(NdSb5)4
_chemical_formula_sum   'La3 Ce1 Nd4 Sb20'
_cell_volume   875.57877997
_cell_formula_units_Z   1
loop_
 _symmetry_equiv_pos_site_id
 _symmetry_equiv_pos_as_xyz
  1  'x, y, z'
loop_
 _atom_site_type_symbol
 _atom_site_label
 _atom_site_symmetry_multiplicity
 _atom_site_fract_x
 _atom_site_fract_y
 _atom_site_fract_z
 _atom_site_occupancy
  La  La0  1  0.750000  0.333738  0.143973  1
  La  La1  1  0.250000  0.947866  0.365297  1
  La  La2  1  0.750000  0.050199  0.635099  1
  Ce  Ce3  1  0.750000  0.605313  0.228065  1
  Nd  Nd4  1  0.250000  0.666210  0.856049  1
  Nd  Nd5  1  0.250000  0.666146  0.577268  1
  Nd  Nd6  1  0.750000  0.332852  0.423794  1
  Nd  Nd7  1  0.250000  0.396760  0.771737  1
  Sb  Sb8  1  0.750000  0.851486  0.817679  1
  Sb  Sb9  1  0.250000  0.859020  0.675258  1
  Sb  Sb10  1  0.250000  0.147189  0.475052  1
  Sb  Sb11  1  0.750000  0.287492  0.937145  1
  Sb  Sb12  1  0.250000  0.144657  0.777393  1
  Sb  Sb13  1  0.750000  0.574445  0.443490  1
  Sb  Sb14  1  0.750000  0.138752  0.325923  1
  Sb  Sb15  1  0.250000  0.703891  0.351683  1
  Sb  Sb16  1  0.750000  0.295397  0.646645  1
  Sb  Sb17  1  0.750000  0.853954  0.221731  1
  Sb  Sb18  1  0.250000  0.421887  0.974470  1
  Sb  Sb19  1  0.250000  0.424995  0.555130  1
  Sb  Sb20  1  0.750000  0.578183  0.735634  1
  Sb  Sb21  1  0.250000  0.428268  0.265848  1
  Sb  Sb22  1  0.750000  0.851516  0.524874  1
  Sb  Sb23  1  0.750000  0.032609  0.885750  1
  Sb  Sb24  1  0.250000  0.714505  0.064235  1
  Sb  Sb25  1  0.250000  0.966509  0.112800  1
  Sb  Sb26  1  0.250000  0.145019  0.183203  1
  Sb  Sb27  1  0.750000  0.581137  0.024771  1
