# generated using pymatgen
data_HfCo4Si3Mo
_symmetry_space_group_name_H-M   'P 1'
_cell_length_a   3.64426200
_cell_length_b   10.54393100
_cell_length_c   12.10363500
_cell_angle_alpha   90.00000000
_cell_angle_beta   90.00000000
_cell_angle_gamma   90.00000000
_symmetry_Int_Tables_number   1
_chemical_formula_structural   HfCo4Si3Mo
_chemical_formula_sum   'Hf4 Co16 Si12 Mo4'
_cell_volume   465.08032391
_cell_formula_units_Z   4
loop_
 _symmetry_equiv_pos_site_id
 _symmetry_equiv_pos_as_xyz
  1  'x, y, z'
loop_
 _atom_site_type_symbol
 _atom_site_label
 _atom_site_symmetry_multiplicity
 _atom_site_fract_x
 _atom_site_fract_y
 _atom_site_fract_z
 _atom_site_occupancy
  Hf  Hf0  1  0.250000  0.577723  0.704600  1
  Hf  Hf1  1  0.250000  0.922277  0.204600  1
  Hf  Hf2  1  0.750000  0.422277  0.295400  1
  Hf  Hf3  1  0.750000  0.077723  0.795400  1
  Co  Co4  1  0.250000  0.406641  0.486250  1
  Co  Co5  1  0.250000  0.093359  0.986250  1
  Co  Co6  1  0.750000  0.593359  0.513750  1
  Co  Co7  1  0.750000  0.906641  0.013750  1
  Co  Co8  1  0.250000  0.216602  0.174012  1
  Co  Co9  1  0.250000  0.283399  0.674012  1
  Co  Co10  1  0.750000  0.783399  0.825988  1
  Co  Co11  1  0.750000  0.716601  0.325988  1
  Co  Co12  1  0.250000  0.884327  0.700551  1
  Co  Co13  1  0.250000  0.615673  0.200551  1
  Co  Co14  1  0.750000  0.115673  0.299449  1
  Co  Co15  1  0.750000  0.384327  0.799449  1
  Co  Co16  1  0.250000  0.464878  0.932082  1
  Co  Co17  1  0.250000  0.035122  0.432082  1
  Co  Co18  1  0.750000  0.535122  0.067918  1
  Co  Co19  1  0.750000  0.964878  0.567918  1
  Si  Si20  1  0.250000  0.420640  0.119137  1
  Si  Si21  1  0.250000  0.079360  0.619137  1
  Si  Si22  1  0.750000  0.579360  0.880863  1
  Si  Si23  1  0.750000  0.920640  0.380863  1
  Si  Si24  1  0.250000  0.263419  0.860070  1
  Si  Si25  1  0.250000  0.236581  0.360070  1
  Si  Si26  1  0.750000  0.736581  0.139930  1
  Si  Si27  1  0.750000  0.763419  0.639930  1
  Si  Si28  1  0.250000  0.592992  0.389732  1
  Si  Si29  1  0.250000  0.907008  0.889732  1
  Si  Si30  1  0.750000  0.407008  0.610268  1
  Si  Si31  1  0.750000  0.092992  0.110268  1
  Mo  Mo32  1  0.250000  0.701671  0.992482  1
  Mo  Mo33  1  0.250000  0.798329  0.492482  1
  Mo  Mo34  1  0.750000  0.298329  0.007518  1
  Mo  Mo35  1  0.750000  0.201671  0.507518  1
