# generated using pymatgen
data_K6ReTc2H27
_symmetry_space_group_name_H-M   'P 1'
_cell_length_a   9.61405200
_cell_length_b   9.61405140
_cell_length_c   5.60950100
_cell_angle_alpha   90.00000000
_cell_angle_beta   90.00000000
_cell_angle_gamma   120.00000893
_symmetry_Int_Tables_number   1
_chemical_formula_structural   K6ReTc2H27
_chemical_formula_sum   'K6 Re1 Tc2 H27'
_cell_volume   449.02211281
_cell_formula_units_Z   1
loop_
 _symmetry_equiv_pos_site_id
 _symmetry_equiv_pos_as_xyz
  1  'x, y, z'
loop_
 _atom_site_type_symbol
 _atom_site_label
 _atom_site_symmetry_multiplicity
 _atom_site_fract_x
 _atom_site_fract_y
 _atom_site_fract_z
 _atom_site_occupancy
  K  K0  1  0.999511  0.262295  0.500000  1
  K  K1  1  0.737705  0.737216  0.500000  1
  K  K2  1  0.262784  0.000489  0.500000  1
  K  K3  1  0.000049  0.590206  0.000000  1
  K  K4  1  0.409794  0.409843  0.000000  1
  K  K5  1  0.590157  0.999951  0.000000  1
  Re  Re6  1  0.333333  0.666667  0.500000  1
  Tc  Tc7  1  0.666667  0.333333  0.500000  1
  Tc  Tc8  1  0.000000  0.000000  0.000000  1
  H  H9  1  0.774749  0.307920  0.717476  1
  H  H10  1  0.692080  0.466828  0.717476  1
  H  H11  1  0.533172  0.225251  0.717476  1
  H  H12  1  0.223985  0.531825  0.279781  1
  H  H13  1  0.533172  0.225251  0.282524  1
  H  H14  1  0.774749  0.307920  0.282524  1
  H  H15  1  0.692080  0.466828  0.282524  1
  H  H16  1  0.307839  0.776015  0.720219  1
  H  H17  1  0.468175  0.692161  0.720219  1
  H  H18  1  0.173611  0.000014  0.000000  1
  H  H19  1  0.826403  0.826389  0.000000  1
  H  H20  1  0.999986  0.173597  0.000000  1
  H  H21  1  0.873746  0.999985  0.210343  1
  H  H22  1  0.126238  0.126254  0.789657  1
  H  H23  1  0.000015  0.873762  0.789657  1
  H  H24  1  0.000015  0.873762  0.210343  1
  H  H25  1  0.126238  0.126254  0.210343  1
  H  H26  1  0.873746  0.999985  0.789657  1
  H  H27  1  0.142819  0.631377  0.500000  1
  H  H28  1  0.488558  0.857181  0.500000  1
  H  H29  1  0.368623  0.511442  0.500000  1
  H  H30  1  0.513175  0.368139  0.500000  1
  H  H31  1  0.854964  0.486825  0.500000  1
  H  H32  1  0.631861  0.145036  0.500000  1
  H  H33  1  0.223985  0.531825  0.720219  1
  H  H34  1  0.307839  0.776015  0.279781  1
  H  H35  1  0.468175  0.692161  0.279781  1
