# generated using pymatgen
data_La2PIrBr2
_symmetry_space_group_name_H-M   'P 1'
_cell_length_a   4.27738800
_cell_length_b   4.27738879
_cell_length_c   11.11696800
_cell_angle_alpha   90.00000000
_cell_angle_beta   90.00000000
_cell_angle_gamma   120.00000939
_symmetry_Int_Tables_number   1
_chemical_formula_structural   La2PIrBr2
_chemical_formula_sum   'La2 P1 Ir1 Br2'
_cell_volume   176.14662213
_cell_formula_units_Z   1
loop_
 _symmetry_equiv_pos_site_id
 _symmetry_equiv_pos_as_xyz
  1  'x, y, z'
loop_
 _atom_site_type_symbol
 _atom_site_label
 _atom_site_symmetry_multiplicity
 _atom_site_fract_x
 _atom_site_fract_y
 _atom_site_fract_z
 _atom_site_occupancy
  La  La0  1  0.000000  0.000000  0.167985  1
  La  La1  1  0.000000  0.000000  0.832920  1
  P  P2  1  0.666667  0.333333  0.011515  1
  Ir  Ir3  1  0.333333  0.666667  0.991212  1
  Br  Br4  1  0.666667  0.333333  0.657521  1
  Br  Br5  1  0.333333  0.666667  0.338847  1
