# generated using pymatgen
data_YLu3Al17SiIr6
_symmetry_space_group_name_H-M   'P 1'
_cell_length_a   7.52657341
_cell_length_b   7.53112182
_cell_length_c   9.36934800
_cell_angle_alpha   90.00000000
_cell_angle_beta   90.00000000
_cell_angle_gamma   119.67496651
_symmetry_Int_Tables_number   1
_chemical_formula_structural   YLu3Al17SiIr6
_chemical_formula_sum   'Y1 Lu3 Al17 Si1 Ir6'
_cell_volume   461.43454328
_cell_formula_units_Z   1
loop_
 _symmetry_equiv_pos_site_id
 _symmetry_equiv_pos_as_xyz
  1  'x, y, z'
loop_
 _atom_site_type_symbol
 _atom_site_label
 _atom_site_symmetry_multiplicity
 _atom_site_fract_x
 _atom_site_fract_y
 _atom_site_fract_z
 _atom_site_occupancy
  Y  Y0  1  0.003830  0.329998  0.750000  1
  Lu  Lu1  1  0.994841  0.676475  0.250000  1
  Lu  Lu2  1  0.676309  0.994503  0.250000  1
  Lu  Lu3  1  0.330097  0.003609  0.750000  1
  Al  Al4  1  0.874807  0.873869  0.750000  1
  Al  Al5  1  0.000024  0.336949  0.079376  1
  Al  Al6  1  0.999195  0.666545  0.925876  1
  Al  Al7  1  0.999195  0.666545  0.574124  1
  Al  Al8  1  0.336825  0.999910  0.422104  1
  Al  Al9  1  0.000024  0.336949  0.420624  1
  Al  Al10  1  0.664523  0.998319  0.574287  1
  Al  Al11  1  0.664523  0.998319  0.925713  1
  Al  Al12  1  0.336825  0.999910  0.077896  1
  Al  Al13  1  0.332764  0.331929  0.556854  1
  Al  Al14  1  0.664145  0.664084  0.445399  1
  Al  Al15  1  0.664145  0.664084  0.054601  1
  Al  Al16  1  0.332764  0.331929  0.943146  1
  Al  Al17  1  0.337046  0.550564  0.250000  1
  Al  Al18  1  0.660108  0.451334  0.750000  1
  Al  Al19  1  0.550104  0.336445  0.250000  1
  Al  Al20  1  0.452536  0.662246  0.750000  1
  Si  Si21  1  0.130488  0.130001  0.250000  1
  Ir  Ir22  1  0.670267  0.326560  0.000618  1
  Ir  Ir23  1  0.326747  0.670837  0.000607  1
  Ir  Ir24  1  0.326747  0.670837  0.499393  1
  Ir  Ir25  1  0.670267  0.326560  0.499382  1
  Ir  Ir26  1  0.000429  0.000346  0.007471  1
  Ir  Ir27  1  0.000429  0.000346  0.492529  1
