# generated using pymatgen
data_Ta2Mo2Pb4O13
_symmetry_space_group_name_H-M   'P 1'
_cell_length_a   7.56800834
_cell_length_b   7.56800856
_cell_length_c   7.56800975
_cell_angle_alpha   119.35559702
_cell_angle_beta   120.59467104
_cell_angle_gamma   90.04642131
_symmetry_Int_Tables_number   1
_chemical_formula_structural   Ta2Mo2Pb4O13
_chemical_formula_sum   'Ta2 Mo2 Pb4 O13'
_cell_volume   306.56991335
_cell_formula_units_Z   1
loop_
 _symmetry_equiv_pos_site_id
 _symmetry_equiv_pos_as_xyz
  1  'x, y, z'
loop_
 _atom_site_type_symbol
 _atom_site_label
 _atom_site_symmetry_multiplicity
 _atom_site_fract_x
 _atom_site_fract_y
 _atom_site_fract_z
 _atom_site_occupancy
  Ta  Ta0  1  0.749413  0.999380  0.249966  1
  Ta  Ta1  1  0.749413  0.499448  0.750034  1
  Mo  Mo2  1  0.250747  0.499932  0.750815  1
  Mo  Mo3  1  0.749115  0.499932  0.249185  1
  Pb  Pb4  1  0.753327  0.999042  0.754285  1
  Pb  Pb5  1  0.244757  0.999042  0.245715  1
  Pb  Pb6  1  0.249645  0.501353  0.251707  1
  Pb  Pb7  1  0.249645  0.997940  0.748293  1
  O  O8  1  0.077375  0.577375  0.500000  1
  O  O9  1  0.689693  0.189693  0.500000  1
  O  O10  1  0.068728  0.170993  0.489521  1
  O  O11  1  0.681472  0.579206  0.510479  1
  O  O12  1  0.681472  0.170993  0.102264  1
  O  O13  1  0.068728  0.579206  0.897736  1
  O  O14  1  0.424946  0.424946  0.000000  1
  O  O15  1  0.810191  0.810191  0.000000  1
  O  O16  1  0.434978  0.824577  0.010174  1
  O  O17  1  0.814403  0.424804  0.989826  1
  O  O18  1  0.814403  0.824577  0.389599  1
  O  O19  1  0.434978  0.424804  0.610401  1
  O  O20  1  0.377567  0.877567  0.500000  1
