# generated using pymatgen
data_Hf6Fe5Si12Ir
_symmetry_space_group_name_H-M   'P 1'
_cell_length_a   9.70998282
_cell_length_b   9.69828052
_cell_length_c   9.69696426
_cell_angle_alpha   148.91035942
_cell_angle_beta   133.00061666
_cell_angle_gamma   57.48146901
_symmetry_Int_Tables_number   1
_chemical_formula_structural   Hf6Fe5Si12Ir
_chemical_formula_sum   'Hf6 Fe5 Si12 Ir1'
_cell_volume   342.23711397
_cell_formula_units_Z   1
loop_
 _symmetry_equiv_pos_site_id
 _symmetry_equiv_pos_as_xyz
  1  'x, y, z'
loop_
 _atom_site_type_symbol
 _atom_site_label
 _atom_site_symmetry_multiplicity
 _atom_site_fract_x
 _atom_site_fract_y
 _atom_site_fract_z
 _atom_site_occupancy
  Hf  Hf0  1  0.855217  0.594228  0.259013  1
  Hf  Hf1  1  0.144783  0.405772  0.740987  1
  Hf  Hf2  1  0.665822  0.405771  0.261182  1
  Hf  Hf3  1  0.334178  0.594229  0.738818  1
  Hf  Hf4  1  0.139604  0.140828  0.998374  1
  Hf  Hf5  1  0.860396  0.859172  0.001626  1
  Fe  Fe6  1  0.746755  0.000445  0.745145  1
  Fe  Fe7  1  0.000000  0.000000  0.500000  1
  Fe  Fe8  1  0.500000  0.500000  0.500000  1
  Fe  Fe9  1  0.253245  0.999555  0.254855  1
  Fe  Fe10  1  0.000000  0.500000  0.000000  1
  Si  Si11  1  0.485554  0.146296  0.361652  1
  Si  Si12  1  0.514446  0.853704  0.638348  1
  Si  Si13  1  0.209074  0.862958  0.351796  1
  Si  Si14  1  0.790926  0.137042  0.648204  1
  Si  Si15  1  0.706705  0.682454  0.986205  1
  Si  Si16  1  0.293295  0.317546  0.013795  1
  Si  Si17  1  0.500712  0.742844  0.241608  1
  Si  Si18  1  0.499288  0.257156  0.758392  1
  Si  Si19  1  0.000127  0.254352  0.254546  1
  Si  Si20  1  0.206161  0.701034  0.482862  1
  Si  Si21  1  0.999873  0.745648  0.745454  1
  Si  Si22  1  0.793839  0.298966  0.517138  1
  Ir  Ir23  1  0.500000  0.000000  0.000000  1
