# generated using pymatgen
data_AcCuPF
_symmetry_space_group_name_H-M   'P 1'
_cell_length_a   4.05559400
_cell_length_b   4.05559400
_cell_length_c   8.75230400
_cell_angle_alpha   90.00000000
_cell_angle_beta   90.00000000
_cell_angle_gamma   90.00024017
_symmetry_Int_Tables_number   1
_chemical_formula_structural   AcCuPF
_chemical_formula_sum   'Ac2 Cu2 P2 F2'
_cell_volume   143.95651939
_cell_formula_units_Z   2
loop_
 _symmetry_equiv_pos_site_id
 _symmetry_equiv_pos_as_xyz
  1  'x, y, z'
loop_
 _atom_site_type_symbol
 _atom_site_label
 _atom_site_symmetry_multiplicity
 _atom_site_fract_x
 _atom_site_fract_y
 _atom_site_fract_z
 _atom_site_occupancy
  Ac  Ac0  1  0.250000  0.250000  0.197448  1
  Ac  Ac1  1  0.749998  0.749998  0.802553  1
  Cu  Cu2  1  0.749999  0.249999  0.500001  1
  Cu  Cu3  1  0.249999  0.749999  0.500001  1
  P  P4  1  0.749998  0.749998  0.342862  1
  P  P5  1  0.250000  0.250000  0.657136  1
  F  F6  1  0.749999  0.249999  0.000000  1
  F  F7  1  0.249999  0.749999  0.000000  1
