# generated using pymatgen
data_LiTm2Lu(Co4P3)2
_symmetry_space_group_name_H-M   'P 1'
_cell_length_a   3.69173300
_cell_length_b   10.53806700
_cell_length_c   12.11589400
_cell_angle_alpha   90.00000000
_cell_angle_beta   90.00000000
_cell_angle_gamma   90.00000000
_symmetry_Int_Tables_number   1
_chemical_formula_structural   LiTm2Lu(Co4P3)2
_chemical_formula_sum   'Li2 Tm4 Lu2 Co16 P12'
_cell_volume   471.35346525
_cell_formula_units_Z   2
loop_
 _symmetry_equiv_pos_site_id
 _symmetry_equiv_pos_as_xyz
  1  'x, y, z'
loop_
 _atom_site_type_symbol
 _atom_site_label
 _atom_site_symmetry_multiplicity
 _atom_site_fract_x
 _atom_site_fract_y
 _atom_site_fract_z
 _atom_site_occupancy
  Li  Li0  1  0.500000  0.500000  0.153938  1
  Li  Li1  1  0.000000  0.000000  0.846051  1
  Tm  Tm2  1  0.000000  0.500000  0.523902  1
  Tm  Tm3  1  0.500000  0.000000  0.476199  1
  Tm  Tm4  1  0.500000  0.820611  0.205997  1
  Tm  Tm5  1  0.500000  0.179389  0.205997  1
  Lu  Lu6  1  0.000000  0.679342  0.793982  1
  Lu  Lu7  1  0.000000  0.320658  0.793982  1
  Co  Co8  1  0.500000  0.500000  0.704426  1
  Co  Co9  1  0.000000  0.000000  0.295950  1
  Co  Co10  1  0.000000  0.500000  0.987281  1
  Co  Co11  1  0.500000  0.000000  0.012383  1
  Co  Co12  1  0.500000  0.332800  0.996869  1
  Co  Co13  1  0.500000  0.667200  0.996869  1
  Co  Co14  1  0.000000  0.167405  0.002775  1
  Co  Co15  1  0.000000  0.832595  0.002775  1
  Co  Co16  1  0.500000  0.296660  0.431452  1
  Co  Co17  1  0.500000  0.703340  0.431452  1
  Co  Co18  1  0.000000  0.203396  0.568758  1
  Co  Co19  1  0.000000  0.796604  0.568758  1
  Co  Co20  1  0.500000  0.877583  0.706263  1
  Co  Co21  1  0.500000  0.122417  0.706263  1
  Co  Co22  1  0.000000  0.622121  0.293894  1
  Co  Co23  1  0.000000  0.377879  0.293894  1
  P  P24  1  0.500000  0.500000  0.884183  1
  P  P25  1  0.000000  0.000000  0.115379  1
  P  P26  1  0.500000  0.500000  0.347721  1
  P  P27  1  0.000000  0.000000  0.652260  1
  P  P28  1  0.500000  0.311388  0.616925  1
  P  P29  1  0.500000  0.688612  0.616925  1
  P  P30  1  0.000000  0.188748  0.383506  1
  P  P31  1  0.000000  0.811252  0.383506  1
  P  P32  1  0.500000  0.842235  0.891645  1
  P  P33  1  0.500000  0.157765  0.891645  1
  P  P34  1  0.000000  0.657390  0.108096  1
  P  P35  1  0.000000  0.342610  0.108096  1
