# generated using pymatgen
data_Sm5Ir3PbO18
_symmetry_space_group_name_H-M   'P 1'
_cell_length_a   9.27072900
_cell_length_b   9.30206051
_cell_length_c   5.28485600
_cell_angle_alpha   90.00000000
_cell_angle_beta   90.15966796
_cell_angle_gamma   120.11186651
_symmetry_Int_Tables_number   1
_chemical_formula_structural   Sm5Ir3PbO18
_chemical_formula_sum   'Sm5 Ir3 Pb1 O18'
_cell_volume   394.24293888
_cell_formula_units_Z   1
loop_
 _symmetry_equiv_pos_site_id
 _symmetry_equiv_pos_as_xyz
  1  'x, y, z'
loop_
 _atom_site_type_symbol
 _atom_site_label
 _atom_site_symmetry_multiplicity
 _atom_site_fract_x
 _atom_site_fract_y
 _atom_site_fract_z
 _atom_site_occupancy
  Sm  Sm0  1  0.288517  0.284287  0.999905  1
  Sm  Sm1  1  0.999942  0.722796  0.000009  1
  Sm  Sm2  1  0.619073  0.619047  0.498920  1
  Sm  Sm3  1  0.380942  0.999927  0.501126  1
  Sm  Sm4  1  0.711524  0.995798  0.000145  1
  Ir  Ir5  1  0.000010  0.002159  0.499991  1
  Ir  Ir6  1  0.330089  0.664363  0.008689  1
  Ir  Ir7  1  0.669891  0.334266  0.991339  1
  Pb  Pb8  1  0.999992  0.376993  0.500030  1
  O  O9  1  0.078086  0.196935  0.710910  1
  O  O10  1  0.232736  0.467573  0.225609  1
  O  O11  1  0.131516  0.586917  0.799914  1
  O  O12  1  0.413888  0.549459  0.799153  1
  O  O13  1  0.237851  0.771619  0.219048  1
  O  O14  1  0.123562  0.922663  0.704460  1
  O  O15  1  0.529502  0.763962  0.227143  1
  O  O16  1  0.197020  0.076656  0.288094  1
  O  O17  1  0.449859  0.861315  0.792871  1
  O  O18  1  0.803044  0.879729  0.711892  1
  O  O19  1  0.470509  0.234430  0.772845  1
  O  O20  1  0.586043  0.135541  0.200760  1
  O  O21  1  0.550196  0.411523  0.207144  1
  O  O22  1  0.767282  0.234853  0.774418  1
  O  O23  1  0.922032  0.118919  0.289046  1
  O  O24  1  0.762046  0.533762  0.781013  1
  O  O25  1  0.868456  0.455342  0.200043  1
  O  O26  1  0.876390  0.799171  0.295481  1
