# generated using pymatgen
data_La3Pr2ThUO12
_symmetry_space_group_name_H-M   'P 1'
_cell_length_a   6.87989775
_cell_length_b   6.92319365
_cell_length_c   6.88389873
_cell_angle_alpha   99.28655166
_cell_angle_beta   98.64429160
_cell_angle_gamma   98.86894028
_symmetry_Int_Tables_number   1
_chemical_formula_structural   La3Pr2ThUO12
_chemical_formula_sum   'La3 Pr2 Th1 U1 O12'
_cell_volume   314.51782694
_cell_formula_units_Z   1
loop_
 _symmetry_equiv_pos_site_id
 _symmetry_equiv_pos_as_xyz
  1  'x, y, z'
loop_
 _atom_site_type_symbol
 _atom_site_label
 _atom_site_symmetry_multiplicity
 _atom_site_fract_x
 _atom_site_fract_y
 _atom_site_fract_z
 _atom_site_occupancy
  La  La0  1  0.693914  0.392637  0.857043  1
  La  La1  1  0.856771  0.694178  0.396112  1
  La  La2  1  0.141925  0.303912  0.604433  1
  Pr  Pr3  1  0.608611  0.143119  0.306970  1
  Pr  Pr4  1  0.392326  0.862199  0.693073  1
  Th  Th5  1  0.305907  0.607062  0.140341  1
  U  U6  1  0.000758  0.999403  0.001691  1
  O  O7  1  0.438360  0.178953  0.590418  1
  O  O8  1  0.939454  0.693767  0.052789  1
  O  O9  1  0.182416  0.589483  0.428193  1
  O  O10  1  0.823623  0.410845  0.561591  1
  O  O11  1  0.555311  0.818731  0.399527  1
  O  O12  1  0.574854  0.437456  0.176576  1
  O  O13  1  0.405707  0.569233  0.831829  1
  O  O14  1  0.947677  0.067634  0.303408  1
  O  O15  1  0.052496  0.931643  0.697424  1
  O  O16  1  0.697587  0.048238  0.929568  1
  O  O17  1  0.077366  0.308125  0.958981  1
  O  O18  1  0.304938  0.943385  0.070032  1
