# generated using pymatgen
data_ThSiN
_symmetry_space_group_name_H-M   'P 1'
_cell_length_a   3.97459200
_cell_length_b   3.97338375
_cell_length_c   9.01425723
_cell_angle_alpha   102.64975298
_cell_angle_beta   89.99994234
_cell_angle_gamma   120.01015755
_symmetry_Int_Tables_number   1
_chemical_formula_structural   ThSiN
_chemical_formula_sum   'Th2 Si2 N2'
_cell_volume   119.26622537
_cell_formula_units_Z   2
loop_
 _symmetry_equiv_pos_site_id
 _symmetry_equiv_pos_as_xyz
  1  'x, y, z'
loop_
 _atom_site_type_symbol
 _atom_site_label
 _atom_site_symmetry_multiplicity
 _atom_site_fract_x
 _atom_site_fract_y
 _atom_site_fract_z
 _atom_site_occupancy
  Th  Th0  1  0.222559  0.445117  0.170160  1
  Th  Th1  1  0.777445  0.554889  0.829844  1
  Si  Si2  1  0.648365  0.296729  0.445145  1
  Si  Si3  1  0.351631  0.703260  0.554847  1
  N  N4  1  0.868634  0.737267  0.108138  1
  N  N5  1  0.131370  0.262739  0.891866  1
