# generated using pymatgen
data_Tb2Ho2Pd3RuO14
_symmetry_space_group_name_H-M   'P 1'
_cell_length_a   7.27761785
_cell_length_b   7.27351876
_cell_length_c   7.27761803
_cell_angle_alpha   59.53061621
_cell_angle_beta   59.54010065
_cell_angle_gamma   59.53060756
_symmetry_Int_Tables_number   1
_chemical_formula_structural   Tb2Ho2Pd3RuO14
_chemical_formula_sum   'Tb2 Ho2 Pd3 Ru1 O14'
_cell_volume   269.51287269
_cell_formula_units_Z   1
loop_
 _symmetry_equiv_pos_site_id
 _symmetry_equiv_pos_as_xyz
  1  'x, y, z'
loop_
 _atom_site_type_symbol
 _atom_site_label
 _atom_site_symmetry_multiplicity
 _atom_site_fract_x
 _atom_site_fract_y
 _atom_site_fract_z
 _atom_site_occupancy
  Tb  Tb0  1  0.625000  0.625000  0.125000  1
  Tb  Tb1  1  0.125000  0.625000  0.625000  1
  Ho  Ho2  1  0.625000  0.125000  0.625000  1
  Ho  Ho3  1  0.625000  0.625000  0.625000  1
  Pd  Pd4  1  0.125000  0.125000  0.625000  1
  Pd  Pd5  1  0.125000  0.625000  0.125000  1
  Pd  Pd6  1  0.625000  0.125000  0.125000  1
  Ru  Ru7  1  0.125000  0.125000  0.125000  1
  O  O8  1  0.467220  0.035328  0.467220  1
  O  O9  1  0.215585  0.783058  0.782977  1
  O  O10  1  0.791350  0.210428  0.212327  1
  O  O11  1  0.211178  0.791588  0.211178  1
  O  O12  1  0.782977  0.783058  0.215585  1
  O  O13  1  0.212327  0.210428  0.791350  1
  O  O14  1  0.467023  0.466942  0.034415  1
  O  O15  1  0.034415  0.466942  0.467023  1
  O  O16  1  0.458650  0.039572  0.037673  1
  O  O17  1  0.037673  0.039572  0.458650  1
  O  O18  1  0.782780  0.214672  0.782780  1
  O  O19  1  0.038822  0.458412  0.038822  1
  O  O20  1  0.501951  0.497845  0.501951  1
  O  O21  1  0.748049  0.752155  0.748049  1
