# generated using pymatgen
data_Pr12C6Br17
_symmetry_space_group_name_H-M   'P 1'
_cell_length_a   11.48581230
_cell_length_b   11.48581176
_cell_length_c   18.70919800
_cell_angle_alpha   89.30446081
_cell_angle_beta   89.30446085
_cell_angle_gamma   64.09249822
_symmetry_Int_Tables_number   1
_chemical_formula_structural   Pr12C6Br17
_chemical_formula_sum   'Pr24 C12 Br34'
_cell_volume   2219.91060504
_cell_formula_units_Z   2
loop_
 _symmetry_equiv_pos_site_id
 _symmetry_equiv_pos_as_xyz
  1  'x, y, z'
loop_
 _atom_site_type_symbol
 _atom_site_label
 _atom_site_symmetry_multiplicity
 _atom_site_fract_x
 _atom_site_fract_y
 _atom_site_fract_z
 _atom_site_occupancy
  Pr  Pr0  1  0.338821  0.814017  0.290247  1
  Pr  Pr1  1  0.351327  0.355127  0.052607  1
  Pr  Pr2  1  0.355127  0.351327  0.552607  1
  Pr  Pr3  1  0.468408  0.443720  0.368360  1
  Pr  Pr4  1  0.569168  0.093702  0.883647  1
  Pr  Pr5  1  0.556280  0.531592  0.131640  1
  Pr  Pr6  1  0.708417  0.282986  0.980104  1
  Pr  Pr7  1  0.531592  0.556280  0.631640  1
  Pr  Pr8  1  0.661179  0.185983  0.709753  1
  Pr  Pr9  1  0.648673  0.644873  0.947393  1
  Pr  Pr10  1  0.067070  0.033176  0.150037  1
  Pr  Pr11  1  0.291583  0.717014  0.019896  1
  Pr  Pr12  1  0.906298  0.430832  0.616353  1
  Pr  Pr13  1  0.033176  0.067070  0.650037  1
  Pr  Pr14  1  0.430832  0.906298  0.116353  1
  Pr  Pr15  1  0.443720  0.468408  0.868360  1
  Pr  Pr16  1  0.644873  0.648673  0.447393  1
  Pr  Pr17  1  0.093702  0.569168  0.383647  1
  Pr  Pr18  1  0.932930  0.966824  0.849963  1
  Pr  Pr19  1  0.282986  0.708417  0.480104  1
  Pr  Pr20  1  0.814017  0.338821  0.790247  1
  Pr  Pr21  1  0.966824  0.932930  0.349963  1
  Pr  Pr22  1  0.717014  0.291583  0.519896  1
  Pr  Pr23  1  0.185983  0.661179  0.209753  1
  C  C24  1  0.276185  0.631471  0.348473  1
  C  C25  1  0.723815  0.368529  0.651527  1
  C  C26  1  0.368529  0.723815  0.151527  1
  C  C27  1  0.533654  0.533948  0.987665  1
  C  C28  1  0.746315  0.160941  0.847623  1
  C  C29  1  0.466346  0.466052  0.012335  1
  C  C30  1  0.253685  0.839059  0.152377  1
  C  C31  1  0.466052  0.466346  0.512335  1
  C  C32  1  0.839059  0.253685  0.652377  1
  C  C33  1  0.160941  0.746315  0.347623  1
  C  C34  1  0.631471  0.276185  0.848473  1
  C  C35  1  0.533948  0.533654  0.487665  1
  Br  Br36  1  0.308728  0.295829  0.402964  1
  Br  Br37  1  0.601137  0.110863  0.561417  1
  Br  Br38  1  0.495001  0.963804  0.253907  1
  Br  Br39  1  0.912270  0.892392  0.199177  1
  Br  Br40  1  0.704171  0.691272  0.097036  1
  Br  Br41  1  0.280261  0.804218  0.634988  1
  Br  Br42  1  0.107608  0.087730  0.300823  1
  Br  Br43  1  0.214636  0.176456  0.101214  1
  Br  Br44  1  0.889137  0.398863  0.938583  1
  Br  Br45  1  0.099013  0.593215  0.545621  1
  Br  Br46  1  0.593215  0.099013  0.045621  1
  Br  Br47  1  0.785364  0.823544  0.898786  1
  Br  Br48  1  0.622058  0.578278  0.295021  1
  Br  Br49  1  0.892392  0.912270  0.699177  1
  Br  Br50  1  0.036196  0.504999  0.246093  1
  Br  Br51  1  0.176456  0.214636  0.601214  1
  Br  Br52  1  0.719739  0.195782  0.365012  1
  Br  Br53  1  0.087730  0.107608  0.800823  1
  Br  Br54  1  0.578278  0.622058  0.795021  1
  Br  Br55  1  0.000000  0.000000  0.000000  1
  Br  Br56  1  0.398863  0.889137  0.438583  1
  Br  Br57  1  0.421722  0.377942  0.204979  1
  Br  Br58  1  0.295829  0.308728  0.902964  1
  Br  Br59  1  0.377942  0.421722  0.704979  1
  Br  Br60  1  0.823544  0.785364  0.398786  1
  Br  Br61  1  0.504999  0.036196  0.746093  1
  Br  Br62  1  0.691272  0.704171  0.597036  1
  Br  Br63  1  0.195782  0.719739  0.865012  1
  Br  Br64  1  0.406785  0.900987  0.954379  1
  Br  Br65  1  0.900987  0.406785  0.454379  1
  Br  Br66  1  0.110863  0.601137  0.061417  1
  Br  Br67  1  0.963804  0.495001  0.753907  1
  Br  Br68  1  0.804218  0.280261  0.134988  1
  Br  Br69  1  0.000000  0.000000  0.500000  1
