# generated using pymatgen
data_Hf4Ti3Re3Mo2
_symmetry_space_group_name_H-M   'P 1'
_cell_length_a   5.29905900
_cell_length_b   5.33579319
_cell_length_c   8.74691300
_cell_angle_alpha   90.00000000
_cell_angle_beta   90.00000000
_cell_angle_gamma   119.77250461
_symmetry_Int_Tables_number   1
_chemical_formula_structural   Hf4Ti3Re3Mo2
_chemical_formula_sum   'Hf4 Ti3 Re3 Mo2'
_cell_volume   214.67140505
_cell_formula_units_Z   1
loop_
 _symmetry_equiv_pos_site_id
 _symmetry_equiv_pos_as_xyz
  1  'x, y, z'
loop_
 _atom_site_type_symbol
 _atom_site_label
 _atom_site_symmetry_multiplicity
 _atom_site_fract_x
 _atom_site_fract_y
 _atom_site_fract_z
 _atom_site_occupancy
  Hf  Hf0  1  0.332009  0.664019  0.061315  1
  Hf  Hf1  1  0.665201  0.330400  0.563946  1
  Hf  Hf2  1  0.665201  0.330400  0.936054  1
  Hf  Hf3  1  0.332009  0.664019  0.438685  1
  Ti  Ti4  1  0.002130  0.004259  0.001353  1
  Ti  Ti5  1  0.002130  0.004259  0.498647  1
  Ti  Ti6  1  0.830462  0.660924  0.250000  1
  Re  Re7  1  0.341224  0.169476  0.250000  1
  Re  Re8  1  0.828251  0.169476  0.250000  1
  Re  Re9  1  0.170113  0.340224  0.750000  1
  Mo  Mo10  1  0.169885  0.831271  0.750000  1
  Mo  Mo11  1  0.661387  0.831271  0.750000  1
