# generated using pymatgen
data_SrCe5(TaSb5)2
_symmetry_space_group_name_H-M   'P 1'
_cell_length_a   9.51933100
_cell_length_b   9.42287733
_cell_length_c   6.20133300
_cell_angle_alpha   90.00000000
_cell_angle_beta   90.00000000
_cell_angle_gamma   120.33918612
_symmetry_Int_Tables_number   1
_chemical_formula_structural   SrCe5(TaSb5)2
_chemical_formula_sum   'Sr1 Ce5 Ta2 Sb10'
_cell_volume   480.07724379
_cell_formula_units_Z   1
loop_
 _symmetry_equiv_pos_site_id
 _symmetry_equiv_pos_as_xyz
  1  'x, y, z'
loop_
 _atom_site_type_symbol
 _atom_site_label
 _atom_site_symmetry_multiplicity
 _atom_site_fract_x
 _atom_site_fract_y
 _atom_site_fract_z
 _atom_site_occupancy
  Sr  Sr0  1  0.617762  0.000000  0.250000  1
  Ce  Ce1  1  0.379357  0.000000  0.750000  1
  Ce  Ce2  1  0.001497  0.618594  0.250000  1
  Ce  Ce3  1  0.997037  0.376547  0.750000  1
  Ce  Ce4  1  0.382902  0.381406  0.250000  1
  Ce  Ce5  1  0.620490  0.623453  0.750000  1
  Ta  Ta6  1  0.999590  0.000000  0.004234  1
  Ta  Ta7  1  0.999590  0.000000  0.495766  1
  Sb  Sb8  1  0.258639  0.000000  0.250000  1
  Sb  Sb9  1  0.744975  0.000000  0.750000  1
  Sb  Sb10  1  0.007658  0.265316  0.250000  1
  Sb  Sb11  1  0.999369  0.740240  0.750000  1
  Sb  Sb12  1  0.742341  0.734684  0.250000  1
  Sb  Sb13  1  0.259129  0.259760  0.750000  1
  Sb  Sb14  1  0.327685  0.660539  0.996334  1
  Sb  Sb15  1  0.667147  0.339461  0.996334  1
  Sb  Sb16  1  0.667147  0.339461  0.503666  1
  Sb  Sb17  1  0.327685  0.660539  0.503666  1
