# generated using pymatgen
data_Sr6Li16Pb7
_symmetry_space_group_name_H-M   'P 1'
_cell_length_a   10.06209100
_cell_length_b   10.06208995
_cell_length_c   10.06209100
_cell_angle_alpha   120.00000017
_cell_angle_beta   90.00000000
_cell_angle_gamma   120.00000017
_symmetry_Int_Tables_number   1
_chemical_formula_structural   Sr6Li16Pb7
_chemical_formula_sum   'Sr6 Li16 Pb7'
_cell_volume   720.36014483
_cell_formula_units_Z   1
loop_
 _symmetry_equiv_pos_site_id
 _symmetry_equiv_pos_as_xyz
  1  'x, y, z'
loop_
 _atom_site_type_symbol
 _atom_site_label
 _atom_site_symmetry_multiplicity
 _atom_site_fract_x
 _atom_site_fract_y
 _atom_site_fract_z
 _atom_site_occupancy
  Sr  Sr0  1  0.783345  0.000000  0.216654  1
  Sr  Sr1  1  0.216655  0.433309  0.216655  1
  Sr  Sr2  1  0.216655  0.000000  0.216655  1
  Sr  Sr3  1  0.783345  0.000000  0.783345  1
  Sr  Sr4  1  0.216654  0.000000  0.783345  1
  Sr  Sr5  1  0.783345  0.566692  0.783345  1
  Li  Li6  1  0.376451  0.752901  0.129353  1
  Li  Li7  1  0.825960  0.651919  0.174041  1
  Li  Li8  1  0.522122  0.348082  0.174041  1
  Li  Li9  1  0.825960  0.348082  0.174041  1
  Li  Li10  1  0.129353  0.752901  0.376451  1
  Li  Li11  1  0.623549  0.752901  0.376451  1
  Li  Li12  1  0.623549  0.247098  0.376451  1
  Li  Li13  1  0.825960  0.651919  0.477878  1
  Li  Li14  1  0.174041  0.348082  0.522122  1
  Li  Li15  1  0.376451  0.752901  0.623549  1
  Li  Li16  1  0.376451  0.247098  0.623549  1
  Li  Li17  1  0.870647  0.247098  0.623549  1
  Li  Li18  1  0.174041  0.651919  0.825960  1
  Li  Li19  1  0.477878  0.651919  0.825960  1
  Li  Li20  1  0.174041  0.348082  0.825960  1
  Li  Li21  1  0.623549  0.247098  0.870647  1
  Pb  Pb22  1  0.500000  0.000000  0.000000  1
  Pb  Pb23  1  0.000000  0.500000  0.000000  1
  Pb  Pb24  1  0.500000  0.500000  0.000000  1
  Pb  Pb25  1  0.500000  0.000000  0.500000  1
  Pb  Pb26  1  0.000000  0.000000  0.500000  1
  Pb  Pb27  1  0.000000  0.500000  0.500000  1
  Pb  Pb28  1  0.500000  0.500000  0.500000  1
