# generated using pymatgen
data_Hf8Ti9Si16Tc3
_symmetry_space_group_name_H-M   'P 1'
_cell_length_a   6.75319846
_cell_length_b   6.75319886
_cell_length_c   12.39513850
_cell_angle_alpha   90.09638689
_cell_angle_beta   89.90360999
_cell_angle_gamma   90.04464259
_symmetry_Int_Tables_number   1
_chemical_formula_structural   Hf8Ti9Si16Tc3
_chemical_formula_sum   'Hf8 Ti9 Si16 Tc3'
_cell_volume   565.28710085
_cell_formula_units_Z   1
loop_
 _symmetry_equiv_pos_site_id
 _symmetry_equiv_pos_as_xyz
  1  'x, y, z'
loop_
 _atom_site_type_symbol
 _atom_site_label
 _atom_site_symmetry_multiplicity
 _atom_site_fract_x
 _atom_site_fract_y
 _atom_site_fract_z
 _atom_site_occupancy
  Hf  Hf0  1  0.341335  0.000704  0.470921  1
  Hf  Hf1  1  0.496773  0.840534  0.720962  1
  Hf  Hf2  1  0.502560  0.159440  0.220419  1
  Hf  Hf3  1  0.840534  0.496773  0.279038  1
  Hf  Hf4  1  0.159440  0.502560  0.779581  1
  Hf  Hf5  1  0.660628  0.997292  0.971845  1
  Hf  Hf6  1  0.000704  0.341335  0.529079  1
  Hf  Hf7  1  0.997292  0.660628  0.028155  1
  Ti  Ti8  1  0.671264  0.671264  0.500000  1
  Ti  Ti9  1  0.152392  0.999607  0.874415  1
  Ti  Ti10  1  0.499842  0.653040  0.122903  1
  Ti  Ti11  1  0.499293  0.349911  0.624702  1
  Ti  Ti12  1  0.653040  0.499842  0.877097  1
  Ti  Ti13  1  0.349911  0.499293  0.375298  1
  Ti  Ti14  1  0.847084  0.997524  0.374860  1
  Ti  Ti15  1  0.999607  0.152392  0.125585  1
  Ti  Ti16  1  0.997524  0.847084  0.625140  1
  Si  Si17  1  0.203846  0.134442  0.678255  1
  Si  Si18  1  0.365374  0.704396  0.928324  1
  Si  Si19  1  0.636009  0.294243  0.429301  1
  Si  Si20  1  0.704396  0.365374  0.071676  1
  Si  Si21  1  0.294243  0.636009  0.570699  1
  Si  Si22  1  0.794802  0.864901  0.178810  1
  Si  Si23  1  0.134442  0.203846  0.321745  1
  Si  Si24  1  0.864901  0.794802  0.821190  1
  Si  Si25  1  0.294614  0.955670  0.066265  1
  Si  Si26  1  0.542796  0.794322  0.315296  1
  Si  Si27  1  0.456106  0.206350  0.816439  1
  Si  Si28  1  0.794322  0.542796  0.684704  1
  Si  Si29  1  0.206350  0.456106  0.183561  1
  Si  Si30  1  0.704555  0.047017  0.567772  1
  Si  Si31  1  0.955670  0.294614  0.933735  1
  Si  Si32  1  0.047017  0.704555  0.432228  1
  Tc  Tc33  1  0.329332  0.329332  0.000000  1
  Tc  Tc34  1  0.170517  0.831484  0.248087  1
  Tc  Tc35  1  0.831484  0.170517  0.751913  1
