# generated using pymatgen
data_Tm3Ga2Pt3Au
_symmetry_space_group_name_H-M   'P 1'
_cell_length_a   7.31025698
_cell_length_b   7.31025564
_cell_length_c   3.75107600
_cell_angle_alpha   90.00000000
_cell_angle_beta   90.00000000
_cell_angle_gamma   117.57818267
_symmetry_Int_Tables_number   1
_chemical_formula_structural   Tm3Ga2Pt3Au
_chemical_formula_sum   'Tm3 Ga2 Pt3 Au1'
_cell_volume   177.68099870
_cell_formula_units_Z   1
loop_
 _symmetry_equiv_pos_site_id
 _symmetry_equiv_pos_as_xyz
  1  'x, y, z'
loop_
 _atom_site_type_symbol
 _atom_site_label
 _atom_site_symmetry_multiplicity
 _atom_site_fract_x
 _atom_site_fract_y
 _atom_site_fract_z
 _atom_site_occupancy
  Tm  Tm0  1  0.408998  0.408998  0.500000  1
  Tm  Tm1  1  0.605847  0.988827  0.500000  1
  Tm  Tm2  1  0.988827  0.605847  0.500000  1
  Ga  Ga3  1  0.264135  0.003327  0.000000  1
  Ga  Ga4  1  0.003327  0.264135  0.000000  1
  Pt  Pt5  1  0.657690  0.307092  0.000000  1
  Pt  Pt6  1  0.307092  0.657690  0.000000  1
  Pt  Pt7  1  0.030363  0.030363  0.500000  1
  Au  Au8  1  0.733721  0.733721  0.000000  1
