# generated using pymatgen
data_Np3Ga2Ge3
_symmetry_space_group_name_H-M   'P 1'
_cell_length_a   7.83526869
_cell_length_b   7.83526831
_cell_length_c   7.83526790
_cell_angle_alpha   120.53839079
_cell_angle_beta   120.53838980
_cell_angle_gamma   89.06997651
_symmetry_Int_Tables_number   1
_chemical_formula_structural   Np3Ga2Ge3
_chemical_formula_sum   'Np6 Ga4 Ge6'
_cell_volume   337.31524052
_cell_formula_units_Z   2
loop_
 _symmetry_equiv_pos_site_id
 _symmetry_equiv_pos_as_xyz
  1  'x, y, z'
loop_
 _atom_site_type_symbol
 _atom_site_label
 _atom_site_symmetry_multiplicity
 _atom_site_fract_x
 _atom_site_fract_y
 _atom_site_fract_z
 _atom_site_occupancy
  Np  Np0  1  0.365303  0.176235  0.500000  1
  Np  Np1  1  0.676235  0.865303  0.500000  1
  Np  Np2  1  0.176235  0.676235  0.810931  1
  Np  Np3  1  0.865303  0.365303  0.189069  1
  Np  Np4  1  0.745196  0.745196  0.000000  1
  Np  Np5  1  0.245196  0.245196  0.000000  1
  Ga  Ga6  1  0.694280  0.475035  0.500000  1
  Ga  Ga7  1  0.975035  0.194280  0.500000  1
  Ga  Ga8  1  0.475035  0.975035  0.780755  1
  Ga  Ga9  1  0.194280  0.694280  0.219245  1
  Ge  Ge10  1  0.352731  0.555696  0.500000  1
  Ge  Ge11  1  0.055696  0.852731  0.500000  1
  Ge  Ge12  1  0.555696  0.055696  0.202966  1
  Ge  Ge13  1  0.852731  0.352731  0.797034  1
  Ge  Ge14  1  0.994867  0.994867  0.000000  1
  Ge  Ge15  1  0.494867  0.494867  0.000000  1
