# generated using pymatgen
data_Dy5Zn3P9Ir13Rh6
_symmetry_space_group_name_H-M   'P 1'
_cell_length_a   12.85049100
_cell_length_b   12.85049105
_cell_length_c   3.94911000
_cell_angle_alpha   90.00000000
_cell_angle_beta   90.00000000
_cell_angle_gamma   119.99999730
_symmetry_Int_Tables_number   1
_chemical_formula_structural   Dy5Zn3P9Ir13Rh6
_chemical_formula_sum   'Dy5 Zn3 P9 Ir13 Rh6'
_cell_volume   564.76700926
_cell_formula_units_Z   1
loop_
 _symmetry_equiv_pos_site_id
 _symmetry_equiv_pos_as_xyz
  1  'x, y, z'
loop_
 _atom_site_type_symbol
 _atom_site_label
 _atom_site_symmetry_multiplicity
 _atom_site_fract_x
 _atom_site_fract_y
 _atom_site_fract_z
 _atom_site_occupancy
  Dy  Dy0  1  0.333333  0.666667  0.500000  1
  Dy  Dy1  1  0.666667  0.333333  0.500000  1
  Dy  Dy2  1  0.999615  0.815579  0.000000  1
  Dy  Dy3  1  0.184421  0.184035  0.000000  1
  Dy  Dy4  1  0.815965  0.000385  0.000000  1
  Zn  Zn5  1  0.000385  0.642634  0.500000  1
  Zn  Zn6  1  0.357366  0.357750  0.500000  1
  Zn  Zn7  1  0.642250  0.999615  0.500000  1
  P  P8  1  0.517652  0.690017  0.000000  1
  P  P9  1  0.309983  0.827635  0.000000  1
  P  P10  1  0.172365  0.482348  0.000000  1
  P  P11  1  0.482937  0.173711  0.000000  1
  P  P12  1  0.690774  0.517063  0.000000  1
  P  P13  1  0.826289  0.309226  0.000000  1
  P  P14  1  0.000018  0.180771  0.500000  1
  P  P15  1  0.819229  0.819248  0.500000  1
  P  P16  1  0.180752  0.999982  0.500000  1
  Ir  Ir17  1  0.503923  0.866178  0.000000  1
  Ir  Ir18  1  0.133822  0.637747  0.000000  1
  Ir  Ir19  1  0.362253  0.496077  0.000000  1
  Ir  Ir20  1  0.496779  0.364344  0.000000  1
  Ir  Ir21  1  0.867567  0.503221  0.000000  1
  Ir  Ir22  1  0.635656  0.132433  0.000000  1
  Ir  Ir23  1  0.000867  0.281103  0.000000  1
  Ir  Ir24  1  0.718897  0.719764  0.000000  1
  Ir  Ir25  1  0.280236  0.999133  0.000000  1
  Ir  Ir26  1  0.382067  0.173769  0.500000  1
  Ir  Ir27  1  0.791701  0.617933  0.500000  1
  Ir  Ir28  1  0.826231  0.208299  0.500000  1
  Ir  Ir29  1  0.000000  0.000000  0.500000  1
  Rh  Rh30  1  0.001010  0.448545  0.500000  1
  Rh  Rh31  1  0.551455  0.552465  0.500000  1
  Rh  Rh32  1  0.447535  0.998990  0.500000  1
  Rh  Rh33  1  0.618238  0.792465  0.500000  1
  Rh  Rh34  1  0.207535  0.825772  0.500000  1
  Rh  Rh35  1  0.174228  0.381762  0.500000  1
