# generated using pymatgen
data_Pr16Dy4Si15As
_symmetry_space_group_name_H-M   'P 1'
_cell_length_a   7.83709299
_cell_length_b   7.83273719
_cell_length_c   15.35737040
_cell_angle_alpha   89.93766428
_cell_angle_beta   89.72244802
_cell_angle_gamma   89.98915289
_symmetry_Int_Tables_number   1
_chemical_formula_structural   Pr16Dy4Si15As
_chemical_formula_sum   'Pr16 Dy4 Si15 As1'
_cell_volume   942.71421008
_cell_formula_units_Z   1
loop_
 _symmetry_equiv_pos_site_id
 _symmetry_equiv_pos_as_xyz
  1  'x, y, z'
loop_
 _atom_site_type_symbol
 _atom_site_label
 _atom_site_symmetry_multiplicity
 _atom_site_fract_x
 _atom_site_fract_y
 _atom_site_fract_z
 _atom_site_occupancy
  Pr  Pr0  1  0.380761  0.012486  0.443405  1
  Pr  Pr1  1  0.487863  0.878147  0.694747  1
  Pr  Pr2  1  0.512974  0.120597  0.194531  1
  Pr  Pr3  1  0.879286  0.486676  0.304916  1
  Pr  Pr4  1  0.121837  0.513304  0.806342  1
  Pr  Pr5  1  0.621429  0.986014  0.944427  1
  Pr  Pr6  1  0.010383  0.379957  0.553808  1
  Pr  Pr7  1  0.986659  0.619814  0.055730  1
  Pr  Pr8  1  0.127316  0.978598  0.878204  1
  Pr  Pr9  1  0.523563  0.625225  0.128242  1
  Pr  Pr10  1  0.475839  0.374496  0.629474  1
  Pr  Pr11  1  0.625438  0.524314  0.871779  1
  Pr  Pr12  1  0.374319  0.474819  0.372076  1
  Pr  Pr13  1  0.875823  0.023948  0.378654  1
  Pr  Pr14  1  0.976139  0.125535  0.121675  1
  Pr  Pr15  1  0.023190  0.873357  0.621249  1
  Dy  Dy16  1  0.309167  0.309039  0.000057  1
  Dy  Dy17  1  0.190354  0.808603  0.249940  1
  Dy  Dy18  1  0.803879  0.191098  0.750621  1
  Dy  Dy19  1  0.689653  0.691320  0.499191  1
  Si  Si20  1  0.326796  0.687702  0.958694  1
  Si  Si21  1  0.672831  0.313231  0.459095  1
  Si  Si22  1  0.688296  0.328045  0.041526  1
  Si  Si23  1  0.312800  0.672484  0.541681  1
  Si  Si24  1  0.812497  0.827507  0.208833  1
  Si  Si25  1  0.172503  0.187474  0.291005  1
  Si  Si26  1  0.829814  0.812459  0.791232  1
  Si  Si27  1  0.285924  0.920719  0.063306  1
  Si  Si28  1  0.579073  0.786427  0.313147  1
  Si  Si29  1  0.430882  0.213155  0.817730  1
  Si  Si30  1  0.787795  0.579080  0.686237  1
  Si  Si31  1  0.213472  0.421303  0.186734  1
  Si  Si32  1  0.711242  0.077975  0.563393  1
  Si  Si33  1  0.922107  0.287074  0.936654  1
  Si  Si34  1  0.079063  0.713050  0.436745  1
  As  As35  1  0.179033  0.174966  0.704920  1
