# generated using pymatgen
data_Er16CdNi4Ag3
_symmetry_space_group_name_H-M   'P 1'
_cell_length_a   9.36592125
_cell_length_b   9.39731313
_cell_length_c   9.39731400
_cell_angle_alpha   59.99999694
_cell_angle_beta   59.88906108
_cell_angle_gamma   59.88906221
_symmetry_Int_Tables_number   1
_chemical_formula_structural   Er16CdNi4Ag3
_chemical_formula_sum   'Er16 Cd1 Ni4 Ag3'
_cell_volume   583.86528344
_cell_formula_units_Z   1
loop_
 _symmetry_equiv_pos_site_id
 _symmetry_equiv_pos_as_xyz
  1  'x, y, z'
loop_
 _atom_site_type_symbol
 _atom_site_label
 _atom_site_symmetry_multiplicity
 _atom_site_fract_x
 _atom_site_fract_y
 _atom_site_fract_z
 _atom_site_occupancy
  Er  Er0  1  0.349704  0.349205  0.349205  1
  Er  Er1  1  0.349704  0.349205  0.951887  1
  Er  Er2  1  0.349704  0.951887  0.349205  1
  Er  Er3  1  0.950498  0.349834  0.349834  1
  Er  Er4  1  0.811206  0.189017  0.189017  1
  Er  Er5  1  0.188945  0.810985  0.810985  1
  Er  Er6  1  0.188945  0.810985  0.189085  1
  Er  Er7  1  0.811206  0.189017  0.810761  1
  Er  Er8  1  0.188945  0.189085  0.810985  1
  Er  Er9  1  0.811206  0.810761  0.189017  1
  Er  Er10  1  0.933563  0.564022  0.564022  1
  Er  Er11  1  0.564025  0.936114  0.936114  1
  Er  Er12  1  0.564025  0.936114  0.563747  1
  Er  Er13  1  0.933563  0.564022  0.938393  1
  Er  Er14  1  0.564025  0.563747  0.936114  1
  Er  Er15  1  0.933563  0.938393  0.564022  1
  Cd  Cd16  1  0.259485  0.580171  0.580171  1
  Ni  Ni17  1  0.142665  0.142795  0.142795  1
  Ni  Ni18  1  0.142665  0.142795  0.571745  1
  Ni  Ni19  1  0.142665  0.571745  0.142795  1
  Ni  Ni20  1  0.571759  0.142747  0.142747  1
  Ag  Ag21  1  0.582644  0.582110  0.582110  1
  Ag  Ag22  1  0.582644  0.582110  0.253135  1
  Ag  Ag23  1  0.582644  0.253135  0.582110  1
