# generated using pymatgen
data_La2Er3Ga4
_symmetry_space_group_name_H-M   'P 1'
_cell_length_a   7.62936400
_cell_length_b   7.94271700
_cell_length_c   15.27388500
_cell_angle_alpha   90.00000000
_cell_angle_beta   90.00000000
_cell_angle_gamma   90.00000000
_symmetry_Int_Tables_number   1
_chemical_formula_structural   La2Er3Ga4
_chemical_formula_sum   'La8 Er12 Ga16'
_cell_volume   925.56503726
_cell_formula_units_Z   4
loop_
 _symmetry_equiv_pos_site_id
 _symmetry_equiv_pos_as_xyz
  1  'x, y, z'
loop_
 _atom_site_type_symbol
 _atom_site_label
 _atom_site_symmetry_multiplicity
 _atom_site_fract_x
 _atom_site_fract_y
 _atom_site_fract_z
 _atom_site_occupancy
  La  La0  1  0.013360  0.176500  0.404686  1
  La  La1  1  0.513360  0.323500  0.404686  1
  La  La2  1  0.486640  0.676500  0.904686  1
  La  La3  1  0.486640  0.676500  0.595314  1
  La  La4  1  0.986640  0.823500  0.595314  1
  La  La5  1  0.986640  0.823500  0.904686  1
  La  La6  1  0.513360  0.323500  0.095314  1
  La  La7  1  0.013360  0.176500  0.095314  1
  Er  Er8  1  0.327979  0.173875  0.622592  1
  Er  Er9  1  0.672021  0.826125  0.377408  1
  Er  Er10  1  0.663882  0.995161  0.750000  1
  Er  Er11  1  0.172021  0.673875  0.377408  1
  Er  Er12  1  0.827979  0.326125  0.877408  1
  Er  Er13  1  0.827979  0.326125  0.622592  1
  Er  Er14  1  0.836118  0.495161  0.250000  1
  Er  Er15  1  0.336118  0.004839  0.250000  1
  Er  Er16  1  0.327979  0.173875  0.877408  1
  Er  Er17  1  0.172021  0.673875  0.122592  1
  Er  Er18  1  0.672021  0.826125  0.122592  1
  Er  Er19  1  0.163882  0.504839  0.750000  1
  Ga  Ga20  1  0.280297  0.879699  0.750000  1
  Ga  Ga21  1  0.466099  0.616298  0.250000  1
  Ga  Ga22  1  0.033901  0.116298  0.750000  1
  Ga  Ga23  1  0.533901  0.383702  0.750000  1
  Ga  Ga24  1  0.154596  0.465084  0.539491  1
  Ga  Ga25  1  0.966099  0.883702  0.250000  1
  Ga  Ga26  1  0.719703  0.120301  0.250000  1
  Ga  Ga27  1  0.845404  0.534916  0.039491  1
  Ga  Ga28  1  0.345404  0.965084  0.039491  1
  Ga  Ga29  1  0.154596  0.465084  0.960509  1
  Ga  Ga30  1  0.654596  0.034916  0.539491  1
  Ga  Ga31  1  0.345404  0.965084  0.460509  1
  Ga  Ga32  1  0.845404  0.534916  0.460509  1
  Ga  Ga33  1  0.780297  0.620301  0.750000  1
  Ga  Ga34  1  0.219703  0.379699  0.250000  1
  Ga  Ga35  1  0.654596  0.034916  0.960509  1
