# generated using pymatgen
data_Tb8PdAu7
_symmetry_space_group_name_H-M   'P 1'
_cell_length_a   6.03266755
_cell_length_b   6.03266817
_cell_length_c   10.93676044
_cell_angle_alpha   89.98996158
_cell_angle_beta   89.98995073
_cell_angle_gamma   103.26183978
_symmetry_Int_Tables_number   1
_chemical_formula_structural   Tb8PdAu7
_chemical_formula_sum   'Tb8 Pd1 Au7'
_cell_volume   387.40788752
_cell_formula_units_Z   1
loop_
 _symmetry_equiv_pos_site_id
 _symmetry_equiv_pos_as_xyz
  1  'x, y, z'
loop_
 _atom_site_type_symbol
 _atom_site_label
 _atom_site_symmetry_multiplicity
 _atom_site_fract_x
 _atom_site_fract_y
 _atom_site_fract_z
 _atom_site_occupancy
  Tb  Tb0  1  0.375835  0.872044  0.276662  1
  Tb  Tb1  1  0.122624  0.122624  0.002940  1
  Tb  Tb2  1  0.872044  0.375835  0.276662  1
  Tb  Tb3  1  0.128858  0.623404  0.777989  1
  Tb  Tb4  1  0.374439  0.374439  0.501223  1
  Tb  Tb5  1  0.627196  0.627196  0.003471  1
  Tb  Tb6  1  0.623404  0.128858  0.777989  1
  Tb  Tb7  1  0.875754  0.875754  0.493896  1
  Pd  Pd8  1  0.876413  0.876413  0.225027  1
  Au  Au9  1  0.121070  0.121070  0.726965  1
  Au  Au10  1  0.370774  0.370774  0.228457  1
  Au  Au11  1  0.124517  0.625351  0.052034  1
  Au  Au12  1  0.631067  0.631067  0.727333  1
  Au  Au13  1  0.375820  0.874835  0.550656  1
  Au  Au14  1  0.874835  0.375820  0.550656  1
  Au  Au15  1  0.625351  0.124517  0.052034  1
