# generated using pymatgen
data_Y14ErTh(CdPt)4
_symmetry_space_group_name_H-M   'P 1'
_cell_length_a   9.72220551
_cell_length_b   9.72220648
_cell_length_c   9.73435254
_cell_angle_alpha   60.28681752
_cell_angle_beta   60.28682003
_cell_angle_gamma   60.22605862
_symmetry_Int_Tables_number   1
_chemical_formula_structural   Y14ErTh(CdPt)4
_chemical_formula_sum   'Y14 Er1 Th1 Cd4 Pt4'
_cell_volume   654.53641616
_cell_formula_units_Z   1
loop_
 _symmetry_equiv_pos_site_id
 _symmetry_equiv_pos_as_xyz
  1  'x, y, z'
loop_
 _atom_site_type_symbol
 _atom_site_label
 _atom_site_symmetry_multiplicity
 _atom_site_fract_x
 _atom_site_fract_y
 _atom_site_fract_z
 _atom_site_occupancy
  Y  Y0  1  0.354126  0.938156  0.354189  1
  Y  Y1  1  0.938156  0.354126  0.354189  1
  Y  Y2  1  0.812075  0.189647  0.189562  1
  Y  Y3  1  0.191385  0.810103  0.810398  1
  Y  Y4  1  0.189647  0.812075  0.189562  1
  Y  Y5  1  0.810103  0.191385  0.810398  1
  Y  Y6  1  0.190045  0.190045  0.811700  1
  Y  Y7  1  0.810681  0.810681  0.190962  1
  Y  Y8  1  0.936359  0.565903  0.566120  1
  Y  Y9  1  0.563457  0.937340  0.936767  1
  Y  Y10  1  0.565903  0.936359  0.566120  1
  Y  Y11  1  0.937340  0.563457  0.936767  1
  Y  Y12  1  0.565689  0.565689  0.936576  1
  Y  Y13  1  0.936643  0.936643  0.564040  1
  Er  Er14  1  0.353374  0.353374  0.940923  1
  Th  Th15  1  0.348724  0.348724  0.348865  1
  Cd  Cd16  1  0.581200  0.581200  0.582208  1
  Cd  Cd17  1  0.582190  0.582190  0.252907  1
  Cd  Cd18  1  0.581882  0.253051  0.582765  1
  Cd  Cd19  1  0.253051  0.581882  0.582765  1
  Pt  Pt20  1  0.145504  0.145504  0.142537  1
  Pt  Pt21  1  0.141101  0.141101  0.570252  1
  Pt  Pt22  1  0.142268  0.569096  0.139713  1
  Pt  Pt23  1  0.569096  0.142268  0.139713  1
