# generated using pymatgen
data_EuVCo4P3
_symmetry_space_group_name_H-M   'P 1'
_cell_length_a   3.65153400
_cell_length_b   10.42236300
_cell_length_c   11.91785500
_cell_angle_alpha   90.00000000
_cell_angle_beta   90.00000000
_cell_angle_gamma   90.00000000
_symmetry_Int_Tables_number   1
_chemical_formula_structural   EuVCo4P3
_chemical_formula_sum   'Eu4 V4 Co16 P12'
_cell_volume   453.56511165
_cell_formula_units_Z   4
loop_
 _symmetry_equiv_pos_site_id
 _symmetry_equiv_pos_as_xyz
  1  'x, y, z'
loop_
 _atom_site_type_symbol
 _atom_site_label
 _atom_site_symmetry_multiplicity
 _atom_site_fract_x
 _atom_site_fract_y
 _atom_site_fract_z
 _atom_site_occupancy
  Eu  Eu0  1  0.250000  0.581665  0.704071  1
  Eu  Eu1  1  0.250000  0.918335  0.204071  1
  Eu  Eu2  1  0.750000  0.418335  0.295929  1
  Eu  Eu3  1  0.750000  0.081665  0.795929  1
  V  V4  1  0.250000  0.702857  0.989124  1
  V  V5  1  0.250000  0.797143  0.489124  1
  V  V6  1  0.750000  0.297143  0.010876  1
  V  V7  1  0.750000  0.202857  0.510876  1
  Co  Co8  1  0.250000  0.405199  0.490668  1
  Co  Co9  1  0.250000  0.094801  0.990668  1
  Co  Co10  1  0.750000  0.594801  0.509332  1
  Co  Co11  1  0.750000  0.905199  0.009332  1
  Co  Co12  1  0.250000  0.219329  0.175238  1
  Co  Co13  1  0.250000  0.280671  0.675238  1
  Co  Co14  1  0.750000  0.780671  0.824762  1
  Co  Co15  1  0.750000  0.719329  0.324762  1
  Co  Co16  1  0.250000  0.882604  0.697340  1
  Co  Co17  1  0.250000  0.617396  0.197340  1
  Co  Co18  1  0.750000  0.117396  0.302660  1
  Co  Co19  1  0.750000  0.382604  0.802660  1
  Co  Co20  1  0.250000  0.465406  0.935055  1
  Co  Co21  1  0.250000  0.034594  0.435055  1
  Co  Co22  1  0.750000  0.534594  0.064945  1
  Co  Co23  1  0.750000  0.965406  0.564945  1
  P  P24  1  0.250000  0.419133  0.114079  1
  P  P25  1  0.250000  0.080867  0.614079  1
  P  P26  1  0.750000  0.580867  0.885921  1
  P  P27  1  0.750000  0.919133  0.385921  1
  P  P28  1  0.250000  0.270856  0.865837  1
  P  P29  1  0.250000  0.229144  0.365837  1
  P  P30  1  0.750000  0.729144  0.134163  1
  P  P31  1  0.750000  0.770856  0.634163  1
  P  P32  1  0.250000  0.600280  0.392424  1
  P  P33  1  0.250000  0.899720  0.892424  1
  P  P34  1  0.750000  0.399720  0.607576  1
  P  P35  1  0.750000  0.100280  0.107576  1
