# generated using pymatgen
data_PrYU4(Cu2Se7)2
_symmetry_space_group_name_H-M   'P 1'
_cell_length_a   10.16748465
_cell_length_b   10.23901288
_cell_length_c   5.99915576
_cell_angle_alpha   89.60730395
_cell_angle_beta   89.63372763
_cell_angle_gamma   119.97240436
_symmetry_Int_Tables_number   1
_chemical_formula_structural   PrYU4(Cu2Se7)2
_chemical_formula_sum   'Pr1 Y1 U4 Cu4 Se14'
_cell_volume   540.97225701
_cell_formula_units_Z   1
loop_
 _symmetry_equiv_pos_site_id
 _symmetry_equiv_pos_as_xyz
  1  'x, y, z'
loop_
 _atom_site_type_symbol
 _atom_site_label
 _atom_site_symmetry_multiplicity
 _atom_site_fract_x
 _atom_site_fract_y
 _atom_site_fract_z
 _atom_site_occupancy
  Pr  Pr0  1  0.846321  0.623810  0.532054  1
  Y  Y1  1  0.224589  0.847855  0.031410  1
  U  U2  1  0.150207  0.378352  0.028345  1
  U  U3  1  0.377410  0.227080  0.525076  1
  U  U4  1  0.621513  0.772346  0.024407  1
  U  U5  1  0.771849  0.151805  0.527718  1
  Cu  Cu6  1  0.666043  0.332123  0.158774  1
  Cu  Cu7  1  0.000403  0.000736  0.999107  1
  Cu  Cu8  1  0.336736  0.666243  0.654924  1
  Cu  Cu9  1  0.000569  0.002996  0.499898  1
  Se  Se10  1  0.081045  0.562965  0.784231  1
  Se  Se11  1  0.263885  0.157301  0.011124  1
  Se  Se12  1  0.439744  0.514713  0.779012  1
  Se  Se13  1  0.657567  0.319457  0.756993  1
  Se  Se14  1  0.161702  0.900871  0.515865  1
  Se  Se15  1  0.886303  0.737692  0.018399  1
  Se  Se16  1  0.335768  0.665441  0.252020  1
  Se  Se17  1  0.111827  0.266108  0.512830  1
  Se  Se18  1  0.515254  0.078485  0.285276  1
  Se  Se19  1  0.922183  0.426733  0.276815  1
  Se  Se20  1  0.556193  0.482382  0.273576  1
  Se  Se21  1  0.735218  0.854042  0.503326  1
  Se  Se22  1  0.490801  0.919515  0.783700  1
  Se  Se23  1  0.846873  0.110947  0.007319  1
