# generated using pymatgen
data_Y7U(Si4Tc3)4
_symmetry_space_group_name_H-M   'P 1'
_cell_length_a   6.80388851
_cell_length_b   6.80587346
_cell_length_c   12.72061800
_cell_angle_alpha   90.07876424
_cell_angle_beta   89.71274047
_cell_angle_gamma   90.00537021
_symmetry_Int_Tables_number   1
_chemical_formula_structural   Y7U(Si4Tc3)4
_chemical_formula_sum   'Y7 U1 Si16 Tc12'
_cell_volume   589.03811710
_cell_formula_units_Z   1
loop_
 _symmetry_equiv_pos_site_id
 _symmetry_equiv_pos_as_xyz
  1  'x, y, z'
loop_
 _atom_site_type_symbol
 _atom_site_label
 _atom_site_symmetry_multiplicity
 _atom_site_fract_x
 _atom_site_fract_y
 _atom_site_fract_z
 _atom_site_occupancy
  Y  Y0  1  0.335324  0.995689  0.469200  1
  Y  Y1  1  0.506795  0.840112  0.717838  1
  Y  Y2  1  0.492987  0.162222  0.219264  1
  Y  Y3  1  0.835301  0.507683  0.282067  1
  Y  Y4  1  0.162183  0.495451  0.779692  1
  Y  Y5  1  0.663164  0.005212  0.969462  1
  Y  Y6  1  0.992573  0.339223  0.531873  1
  U  U7  1  0.009531  0.662366  0.026117  1
  Si  Si8  1  0.193063  0.112357  0.686393  1
  Si  Si9  1  0.393008  0.691283  0.937102  1
  Si  Si10  1  0.613671  0.306506  0.436296  1
  Si  Si11  1  0.694887  0.384399  0.066855  1
  Si  Si12  1  0.306630  0.613198  0.563025  1
  Si  Si13  1  0.806224  0.882789  0.182223  1
  Si  Si14  1  0.113283  0.195455  0.314325  1
  Si  Si15  1  0.886875  0.808977  0.812561  1
  Si  Si16  1  0.269753  0.979284  0.063385  1
  Si  Si17  1  0.521437  0.779019  0.312638  1
  Si  Si18  1  0.484974  0.233309  0.811703  1
  Si  Si19  1  0.767445  0.516609  0.690587  1
  Si  Si20  1  0.216961  0.476080  0.185654  1
  Si  Si21  1  0.730335  0.016686  0.559228  1
  Si  Si22  1  0.985199  0.266338  0.938637  1
  Si  Si23  1  0.015135  0.730974  0.438962  1
  Tc  Tc24  1  0.332339  0.337049  0.997291  1
  Tc  Tc25  1  0.160290  0.833726  0.247083  1
  Tc  Tc26  1  0.836295  0.167266  0.751419  1
  Tc  Tc27  1  0.664128  0.666048  0.499339  1
  Tc  Tc28  1  0.184034  0.972117  0.872505  1
  Tc  Tc29  1  0.514879  0.675835  0.124756  1
  Tc  Tc30  1  0.479185  0.314353  0.619796  1
  Tc  Tc31  1  0.700872  0.524679  0.886766  1
  Tc  Tc32  1  0.320185  0.486817  0.376057  1
  Tc  Tc33  1  0.812604  0.021601  0.367154  1
  Tc  Tc34  1  0.977790  0.185974  0.132250  1
  Tc  Tc35  1  0.020659  0.813321  0.630498  1
