# generated using pymatgen
data_Hf2GaPtRh4
_symmetry_space_group_name_H-M   'P 1'
_cell_length_a   4.10802400
_cell_length_b   5.55213985
_cell_length_c   10.99246363
_cell_angle_alpha   89.16663924
_cell_angle_beta   90.00000000
_cell_angle_gamma   90.00000000
_symmetry_Int_Tables_number   1
_chemical_formula_structural   Hf2GaPtRh4
_chemical_formula_sum   'Hf4 Ga2 Pt2 Rh8'
_cell_volume   250.69314944
_cell_formula_units_Z   2
loop_
 _symmetry_equiv_pos_site_id
 _symmetry_equiv_pos_as_xyz
  1  'x, y, z'
loop_
 _atom_site_type_symbol
 _atom_site_label
 _atom_site_symmetry_multiplicity
 _atom_site_fract_x
 _atom_site_fract_y
 _atom_site_fract_z
 _atom_site_occupancy
  Hf  Hf0  1  0.500000  0.177890  0.637132  1
  Hf  Hf1  1  0.500000  0.822110  0.362868  1
  Hf  Hf2  1  0.500000  0.692174  0.863752  1
  Hf  Hf3  1  0.500000  0.307826  0.136248  1
  Ga  Ga4  1  0.000000  0.500000  0.500000  1
  Ga  Ga5  1  0.000000  0.000000  0.000000  1
  Pt  Pt6  1  0.000000  0.437163  0.747096  1
  Pt  Pt7  1  0.000000  0.562837  0.252904  1
  Rh  Rh8  1  0.500000  0.195447  0.889523  1
  Rh  Rh9  1  0.500000  0.804553  0.110477  1
  Rh  Rh10  1  0.500000  0.689866  0.609193  1
  Rh  Rh11  1  0.500000  0.310134  0.390807  1
  Rh  Rh12  1  0.000000  0.000000  0.500000  1
  Rh  Rh13  1  0.000000  0.500000  0.000000  1
  Rh  Rh14  1  0.000000  0.063413  0.245295  1
  Rh  Rh15  1  0.000000  0.936587  0.754705  1
