# generated using pymatgen
data_DyScB6Ru
_symmetry_space_group_name_H-M   'P 1'
_cell_length_a   3.56838800
_cell_length_b   8.97177500
_cell_length_c   11.35472200
_cell_angle_alpha   90.00000000
_cell_angle_beta   90.00000000
_cell_angle_gamma   90.00000000
_symmetry_Int_Tables_number   1
_chemical_formula_structural   DyScB6Ru
_chemical_formula_sum   'Dy4 Sc4 B24 Ru4'
_cell_volume   363.51886149
_cell_formula_units_Z   4
loop_
 _symmetry_equiv_pos_site_id
 _symmetry_equiv_pos_as_xyz
  1  'x, y, z'
loop_
 _atom_site_type_symbol
 _atom_site_label
 _atom_site_symmetry_multiplicity
 _atom_site_fract_x
 _atom_site_fract_y
 _atom_site_fract_z
 _atom_site_occupancy
  Dy  Dy0  1  0.000000  0.320403  0.413890  1
  Dy  Dy1  1  0.000000  0.679597  0.586110  1
  Dy  Dy2  1  0.000000  0.820403  0.086110  1
  Dy  Dy3  1  0.000000  0.179597  0.913890  1
  Sc  Sc4  1  0.000000  0.944943  0.373710  1
  Sc  Sc5  1  0.000000  0.055057  0.626290  1
  Sc  Sc6  1  0.000000  0.444943  0.126290  1
  Sc  Sc7  1  0.000000  0.555057  0.873710  1
  B  B8  1  0.500000  0.555081  0.432586  1
  B  B9  1  0.500000  0.444919  0.567414  1
  B  B10  1  0.500000  0.055081  0.067414  1
  B  B11  1  0.500000  0.944919  0.932586  1
  B  B12  1  0.500000  0.752724  0.418955  1
  B  B13  1  0.500000  0.247276  0.581045  1
  B  B14  1  0.500000  0.252724  0.081045  1
  B  B15  1  0.500000  0.747276  0.918955  1
  B  B16  1  0.500000  0.793368  0.265540  1
  B  B17  1  0.500000  0.206632  0.734460  1
  B  B18  1  0.500000  0.293368  0.234460  1
  B  B19  1  0.500000  0.706632  0.765540  1
  B  B20  1  0.500000  0.629098  0.182743  1
  B  B21  1  0.500000  0.370902  0.817257  1
  B  B22  1  0.500000  0.129098  0.317257  1
  B  B23  1  0.500000  0.870902  0.682743  1
  B  B24  1  0.500000  0.981954  0.214650  1
  B  B25  1  0.500000  0.018046  0.785350  1
  B  B26  1  0.500000  0.481954  0.285350  1
  B  B27  1  0.500000  0.518046  0.714650  1
  B  B28  1  0.500000  0.600201  0.027118  1
  B  B29  1  0.500000  0.399799  0.972882  1
  B  B30  1  0.500000  0.100201  0.472882  1
  B  B31  1  0.500000  0.899799  0.527118  1
  Ru  Ru32  1  0.000000  0.639931  0.318776  1
  Ru  Ru33  1  0.000000  0.360069  0.681224  1
  Ru  Ru34  1  0.000000  0.139931  0.181224  1
  Ru  Ru35  1  0.000000  0.860069  0.818776  1
