# generated using pymatgen
data_Tm12AlCo3SiSn
_symmetry_space_group_name_H-M   'P 1'
_cell_length_a   8.25470838
_cell_length_b   8.25496212
_cell_length_c   8.25470685
_cell_angle_alpha   112.74487339
_cell_angle_beta   110.93870783
_cell_angle_gamma   104.83182701
_symmetry_Int_Tables_number   1
_chemical_formula_structural   Tm12AlCo3SiSn
_chemical_formula_sum   'Tm12 Al1 Co3 Si1 Sn1'
_cell_volume   430.79197336
_cell_formula_units_Z   1
loop_
 _symmetry_equiv_pos_site_id
 _symmetry_equiv_pos_as_xyz
  1  'x, y, z'
loop_
 _atom_site_type_symbol
 _atom_site_label
 _atom_site_symmetry_multiplicity
 _atom_site_fract_x
 _atom_site_fract_y
 _atom_site_fract_z
 _atom_site_occupancy
  Tm  Tm0  1  0.428671  0.232400  0.196321  1
  Tm  Tm1  1  0.561449  0.766350  0.795073  1
  Tm  Tm2  1  0.028721  0.233650  0.795099  1
  Tm  Tm3  1  0.963922  0.767600  0.196270  1
  Tm  Tm4  1  0.182975  0.285084  0.468043  1
  Tm  Tm5  1  0.811163  0.716909  0.528070  1
  Tm  Tm6  1  0.182960  0.714916  0.897890  1
  Tm  Tm7  1  0.811160  0.283091  0.094254  1
  Tm  Tm8  1  0.310125  0.618834  0.310372  1
  Tm  Tm9  1  0.691541  0.381166  0.691293  1
  Tm  Tm10  1  0.310114  0.999684  0.691277  1
  Tm  Tm11  1  0.691593  0.000316  0.310430  1
  Al  Al12  1  0.989333  0.000000  0.989333  1
  Co  Co13  1  0.657218  0.000000  0.657218  1
  Co  Co14  1  0.115847  0.611347  0.504544  1
  Co  Co15  1  0.893197  0.388653  0.504500  1
  Si  Si16  1  0.371484  0.000000  0.371484  1
  Sn  Sn17  1  0.498528  0.500000  0.998528  1
