# generated using pymatgen
data_Tb3DyCo18(CuP6)2
_symmetry_space_group_name_H-M   'P 1'
_cell_length_a   3.67798000
_cell_length_b   10.26742911
_cell_length_c   11.81280012
_cell_angle_alpha   89.98350187
_cell_angle_beta   90.00000000
_cell_angle_gamma   90.00000000
_symmetry_Int_Tables_number   1
_chemical_formula_structural   Tb3DyCo18(CuP6)2
_chemical_formula_sum   'Tb3 Dy1 Co18 Cu2 P12'
_cell_volume   446.09146471
_cell_formula_units_Z   1
loop_
 _symmetry_equiv_pos_site_id
 _symmetry_equiv_pos_as_xyz
  1  'x, y, z'
loop_
 _atom_site_type_symbol
 _atom_site_label
 _atom_site_symmetry_multiplicity
 _atom_site_fract_x
 _atom_site_fract_y
 _atom_site_fract_z
 _atom_site_occupancy
  Tb  Tb0  1  0.250000  0.579659  0.701552  1
  Tb  Tb1  1  0.750000  0.418033  0.297083  1
  Tb  Tb2  1  0.750000  0.082046  0.797081  1
  Dy  Dy3  1  0.250000  0.920380  0.201799  1
  Co  Co4  1  0.750000  0.287230  0.009042  1
  Co  Co5  1  0.750000  0.212615  0.508819  1
  Co  Co6  1  0.250000  0.404835  0.487380  1
  Co  Co7  1  0.250000  0.095123  0.987548  1
  Co  Co8  1  0.750000  0.591950  0.514345  1
  Co  Co9  1  0.750000  0.907953  0.014952  1
  Co  Co10  1  0.250000  0.222365  0.175431  1
  Co  Co11  1  0.250000  0.277488  0.675335  1
  Co  Co12  1  0.750000  0.778258  0.825929  1
  Co  Co13  1  0.750000  0.722007  0.325764  1
  Co  Co14  1  0.250000  0.882027  0.698153  1
  Co  Co15  1  0.250000  0.618230  0.198263  1
  Co  Co16  1  0.750000  0.119712  0.300471  1
  Co  Co17  1  0.750000  0.379948  0.800626  1
  Co  Co18  1  0.250000  0.465764  0.931990  1
  Co  Co19  1  0.250000  0.034106  0.431668  1
  Co  Co20  1  0.750000  0.534015  0.066566  1
  Co  Co21  1  0.750000  0.966142  0.566246  1
  Cu  Cu22  1  0.250000  0.712124  0.990656  1
  Cu  Cu23  1  0.250000  0.787896  0.490605  1
  P  P24  1  0.250000  0.419985  0.111678  1
  P  P25  1  0.250000  0.079974  0.611534  1
  P  P26  1  0.750000  0.576611  0.884512  1
  P  P27  1  0.750000  0.923358  0.384122  1
  P  P28  1  0.250000  0.269896  0.868158  1
  P  P29  1  0.250000  0.230026  0.368114  1
  P  P30  1  0.750000  0.729364  0.138487  1
  P  P31  1  0.750000  0.771127  0.638297  1
  P  P32  1  0.250000  0.599135  0.391359  1
  P  P33  1  0.250000  0.900899  0.891353  1
  P  P34  1  0.750000  0.395942  0.607448  1
  P  P35  1  0.750000  0.103774  0.107638  1
