# generated using pymatgen
data_K8Ti6BCl20
_symmetry_space_group_name_H-M   'P 1'
_cell_length_a   10.98728035
_cell_length_b   10.98728050
_cell_length_c   10.98728100
_cell_angle_alpha   60.00000150
_cell_angle_beta   60.00000105
_cell_angle_gamma   59.99999942
_symmetry_Int_Tables_number   1
_chemical_formula_structural   K8Ti6BCl20
_chemical_formula_sum   'K8 Ti6 B1 Cl20'
_cell_volume   937.89810482
_cell_formula_units_Z   1
loop_
 _symmetry_equiv_pos_site_id
 _symmetry_equiv_pos_as_xyz
  1  'x, y, z'
loop_
 _atom_site_type_symbol
 _atom_site_label
 _atom_site_symmetry_multiplicity
 _atom_site_fract_x
 _atom_site_fract_y
 _atom_site_fract_z
 _atom_site_occupancy
  K  K0  1  0.080658  0.639781  0.639781  1
  K  K1  1  0.639781  0.080658  0.639781  1
  K  K2  1  0.639781  0.639781  0.080658  1
  K  K3  1  0.639781  0.639781  0.639781  1
  K  K4  1  0.360219  0.919342  0.360219  1
  K  K5  1  0.919342  0.360219  0.360219  1
  K  K6  1  0.360219  0.360219  0.919342  1
  K  K7  1  0.360219  0.360219  0.360219  1
  Ti  Ti8  1  0.861314  0.861314  0.138686  1
  Ti  Ti9  1  0.861314  0.138686  0.861314  1
  Ti  Ti10  1  0.138686  0.138686  0.861314  1
  Ti  Ti11  1  0.138686  0.861314  0.138686  1
  Ti  Ti12  1  0.138686  0.861314  0.861314  1
  Ti  Ti13  1  0.861314  0.138686  0.138686  1
  B  B14  1  0.000000  0.000000  0.000000  1
  Cl  Cl15  1  0.686472  0.313528  0.000000  1
  Cl  Cl16  1  0.000000  0.686472  0.000000  1
  Cl  Cl17  1  0.000000  0.000000  0.686472  1
  Cl  Cl18  1  0.686472  0.000000  0.313528  1
  Cl  Cl19  1  0.313528  0.686472  0.000000  1
  Cl  Cl20  1  0.313528  0.000000  0.686472  1
  Cl  Cl21  1  0.000000  0.000000  0.313528  1
  Cl  Cl22  1  0.000000  0.313528  0.000000  1
  Cl  Cl23  1  0.000000  0.686472  0.313528  1
  Cl  Cl24  1  0.686472  0.000000  0.000000  1
  Cl  Cl25  1  0.000000  0.313528  0.686472  1
  Cl  Cl26  1  0.313528  0.000000  0.000000  1
  Cl  Cl27  1  0.691157  0.691157  0.308843  1
  Cl  Cl28  1  0.691157  0.308843  0.691157  1
  Cl  Cl29  1  0.308843  0.308843  0.691157  1
  Cl  Cl30  1  0.308843  0.691157  0.308843  1
  Cl  Cl31  1  0.308843  0.691157  0.691157  1
  Cl  Cl32  1  0.691157  0.308843  0.308843  1
  Cl  Cl33  1  0.750000  0.750000  0.750000  1
  Cl  Cl34  1  0.250000  0.250000  0.250000  1
