# generated using pymatgen
data_SrFe2As2(O4F)2
_symmetry_space_group_name_H-M   'P 1'
_cell_length_a   5.07304800
_cell_length_b   12.74918300
_cell_length_c   13.02335300
_cell_angle_alpha   90.00000000
_cell_angle_beta   90.00000000
_cell_angle_gamma   90.00000000
_symmetry_Int_Tables_number   1
_chemical_formula_structural   SrFe2As2(O4F)2
_chemical_formula_sum   'Sr4 Fe8 As8 O32 F8'
_cell_volume   842.31423221
_cell_formula_units_Z   4
loop_
 _symmetry_equiv_pos_site_id
 _symmetry_equiv_pos_as_xyz
  1  'x, y, z'
loop_
 _atom_site_type_symbol
 _atom_site_label
 _atom_site_symmetry_multiplicity
 _atom_site_fract_x
 _atom_site_fract_y
 _atom_site_fract_z
 _atom_site_occupancy
  Sr  Sr0  1  0.747814  0.504866  0.235466  1
  Sr  Sr1  1  0.252186  0.004866  0.264534  1
  Sr  Sr2  1  0.752186  0.495135  0.735466  1
  Sr  Sr3  1  0.247813  0.995134  0.764534  1
  Fe  Fe4  1  0.489538  0.858975  0.001765  1
  Fe  Fe5  1  0.250731  0.248921  0.110324  1
  Fe  Fe6  1  0.749268  0.748921  0.389676  1
  Fe  Fe7  1  0.510461  0.358976  0.498235  1
  Fe  Fe8  1  0.010461  0.141025  0.501765  1
  Fe  Fe9  1  0.249267  0.751079  0.610324  1
  Fe  Fe10  1  0.750732  0.251078  0.889676  1
  Fe  Fe11  1  0.989539  0.641025  0.998235  1
  As  As12  1  0.968911  0.035917  0.000306  1
  As  As13  1  0.250611  0.738891  0.216147  1
  As  As14  1  0.749388  0.238892  0.283853  1
  As  As15  1  0.031089  0.535918  0.499694  1
  As  As16  1  0.531090  0.964083  0.500306  1
  As  As17  1  0.249387  0.261109  0.716147  1
  As  As18  1  0.750612  0.761109  0.783853  1
  As  As19  1  0.468910  0.464082  0.999695  1
  O  O20  1  0.694868  0.551613  0.049278  1
  O  O21  1  0.696163  0.978550  0.051341  1
  O  O22  1  0.100945  0.102352  0.103466  1
  O  O23  1  0.410514  0.393040  0.110919  1
  O  O24  1  0.345869  0.846701  0.144579  1
  O  O25  1  0.112400  0.634495  0.150990  1
  O  O26  1  0.965049  0.302111  0.202528  1
  O  O27  1  0.477289  0.186129  0.223280  1
  O  O28  1  0.522710  0.686130  0.276720  1
  O  O29  1  0.034951  0.802110  0.297472  1
  O  O30  1  0.887600  0.134496  0.349010  1
  O  O31  1  0.654130  0.346700  0.355421  1
  O  O32  1  0.589486  0.893041  0.389081  1
  O  O33  1  0.899055  0.602352  0.396534  1
  O  O34  1  0.303837  0.478550  0.448659  1
  O  O35  1  0.305132  0.051613  0.450722  1
  O  O36  1  0.805133  0.448387  0.549278  1
  O  O37  1  0.803838  0.021451  0.551341  1
  O  O38  1  0.399054  0.897648  0.603466  1
  O  O39  1  0.089485  0.606960  0.610919  1
  O  O40  1  0.154129  0.153299  0.644579  1
  O  O41  1  0.387599  0.365505  0.650990  1
  O  O42  1  0.534952  0.697890  0.702528  1
  O  O43  1  0.022710  0.813871  0.723280  1
  O  O44  1  0.977290  0.313870  0.776721  1
  O  O45  1  0.465048  0.197890  0.797472  1
  O  O46  1  0.612401  0.865505  0.849010  1
  O  O47  1  0.845870  0.653299  0.855421  1
  O  O48  1  0.910515  0.106959  0.889081  1
  O  O49  1  0.600946  0.397648  0.896534  1
  O  O50  1  0.196162  0.521450  0.948659  1
  O  O51  1  0.194867  0.948387  0.950722  1
  F  F52  1  0.530348  0.207844  0.008908  1
  F  F53  1  0.795059  0.768811  0.037224  1
  F  F54  1  0.204941  0.268810  0.462776  1
  F  F55  1  0.469652  0.707843  0.491092  1
  F  F56  1  0.969653  0.792157  0.508908  1
  F  F57  1  0.704942  0.231189  0.537224  1
  F  F58  1  0.295058  0.731190  0.962776  1
  F  F59  1  0.030347  0.292156  0.991092  1
