# generated using pymatgen
data_Ta5Be15NbCu8
_symmetry_space_group_name_H-M   'P 1'
_cell_length_a   7.63263068
_cell_length_b   7.62826938
_cell_length_c   7.67766541
_cell_angle_alpha   59.82324416
_cell_angle_beta   59.81682877
_cell_angle_gamma   60.40978982
_symmetry_Int_Tables_number   1
_chemical_formula_structural   Ta5Be15NbCu8
_chemical_formula_sum   'Ta5 Be15 Nb1 Cu8'
_cell_volume   316.18937961
_cell_formula_units_Z   1
loop_
 _symmetry_equiv_pos_site_id
 _symmetry_equiv_pos_as_xyz
  1  'x, y, z'
loop_
 _atom_site_type_symbol
 _atom_site_label
 _atom_site_symmetry_multiplicity
 _atom_site_fract_x
 _atom_site_fract_y
 _atom_site_fract_z
 _atom_site_occupancy
  Ta  Ta0  1  0.197604  0.802478  0.802396  1
  Ta  Ta1  1  0.802366  0.197602  0.197634  1
  Ta  Ta2  1  0.197810  0.802105  0.197921  1
  Ta  Ta3  1  0.802079  0.197836  0.802190  1
  Ta  Ta4  1  0.817587  0.817591  0.182413  1
  Be  Be5  1  0.500188  0.500101  0.499812  1
  Be  Be6  1  0.499479  0.499559  0.000485  1
  Be  Be7  1  0.999835  0.500275  0.499782  1
  Be  Be8  1  0.500218  0.999892  0.000165  1
  Be  Be9  1  0.999515  0.999523  0.500521  1
  Be  Be10  1  0.999925  0.500255  0.000075  1
  Be  Be11  1  0.500197  0.999924  0.499803  1
  Be  Be12  1  0.824042  0.520796  0.827488  1
  Be  Be13  1  0.172257  0.172498  0.479268  1
  Be  Be14  1  0.481566  0.174927  0.171690  1
  Be  Be15  1  0.172512  0.172325  0.175958  1
  Be  Be16  1  0.520732  0.824024  0.827743  1
  Be  Be17  1  0.828140  0.828332  0.825153  1
  Be  Be18  1  0.828310  0.828184  0.518434  1
  Be  Be19  1  0.174847  0.481624  0.171860  1
  Nb  Nb20  1  0.178040  0.178135  0.821960  1
  Cu  Cu21  1  0.619575  0.131870  0.624468  1
  Cu  Cu22  1  0.376322  0.376004  0.867649  1
  Cu  Cu23  1  0.868100  0.381005  0.375473  1
  Cu  Cu24  1  0.375532  0.375913  0.380425  1
  Cu  Cu25  1  0.132351  0.619974  0.623678  1
  Cu  Cu26  1  0.624930  0.624577  0.618588  1
  Cu  Cu27  1  0.624527  0.624576  0.131900  1
  Cu  Cu28  1  0.381412  0.868096  0.375070  1
