# generated using pymatgen
data_Tm4Os5Ru3
_symmetry_space_group_name_H-M   'P 1'
_cell_length_a   5.29004938
_cell_length_b   5.19703160
_cell_length_c   8.88656200
_cell_angle_alpha   90.00000000
_cell_angle_beta   90.00000000
_cell_angle_gamma   119.41855295
_symmetry_Int_Tables_number   1
_chemical_formula_structural   Tm4Os5Ru3
_chemical_formula_sum   'Tm4 Os5 Ru3'
_cell_volume   212.81113082
_cell_formula_units_Z   1
loop_
 _symmetry_equiv_pos_site_id
 _symmetry_equiv_pos_as_xyz
  1  'x, y, z'
loop_
 _atom_site_type_symbol
 _atom_site_label
 _atom_site_symmetry_multiplicity
 _atom_site_fract_x
 _atom_site_fract_y
 _atom_site_fract_z
 _atom_site_occupancy
  Tm  Tm0  1  0.667872  0.333979  0.566670  1
  Tm  Tm1  1  0.332254  0.666078  0.433031  1
  Tm  Tm2  1  0.332254  0.666078  0.066969  1
  Tm  Tm3  1  0.667872  0.333979  0.933330  1
  Os  Os4  1  0.171926  0.341454  0.750000  1
  Os  Os5  1  0.171952  0.830441  0.750000  1
  Os  Os6  1  0.656825  0.828441  0.750000  1
  Os  Os7  1  0.833023  0.659501  0.250000  1
  Os  Os8  1  0.832966  0.173562  0.250000  1
  Ru  Ru9  1  0.993993  0.996990  0.499431  1
  Ru  Ru10  1  0.993993  0.996990  0.000569  1
  Ru  Ru11  1  0.345070  0.172504  0.250000  1
