# generated using pymatgen
data_Ba8HfZrS12
_symmetry_space_group_name_H-M   'P 1'
_cell_length_a   8.64066058
_cell_length_b   8.64065887
_cell_length_c   8.64066108
_cell_angle_alpha   89.40496631
_cell_angle_beta   89.40497415
_cell_angle_gamma   89.40498532
_symmetry_Int_Tables_number   1
_chemical_formula_structural   Ba8HfZrS12
_chemical_formula_sum   'Ba8 Hf1 Zr1 S12'
_cell_volume   645.01675320
_cell_formula_units_Z   1
loop_
 _symmetry_equiv_pos_site_id
 _symmetry_equiv_pos_as_xyz
  1  'x, y, z'
loop_
 _atom_site_type_symbol
 _atom_site_label
 _atom_site_symmetry_multiplicity
 _atom_site_fract_x
 _atom_site_fract_y
 _atom_site_fract_z
 _atom_site_occupancy
  Ba  Ba0  1  0.875802  0.624312  0.249938  1
  Ba  Ba1  1  0.249938  0.875802  0.624312  1
  Ba  Ba2  1  0.624312  0.249938  0.875802  1
  Ba  Ba3  1  0.750062  0.124198  0.375688  1
  Ba  Ba4  1  0.375688  0.750062  0.124198  1
  Ba  Ba5  1  0.124198  0.375688  0.750062  1
  Ba  Ba6  1  0.249896  0.249896  0.249896  1
  Ba  Ba7  1  0.750104  0.750104  0.750104  1
  Hf  Hf8  1  0.000000  0.000000  0.000000  1
  Zr  Zr9  1  0.500000  0.500000  0.500000  1
  S  S10  1  0.212652  0.560212  0.426924  1
  S  S11  1  0.426924  0.212652  0.560212  1
  S  S12  1  0.560212  0.426924  0.212652  1
  S  S13  1  0.927639  0.059832  0.714973  1
  S  S14  1  0.714973  0.927639  0.059832  1
  S  S15  1  0.059832  0.714973  0.927639  1
  S  S16  1  0.787348  0.439788  0.573076  1
  S  S17  1  0.573076  0.787348  0.439788  1
  S  S18  1  0.439788  0.573076  0.787348  1
  S  S19  1  0.072361  0.940168  0.285027  1
  S  S20  1  0.285027  0.072361  0.940168  1
  S  S21  1  0.940168  0.285027  0.072361  1
