# generated using pymatgen
data_Cs2V2FeNi3Se8
_symmetry_space_group_name_H-M   'P 1'
_cell_length_a   10.40666426
_cell_length_b   10.37216347
_cell_length_c   7.69563700
_cell_angle_alpha   90.00000000
_cell_angle_beta   90.00000000
_cell_angle_gamma   148.82044717
_symmetry_Int_Tables_number   1
_chemical_formula_structural   Cs2V2FeNi3Se8
_chemical_formula_sum   'Cs2 V2 Fe1 Ni3 Se8'
_cell_volume   430.05287717
_cell_formula_units_Z   1
loop_
 _symmetry_equiv_pos_site_id
 _symmetry_equiv_pos_as_xyz
  1  'x, y, z'
loop_
 _atom_site_type_symbol
 _atom_site_label
 _atom_site_symmetry_multiplicity
 _atom_site_fract_x
 _atom_site_fract_y
 _atom_site_fract_z
 _atom_site_occupancy
  Cs  Cs0  1  0.170132  0.541378  0.750000  1
  Cs  Cs1  1  0.541879  0.171231  0.250000  1
  V  V2  1  0.706462  0.507280  0.750000  1
  V  V3  1  0.503541  0.701715  0.250000  1
  Fe  Fe4  1  0.006321  0.200088  0.250000  1
  Ni  Ni5  1  0.610983  0.611607  0.500300  1
  Ni  Ni6  1  0.205437  0.005704  0.750000  1
  Ni  Ni7  1  0.610983  0.611607  0.999700  1
  Se  Se8  1  0.748379  0.945813  0.000905  1
  Se  Se9  1  0.367435  0.359446  0.750000  1
  Se  Se10  1  0.362214  0.363712  0.250000  1
  Se  Se11  1  0.947232  0.755440  0.504926  1
  Se  Se12  1  0.552814  0.166300  0.750000  1
  Se  Se13  1  0.947232  0.755440  0.995074  1
  Se  Se14  1  0.162377  0.549231  0.250000  1
  Se  Se15  1  0.748379  0.945813  0.499095  1
