# generated using pymatgen
data_Hf2Tc3Sb2Ru
_symmetry_space_group_name_H-M   'P 1'
_cell_length_a   4.56909400
_cell_length_b   6.49720107
_cell_length_c   13.73194414
_cell_angle_alpha   89.98382209
_cell_angle_beta   89.99999597
_cell_angle_gamma   90.00199968
_symmetry_Int_Tables_number   1
_chemical_formula_structural   Hf2Tc3Sb2Ru
_chemical_formula_sum   'Hf6 Tc9 Sb6 Ru3'
_cell_volume   407.65090447
_cell_formula_units_Z   3
loop_
 _symmetry_equiv_pos_site_id
 _symmetry_equiv_pos_as_xyz
  1  'x, y, z'
loop_
 _atom_site_type_symbol
 _atom_site_label
 _atom_site_symmetry_multiplicity
 _atom_site_fract_x
 _atom_site_fract_y
 _atom_site_fract_z
 _atom_site_occupancy
  Hf  Hf0  1  0.000001  0.499523  0.999961  1
  Hf  Hf1  1  0.499967  0.000811  0.167021  1
  Hf  Hf2  1  0.999957  0.499822  0.333444  1
  Hf  Hf3  1  0.499998  0.000082  0.499961  1
  Hf  Hf4  1  0.000045  0.499527  0.666667  1
  Hf  Hf5  1  0.500030  0.000014  0.833005  1
  Tc  Tc6  1  0.999950  0.751632  0.164525  1
  Tc  Tc7  1  0.499916  0.249541  0.331594  1
  Tc  Tc8  1  0.499984  0.750458  0.331901  1
  Tc  Tc9  1  0.000027  0.249929  0.499545  1
  Tc  Tc10  1  0.999971  0.749768  0.500000  1
  Tc  Tc11  1  0.500022  0.249704  0.667262  1
  Tc  Tc12  1  0.500079  0.750451  0.667169  1
  Tc  Tc13  1  0.000061  0.249763  0.835920  1
  Tc  Tc14  1  0.000012  0.749863  0.835249  1
  Sb  Sb15  1  0.000002  0.998435  0.999032  1
  Sb  Sb16  1  0.499958  0.502583  0.168839  1
  Sb  Sb17  1  0.999957  0.998411  0.334319  1
  Sb  Sb18  1  0.500005  0.500058  0.499853  1
  Sb  Sb19  1  0.000052  0.000097  0.666804  1
  Sb  Sb20  1  0.500034  0.500273  0.831129  1
  Ru  Ru21  1  0.499996  0.252653  0.001160  1
  Ru  Ru22  1  0.500004  0.747469  0.000734  1
  Ru  Ru23  1  0.999976  0.249134  0.164902  1
