# generated using pymatgen
data_DyYLu2(Si3Rh)2
_symmetry_space_group_name_H-M   'P 1'
_cell_length_a   8.13275513
_cell_length_b   8.13275463
_cell_length_c   7.80621700
_cell_angle_alpha   90.00000000
_cell_angle_beta   90.00000000
_cell_angle_gamma   119.93953409
_symmetry_Int_Tables_number   1
_chemical_formula_structural   DyYLu2(Si3Rh)2
_chemical_formula_sum   'Dy2 Y2 Lu4 Si12 Rh4'
_cell_volume   447.41537951
_cell_formula_units_Z   2
loop_
 _symmetry_equiv_pos_site_id
 _symmetry_equiv_pos_as_xyz
  1  'x, y, z'
loop_
 _atom_site_type_symbol
 _atom_site_label
 _atom_site_symmetry_multiplicity
 _atom_site_fract_x
 _atom_site_fract_y
 _atom_site_fract_z
 _atom_site_occupancy
  Dy  Dy0  1  0.491079  0.981813  0.750000  1
  Dy  Dy1  1  0.018187  0.508921  0.750000  1
  Y  Y2  1  0.000043  0.999957  0.250000  1
  Y  Y3  1  0.999704  0.000296  0.750000  1
  Lu  Lu4  1  0.509930  0.490070  0.250000  1
  Lu  Lu5  1  0.509733  0.019389  0.250000  1
  Lu  Lu6  1  0.980611  0.490267  0.250000  1
  Lu  Lu7  1  0.492170  0.507830  0.750000  1
  Si  Si8  1  0.167719  0.832281  0.497079  1
  Si  Si9  1  0.168017  0.335511  0.498976  1
  Si  Si10  1  0.664489  0.831983  0.498976  1
  Si  Si11  1  0.832628  0.167372  0.497815  1
  Si  Si12  1  0.832937  0.666081  0.498079  1
  Si  Si13  1  0.333919  0.167063  0.498079  1
  Si  Si14  1  0.832628  0.167372  0.002185  1
  Si  Si15  1  0.832937  0.666081  0.001921  1
  Si  Si16  1  0.333919  0.167063  0.001921  1
  Si  Si17  1  0.167719  0.832281  0.002921  1
  Si  Si18  1  0.168017  0.335511  0.001024  1
  Si  Si19  1  0.664489  0.831983  0.001024  1
  Rh  Rh20  1  0.333859  0.666141  0.458477  1
  Rh  Rh21  1  0.665705  0.334295  0.529591  1
  Rh  Rh22  1  0.665705  0.334295  0.970409  1
  Rh  Rh23  1  0.333859  0.666141  0.041523  1
