# generated using pymatgen
data_Li2Mn2Ni9P7Pd
_symmetry_space_group_name_H-M   'P 1'
_cell_length_a   9.04704685
_cell_length_b   9.05740019
_cell_length_c   3.56540500
_cell_angle_alpha   90.00000000
_cell_angle_beta   90.00000000
_cell_angle_gamma   119.72242322
_symmetry_Int_Tables_number   1
_chemical_formula_structural   Li2Mn2Ni9P7Pd
_chemical_formula_sum   'Li2 Mn2 Ni9 P7 Pd1'
_cell_volume   253.72184248
_cell_formula_units_Z   1
loop_
 _symmetry_equiv_pos_site_id
 _symmetry_equiv_pos_as_xyz
  1  'x, y, z'
loop_
 _atom_site_type_symbol
 _atom_site_label
 _atom_site_symmetry_multiplicity
 _atom_site_fract_x
 _atom_site_fract_y
 _atom_site_fract_z
 _atom_site_occupancy
  Li  Li0  1  0.333014  0.664662  0.000000  1
  Li  Li1  1  0.671070  0.335085  0.500000  1
  Mn  Mn2  1  0.869544  0.775563  0.500000  1
  Mn  Mn3  1  0.904274  0.127826  0.500000  1
  Ni  Ni4  1  0.713049  0.878422  0.000000  1
  Ni  Ni5  1  0.163443  0.281808  0.000000  1
  Ni  Ni6  1  0.117871  0.837077  0.000000  1
  Ni  Ni7  1  0.628513  0.568897  0.000000  1
  Ni  Ni8  1  0.937940  0.372646  0.000000  1
  Ni  Ni9  1  0.437725  0.063793  0.000000  1
  Ni  Ni10  1  0.560314  0.948249  0.500000  1
  Ni  Ni11  1  0.389450  0.441803  0.500000  1
  Ni  Ni12  1  0.050712  0.611324  0.500000  1
  P  P13  1  0.586627  0.711844  0.500000  1
  P  P14  1  0.121224  0.411021  0.500000  1
  P  P15  1  0.289767  0.867829  0.500000  1
  P  P16  1  0.989008  0.995661  0.000000  1
  P  P17  1  0.878145  0.584136  0.000000  1
  P  P18  1  0.706575  0.123001  0.000000  1
  P  P19  1  0.426727  0.302835  0.000000  1
  Pd  Pd20  1  0.225008  0.096518  0.500000  1
