# generated using pymatgen
data_Ho2PaSn3Pt2Rh
_symmetry_space_group_name_H-M   'P 1'
_cell_length_a   7.47976664
_cell_length_b   7.44419723
_cell_length_c   4.05953600
_cell_angle_alpha   90.00000000
_cell_angle_beta   90.00000000
_cell_angle_gamma   119.84282144
_symmetry_Int_Tables_number   1
_chemical_formula_structural   Ho2PaSn3Pt2Rh
_chemical_formula_sum   'Ho2 Pa1 Sn3 Pt2 Rh1'
_cell_volume   196.06434515
_cell_formula_units_Z   1
loop_
 _symmetry_equiv_pos_site_id
 _symmetry_equiv_pos_as_xyz
  1  'x, y, z'
loop_
 _atom_site_type_symbol
 _atom_site_label
 _atom_site_symmetry_multiplicity
 _atom_site_fract_x
 _atom_site_fract_y
 _atom_site_fract_z
 _atom_site_occupancy
  Ho  Ho0  1  0.594548  0.592331  0.000000  1
  Ho  Ho1  1  0.405452  0.997783  0.000000  1
  Pa  Pa2  1  0.000000  0.407868  0.000000  1
  Sn  Sn3  1  0.264433  0.252771  0.500000  1
  Sn  Sn4  1  0.000000  0.755295  0.500000  1
  Sn  Sn5  1  0.735567  0.988339  0.500000  1
  Pt  Pt6  1  0.682528  0.336051  0.500000  1
  Pt  Pt7  1  0.317472  0.653524  0.500000  1
  Rh  Rh8  1  0.000000  0.016037  0.000000  1
