# generated using pymatgen
data_Dy2Co5P6Ru4Rh
_symmetry_space_group_name_H-M   'P 1'
_cell_length_a   3.76370200
_cell_length_b   10.53006800
_cell_length_c   12.04649500
_cell_angle_alpha   90.00000000
_cell_angle_beta   90.00000000
_cell_angle_gamma   90.00000000
_symmetry_Int_Tables_number   1
_chemical_formula_structural   Dy2Co5P6Ru4Rh
_chemical_formula_sum   'Dy4 Co10 P12 Ru8 Rh2'
_cell_volume   477.42714751
_cell_formula_units_Z   2
loop_
 _symmetry_equiv_pos_site_id
 _symmetry_equiv_pos_as_xyz
  1  'x, y, z'
loop_
 _atom_site_type_symbol
 _atom_site_label
 _atom_site_symmetry_multiplicity
 _atom_site_fract_x
 _atom_site_fract_y
 _atom_site_fract_z
 _atom_site_occupancy
  Dy  Dy0  1  0.250000  0.586488  0.709427  1
  Dy  Dy1  1  0.250000  0.913512  0.209427  1
  Dy  Dy2  1  0.750000  0.417536  0.292681  1
  Dy  Dy3  1  0.750000  0.082464  0.792681  1
  Co  Co4  1  0.750000  0.775672  0.821179  1
  Co  Co5  1  0.750000  0.724328  0.321179  1
  Co  Co6  1  0.250000  0.880580  0.697423  1
  Co  Co7  1  0.250000  0.619420  0.197423  1
  Co  Co8  1  0.750000  0.109301  0.302646  1
  Co  Co9  1  0.750000  0.390699  0.802646  1
  Co  Co10  1  0.250000  0.463376  0.933391  1
  Co  Co11  1  0.250000  0.036624  0.433391  1
  Co  Co12  1  0.750000  0.537861  0.066285  1
  Co  Co13  1  0.750000  0.962139  0.566285  1
  P  P14  1  0.250000  0.427203  0.111996  1
  P  P15  1  0.250000  0.072797  0.611996  1
  P  P16  1  0.750000  0.578474  0.888174  1
  P  P17  1  0.750000  0.921526  0.388174  1
  P  P18  1  0.250000  0.270619  0.871269  1
  P  P19  1  0.250000  0.229381  0.371269  1
  P  P20  1  0.750000  0.725100  0.136840  1
  P  P21  1  0.750000  0.774900  0.636840  1
  P  P22  1  0.250000  0.603494  0.381617  1
  P  P23  1  0.250000  0.896506  0.881617  1
  P  P24  1  0.750000  0.398335  0.613891  1
  P  P25  1  0.750000  0.101665  0.113891  1
  Ru  Ru26  1  0.250000  0.707814  0.982131  1
  Ru  Ru27  1  0.250000  0.792186  0.482131  1
  Ru  Ru28  1  0.750000  0.290451  0.009585  1
  Ru  Ru29  1  0.750000  0.209549  0.509585  1
  Ru  Ru30  1  0.250000  0.410117  0.485120  1
  Ru  Ru31  1  0.250000  0.089883  0.985120  1
  Ru  Ru32  1  0.250000  0.223910  0.179742  1
  Ru  Ru33  1  0.250000  0.276090  0.679742  1
  Rh  Rh34  1  0.750000  0.599669  0.516602  1
  Rh  Rh35  1  0.750000  0.900331  0.016602  1
