# generated using pymatgen
data_Sm8GaSiBr12
_symmetry_space_group_name_H-M   'P 1'
_cell_length_a   4.16821900
_cell_length_b   13.56462955
_cell_length_c   14.39247605
_cell_angle_alpha   89.87142990
_cell_angle_beta   90.00000000
_cell_angle_gamma   90.00000000
_symmetry_Int_Tables_number   1
_chemical_formula_structural   Sm8GaSiBr12
_chemical_formula_sum   'Sm8 Ga1 Si1 Br12'
_cell_volume   813.75353555
_cell_formula_units_Z   1
loop_
 _symmetry_equiv_pos_site_id
 _symmetry_equiv_pos_as_xyz
  1  'x, y, z'
loop_
 _atom_site_type_symbol
 _atom_site_label
 _atom_site_symmetry_multiplicity
 _atom_site_fract_x
 _atom_site_fract_y
 _atom_site_fract_z
 _atom_site_occupancy
  Sm  Sm0  1  0.500000  0.120128  0.338112  1
  Sm  Sm1  1  0.500000  0.879872  0.661888  1
  Sm  Sm2  1  0.500000  0.617609  0.158692  1
  Sm  Sm3  1  0.500000  0.382391  0.841308  1
  Sm  Sm4  1  0.000000  0.122402  0.580931  1
  Sm  Sm5  1  0.000000  0.877598  0.419069  1
  Sm  Sm6  1  0.000000  0.618193  0.921822  1
  Sm  Sm7  1  0.000000  0.381807  0.078178  1
  Ga  Ga8  1  0.500000  0.000000  0.500000  1
  Si  Si9  1  0.500000  0.500000  0.000000  1
  Br  Br10  1  0.500000  0.244919  0.162497  1
  Br  Br11  1  0.500000  0.755081  0.837503  1
  Br  Br12  1  0.500000  0.743944  0.336596  1
  Br  Br13  1  0.500000  0.256056  0.663404  1
  Br  Br14  1  0.000000  0.254848  0.411329  1
  Br  Br15  1  0.000000  0.745152  0.588671  1
  Br  Br16  1  0.000000  0.754469  0.088775  1
  Br  Br17  1  0.000000  0.245531  0.911225  1
  Br  Br18  1  0.000000  0.001511  0.243737  1
  Br  Br19  1  0.000000  0.998489  0.756263  1
  Br  Br20  1  0.000000  0.501617  0.256019  1
  Br  Br21  1  0.000000  0.498383  0.743981  1
