# generated using pymatgen
data_La2Y4FeCl10
_symmetry_space_group_name_H-M   'P 1'
_cell_length_a   7.15564745
_cell_length_b   9.01202467
_cell_length_c   8.92886200
_cell_angle_alpha   107.17200813
_cell_angle_beta   95.02310250
_cell_angle_gamma   106.73644744
_symmetry_Int_Tables_number   1
_chemical_formula_structural   La2Y4FeCl10
_chemical_formula_sum   'La2 Y4 Fe1 Cl10'
_cell_volume   517.36696885
_cell_formula_units_Z   1
loop_
 _symmetry_equiv_pos_site_id
 _symmetry_equiv_pos_as_xyz
  1  'x, y, z'
loop_
 _atom_site_type_symbol
 _atom_site_label
 _atom_site_symmetry_multiplicity
 _atom_site_fract_x
 _atom_site_fract_y
 _atom_site_fract_z
 _atom_site_occupancy
  La  La0  1  0.626470  0.550663  0.267252  1
  La  La1  1  0.373530  0.449337  0.732748  1
  Y  Y2  1  0.528165  0.192449  0.401767  1
  Y  Y3  1  0.471835  0.807551  0.598233  1
  Y  Y4  1  0.128915  0.356582  0.316804  1
  Y  Y5  1  0.871085  0.643418  0.683196  1
  Fe  Fe6  1  0.500000  0.500000  0.500000  1
  Cl  Cl7  1  0.155856  0.054490  0.233806  1
  Cl  Cl8  1  0.844144  0.945510  0.766194  1
  Cl  Cl9  1  0.238839  0.413320  0.054520  1
  Cl  Cl10  1  0.761161  0.586680  0.945480  1
  Cl  Cl11  1  0.719169  0.239938  0.163460  1
  Cl  Cl12  1  0.280831  0.760062  0.836540  1
  Cl  Cl13  1  0.054161  0.674005  0.424039  1
  Cl  Cl14  1  0.945839  0.325995  0.575961  1
  Cl  Cl15  1  0.417666  0.121563  0.662093  1
  Cl  Cl16  1  0.582334  0.878437  0.337907  1
