# generated using pymatgen
data_Tb8Cd2OsPt
_symmetry_space_group_name_H-M   'P 1'
_cell_length_a   9.70286453
_cell_length_b   9.70286437
_cell_length_c   9.74904900
_cell_angle_alpha   59.84241518
_cell_angle_beta   59.84241573
_cell_angle_gamma   59.79072191
_symmetry_Int_Tables_number   1
_chemical_formula_structural   Tb8Cd2OsPt
_chemical_formula_sum   'Tb16 Cd4 Os2 Pt2'
_cell_volume   646.42821768
_cell_formula_units_Z   2
loop_
 _symmetry_equiv_pos_site_id
 _symmetry_equiv_pos_as_xyz
  1  'x, y, z'
loop_
 _atom_site_type_symbol
 _atom_site_label
 _atom_site_symmetry_multiplicity
 _atom_site_fract_x
 _atom_site_fract_y
 _atom_site_fract_z
 _atom_site_occupancy
  Tb  Tb0  1  0.349100  0.349100  0.352406  1
  Tb  Tb1  1  0.349100  0.349100  0.949394  1
  Tb  Tb2  1  0.346479  0.953442  0.350039  1
  Tb  Tb3  1  0.953442  0.346479  0.350039  1
  Tb  Tb4  1  0.814061  0.188432  0.190688  1
  Tb  Tb5  1  0.188432  0.814061  0.806819  1
  Tb  Tb6  1  0.188432  0.814061  0.190688  1
  Tb  Tb7  1  0.814061  0.188432  0.806819  1
  Tb  Tb8  1  0.188539  0.188539  0.811461  1
  Tb  Tb9  1  0.808436  0.808436  0.191564  1
  Tb  Tb10  1  0.938379  0.557222  0.566097  1
  Tb  Tb11  1  0.557222  0.938379  0.938302  1
  Tb  Tb12  1  0.557222  0.938379  0.566097  1
  Tb  Tb13  1  0.938379  0.557222  0.938302  1
  Tb  Tb14  1  0.563748  0.563748  0.936252  1
  Tb  Tb15  1  0.940383  0.940383  0.559617  1
  Cd  Cd16  1  0.580521  0.580521  0.581567  1
  Cd  Cd17  1  0.580521  0.580521  0.257390  1
  Cd  Cd18  1  0.581060  0.255390  0.581775  1
  Cd  Cd19  1  0.255390  0.581060  0.581775  1
  Os  Os20  1  0.144106  0.144106  0.137100  1
  Os  Os21  1  0.144106  0.144106  0.574689  1
  Pt  Pt22  1  0.144711  0.574171  0.140560  1
  Pt  Pt23  1  0.574171  0.144711  0.140560  1
