# generated using pymatgen
data_Sr9Ca4La7Sn16
_symmetry_space_group_name_H-M   'P 1'
_cell_length_a   8.32922467
_cell_length_b   8.74187925
_cell_length_c   16.58738000
_cell_angle_alpha   90.01521223
_cell_angle_beta   90.04587529
_cell_angle_gamma   90.02658464
_symmetry_Int_Tables_number   1
_chemical_formula_structural   Sr9Ca4La7Sn16
_chemical_formula_sum   'Sr9 Ca4 La7 Sn16'
_cell_volume   1207.77760588
_cell_formula_units_Z   1
loop_
 _symmetry_equiv_pos_site_id
 _symmetry_equiv_pos_as_xyz
  1  'x, y, z'
loop_
 _atom_site_type_symbol
 _atom_site_label
 _atom_site_symmetry_multiplicity
 _atom_site_fract_x
 _atom_site_fract_y
 _atom_site_fract_z
 _atom_site_occupancy
  Sr  Sr0  1  0.828864  0.671641  0.876867  1
  Sr  Sr1  1  0.494989  0.319856  0.904084  1
  Sr  Sr2  1  0.993523  0.181510  0.595073  1
  Sr  Sr3  1  0.506640  0.681525  0.405023  1
  Sr  Sr4  1  0.006128  0.817996  0.094929  1
  Sr  Sr5  1  0.506691  0.680291  0.095145  1
  Sr  Sr6  1  0.006448  0.818691  0.405026  1
  Sr  Sr7  1  0.493820  0.319224  0.595356  1
  Sr  Sr8  1  0.992921  0.181683  0.904769  1
  Ca  Ca9  1  0.161440  0.488895  0.750809  1
  Ca  Ca10  1  0.663352  0.010044  0.750717  1
  Ca  Ca11  1  0.837200  0.511114  0.250006  1
  Ca  Ca12  1  0.336899  0.989759  0.249847  1
  La  La13  1  0.330797  0.828696  0.875360  1
  La  La14  1  0.830576  0.670473  0.624465  1
  La  La15  1  0.669836  0.170609  0.376634  1
  La  La16  1  0.169702  0.329635  0.123898  1
  La  La17  1  0.669311  0.170939  0.124189  1
  La  La18  1  0.169761  0.329476  0.376608  1
  La  La19  1  0.330902  0.828955  0.623627  1
  Sn  Sn20  1  0.338169  0.038852  0.039168  1
  Sn  Sn21  1  0.839164  0.461802  0.460093  1
  Sn  Sn22  1  0.660823  0.960832  0.539149  1
  Sn  Sn23  1  0.163699  0.537185  0.962094  1
  Sn  Sn24  1  0.657561  0.965722  0.961612  1
  Sn  Sn25  1  0.160793  0.538071  0.539187  1
  Sn  Sn26  1  0.339472  0.038870  0.460227  1
  Sn  Sn27  1  0.840857  0.458067  0.041500  1
  Sn  Sn28  1  0.529076  0.606468  0.747336  1
  Sn  Sn29  1  0.033620  0.894176  0.747690  1
  Sn  Sn30  1  0.468099  0.391760  0.250550  1
  Sn  Sn31  1  0.968270  0.108650  0.250418  1
  Sn  Sn32  1  0.287506  0.129494  0.749691  1
  Sn  Sn33  1  0.784264  0.368078  0.747873  1
  Sn  Sn34  1  0.714055  0.871912  0.250440  1
  Sn  Sn35  1  0.214772  0.629051  0.250534  1
