# generated using pymatgen
data_Nb3Co4B4W
_symmetry_space_group_name_H-M   'P 1'
_cell_length_a   3.30615800
_cell_length_b   5.84300829
_cell_length_c   6.76989762
_cell_angle_alpha   90.20366667
_cell_angle_beta   90.00000000
_cell_angle_gamma   90.00000000
_symmetry_Int_Tables_number   1
_chemical_formula_structural   Nb3Co4B4W
_chemical_formula_sum   'Nb3 Co4 B4 W1'
_cell_volume   130.77943726
_cell_formula_units_Z   1
loop_
 _symmetry_equiv_pos_site_id
 _symmetry_equiv_pos_as_xyz
  1  'x, y, z'
loop_
 _atom_site_type_symbol
 _atom_site_label
 _atom_site_symmetry_multiplicity
 _atom_site_fract_x
 _atom_site_fract_y
 _atom_site_fract_z
 _atom_site_occupancy
  Nb  Nb0  1  0.250000  0.025656  0.819642  1
  Nb  Nb1  1  0.250000  0.524724  0.677213  1
  Nb  Nb2  1  0.750000  0.974845  0.181334  1
  Co  Co3  1  0.250000  0.144004  0.440183  1
  Co  Co4  1  0.250000  0.642742  0.060805  1
  Co  Co5  1  0.750000  0.855772  0.557455  1
  Co  Co6  1  0.750000  0.358827  0.943346  1
  B  B7  1  0.250000  0.278845  0.127160  1
  B  B8  1  0.250000  0.764304  0.376728  1
  B  B9  1  0.750000  0.727626  0.880621  1
  B  B10  1  0.750000  0.226992  0.613689  1
  W  W11  1  0.750000  0.475664  0.321825  1
