# generated using pymatgen
data_Lu5GaSiAs
_symmetry_space_group_name_H-M   'P 1'
_cell_length_a   8.35404200
_cell_length_b   8.37122961
_cell_length_c   6.17345500
_cell_angle_alpha   90.00000000
_cell_angle_beta   90.00000000
_cell_angle_gamma   120.06807934
_symmetry_Int_Tables_number   1
_chemical_formula_structural   Lu5GaSiAs
_chemical_formula_sum   'Lu10 Ga2 Si2 As2'
_cell_volume   373.63408346
_cell_formula_units_Z   2
loop_
 _symmetry_equiv_pos_site_id
 _symmetry_equiv_pos_as_xyz
  1  'x, y, z'
loop_
 _atom_site_type_symbol
 _atom_site_label
 _atom_site_symmetry_multiplicity
 _atom_site_fract_x
 _atom_site_fract_y
 _atom_site_fract_z
 _atom_site_occupancy
  Lu  Lu0  1  0.338904  0.669453  0.000000  1
  Lu  Lu1  1  0.662278  0.331139  0.500000  1
  Lu  Lu2  1  0.662278  0.331139  0.000000  1
  Lu  Lu3  1  0.338904  0.669453  0.500000  1
  Lu  Lu4  1  0.244229  0.005624  0.250000  1
  Lu  Lu5  1  0.244229  0.238606  0.750000  1
  Lu  Lu6  1  0.998716  0.757650  0.750000  1
  Lu  Lu7  1  0.998716  0.241067  0.250000  1
  Lu  Lu8  1  0.756287  0.763401  0.250000  1
  Lu  Lu9  1  0.756287  0.992887  0.750000  1
  Ga  Ga10  1  0.394920  0.397915  0.250000  1
  Ga  Ga11  1  0.394920  0.997005  0.750000  1
  Si  Si12  1  0.605534  0.001905  0.250000  1
  Si  Si13  1  0.605534  0.603630  0.750000  1
  As  As14  1  0.999130  0.388032  0.750000  1
  As  As15  1  0.999130  0.611098  0.250000  1
