# generated using pymatgen
data_CaSi(AsRh2)3
_symmetry_space_group_name_H-M   'P 1'
_cell_length_a   7.25520900
_cell_length_b   7.25520899
_cell_length_c   3.77682600
_cell_angle_alpha   90.00000000
_cell_angle_beta   90.00000000
_cell_angle_gamma   120.00000462
_symmetry_Int_Tables_number   1
_chemical_formula_structural   CaSi(AsRh2)3
_chemical_formula_sum   'Ca1 Si1 As3 Rh6'
_cell_volume   172.16998559
_cell_formula_units_Z   1
loop_
 _symmetry_equiv_pos_site_id
 _symmetry_equiv_pos_as_xyz
  1  'x, y, z'
loop_
 _atom_site_type_symbol
 _atom_site_label
 _atom_site_symmetry_multiplicity
 _atom_site_fract_x
 _atom_site_fract_y
 _atom_site_fract_z
 _atom_site_occupancy
  Ca  Ca0  1  0.000000  0.000000  0.000000  1
  Si  Si1  1  0.333333  0.666667  0.000000  1
  As  As2  1  0.810515  0.189485  0.500000  1
  As  As3  1  0.378971  0.189485  0.500000  1
  As  As4  1  0.810515  0.621029  0.500000  1
  Rh  Rh5  1  0.202758  0.797242  0.500000  1
  Rh  Rh6  1  0.202758  0.405516  0.500000  1
  Rh  Rh7  1  0.532989  0.065979  0.000000  1
  Rh  Rh8  1  0.934021  0.467011  0.000000  1
  Rh  Rh9  1  0.532989  0.467011  0.000000  1
  Rh  Rh10  1  0.594484  0.797242  0.500000  1
