# generated using pymatgen
data_Hf3Sc5(P3Ir4)4
_symmetry_space_group_name_H-M   'P 1'
_cell_length_a   12.80293300
_cell_length_b   12.80293256
_cell_length_c   3.90390600
_cell_angle_alpha   90.00000000
_cell_angle_beta   90.00000000
_cell_angle_gamma   119.99999856
_symmetry_Int_Tables_number   1
_chemical_formula_structural   Hf3Sc5(P3Ir4)4
_chemical_formula_sum   'Hf3 Sc5 P12 Ir16'
_cell_volume   554.17754007
_cell_formula_units_Z   1
loop_
 _symmetry_equiv_pos_site_id
 _symmetry_equiv_pos_as_xyz
  1  'x, y, z'
loop_
 _atom_site_type_symbol
 _atom_site_label
 _atom_site_symmetry_multiplicity
 _atom_site_fract_x
 _atom_site_fract_y
 _atom_site_fract_z
 _atom_site_occupancy
  Hf  Hf0  1  0.450503  0.000000  0.000000  1
  Hf  Hf1  1  0.000000  0.450503  0.000000  1
  Hf  Hf2  1  0.549497  0.549497  0.000000  1
  Sc  Sc3  1  0.333333  0.666667  0.000000  1
  Sc  Sc4  1  0.666667  0.333333  0.000000  1
  Sc  Sc5  1  0.817125  0.000000  0.500000  1
  Sc  Sc6  1  0.000000  0.817125  0.500000  1
  Sc  Sc7  1  0.182875  0.182875  0.500000  1
  P  P8  1  0.173499  0.000000  0.000000  1
  P  P9  1  0.000000  0.173499  0.000000  1
  P  P10  1  0.826501  0.826501  0.000000  1
  P  P11  1  0.171275  0.484078  0.500000  1
  P  P12  1  0.515922  0.687196  0.500000  1
  P  P13  1  0.312804  0.828725  0.500000  1
  P  P14  1  0.687196  0.515922  0.500000  1
  P  P15  1  0.828725  0.312804  0.500000  1
  P  P16  1  0.484078  0.171275  0.500000  1
  P  P17  1  0.653587  0.000000  0.000000  1
  P  P18  1  0.000000  0.653587  0.000000  1
  P  P19  1  0.346413  0.346413  0.000000  1
  Ir  Ir20  1  0.358066  0.495028  0.500000  1
  Ir  Ir21  1  0.504972  0.863038  0.500000  1
  Ir  Ir22  1  0.136962  0.641934  0.500000  1
  Ir  Ir23  1  0.863038  0.504972  0.500000  1
  Ir  Ir24  1  0.641934  0.136962  0.500000  1
  Ir  Ir25  1  0.495028  0.358066  0.500000  1
  Ir  Ir26  1  0.177704  0.368652  0.000000  1
  Ir  Ir27  1  0.631348  0.809053  0.000000  1
  Ir  Ir28  1  0.190947  0.822296  0.000000  1
  Ir  Ir29  1  0.809053  0.631348  0.000000  1
  Ir  Ir30  1  0.822296  0.190947  0.000000  1
  Ir  Ir31  1  0.368652  0.177704  0.000000  1
  Ir  Ir32  1  0.279777  0.000000  0.500000  1
  Ir  Ir33  1  0.000000  0.279777  0.500000  1
  Ir  Ir34  1  0.720223  0.720223  0.500000  1
  Ir  Ir35  1  0.000000  0.000000  0.000000  1
