# generated using pymatgen
data_Cs2Pr10Si2Br17
_symmetry_space_group_name_H-M   'P 1'
_cell_length_a   9.61009217
_cell_length_b   11.19380108
_cell_length_c   11.19423379
_cell_angle_alpha   107.05050176
_cell_angle_beta   94.13531422
_cell_angle_gamma   94.14108300
_symmetry_Int_Tables_number   1
_chemical_formula_structural   Cs2Pr10Si2Br17
_chemical_formula_sum   'Cs2 Pr10 Si2 Br17'
_cell_volume   1142.75999677
_cell_formula_units_Z   1
loop_
 _symmetry_equiv_pos_site_id
 _symmetry_equiv_pos_as_xyz
  1  'x, y, z'
loop_
 _atom_site_type_symbol
 _atom_site_label
 _atom_site_symmetry_multiplicity
 _atom_site_fract_x
 _atom_site_fract_y
 _atom_site_fract_z
 _atom_site_occupancy
  Cs  Cs0  1  0.999335  0.817989  0.181077  1
  Cs  Cs1  1  0.999325  0.181068  0.817999  1
  Pr  Pr2  1  0.433586  0.160121  0.160122  1
  Pr  Pr3  1  0.572112  0.513061  0.199719  1
  Pr  Pr4  1  0.837936  0.291704  0.291726  1
  Pr  Pr5  1  0.299757  0.434273  0.434275  1
  Pr  Pr6  1  0.427960  0.800611  0.487091  1
  Pr  Pr7  1  0.572076  0.199702  0.513030  1
  Pr  Pr8  1  0.700435  0.566027  0.566017  1
  Pr  Pr9  1  0.162294  0.708202  0.708226  1
  Pr  Pr10  1  0.427962  0.487081  0.800611  1
  Pr  Pr11  1  0.566510  0.839895  0.839877  1
  Si  Si12  1  0.570801  0.359078  0.359079  1
  Si  Si13  1  0.429322  0.640939  0.640944  1
  Br  Br14  1  0.581549  0.690155  0.023656  1
  Br  Br15  1  0.711234  0.069995  0.069995  1
  Br  Br16  1  0.854949  0.450116  0.118467  1
  Br  Br17  1  0.135826  0.208912  0.208892  1
  Br  Br18  1  0.283877  0.601390  0.256476  1
  Br  Br19  1  0.418825  0.976512  0.310010  1
  Br  Br20  1  0.716122  0.743617  0.398717  1
  Br  Br21  1  0.854911  0.118452  0.450149  1
  Br  Br22  1  0.000011  0.499985  0.499998  1
  Br  Br23  1  0.144780  0.881170  0.549645  1
  Br  Br24  1  0.283848  0.256479  0.601397  1
  Br  Br25  1  0.581480  0.023718  0.690167  1
  Br  Br26  1  0.716125  0.398712  0.743553  1
  Br  Br27  1  0.864458  0.791310  0.791227  1
  Br  Br28  1  0.144770  0.549630  0.881234  1
  Br  Br29  1  0.288963  0.930046  0.930059  1
  Br  Br30  1  0.418862  0.310049  0.976563  1
