# generated using pymatgen
data_Ac4Ir5Br2
_symmetry_space_group_name_H-M   'P 1'
_cell_length_a   11.92509947
_cell_length_b   11.92509917
_cell_length_c   4.36734600
_cell_angle_alpha   90.00000000
_cell_angle_beta   90.00000000
_cell_angle_gamma   92.59696249
_symmetry_Int_Tables_number   1
_chemical_formula_structural   Ac4Ir5Br2
_chemical_formula_sum   'Ac8 Ir10 Br4'
_cell_volume   620.43365606
_cell_formula_units_Z   2
loop_
 _symmetry_equiv_pos_site_id
 _symmetry_equiv_pos_as_xyz
  1  'x, y, z'
loop_
 _atom_site_type_symbol
 _atom_site_label
 _atom_site_symmetry_multiplicity
 _atom_site_fract_x
 _atom_site_fract_y
 _atom_site_fract_z
 _atom_site_occupancy
  Ac  Ac0  1  0.725505  0.725505  0.000000  1
  Ac  Ac1  1  0.034645  0.657562  0.500000  1
  Ac  Ac2  1  0.375799  0.624201  0.000000  1
  Ac  Ac3  1  0.965355  0.342438  0.500000  1
  Ac  Ac4  1  0.274495  0.274495  0.000000  1
  Ac  Ac5  1  0.624201  0.375799  0.000000  1
  Ac  Ac6  1  0.657562  0.034645  0.500000  1
  Ac  Ac7  1  0.342438  0.965355  0.500000  1
  Ir  Ir8  1  0.575107  0.575107  0.500000  1
  Ir  Ir9  1  0.424893  0.424893  0.500000  1
  Ir  Ir10  1  0.219780  0.469180  0.500000  1
  Ir  Ir11  1  0.780220  0.530820  0.500000  1
  Ir  Ir12  1  0.518163  0.888312  0.000000  1
  Ir  Ir13  1  0.530820  0.780220  0.500000  1
  Ir  Ir14  1  0.481837  0.111688  0.000000  1
  Ir  Ir15  1  0.111688  0.481837  0.000000  1
  Ir  Ir16  1  0.469180  0.219780  0.500000  1
  Ir  Ir17  1  0.888312  0.518163  0.000000  1
  Br  Br18  1  0.881358  0.881358  0.500000  1
  Br  Br19  1  0.168392  0.831608  0.000000  1
  Br  Br20  1  0.118642  0.118642  0.500000  1
  Br  Br21  1  0.831608  0.168392  0.000000  1
