# generated using pymatgen
data_La3Ce2Bi3Se
_symmetry_space_group_name_H-M   'P 1'
_cell_length_a   9.73992300
_cell_length_b   9.73992483
_cell_length_c   6.82485400
_cell_angle_alpha   90.00000000
_cell_angle_beta   90.00000000
_cell_angle_gamma   120.00000396
_symmetry_Int_Tables_number   1
_chemical_formula_structural   La3Ce2Bi3Se
_chemical_formula_sum   'La6 Ce4 Bi6 Se2'
_cell_volume   560.70587730
_cell_formula_units_Z   2
loop_
 _symmetry_equiv_pos_site_id
 _symmetry_equiv_pos_as_xyz
  1  'x, y, z'
loop_
 _atom_site_type_symbol
 _atom_site_label
 _atom_site_symmetry_multiplicity
 _atom_site_fract_x
 _atom_site_fract_y
 _atom_site_fract_z
 _atom_site_occupancy
  La  La0  1  0.744386  0.744386  0.750000  1
  La  La1  1  0.255614  0.000000  0.750000  1
  La  La2  1  0.000000  0.255614  0.750000  1
  La  La3  1  0.255614  0.255614  0.250000  1
  La  La4  1  0.744386  0.000000  0.250000  1
  La  La5  1  0.000000  0.744386  0.250000  1
  Ce  Ce6  1  0.666667  0.333333  0.000000  1
  Ce  Ce7  1  0.333333  0.666667  0.000000  1
  Ce  Ce8  1  0.333333  0.666667  0.500000  1
  Ce  Ce9  1  0.666667  0.333333  0.500000  1
  Bi  Bi10  1  0.391363  0.391363  0.750000  1
  Bi  Bi11  1  0.608637  0.000000  0.750000  1
  Bi  Bi12  1  0.000000  0.608637  0.750000  1
  Bi  Bi13  1  0.608637  0.608637  0.250000  1
  Bi  Bi14  1  0.391363  0.000000  0.250000  1
  Bi  Bi15  1  0.000000  0.391363  0.250000  1
  Se  Se16  1  0.000000  0.000000  0.000000  1
  Se  Se17  1  0.000000  0.000000  0.500000  1
