# generated using pymatgen
data_SmDy(Lu4Bi3)2
_symmetry_space_group_name_H-M   'P 1'
_cell_length_a   8.19726800
_cell_length_b   9.40351200
_cell_length_c   11.90996100
_cell_angle_alpha   90.00000000
_cell_angle_beta   90.00000000
_cell_angle_gamma   90.00000000
_symmetry_Int_Tables_number   1
_chemical_formula_structural   SmDy(Lu4Bi3)2
_chemical_formula_sum   'Sm2 Dy2 Lu16 Bi12'
_cell_volume   918.05681010
_cell_formula_units_Z   2
loop_
 _symmetry_equiv_pos_site_id
 _symmetry_equiv_pos_as_xyz
  1  'x, y, z'
loop_
 _atom_site_type_symbol
 _atom_site_label
 _atom_site_symmetry_multiplicity
 _atom_site_fract_x
 _atom_site_fract_y
 _atom_site_fract_z
 _atom_site_occupancy
  Sm  Sm0  1  0.313614  0.250000  0.217973  1
  Sm  Sm1  1  0.813614  0.250000  0.282027  1
  Dy  Dy2  1  0.686724  0.750000  0.781981  1
  Dy  Dy3  1  0.186724  0.750000  0.718019  1
  Lu  Lu4  1  0.351966  0.750000  0.218150  1
  Lu  Lu5  1  0.851966  0.750000  0.281850  1
  Lu  Lu6  1  0.647731  0.250000  0.780806  1
  Lu  Lu7  1  0.147731  0.250000  0.719194  1
  Lu  Lu8  1  0.691912  0.567567  0.060299  1
  Lu  Lu9  1  0.191912  0.932433  0.439701  1
  Lu  Lu10  1  0.307871  0.067345  0.939147  1
  Lu  Lu11  1  0.807871  0.432655  0.560853  1
  Lu  Lu12  1  0.307871  0.432655  0.939147  1
  Lu  Lu13  1  0.807871  0.067345  0.560853  1
  Lu  Lu14  1  0.691912  0.932433  0.060299  1
  Lu  Lu15  1  0.191912  0.567567  0.439701  1
  Lu  Lu16  1  0.477193  0.250000  0.489822  1
  Lu  Lu17  1  0.977193  0.250000  0.010178  1
  Lu  Lu18  1  0.522985  0.750000  0.511349  1
  Lu  Lu19  1  0.022985  0.750000  0.988651  1
  Bi  Bi20  1  0.402602  0.750000  0.959547  1
  Bi  Bi21  1  0.902602  0.750000  0.540453  1
  Bi  Bi22  1  0.598400  0.250000  0.037173  1
  Bi  Bi23  1  0.098400  0.250000  0.462827  1
  Bi  Bi24  1  0.565244  0.991446  0.327560  1
  Bi  Bi25  1  0.065244  0.508554  0.172440  1
  Bi  Bi26  1  0.434364  0.494696  0.673957  1
  Bi  Bi27  1  0.934364  0.005304  0.826043  1
  Bi  Bi28  1  0.434364  0.005304  0.673957  1
  Bi  Bi29  1  0.934364  0.494696  0.826043  1
  Bi  Bi30  1  0.565244  0.508554  0.327560  1
  Bi  Bi31  1  0.065244  0.991446  0.172440  1
