# generated using pymatgen
data_Er2Lu6Ga3Ir
_symmetry_space_group_name_H-M   'P 1'
_cell_length_a   9.87513201
_cell_length_b   9.87513203
_cell_length_c   6.89426300
_cell_angle_alpha   90.00000000
_cell_angle_beta   90.00000000
_cell_angle_gamma   119.93618102
_symmetry_Int_Tables_number   1
_chemical_formula_structural   Er2Lu6Ga3Ir
_chemical_formula_sum   'Er4 Lu12 Ga6 Ir2'
_cell_volume   582.61710027
_cell_formula_units_Z   2
loop_
 _symmetry_equiv_pos_site_id
 _symmetry_equiv_pos_as_xyz
  1  'x, y, z'
loop_
 _atom_site_type_symbol
 _atom_site_label
 _atom_site_symmetry_multiplicity
 _atom_site_fract_x
 _atom_site_fract_y
 _atom_site_fract_z
 _atom_site_occupancy
  Er  Er0  1  0.466762  0.933291  0.295241  1
  Er  Er1  1  0.066709  0.533238  0.295241  1
  Er  Er2  1  0.933291  0.466762  0.795241  1
  Er  Er3  1  0.533238  0.066709  0.795241  1
  Lu  Lu4  1  0.999937  0.000063  0.266440  1
  Lu  Lu5  1  0.000063  0.999937  0.766440  1
  Lu  Lu6  1  0.171260  0.828740  0.990557  1
  Lu  Lu7  1  0.828740  0.171260  0.490557  1
  Lu  Lu8  1  0.172365  0.342822  0.990719  1
  Lu  Lu9  1  0.657178  0.827635  0.990719  1
  Lu  Lu10  1  0.342822  0.172365  0.490719  1
  Lu  Lu11  1  0.827635  0.657178  0.490719  1
  Lu  Lu12  1  0.333982  0.666018  0.663912  1
  Lu  Lu13  1  0.666018  0.333982  0.163912  1
  Lu  Lu14  1  0.466182  0.533818  0.295386  1
  Lu  Lu15  1  0.533818  0.466182  0.795386  1
  Ga  Ga16  1  0.163210  0.836790  0.543159  1
  Ga  Ga17  1  0.836790  0.163210  0.043159  1
  Ga  Ga18  1  0.163415  0.327069  0.543076  1
  Ga  Ga19  1  0.672931  0.836585  0.543076  1
  Ga  Ga20  1  0.327069  0.163415  0.043076  1
  Ga  Ga21  1  0.836585  0.672931  0.043076  1
  Ir  Ir22  1  0.333965  0.666035  0.055532  1
  Ir  Ir23  1  0.666035  0.333965  0.555532  1
