# generated using pymatgen
data_Tb3Ho(Br3N)2
_symmetry_space_group_name_H-M   'P 1'
_cell_length_a   9.72797246
_cell_length_b   9.72797197
_cell_length_c   11.91326985
_cell_angle_alpha   125.79499707
_cell_angle_beta   125.79499505
_cell_angle_gamma   23.24750509
_symmetry_Int_Tables_number   1
_chemical_formula_structural   Tb3Ho(Br3N)2
_chemical_formula_sum   'Tb3 Ho1 Br6 N2'
_cell_volume   356.94260501
_cell_formula_units_Z   1
loop_
 _symmetry_equiv_pos_site_id
 _symmetry_equiv_pos_as_xyz
  1  'x, y, z'
loop_
 _atom_site_type_symbol
 _atom_site_label
 _atom_site_symmetry_multiplicity
 _atom_site_fract_x
 _atom_site_fract_y
 _atom_site_fract_z
 _atom_site_occupancy
  Tb  Tb0  1  0.428362  0.428362  0.038236  1
  Tb  Tb1  1  0.135874  0.135874  0.283829  1
  Tb  Tb2  1  0.864619  0.864619  0.715931  1
  Ho  Ho3  1  0.570914  0.570914  0.962108  1
  Br  Br4  1  0.209054  0.209054  0.118670  1
  Br  Br5  1  0.967582  0.967582  0.248954  1
  Br  Br6  1  0.328642  0.328642  0.491059  1
  Br  Br7  1  0.671383  0.671383  0.508834  1
  Br  Br8  1  0.033196  0.033196  0.753621  1
  Br  Br9  1  0.789458  0.789458  0.879155  1
  N  N10  1  0.574974  0.574974  0.153072  1
  N  N11  1  0.425941  0.425941  0.846531  1
