# generated using pymatgen
data_TbHo9In8(PtAu)2
_symmetry_space_group_name_H-M   'P 1'
_cell_length_a   3.64812100
_cell_length_b   8.17532555
_cell_length_c   18.35103402
_cell_angle_alpha   90.06292077
_cell_angle_beta   90.00000000
_cell_angle_gamma   90.00000000
_symmetry_Int_Tables_number   1
_chemical_formula_structural   TbHo9In8(PtAu)2
_chemical_formula_sum   'Tb1 Ho9 In8 Pt2 Au2'
_cell_volume   547.31149408
_cell_formula_units_Z   1
loop_
 _symmetry_equiv_pos_site_id
 _symmetry_equiv_pos_as_xyz
  1  'x, y, z'
loop_
 _atom_site_type_symbol
 _atom_site_label
 _atom_site_symmetry_multiplicity
 _atom_site_fract_x
 _atom_site_fract_y
 _atom_site_fract_z
 _atom_site_occupancy
  Tb  Tb0  1  0.000000  0.000000  0.000000  1
  Ho  Ho1  1  0.000000  0.119535  0.419259  1
  Ho  Ho2  1  0.000000  0.880465  0.580741  1
  Ho  Ho3  1  0.000000  0.384563  0.916225  1
  Ho  Ho4  1  0.000000  0.615437  0.083775  1
  Ho  Ho5  1  0.000000  0.253008  0.216714  1
  Ho  Ho6  1  0.000000  0.746992  0.783286  1
  Ho  Ho7  1  0.000000  0.268245  0.721106  1
  Ho  Ho8  1  0.000000  0.731755  0.278894  1
  Ho  Ho9  1  0.000000  0.500000  0.500000  1
  In  In10  1  0.500000  0.422059  0.352387  1
  In  In11  1  0.500000  0.577941  0.647613  1
  In  In12  1  0.500000  0.078122  0.852385  1
  In  In13  1  0.500000  0.921878  0.147615  1
  In  In14  1  0.500000  0.292203  0.065687  1
  In  In15  1  0.500000  0.707797  0.934313  1
  In  In16  1  0.500000  0.210077  0.567420  1
  In  In17  1  0.500000  0.789923  0.432580  1
  Pt  Pt18  1  0.500000  0.472332  0.803976  1
  Pt  Pt19  1  0.500000  0.527668  0.196024  1
  Au  Au20  1  0.500000  0.029312  0.302238  1
  Au  Au21  1  0.500000  0.970688  0.697762  1
