# generated using pymatgen
data_Th4AlZn10Sn
_symmetry_space_group_name_H-M   'P 1'
_cell_length_a   8.53079064
_cell_length_b   8.53079001
_cell_length_c   9.01424800
_cell_angle_alpha   90.00000000
_cell_angle_beta   90.00000000
_cell_angle_gamma   149.75069625
_symmetry_Int_Tables_number   1
_chemical_formula_structural   Th4AlZn10Sn
_chemical_formula_sum   'Th4 Al1 Zn10 Sn1'
_cell_volume   330.47203754
_cell_formula_units_Z   1
loop_
 _symmetry_equiv_pos_site_id
 _symmetry_equiv_pos_as_xyz
  1  'x, y, z'
loop_
 _atom_site_type_symbol
 _atom_site_label
 _atom_site_symmetry_multiplicity
 _atom_site_fract_x
 _atom_site_fract_y
 _atom_site_fract_z
 _atom_site_occupancy
  Th  Th0  1  0.202523  0.797477  0.250000  1
  Th  Th1  1  0.795206  0.204794  0.750000  1
  Th  Th2  1  0.000528  0.999472  0.489907  1
  Th  Th3  1  0.000528  0.999472  0.010093  1
  Al  Al4  1  0.557413  0.442587  0.250000  1
  Zn  Zn5  1  0.814660  0.185340  0.391887  1
  Zn  Zn6  1  0.184408  0.815592  0.606156  1
  Zn  Zn7  1  0.814660  0.185340  0.108113  1
  Zn  Zn8  1  0.184408  0.815592  0.893844  1
  Zn  Zn9  1  0.651374  0.348626  0.476793  1
  Zn  Zn10  1  0.343638  0.656362  0.515392  1
  Zn  Zn11  1  0.651374  0.348626  0.023207  1
  Zn  Zn12  1  0.343638  0.656362  0.984608  1
  Zn  Zn13  1  0.403475  0.596525  0.250000  1
  Zn  Zn14  1  0.605989  0.394011  0.750000  1
  Sn  Sn15  1  0.446175  0.553825  0.750000  1
