# generated using pymatgen
data_CaLaTi3P7Rh9
_symmetry_space_group_name_H-M   'P 1'
_cell_length_a   3.85038700
_cell_length_b   9.75510206
_cell_length_c   9.75815101
_cell_angle_alpha   120.00230516
_cell_angle_beta   89.99980250
_cell_angle_gamma   90.00029549
_symmetry_Int_Tables_number   1
_chemical_formula_structural   CaLaTi3P7Rh9
_chemical_formula_sum   'Ca1 La1 Ti3 P7 Rh9'
_cell_volume   317.41268415
_cell_formula_units_Z   1
loop_
 _symmetry_equiv_pos_site_id
 _symmetry_equiv_pos_as_xyz
  1  'x, y, z'
loop_
 _atom_site_type_symbol
 _atom_site_label
 _atom_site_symmetry_multiplicity
 _atom_site_fract_x
 _atom_site_fract_y
 _atom_site_fract_z
 _atom_site_occupancy
  Ca  Ca0  1  0.761815  0.333465  0.666708  1
  La  La1  1  0.261802  0.666547  0.333360  1
  Ti  Ti2  1  0.762004  0.103230  0.882092  1
  Ti  Ti3  1  0.762015  0.117997  0.221088  1
  Ti  Ti4  1  0.761990  0.778738  0.896721  1
  P  P5  1  0.262035  0.000018  0.999979  1
  P  P6  1  0.761754  0.885006  0.596009  1
  P  P7  1  0.761758  0.403872  0.289351  1
  P  P8  1  0.761755  0.710803  0.114892  1
  P  P9  1  0.261829  0.117124  0.418076  1
  P  P10  1  0.261839  0.581891  0.698814  1
  P  P11  1  0.261838  0.301140  0.883022  1
  Rh  Rh12  1  0.261999  0.885205  0.158777  1
  Rh  Rh13  1  0.262014  0.841060  0.726382  1
  Rh  Rh14  1  0.261995  0.273604  0.114706  1
  Rh  Rh15  1  0.761966  0.609487  0.564667  1
  Rh  Rh16  1  0.761949  0.435567  0.044966  1
  Rh  Rh17  1  0.761935  0.955085  0.390509  1
  Rh  Rh18  1  0.261925  0.365193  0.433244  1
  Rh  Rh19  1  0.261893  0.566806  0.931775  1
  Rh  Rh20  1  0.261889  0.068158  0.634863  1
