# generated using pymatgen
data_Tm8Hf12Si15Ge
_symmetry_space_group_name_H-M   'P 1'
_cell_length_a   7.24351617
_cell_length_b   7.25043034
_cell_length_c   13.30745000
_cell_angle_alpha   89.92729590
_cell_angle_beta   89.99355698
_cell_angle_gamma   89.95550637
_symmetry_Int_Tables_number   1
_chemical_formula_structural   Tm8Hf12Si15Ge
_chemical_formula_sum   'Tm8 Hf12 Si15 Ge1'
_cell_volume   698.88799194
_cell_formula_units_Z   1
loop_
 _symmetry_equiv_pos_site_id
 _symmetry_equiv_pos_as_xyz
  1  'x, y, z'
loop_
 _atom_site_type_symbol
 _atom_site_label
 _atom_site_symmetry_multiplicity
 _atom_site_fract_x
 _atom_site_fract_y
 _atom_site_fract_z
 _atom_site_occupancy
  Tm  Tm0  1  0.995020  0.344681  0.214544  1
  Tm  Tm1  1  0.003785  0.655566  0.715304  1
  Tm  Tm2  1  0.154068  0.498346  0.466304  1
  Tm  Tm3  1  0.504209  0.843875  0.034352  1
  Tm  Tm4  1  0.844591  0.503751  0.964982  1
  Tm  Tm5  1  0.496980  0.154796  0.535851  1
  Tm  Tm6  1  0.344327  0.996305  0.784826  1
  Tm  Tm7  1  0.656644  0.002385  0.284503  1
  Hf  Hf8  1  0.174324  0.174631  0.999861  1
  Hf  Hf9  1  0.825676  0.825762  0.500244  1
  Hf  Hf10  1  0.325742  0.676964  0.249415  1
  Hf  Hf11  1  0.674518  0.325531  0.749973  1
  Hf  Hf12  1  0.147467  0.995216  0.374061  1
  Hf  Hf13  1  0.851467  0.002940  0.874412  1
  Hf  Hf14  1  0.502871  0.648851  0.624464  1
  Hf  Hf15  1  0.351233  0.496929  0.875561  1
  Hf  Hf16  1  0.496690  0.351106  0.123358  1
  Hf  Hf17  1  0.651301  0.505368  0.376402  1
  Hf  Hf18  1  0.996712  0.148728  0.625819  1
  Hf  Hf19  1  0.002421  0.850834  0.125236  1
  Si  Si20  1  0.638776  0.705236  0.817774  1
  Si  Si21  1  0.204888  0.861505  0.567848  1
  Si  Si22  1  0.138796  0.794974  0.931968  1
  Si  Si23  1  0.794876  0.138870  0.067587  1
  Si  Si24  1  0.861098  0.204640  0.432255  1
  Si  Si25  1  0.295084  0.361226  0.682199  1
  Si  Si26  1  0.704548  0.638372  0.182102  1
  Si  Si27  1  0.296999  0.045431  0.183577  1
  Si  Si28  1  0.703127  0.951239  0.685648  1
  Si  Si29  1  0.451495  0.797255  0.435478  1
  Si  Si30  1  0.202854  0.548243  0.064605  1
  Si  Si31  1  0.548439  0.202824  0.935192  1
  Si  Si32  1  0.796770  0.451517  0.564882  1
  Si  Si33  1  0.048461  0.297030  0.814455  1
  Si  Si34  1  0.951868  0.702555  0.314306  1
  Ge  Ge35  1  0.361877  0.296517  0.320653  1
