# generated using pymatgen
data_Nd3MgIn2Ga2Pd
_symmetry_space_group_name_H-M   'P 1'
_cell_length_a   7.39004800
_cell_length_b   7.42482151
_cell_length_c   4.55062200
_cell_angle_alpha   90.00000000
_cell_angle_beta   90.00000000
_cell_angle_gamma   119.84519448
_symmetry_Int_Tables_number   1
_chemical_formula_structural   Nd3MgIn2Ga2Pd
_chemical_formula_sum   'Nd3 Mg1 In2 Ga2 Pd1'
_cell_volume   216.57584893
_cell_formula_units_Z   1
loop_
 _symmetry_equiv_pos_site_id
 _symmetry_equiv_pos_as_xyz
  1  'x, y, z'
loop_
 _atom_site_type_symbol
 _atom_site_label
 _atom_site_symmetry_multiplicity
 _atom_site_fract_x
 _atom_site_fract_y
 _atom_site_fract_z
 _atom_site_occupancy
  Nd  Nd0  1  0.591202  0.000000  0.000000  1
  Nd  Nd1  1  0.001670  0.588377  0.000000  1
  Nd  Nd2  1  0.413292  0.411623  0.000000  1
  Mg  Mg3  1  0.234535  0.000000  0.500000  1
  In  In4  1  0.003654  0.245814  0.500000  1
  In  In5  1  0.757839  0.754186  0.500000  1
  Ga  Ga6  1  0.334868  0.672016  0.500000  1
  Ga  Ga7  1  0.662853  0.327984  0.500000  1
  Pd  Pd8  1  0.000087  0.000000  0.000000  1
