# generated using pymatgen
data_HfNb23As12
_symmetry_space_group_name_H-M   'P 1'
_cell_length_a   3.52460500
_cell_length_b   12.05039391
_cell_length_c   14.91066008
_cell_angle_alpha   90.10347547
_cell_angle_beta   90.00000000
_cell_angle_gamma   90.00000000
_symmetry_Int_Tables_number   1
_chemical_formula_structural   HfNb23As12
_chemical_formula_sum   'Hf1 Nb23 As12'
_cell_volume   633.29762316
_cell_formula_units_Z   1
loop_
 _symmetry_equiv_pos_site_id
 _symmetry_equiv_pos_as_xyz
  1  'x, y, z'
loop_
 _atom_site_type_symbol
 _atom_site_label
 _atom_site_symmetry_multiplicity
 _atom_site_fract_x
 _atom_site_fract_y
 _atom_site_fract_z
 _atom_site_occupancy
  Hf  Hf0  1  0.000000  0.885746  0.427797  1
  Nb  Nb1  1  0.500000  0.642174  0.478349  1
  Nb  Nb2  1  0.500000  0.356162  0.523042  1
  Nb  Nb3  1  0.000000  0.856752  0.977854  1
  Nb  Nb4  1  0.000000  0.144253  0.021725  1
  Nb  Nb5  1  0.500000  0.585721  0.240069  1
  Nb  Nb6  1  0.500000  0.413588  0.758354  1
  Nb  Nb7  1  0.000000  0.914443  0.742526  1
  Nb  Nb8  1  0.000000  0.088215  0.255995  1
  Nb  Nb9  1  0.500000  0.089670  0.420886  1
  Nb  Nb10  1  0.500000  0.911349  0.583009  1
  Nb  Nb11  1  0.000000  0.412396  0.921566  1
  Nb  Nb12  1  0.000000  0.588140  0.077897  1
  Nb  Nb13  1  0.500000  0.973668  0.108471  1
  Nb  Nb14  1  0.500000  0.026599  0.891119  1
  Nb  Nb15  1  0.000000  0.525842  0.609759  1
  Nb  Nb16  1  0.000000  0.472256  0.390475  1
  Nb  Nb17  1  0.500000  0.313150  0.295876  1
  Nb  Nb18  1  0.500000  0.686728  0.704688  1
  Nb  Nb19  1  0.000000  0.188068  0.796528  1
  Nb  Nb20  1  0.000000  0.811386  0.204058  1
  Nb  Nb21  1  0.500000  0.386452  0.072326  1
  Nb  Nb22  1  0.500000  0.612914  0.927186  1
  Nb  Nb23  1  0.000000  0.113816  0.573018  1
  As  As24  1  0.500000  0.929509  0.293340  1
  As  As25  1  0.500000  0.074695  0.704245  1
  As  As26  1  0.000000  0.573102  0.796699  1
  As  As27  1  0.000000  0.426121  0.202802  1
  As  As28  1  0.500000  0.746504  0.083696  1
  As  As29  1  0.500000  0.253616  0.916246  1
  As  As30  1  0.000000  0.752357  0.584648  1
  As  As31  1  0.000000  0.246608  0.416267  1
  As  As32  1  0.500000  0.190301  0.150281  1
  As  As33  1  0.500000  0.810448  0.849105  1
  As  As34  1  0.000000  0.310252  0.651729  1
  As  As35  1  0.000000  0.686999  0.348372  1
