# generated using pymatgen
data_Zr9Nb10Si16Ru
_symmetry_space_group_name_H-M   'P 1'
_cell_length_a   6.90326243
_cell_length_b   6.90196355
_cell_length_c   12.77285171
_cell_angle_alpha   89.90583020
_cell_angle_beta   89.99142682
_cell_angle_gamma   90.02286554
_symmetry_Int_Tables_number   1
_chemical_formula_structural   Zr9Nb10Si16Ru
_chemical_formula_sum   'Zr9 Nb10 Si16 Ru1'
_cell_volume   608.57525380
_cell_formula_units_Z   1
loop_
 _symmetry_equiv_pos_site_id
 _symmetry_equiv_pos_as_xyz
  1  'x, y, z'
loop_
 _atom_site_type_symbol
 _atom_site_label
 _atom_site_symmetry_multiplicity
 _atom_site_fract_x
 _atom_site_fract_y
 _atom_site_fract_z
 _atom_site_occupancy
  Zr  Zr0  1  0.999504  0.659377  0.031800  1
  Zr  Zr1  1  0.000012  0.341228  0.529972  1
  Zr  Zr2  1  0.660056  0.998798  0.969775  1
  Zr  Zr3  1  0.157729  0.500372  0.782059  1
  Zr  Zr4  1  0.841119  0.502041  0.284825  1
  Zr  Zr5  1  0.499896  0.157526  0.217134  1
  Zr  Zr6  1  0.501302  0.841678  0.716247  1
  Zr  Zr7  1  0.341153  0.999447  0.467972  1
  Zr  Zr8  1  0.329197  0.329472  0.001904  1
  Nb  Nb9  1  0.348202  0.500518  0.378193  1
  Nb  Nb10  1  0.841509  0.997810  0.372319  1
  Nb  Nb11  1  0.001938  0.156838  0.128266  1
  Nb  Nb12  1  0.996775  0.848000  0.625527  1
  Nb  Nb13  1  0.652253  0.497101  0.875712  1
  Nb  Nb14  1  0.504794  0.348152  0.622171  1
  Nb  Nb15  1  0.500760  0.651771  0.123887  1
  Nb  Nb16  1  0.150960  0.002407  0.873194  1
  Nb  Nb17  1  0.670793  0.670517  0.498198  1
  Nb  Nb18  1  0.831941  0.167772  0.748922  1
  Si  Si19  1  0.049605  0.707851  0.432047  1
  Si  Si20  1  0.952194  0.296645  0.936898  1
  Si  Si21  1  0.703011  0.044434  0.562016  1
  Si  Si22  1  0.202412  0.464061  0.192582  1
  Si  Si23  1  0.798416  0.544314  0.686268  1
  Si  Si24  1  0.457709  0.200122  0.811470  1
  Si  Si25  1  0.538384  0.795716  0.309914  1
  Si  Si26  1  0.292080  0.947045  0.069154  1
  Si  Si27  1  0.864390  0.791119  0.822510  1
  Si  Si28  1  0.133892  0.204896  0.320860  1
  Si  Si29  1  0.795792  0.865419  0.179725  1
  Si  Si30  1  0.290443  0.635408  0.571957  1
  Si  Si31  1  0.711345  0.365074  0.073483  1
  Si  Si32  1  0.635280  0.291071  0.426839  1
  Si  Si33  1  0.365165  0.712199  0.927749  1
  Si  Si34  1  0.209047  0.135540  0.676775  1
  Ru  Ru35  1  0.170937  0.828259  0.251675  1
