# generated using pymatgen
data_NaMg3VN4
_symmetry_space_group_name_H-M   'P 1'
_cell_length_a   10.56176294
_cell_length_b   10.56176322
_cell_length_c   10.56176300
_cell_angle_alpha   114.08202036
_cell_angle_beta   114.08202104
_cell_angle_gamma   100.59770513
_symmetry_Int_Tables_number   1
_chemical_formula_structural   NaMg3VN4
_chemical_formula_sum   'Na8 Mg24 V8 N32'
_cell_volume   891.00920419
_cell_formula_units_Z   8
loop_
 _symmetry_equiv_pos_site_id
 _symmetry_equiv_pos_as_xyz
  1  'x, y, z'
loop_
 _atom_site_type_symbol
 _atom_site_label
 _atom_site_symmetry_multiplicity
 _atom_site_fract_x
 _atom_site_fract_y
 _atom_site_fract_z
 _atom_site_occupancy
  Na  Na0  1  0.195273  0.225705  0.492582  1
  Na  Na1  1  0.733123  0.702691  0.507418  1
  Na  Na2  1  0.975705  0.983123  0.530432  1
  Na  Na3  1  0.452691  0.445273  0.469568  1
  Na  Na4  1  0.554727  0.024295  0.007418  1
  Na  Na5  1  0.016877  0.547309  0.992582  1
  Na  Na6  1  0.774295  0.266877  0.969568  1
  Na  Na7  1  0.297309  0.804727  0.030432  1
  Mg  Mg8  1  0.162455  0.300844  0.856021  1
  Mg  Mg9  1  0.444822  0.306434  0.143979  1
  Mg  Mg10  1  0.050844  0.694822  0.638388  1
  Mg  Mg11  1  0.056434  0.412455  0.361612  1
  Mg  Mg12  1  0.587545  0.949156  0.643979  1
  Mg  Mg13  1  0.305178  0.943566  0.356021  1
  Mg  Mg14  1  0.699156  0.555178  0.861612  1
  Mg  Mg15  1  0.693566  0.837545  0.138388  1
  Mg  Mg16  1  0.458172  0.273039  0.858406  1
  Mg  Mg17  1  0.414633  0.599766  0.141594  1
  Mg  Mg18  1  0.023039  0.664633  0.314867  1
  Mg  Mg19  1  0.349766  0.708172  0.685133  1
  Mg  Mg20  1  0.291828  0.976961  0.641594  1
  Mg  Mg21  1  0.335367  0.650234  0.358406  1
  Mg  Mg22  1  0.726961  0.585367  0.185133  1
  Mg  Mg23  1  0.400234  0.541828  0.814867  1
  Mg  Mg24  1  0.903326  0.090961  0.123099  1
  Mg  Mg25  1  0.967863  0.780227  0.876901  1
  Mg  Mg26  1  0.840961  0.217863  0.687634  1
  Mg  Mg27  1  0.530227  0.153326  0.312366  1
  Mg  Mg28  1  0.846674  0.159039  0.376901  1
  Mg  Mg29  1  0.782137  0.469773  0.623099  1
  Mg  Mg30  1  0.909039  0.032137  0.812366  1
  Mg  Mg31  1  0.219773  0.096674  0.187634  1
  V  V32  1  0.997053  0.859991  0.217429  1
  V  V33  1  0.642561  0.779623  0.782571  1
  V  V34  1  0.609991  0.892561  0.362938  1
  V  V35  1  0.529623  0.247053  0.637062  1
  V  V36  1  0.752947  0.390009  0.282571  1
  V  V37  1  0.107439  0.470377  0.717429  1
  V  V38  1  0.140009  0.357439  0.137062  1
  V  V39  1  0.220377  0.002947  0.862938  1
  N  N40  1  0.254456  0.146413  0.809805  1
  N  N41  1  0.336608  0.444653  0.190195  1
  N  N42  1  0.896413  0.586608  0.391957  1
  N  N43  1  0.194653  0.504456  0.608043  1
  N  N44  1  0.495544  0.103587  0.690195  1
  N  N45  1  0.413392  0.805347  0.309805  1
  N  N46  1  0.853587  0.663392  0.108043  1
  N  N47  1  0.555347  0.745544  0.891957  1
  N  N48  1  0.916594  0.996796  0.262299  1
  N  N49  1  0.734495  0.654294  0.737701  1
  N  N50  1  0.746796  0.984495  0.580202  1
  N  N51  1  0.404294  0.166594  0.419798  1
  N  N52  1  0.833406  0.253204  0.237701  1
  N  N53  1  0.015505  0.595706  0.762299  1
  N  N54  1  0.003204  0.265505  0.919798  1
  N  N55  1  0.345706  0.083406  0.080202  1
  N  N56  1  0.138669  0.889271  0.408510  1
  N  N57  1  0.480760  0.730159  0.591490  1
  N  N58  1  0.639271  0.730760  0.250603  1
  N  N59  1  0.480159  0.388669  0.749397  1
  N  N60  1  0.611331  0.360729  0.091490  1
  N  N61  1  0.269240  0.519841  0.908510  1
  N  N62  1  0.110729  0.519240  0.249397  1
  N  N63  1  0.269841  0.861331  0.750603  1
  N  N64  1  0.993532  0.270432  0.623225  1
  N  N65  1  0.647208  0.370307  0.376775  1
  N  N66  1  0.020432  0.897208  0.776900  1
  N  N67  1  0.120307  0.243532  0.223100  1
  N  N68  1  0.756468  0.979568  0.876775  1
  N  N69  1  0.102792  0.879693  0.123225  1
  N  N70  1  0.729568  0.352792  0.723100  1
  N  N71  1  0.629693  0.006468  0.276900  1
