# generated using pymatgen
data_Er12InGaCo3Ni
_symmetry_space_group_name_H-M   'P 1'
_cell_length_a   8.24997583
_cell_length_b   8.24997514
_cell_length_c   8.24997520
_cell_angle_alpha   106.93073637
_cell_angle_beta   109.57615815
_cell_angle_gamma   111.94554652
_symmetry_Int_Tables_number   1
_chemical_formula_structural   Er12InGaCo3Ni
_chemical_formula_sum   'Er12 In1 Ga1 Co3 Ni1'
_cell_volume   431.42362206
_cell_formula_units_Z   1
loop_
 _symmetry_equiv_pos_site_id
 _symmetry_equiv_pos_as_xyz
  1  'x, y, z'
loop_
 _atom_site_type_symbol
 _atom_site_label
 _atom_site_symmetry_multiplicity
 _atom_site_fract_x
 _atom_site_fract_y
 _atom_site_fract_z
 _atom_site_occupancy
  Er  Er0  1  0.700511  0.267597  0.968109  1
  Er  Er1  1  0.298755  0.734850  0.033604  1
  Er  Er2  1  0.700511  0.732403  0.432915  1
  Er  Er3  1  0.298755  0.265150  0.563903  1
  Er  Er4  1  0.812563  0.132785  0.323736  1
  Er  Er5  1  0.812563  0.488827  0.679778  1
  Er  Er6  1  0.190952  0.867215  0.679778  1
  Er  Er7  1  0.190952  0.511173  0.323736  1
  Er  Er8  1  0.598279  0.781911  0.816369  1
  Er  Er9  1  0.964076  0.784825  0.179252  1
  Er  Er10  1  0.034459  0.218089  0.816369  1
  Er  Er11  1  0.394426  0.215175  0.179252  1
  In  In12  1  0.500379  0.000000  0.500379  1
  Ga  Ga13  1  0.494606  0.500000  0.994606  1
  Co  Co14  1  0.158104  0.500000  0.658104  1
  Co  Co15  1  0.998157  0.114616  0.112774  1
  Co  Co16  1  0.998157  0.885384  0.883541  1
  Ni  Ni17  1  0.853793  0.500000  0.353793  1
