# generated using pymatgen
data_CaNd2DyAl8
_symmetry_space_group_name_H-M   'P 1'
_cell_length_a   9.70862798
_cell_length_b   9.70862880
_cell_length_c   9.70862713
_cell_angle_alpha   33.87505902
_cell_angle_beta   33.87506022
_cell_angle_gamma   33.87505613
_symmetry_Int_Tables_number   1
_chemical_formula_structural   CaNd2DyAl8
_chemical_formula_sum   'Ca1 Nd2 Dy1 Al8'
_cell_volume   253.36873182
_cell_formula_units_Z   1
loop_
 _symmetry_equiv_pos_site_id
 _symmetry_equiv_pos_as_xyz
  1  'x, y, z'
loop_
 _atom_site_type_symbol
 _atom_site_label
 _atom_site_symmetry_multiplicity
 _atom_site_fract_x
 _atom_site_fract_y
 _atom_site_fract_z
 _atom_site_occupancy
  Ca  Ca0  1  0.062283  0.062283  0.062283  1
  Nd  Nd1  1  0.562829  0.562829  0.562829  1
  Nd  Nd2  1  0.436046  0.436046  0.436046  1
  Dy  Dy3  1  0.938786  0.938786  0.938786  1
  Al  Al4  1  0.749562  0.749562  0.749562  1
  Al  Al5  1  0.250635  0.250635  0.250635  1
  Al  Al6  1  0.997232  0.499240  0.499240  1
  Al  Al7  1  0.503292  0.000428  0.000428  1
  Al  Al8  1  0.499240  0.997232  0.499240  1
  Al  Al9  1  0.000428  0.503292  0.000428  1
  Al  Al10  1  0.499240  0.499240  0.997232  1
  Al  Al11  1  0.000428  0.000428  0.503292  1
