# generated using pymatgen
data_Sr2Ir4Pb2O13
_symmetry_space_group_name_H-M   'P 1'
_cell_length_a   7.30500000
_cell_length_b   7.36578478
_cell_length_c   7.44521100
_cell_angle_alpha   120.35735330
_cell_angle_beta   90.00000000
_cell_angle_gamma   119.72739796
_symmetry_Int_Tables_number   1
_chemical_formula_structural   Sr2Ir4Pb2O13
_chemical_formula_sum   'Sr2 Ir4 Pb2 O13'
_cell_volume   282.89862918
_cell_formula_units_Z   1
loop_
 _symmetry_equiv_pos_site_id
 _symmetry_equiv_pos_as_xyz
  1  'x, y, z'
loop_
 _atom_site_type_symbol
 _atom_site_label
 _atom_site_symmetry_multiplicity
 _atom_site_fract_x
 _atom_site_fract_y
 _atom_site_fract_z
 _atom_site_occupancy
  Sr  Sr0  1  0.122585  0.245169  0.373517  1
  Sr  Sr1  1  0.122585  0.245169  0.871652  1
  Ir  Ir2  1  0.624818  0.249636  0.375497  1
  Ir  Ir3  1  0.123344  0.746863  0.373432  1
  Ir  Ir4  1  0.623520  0.746863  0.373432  1
  Ir  Ir5  1  0.624819  0.249636  0.874140  1
  Pb  Pb6  1  0.124949  0.753424  0.876712  1
  Pb  Pb7  1  0.628476  0.753424  0.876712  1
  O  O8  1  0.550654  0.101307  0.050654  1
  O  O9  1  0.553720  0.503811  0.048778  1
  O  O10  1  0.950091  0.503811  0.048779  1
  O  O11  1  0.299569  0.995571  0.297371  1
  O  O12  1  0.696002  0.995571  0.297371  1
  O  O13  1  0.293379  0.586757  0.293379  1
  O  O14  1  0.950091  0.503811  0.455032  1
  O  O15  1  0.952138  0.904274  0.452137  1
  O  O16  1  0.553720  0.503811  0.455033  1
  O  O17  1  0.299569  0.995571  0.698200  1
  O  O18  1  0.696002  0.995571  0.698200  1
  O  O19  1  0.698048  0.396096  0.698048  1
  O  O20  1  0.261925  0.523851  0.761926  1
