# generated using pymatgen
data_Er2CdGa7Ni2
_symmetry_space_group_name_H-M   'P 1'
_cell_length_a   7.98515730
_cell_length_b   7.98515746
_cell_length_c   6.54619115
_cell_angle_alpha   91.10871480
_cell_angle_beta   88.89128660
_cell_angle_gamma   149.85092806
_symmetry_Int_Tables_number   1
_chemical_formula_structural   Er2CdGa7Ni2
_chemical_formula_sum   'Er2 Cd1 Ga7 Ni2'
_cell_volume   209.59923444
_cell_formula_units_Z   1
loop_
 _symmetry_equiv_pos_site_id
 _symmetry_equiv_pos_as_xyz
  1  'x, y, z'
loop_
 _atom_site_type_symbol
 _atom_site_label
 _atom_site_symmetry_multiplicity
 _atom_site_fract_x
 _atom_site_fract_y
 _atom_site_fract_z
 _atom_site_occupancy
  Er  Er0  1  0.877219  0.122781  0.737415  1
  Er  Er1  1  0.122781  0.877219  0.262585  1
  Cd  Cd2  1  0.500000  0.500000  0.000000  1
  Ga  Ga3  1  0.500000  0.500000  0.500000  1
  Ga  Ga4  1  0.070381  0.929619  0.741870  1
  Ga  Ga5  1  0.929619  0.070381  0.258130  1
  Ga  Ga6  1  0.686735  0.313265  0.955298  1
  Ga  Ga7  1  0.313265  0.686735  0.044702  1
  Ga  Ga8  1  0.685389  0.314611  0.554447  1
  Ga  Ga9  1  0.314611  0.685389  0.445553  1
  Ni  Ni10  1  0.222982  0.777018  0.747566  1
  Ni  Ni11  1  0.777018  0.222982  0.252434  1
