# generated using pymatgen
data_Ti2CO
_symmetry_space_group_name_H-M   'P 1'
_cell_length_a   5.37437874
_cell_length_b   5.37437899
_cell_length_c   5.37437915
_cell_angle_alpha   32.83350841
_cell_angle_beta   32.83350654
_cell_angle_gamma   32.83350229
_symmetry_Int_Tables_number   1
_chemical_formula_structural   Ti2CO
_chemical_formula_sum   'Ti2 C1 O1'
_cell_volume   40.60078753
_cell_formula_units_Z   1
loop_
 _symmetry_equiv_pos_site_id
 _symmetry_equiv_pos_as_xyz
  1  'x, y, z'
loop_
 _atom_site_type_symbol
 _atom_site_label
 _atom_site_symmetry_multiplicity
 _atom_site_fract_x
 _atom_site_fract_y
 _atom_site_fract_z
 _atom_site_occupancy
  Ti  Ti0  1  0.742271  0.742271  0.742271  1
  Ti  Ti1  1  0.257717  0.257717  0.257717  1
  C  C2  1  0.999994  0.999994  0.999994  1
  O  O3  1  0.500016  0.500016  0.500016  1
