# generated using pymatgen
data_Sc5Ga16AsIr7
_symmetry_space_group_name_H-M   'P 1'
_cell_length_a   8.70459681
_cell_length_b   8.76333307
_cell_length_c   8.76333500
_cell_angle_alpha   59.55705881
_cell_angle_beta   60.22147130
_cell_angle_gamma   60.22147286
_symmetry_Int_Tables_number   1
_chemical_formula_structural   Sc5Ga16AsIr7
_chemical_formula_sum   'Sc5 Ga16 As1 Ir7'
_cell_volume   472.64344738
_cell_formula_units_Z   1
loop_
 _symmetry_equiv_pos_site_id
 _symmetry_equiv_pos_as_xyz
  1  'x, y, z'
loop_
 _atom_site_type_symbol
 _atom_site_label
 _atom_site_symmetry_multiplicity
 _atom_site_fract_x
 _atom_site_fract_y
 _atom_site_fract_z
 _atom_site_occupancy
  Sc  Sc0  1  0.790504  0.209496  0.209496  1
  Sc  Sc1  1  0.779242  0.220758  0.769821  1
  Sc  Sc2  1  0.779234  0.769814  0.220765  1
  Sc  Sc3  1  0.230180  0.769820  0.220759  1
  Sc  Sc4  1  0.230186  0.220766  0.769813  1
  Ga  Ga5  1  0.879520  0.838264  0.838267  1
  Ga  Ga6  1  0.854266  0.830192  0.461273  1
  Ga  Ga7  1  0.443949  0.838268  0.838265  1
  Ga  Ga8  1  0.854268  0.461272  0.830195  1
  Ga  Ga9  1  0.169808  0.145734  0.145729  1
  Ga  Ga10  1  0.161736  0.120480  0.556050  1
  Ga  Ga11  1  0.161732  0.556051  0.120481  1
  Ga  Ga12  1  0.538728  0.145732  0.145734  1
  Ga  Ga13  1  0.610299  0.622612  0.622616  1
  Ga  Ga14  1  0.632907  0.619762  0.114419  1
  Ga  Ga15  1  0.144472  0.622616  0.622612  1
  Ga  Ga16  1  0.632912  0.114419  0.619762  1
  Ga  Ga17  1  0.380238  0.367093  0.367089  1
  Ga  Ga18  1  0.377388  0.389701  0.855528  1
  Ga  Ga19  1  0.377384  0.855528  0.389701  1
  Ga  Ga20  1  0.885581  0.367088  0.367094  1
  As  As21  1  0.014758  0.985242  0.985242  1
  Ir  Ir22  1  0.515920  0.484080  0.484079  1
  Ir  Ir23  1  0.010971  0.489029  0.489030  1
  Ir  Ir24  1  0.510971  0.989029  0.989029  1
  Ir  Ir25  1  0.512466  0.996045  0.487534  1
  Ir  Ir26  1  0.512467  0.487533  0.996045  1
  Ir  Ir27  1  0.003955  0.487534  0.996046  1
  Ir  Ir28  1  0.003956  0.996044  0.487532  1
