# generated using pymatgen
data_Sc22AlTc7
_symmetry_space_group_name_H-M   'P 1'
_cell_length_a   9.61473705
_cell_length_b   9.47649773
_cell_length_c   9.61473671
_cell_angle_alpha   60.47448744
_cell_angle_beta   59.38642434
_cell_angle_gamma   60.47448933
_symmetry_Int_Tables_number   1
_chemical_formula_structural   Sc22AlTc7
_chemical_formula_sum   'Sc22 Al1 Tc7'
_cell_volume   620.87336119
_cell_formula_units_Z   1
loop_
 _symmetry_equiv_pos_site_id
 _symmetry_equiv_pos_as_xyz
  1  'x, y, z'
loop_
 _atom_site_type_symbol
 _atom_site_label
 _atom_site_symmetry_multiplicity
 _atom_site_fract_x
 _atom_site_fract_y
 _atom_site_fract_z
 _atom_site_occupancy
  Sc  Sc0  1  0.802286  0.803594  0.197714  1
  Sc  Sc1  1  0.198185  0.801815  0.198185  1
  Sc  Sc2  1  0.802286  0.196406  0.197714  1
  Sc  Sc3  1  0.197714  0.196406  0.802286  1
  Sc  Sc4  1  0.801815  0.198185  0.801815  1
  Sc  Sc5  1  0.197714  0.803594  0.802286  1
  Sc  Sc6  1  0.605507  0.622125  0.150242  1
  Sc  Sc7  1  0.614358  0.149862  0.614358  1
  Sc  Sc8  1  0.150242  0.622125  0.605507  1
  Sc  Sc9  1  0.614358  0.621420  0.614358  1
  Sc  Sc10  1  0.394493  0.377875  0.849758  1
  Sc  Sc11  1  0.385642  0.850138  0.385642  1
  Sc  Sc12  1  0.849758  0.377875  0.394493  1
  Sc  Sc13  1  0.385642  0.378580  0.385642  1
  Sc  Sc14  1  0.844652  0.843743  0.467861  1
  Sc  Sc15  1  0.835762  0.472675  0.835762  1
  Sc  Sc16  1  0.467861  0.843743  0.844652  1
  Sc  Sc17  1  0.835762  0.855800  0.835762  1
  Sc  Sc18  1  0.155348  0.156257  0.532139  1
  Sc  Sc19  1  0.164238  0.527325  0.164238  1
  Sc  Sc20  1  0.532139  0.156257  0.155348  1
  Sc  Sc21  1  0.164238  0.144200  0.164238  1
  Al  Al22  1  0.000000  0.500000  0.000000  1
  Tc  Tc23  1  0.000000  0.000000  0.000000  1
  Tc  Tc24  1  0.500000  0.500000  0.500000  1
  Tc  Tc25  1  0.000000  0.000000  0.500000  1
  Tc  Tc26  1  0.500000  0.000000  0.500000  1
  Tc  Tc27  1  0.000000  0.500000  0.500000  1
  Tc  Tc28  1  0.500000  0.500000  0.000000  1
  Tc  Tc29  1  0.500000  0.000000  0.000000  1
