# generated using pymatgen
data_YHf(Al3Ir)3
_symmetry_space_group_name_H-M   'P 1'
_cell_length_a   7.52080379
_cell_length_b   7.50319564
_cell_length_c   9.34428400
_cell_angle_alpha   90.00000000
_cell_angle_beta   90.00000000
_cell_angle_gamma   119.73063121
_symmetry_Int_Tables_number   1
_chemical_formula_structural   YHf(Al3Ir)3
_chemical_formula_sum   'Y2 Hf2 Al18 Ir6'
_cell_volume   457.88838224
_cell_formula_units_Z   2
loop_
 _symmetry_equiv_pos_site_id
 _symmetry_equiv_pos_as_xyz
  1  'x, y, z'
loop_
 _atom_site_type_symbol
 _atom_site_label
 _atom_site_symmetry_multiplicity
 _atom_site_fract_x
 _atom_site_fract_y
 _atom_site_fract_z
 _atom_site_occupancy
  Y  Y0  1  0.670992  0.994295  0.250000  1
  Y  Y1  1  0.329008  0.005705  0.750000  1
  Hf  Hf2  1  0.995207  0.671343  0.250000  1
  Hf  Hf3  1  0.004793  0.328657  0.750000  1
  Al  Al4  1  0.126790  0.124305  0.250000  1
  Al  Al5  1  0.873210  0.875695  0.750000  1
  Al  Al6  1  0.000132  0.337384  0.075317  1
  Al  Al7  1  0.999868  0.662616  0.924683  1
  Al  Al8  1  0.999868  0.662616  0.575317  1
  Al  Al9  1  0.331965  0.998025  0.421787  1
  Al  Al10  1  0.000132  0.337384  0.424683  1
  Al  Al11  1  0.668035  0.001975  0.578213  1
  Al  Al12  1  0.668035  0.001975  0.921787  1
  Al  Al13  1  0.331965  0.998025  0.078213  1
  Al  Al14  1  0.331141  0.333699  0.556111  1
  Al  Al15  1  0.668859  0.666301  0.443889  1
  Al  Al16  1  0.668859  0.666301  0.056111  1
  Al  Al17  1  0.331141  0.333699  0.943889  1
  Al  Al18  1  0.334504  0.547818  0.250000  1
  Al  Al19  1  0.665496  0.452182  0.750000  1
  Al  Al20  1  0.554152  0.344394  0.250000  1
  Al  Al21  1  0.445848  0.655606  0.750000  1
  Ir  Ir22  1  0.672885  0.328153  0.999627  1
  Ir  Ir23  1  0.327115  0.671847  0.000373  1
  Ir  Ir24  1  0.327115  0.671847  0.499627  1
  Ir  Ir25  1  0.672885  0.328153  0.500373  1
  Ir  Ir26  1  0.000000  0.000000  0.000000  1
  Ir  Ir27  1  0.000000  0.000000  0.500000  1
