# generated using pymatgen
data_Nd2Hf3Si7Pt9
_symmetry_space_group_name_H-M   'P 1'
_cell_length_a   10.06582900
_cell_length_b   10.06582958
_cell_length_c   4.04774600
_cell_angle_alpha   90.00000000
_cell_angle_beta   90.00000000
_cell_angle_gamma   120.00000140
_symmetry_Int_Tables_number   1
_chemical_formula_structural   Nd2Hf3Si7Pt9
_chemical_formula_sum   'Nd2 Hf3 Si7 Pt9'
_cell_volume   355.17549894
_cell_formula_units_Z   1
loop_
 _symmetry_equiv_pos_site_id
 _symmetry_equiv_pos_as_xyz
  1  'x, y, z'
loop_
 _atom_site_type_symbol
 _atom_site_label
 _atom_site_symmetry_multiplicity
 _atom_site_fract_x
 _atom_site_fract_y
 _atom_site_fract_z
 _atom_site_occupancy
  Nd  Nd0  1  0.000000  0.000000  0.000000  1
  Nd  Nd1  1  0.333333  0.666667  0.500000  1
  Hf  Hf2  1  0.891094  0.454069  0.500000  1
  Hf  Hf3  1  0.562974  0.108906  0.500000  1
  Hf  Hf4  1  0.545931  0.437026  0.500000  1
  Si  Si5  1  0.250056  0.200935  0.500000  1
  Si  Si6  1  0.799065  0.049123  0.500000  1
  Si  Si7  1  0.950877  0.749944  0.500000  1
  Si  Si8  1  0.560201  0.647679  0.000000  1
  Si  Si9  1  0.352321  0.912521  0.000000  1
  Si  Si10  1  0.087479  0.439799  0.000000  1
  Si  Si11  1  0.666667  0.333333  0.000000  1
  Pt  Pt12  1  0.221836  0.938215  0.500000  1
  Pt  Pt13  1  0.061785  0.283621  0.500000  1
  Pt  Pt14  1  0.716379  0.778164  0.500000  1
  Pt  Pt15  1  0.314717  0.410835  0.000000  1
  Pt  Pt16  1  0.589165  0.903881  0.000000  1
  Pt  Pt17  1  0.096119  0.685283  0.000000  1
  Pt  Pt18  1  0.389659  0.176015  0.000000  1
  Pt  Pt19  1  0.823985  0.213645  0.000000  1
  Pt  Pt20  1  0.786355  0.610341  0.000000  1
