# generated using pymatgen
data_Tb6Si24OsRu7
_symmetry_space_group_name_H-M   'P 1'
_cell_length_a   10.11747374
_cell_length_b   10.11747277
_cell_length_c   8.16180304
_cell_angle_alpha   89.99570258
_cell_angle_beta   89.99570741
_cell_angle_gamma   132.43278905
_symmetry_Int_Tables_number   1
_chemical_formula_structural   Tb6Si24OsRu7
_chemical_formula_sum   'Tb6 Si24 Os1 Ru7'
_cell_volume   616.63389389
_cell_formula_units_Z   1
loop_
 _symmetry_equiv_pos_site_id
 _symmetry_equiv_pos_as_xyz
  1  'x, y, z'
loop_
 _atom_site_type_symbol
 _atom_site_label
 _atom_site_symmetry_multiplicity
 _atom_site_fract_x
 _atom_site_fract_y
 _atom_site_fract_z
 _atom_site_occupancy
  Tb  Tb0  1  0.499887  0.500113  0.500000  1
  Tb  Tb1  1  0.000014  0.999986  0.000000  1
  Tb  Tb2  1  0.502770  0.002699  0.750126  1
  Tb  Tb3  1  0.997301  0.497230  0.249874  1
  Tb  Tb4  1  0.497239  0.997014  0.249812  1
  Tb  Tb5  1  0.002986  0.502761  0.750188  1
  Si  Si6  1  0.795527  0.204473  0.500000  1
  Si  Si7  1  0.294988  0.705012  0.000000  1
  Si  Si8  1  0.205069  0.794931  0.500000  1
  Si  Si9  1  0.705126  0.294874  0.000000  1
  Si  Si10  1  0.332676  0.332798  0.833541  1
  Si  Si11  1  0.667202  0.667324  0.166459  1
  Si  Si12  1  0.166802  0.166650  0.332881  1
  Si  Si13  1  0.833350  0.833198  0.667119  1
  Si  Si14  1  0.122329  0.888079  0.728752  1
  Si  Si15  1  0.111921  0.877671  0.271248  1
  Si  Si16  1  0.611793  0.377784  0.227346  1
  Si  Si17  1  0.622216  0.388207  0.772654  1
  Si  Si18  1  0.877241  0.111369  0.270859  1
  Si  Si19  1  0.888631  0.122759  0.729141  1
  Si  Si20  1  0.388040  0.622561  0.771780  1
  Si  Si21  1  0.377439  0.611960  0.228220  1
  Si  Si22  1  0.344365  0.110885  0.505696  1
  Si  Si23  1  0.889115  0.655635  0.494304  1
  Si  Si24  1  0.387910  0.154087  0.005530  1
  Si  Si25  1  0.845913  0.612090  0.994470  1
  Si  Si26  1  0.653957  0.887942  0.493728  1
  Si  Si27  1  0.112058  0.346043  0.506272  1
  Si  Si28  1  0.611918  0.845704  0.994437  1
  Si  Si29  1  0.154296  0.388082  0.005563  1
  Os  Os30  1  0.669148  0.330852  0.500000  1
  Ru  Ru31  1  0.169204  0.830796  0.000000  1
  Ru  Ru32  1  0.330859  0.669141  0.500000  1
  Ru  Ru33  1  0.830813  0.169187  0.000000  1
  Ru  Ru34  1  0.126956  0.127155  0.626572  1
  Ru  Ru35  1  0.872845  0.873044  0.373428  1
  Ru  Ru36  1  0.373954  0.373860  0.127348  1
  Ru  Ru37  1  0.626140  0.626046  0.872652  1
