# generated using pymatgen
data_CaTm5(InHg2)6
_symmetry_space_group_name_H-M   'P 1'
_cell_length_a   5.09218001
_cell_length_b   7.31236400
_cell_length_c   15.55094263
_cell_angle_alpha   90.00000000
_cell_angle_beta   90.02068773
_cell_angle_gamma   90.00000000
_symmetry_Int_Tables_number   1
_chemical_formula_structural   CaTm5(InHg2)6
_chemical_formula_sum   'Ca1 Tm5 In6 Hg12'
_cell_volume   579.05289985
_cell_formula_units_Z   1
loop_
 _symmetry_equiv_pos_site_id
 _symmetry_equiv_pos_as_xyz
  1  'x, y, z'
loop_
 _atom_site_type_symbol
 _atom_site_label
 _atom_site_symmetry_multiplicity
 _atom_site_fract_x
 _atom_site_fract_y
 _atom_site_fract_z
 _atom_site_occupancy
  Ca  Ca0  1  0.500060  0.000000  0.833235  1
  Tm  Tm1  1  0.000029  0.500000  0.999421  1
  Tm  Tm2  1  0.499887  0.000000  0.166847  1
  Tm  Tm3  1  0.999965  0.500000  0.333257  1
  Tm  Tm4  1  0.500014  0.000000  0.499895  1
  Tm  Tm5  1  0.000053  0.500000  0.667287  1
  In  In6  1  0.999888  0.000000  0.000020  1
  In  In7  1  0.499886  0.500000  0.166990  1
  In  In8  1  0.000027  0.000000  0.333532  1
  In  In9  1  0.500109  0.500000  0.499387  1
  In  In10  1  0.000026  0.000000  0.666638  1
  In  In11  1  0.499982  0.500000  0.833548  1
  Hg  Hg12  1  0.499986  0.250091  0.001119  1
  Hg  Hg13  1  0.499986  0.749909  0.001119  1
  Hg  Hg14  1  0.999841  0.250838  0.166675  1
  Hg  Hg15  1  0.999841  0.749162  0.166675  1
  Hg  Hg16  1  0.499966  0.249086  0.333310  1
  Hg  Hg17  1  0.499966  0.750914  0.333310  1
  Hg  Hg18  1  0.000028  0.251017  0.500014  1
  Hg  Hg19  1  0.000028  0.748983  0.500014  1
  Hg  Hg20  1  0.500079  0.250348  0.665517  1
  Hg  Hg21  1  0.500079  0.749652  0.665517  1
  Hg  Hg22  1  0.000036  0.253902  0.833335  1
  Hg  Hg23  1  0.000036  0.746098  0.833335  1
