# generated using pymatgen
data_Ho4Tm6Lu2Co5Bi
_symmetry_space_group_name_H-M   'P 1'
_cell_length_a   8.18746984
_cell_length_b   8.20065524
_cell_length_c   8.19930431
_cell_angle_alpha   110.93817716
_cell_angle_beta   110.80977898
_cell_angle_gamma   106.74222555
_symmetry_Int_Tables_number   1
_chemical_formula_structural   Ho4Tm6Lu2Co5Bi
_chemical_formula_sum   'Ho4 Tm6 Lu2 Co5 Bi1'
_cell_volume   422.84745178
_cell_formula_units_Z   1
loop_
 _symmetry_equiv_pos_site_id
 _symmetry_equiv_pos_as_xyz
  1  'x, y, z'
loop_
 _atom_site_type_symbol
 _atom_site_label
 _atom_site_symmetry_multiplicity
 _atom_site_fract_x
 _atom_site_fract_y
 _atom_site_fract_z
 _atom_site_occupancy
  Ho  Ho0  1  0.288842  0.185564  0.472509  1
  Ho  Ho1  1  0.711158  0.814436  0.527491  1
  Ho  Ho2  1  0.289060  0.816481  0.103277  1
  Ho  Ho3  1  0.710940  0.183519  0.896723  1
  Tm  Tm4  1  0.001465  0.310900  0.690596  1
  Tm  Tm5  1  0.998535  0.689100  0.309404  1
  Tm  Tm6  1  0.207954  0.402792  0.195528  1
  Tm  Tm7  1  0.792046  0.597208  0.804472  1
  Tm  Tm8  1  0.208428  0.012607  0.805155  1
  Tm  Tm9  1  0.791572  0.987393  0.194845  1
  Lu  Lu10  1  0.621149  0.312380  0.309171  1
  Lu  Lu11  1  0.378851  0.687620  0.690829  1
  Co  Co12  1  0.999745  0.375592  0.375723  1
  Co  Co13  1  0.000255  0.624408  0.624277  1
  Co  Co14  1  0.388749  0.887827  0.501864  1
  Co  Co15  1  0.611251  0.112173  0.498136  1
  Co  Co16  1  0.000000  0.000000  0.000000  1
  Bi  Bi17  1  0.500000  0.500000  0.000000  1
