# generated using pymatgen
data_Sr2Ca3Cd(AsO4)4
_symmetry_space_group_name_H-M   'P 1'
_cell_length_a   6.08363393
_cell_length_b   7.01034513
_cell_length_c   10.29044886
_cell_angle_alpha   108.02776162
_cell_angle_beta   102.37349333
_cell_angle_gamma   99.75131080
_symmetry_Int_Tables_number   1
_chemical_formula_structural   Sr2Ca3Cd(AsO4)4
_chemical_formula_sum   'Sr2 Ca3 Cd1 As4 O16'
_cell_volume   394.28956223
_cell_formula_units_Z   1
loop_
 _symmetry_equiv_pos_site_id
 _symmetry_equiv_pos_as_xyz
  1  'x, y, z'
loop_
 _atom_site_type_symbol
 _atom_site_label
 _atom_site_symmetry_multiplicity
 _atom_site_fract_x
 _atom_site_fract_y
 _atom_site_fract_z
 _atom_site_occupancy
  Sr  Sr0  1  0.241354  0.205693  0.459288  1
  Sr  Sr1  1  0.759387  0.790663  0.536720  1
  Ca  Ca2  1  0.504897  0.573115  0.836458  1
  Ca  Ca3  1  0.144094  0.821515  0.063714  1
  Ca  Ca4  1  0.856330  0.182534  0.936649  1
  Cd  Cd5  1  0.501303  0.426602  0.157557  1
  As  As6  1  0.873892  0.395226  0.704624  1
  As  As7  1  0.128647  0.600312  0.294866  1
  As  As8  1  0.313224  0.023339  0.800481  1
  As  As9  1  0.685308  0.980319  0.201069  1
  O  O10  1  0.646497  0.468609  0.616571  1
  O  O11  1  0.349437  0.537270  0.395324  1
  O  O12  1  0.205750  0.989789  0.625851  1
  O  O13  1  0.792961  0.013282  0.375444  1
  O  O14  1  0.132291  0.452560  0.666455  1
  O  O15  1  0.863165  0.540331  0.326839  1
  O  O16  1  0.784492  0.143622  0.691563  1
  O  O17  1  0.207919  0.851249  0.304967  1
  O  O18  1  0.524749  0.892256  0.826569  1
  O  O19  1  0.471557  0.112729  0.177512  1
  O  O20  1  0.119636  0.462422  0.120305  1
  O  O21  1  0.897932  0.530349  0.882412  1
  O  O22  1  0.531989  0.723603  0.090490  1
  O  O23  1  0.091948  0.952534  0.869679  1
  O  O24  1  0.905350  0.049204  0.130683  1
  O  O25  1  0.465896  0.280870  0.907906  1
