# generated using pymatgen
data_PaS2Cl3
_symmetry_space_group_name_H-M   'P 1'
_cell_length_a   8.47372200
_cell_length_b   7.12943025
_cell_length_c   15.46154124
_cell_angle_alpha   64.09833980
_cell_angle_beta   90.00000000
_cell_angle_gamma   90.00000000
_symmetry_Int_Tables_number   1
_chemical_formula_structural   PaS2Cl3
_chemical_formula_sum   'Pa4 S8 Cl12'
_cell_volume   840.24274675
_cell_formula_units_Z   4
loop_
 _symmetry_equiv_pos_site_id
 _symmetry_equiv_pos_as_xyz
  1  'x, y, z'
loop_
 _atom_site_type_symbol
 _atom_site_label
 _atom_site_symmetry_multiplicity
 _atom_site_fract_x
 _atom_site_fract_y
 _atom_site_fract_z
 _atom_site_occupancy
  Pa  Pa0  1  0.623275  0.738934  0.985652  1
  Pa  Pa1  1  0.123275  0.261066  0.514348  1
  Pa  Pa2  1  0.376725  0.261066  0.014348  1
  Pa  Pa3  1  0.876725  0.738934  0.485652  1
  S  S4  1  0.699393  0.329212  0.044569  1
  S  S5  1  0.300607  0.670788  0.955431  1
  S  S6  1  0.800607  0.329212  0.544569  1
  S  S7  1  0.199393  0.670788  0.455431  1
  S  S8  1  0.046246  0.647197  0.357514  1
  S  S9  1  0.546246  0.352803  0.142486  1
  S  S10  1  0.953754  0.352803  0.642486  1
  S  S11  1  0.453754  0.647197  0.857514  1
  Cl  Cl12  1  0.671160  0.775811  0.360878  1
  Cl  Cl13  1  0.828840  0.775811  0.860878  1
  Cl  Cl14  1  0.171160  0.224189  0.139122  1
  Cl  Cl15  1  0.328840  0.224189  0.639122  1
  Cl  Cl16  1  0.930875  0.148781  0.387384  1
  Cl  Cl17  1  0.430875  0.851219  0.112616  1
  Cl  Cl18  1  0.069125  0.851219  0.612616  1
  Cl  Cl19  1  0.569125  0.148781  0.887384  1
  Cl  Cl20  1  0.662463  0.775152  0.589816  1
  Cl  Cl21  1  0.162463  0.224848  0.910184  1
  Cl  Cl22  1  0.337537  0.224848  0.410184  1
  Cl  Cl23  1  0.837537  0.775152  0.089816  1
