# generated using pymatgen
data_Dy10In3Bi3Se2
_symmetry_space_group_name_H-M   'P 1'
_cell_length_a   9.18256100
_cell_length_b   9.17510806
_cell_length_c   6.66309600
_cell_angle_alpha   90.00000000
_cell_angle_beta   90.00000000
_cell_angle_gamma   120.40557890
_symmetry_Int_Tables_number   1
_chemical_formula_structural   Dy10In3Bi3Se2
_chemical_formula_sum   'Dy10 In3 Bi3 Se2'
_cell_volume   484.16373251
_cell_formula_units_Z   1
loop_
 _symmetry_equiv_pos_site_id
 _symmetry_equiv_pos_as_xyz
  1  'x, y, z'
loop_
 _atom_site_type_symbol
 _atom_site_label
 _atom_site_symmetry_multiplicity
 _atom_site_fract_x
 _atom_site_fract_y
 _atom_site_fract_z
 _atom_site_occupancy
  Dy  Dy0  1  0.250364  0.994821  0.750000  1
  Dy  Dy1  1  0.746041  0.998828  0.250000  1
  Dy  Dy2  1  0.996397  0.250785  0.750000  1
  Dy  Dy3  1  0.003882  0.751003  0.250000  1
  Dy  Dy4  1  0.749772  0.747538  0.750000  1
  Dy  Dy5  1  0.253042  0.248708  0.250000  1
  Dy  Dy6  1  0.331763  0.674514  0.501820  1
  Dy  Dy7  1  0.668529  0.328231  0.501155  1
  Dy  Dy8  1  0.668529  0.328231  0.998845  1
  Dy  Dy9  1  0.331763  0.674514  0.998180  1
  In  In10  1  0.603428  0.000470  0.750000  1
  In  In11  1  0.398736  0.002194  0.250000  1
  In  In12  1  0.997950  0.604005  0.750000  1
  Bi  Bi13  1  0.001626  0.395855  0.250000  1
  Bi  Bi14  1  0.393588  0.394065  0.750000  1
  Bi  Bi15  1  0.605431  0.604372  0.250000  1
  Se  Se16  1  0.999578  0.000933  0.499688  1
  Se  Se17  1  0.999578  0.000933  0.000312  1
