# generated using pymatgen
data_Y4GaSi3Pd8
_symmetry_space_group_name_H-M   'P 1'
_cell_length_a   5.56350319
_cell_length_b   7.05827000
_cell_length_c   7.36970514
_cell_angle_alpha   90.00000000
_cell_angle_beta   89.51024247
_cell_angle_gamma   90.00000000
_symmetry_Int_Tables_number   1
_chemical_formula_structural   Y4GaSi3Pd8
_chemical_formula_sum   'Y4 Ga1 Si3 Pd8'
_cell_volume   289.38822410
_cell_formula_units_Z   1
loop_
 _symmetry_equiv_pos_site_id
 _symmetry_equiv_pos_as_xyz
  1  'x, y, z'
loop_
 _atom_site_type_symbol
 _atom_site_label
 _atom_site_symmetry_multiplicity
 _atom_site_fract_x
 _atom_site_fract_y
 _atom_site_fract_z
 _atom_site_occupancy
  Y  Y0  1  0.142872  0.250000  0.970194  1
  Y  Y1  1  0.361214  0.250000  0.472924  1
  Y  Y2  1  0.639207  0.750000  0.528018  1
  Y  Y3  1  0.856049  0.750000  0.029861  1
  Ga  Ga4  1  0.357290  0.750000  0.879500  1
  Si  Si5  1  0.640816  0.250000  0.121508  1
  Si  Si6  1  0.860512  0.250000  0.619137  1
  Si  Si7  1  0.138786  0.750000  0.377615  1
  Pd  Pd8  1  0.088476  0.551018  0.672531  1
  Pd  Pd9  1  0.088476  0.948982  0.672531  1
  Pd  Pd10  1  0.406904  0.550413  0.184375  1
  Pd  Pd11  1  0.903214  0.446583  0.320467  1
  Pd  Pd12  1  0.603033  0.444473  0.823250  1
  Pd  Pd13  1  0.903214  0.053417  0.320467  1
  Pd  Pd14  1  0.406904  0.949587  0.184375  1
  Pd  Pd15  1  0.603033  0.055527  0.823250  1
