# generated using pymatgen
data_DyBi11S18
_symmetry_space_group_name_H-M   'P 1'
_cell_length_a   4.09285000
_cell_length_b   10.85777095
_cell_length_c   18.46893900
_cell_angle_alpha   80.97231906
_cell_angle_beta   90.00000000
_cell_angle_gamma   90.00000000
_symmetry_Int_Tables_number   1
_chemical_formula_structural   DyBi11S18
_chemical_formula_sum   'Dy1 Bi11 S18'
_cell_volume   810.57852598
_cell_formula_units_Z   1
loop_
 _symmetry_equiv_pos_site_id
 _symmetry_equiv_pos_as_xyz
  1  'x, y, z'
loop_
 _atom_site_type_symbol
 _atom_site_label
 _atom_site_symmetry_multiplicity
 _atom_site_fract_x
 _atom_site_fract_y
 _atom_site_fract_z
 _atom_site_occupancy
  Dy  Dy0  1  0.250000  0.811497  0.025119  1
  Bi  Bi1  1  0.750000  0.563908  0.897894  1
  Bi  Bi2  1  0.250000  0.436019  0.107944  1
  Bi  Bi3  1  0.750000  0.479261  0.593832  1
  Bi  Bi4  1  0.250000  0.523110  0.404795  1
  Bi  Bi5  1  0.750000  0.196563  0.280111  1
  Bi  Bi6  1  0.250000  0.805167  0.722832  1
  Bi  Bi7  1  0.750000  0.828743  0.216847  1
  Bi  Bi8  1  0.250000  0.172345  0.777145  1
  Bi  Bi9  1  0.750000  0.101036  0.584642  1
  Bi  Bi10  1  0.250000  0.896478  0.412986  1
  Bi  Bi11  1  0.750000  0.179850  0.968709  1
  S  S12  1  0.750000  0.374841  0.470391  1
  S  S13  1  0.250000  0.626546  0.529927  1
  S  S14  1  0.750000  0.308521  0.825683  1
  S  S15  1  0.250000  0.692873  0.173056  1
  S  S16  1  0.750000  0.943645  0.070332  1
  S  S17  1  0.250000  0.042145  0.924020  1
  S  S18  1  0.750000  0.717344  0.365727  1
  S  S19  1  0.250000  0.283188  0.632155  1
  S  S20  1  0.750000  0.006400  0.731161  1
  S  S21  1  0.250000  0.996270  0.269114  1
  S  S22  1  0.750000  0.641958  0.718373  1
  S  S23  1  0.250000  0.360700  0.284773  1
  S  S24  1  0.250000  0.936181  0.577069  1
  S  S25  1  0.750000  0.059586  0.426472  1
  S  S26  1  0.250000  0.737972  0.880449  1
  S  S27  1  0.750000  0.267973  0.127278  1
  S  S28  1  0.250000  0.385848  0.969496  1
  S  S29  1  0.750000  0.624029  0.031667  1
