# generated using pymatgen
data_Lu8Si16RuW11
_symmetry_space_group_name_H-M   'P 1'
_cell_length_a   6.83156103
_cell_length_b   6.83156047
_cell_length_c   12.59303400
_cell_angle_alpha   89.92448777
_cell_angle_beta   90.07551350
_cell_angle_gamma   89.89688254
_symmetry_Int_Tables_number   1
_chemical_formula_structural   Lu8Si16RuW11
_chemical_formula_sum   'Lu8 Si16 Ru1 W11'
_cell_volume   587.71772106
_cell_formula_units_Z   1
loop_
 _symmetry_equiv_pos_site_id
 _symmetry_equiv_pos_as_xyz
  1  'x, y, z'
loop_
 _atom_site_type_symbol
 _atom_site_label
 _atom_site_symmetry_multiplicity
 _atom_site_fract_x
 _atom_site_fract_y
 _atom_site_fract_z
 _atom_site_occupancy
  Lu  Lu0  1  0.001446  0.662469  0.030727  1
  Lu  Lu1  1  0.997013  0.338752  0.530995  1
  Lu  Lu2  1  0.338752  0.997013  0.469005  1
  Lu  Lu3  1  0.161542  0.498975  0.779804  1
  Lu  Lu4  1  0.838767  0.500902  0.281309  1
  Lu  Lu5  1  0.498975  0.161542  0.220196  1
  Lu  Lu6  1  0.500902  0.838767  0.718691  1
  Lu  Lu7  1  0.662469  0.001446  0.969273  1
  Si  Si8  1  0.036346  0.713297  0.436671  1
  Si  Si9  1  0.624818  0.300875  0.433997  1
  Si  Si10  1  0.371051  0.701449  0.932393  1
  Si  Si11  1  0.201373  0.129317  0.682143  1
  Si  Si12  1  0.300875  0.624818  0.566003  1
  Si  Si13  1  0.701449  0.371051  0.067607  1
  Si  Si14  1  0.796704  0.870499  0.183916  1
  Si  Si15  1  0.129317  0.201373  0.317857  1
  Si  Si16  1  0.962535  0.290539  0.935345  1
  Si  Si17  1  0.713297  0.036346  0.563329  1
  Si  Si18  1  0.208085  0.462079  0.185460  1
  Si  Si19  1  0.789318  0.539506  0.682615  1
  Si  Si20  1  0.462079  0.208085  0.814540  1
  Si  Si21  1  0.539506  0.789318  0.317385  1
  Si  Si22  1  0.290539  0.962535  0.064655  1
  Si  Si23  1  0.870499  0.796704  0.816084  1
  Ru  Ru24  1  0.670930  0.670930  0.500000  1
  W  W25  1  0.168229  0.832888  0.249785  1
  W  W26  1  0.331182  0.331182  0.000000  1
  W  W27  1  0.010305  0.836212  0.626563  1
  W  W28  1  0.996303  0.161647  0.126693  1
  W  W29  1  0.836212  0.010305  0.373437  1
  W  W30  1  0.334625  0.496001  0.375989  1
  W  W31  1  0.662279  0.501742  0.875003  1
  W  W32  1  0.496001  0.334625  0.624011  1
  W  W33  1  0.501742  0.662279  0.124997  1
  W  W34  1  0.161647  0.996303  0.873307  1
  W  W35  1  0.832888  0.168229  0.750215  1
