# generated using pymatgen
data_PrPu(Si2Rh3)2
_symmetry_space_group_name_H-M   'P 1'
_cell_length_a   6.67944189
_cell_length_b   6.67944140
_cell_length_c   6.67944237
_cell_angle_alpha   130.15553380
_cell_angle_beta   114.87790015
_cell_angle_gamma   86.24153544
_symmetry_Int_Tables_number   1
_chemical_formula_structural   PrPu(Si2Rh3)2
_chemical_formula_sum   'Pr1 Pu1 Si4 Rh6'
_cell_volume   197.32245066
_cell_formula_units_Z   1
loop_
 _symmetry_equiv_pos_site_id
 _symmetry_equiv_pos_as_xyz
  1  'x, y, z'
loop_
 _atom_site_type_symbol
 _atom_site_label
 _atom_site_symmetry_multiplicity
 _atom_site_fract_x
 _atom_site_fract_y
 _atom_site_fract_z
 _atom_site_occupancy
  Pr  Pr0  1  0.250000  0.964965  0.714965  1
  Pu  Pu1  1  0.750000  0.039122  0.289122  1
  Si  Si2  1  0.076813  0.274341  0.197528  1
  Si  Si3  1  0.919974  0.726508  0.806535  1
  Si  Si4  1  0.423187  0.620715  0.197528  1
  Si  Si5  1  0.580026  0.386561  0.806535  1
  Rh  Rh6  1  0.500336  0.497369  0.497705  1
  Rh  Rh7  1  0.999664  0.497369  0.997033  1
  Rh  Rh8  1  0.286530  0.000154  0.282901  1
  Rh  Rh9  1  0.717253  0.000154  0.713623  1
  Rh  Rh10  1  0.213470  0.496371  0.713623  1
  Rh  Rh11  1  0.782747  0.496371  0.282901  1
