# generated using pymatgen
data_Zr3ScOs8
_symmetry_space_group_name_H-M   'P 1'
_cell_length_a   5.23376500
_cell_length_b   5.23376486
_cell_length_c   8.59867100
_cell_angle_alpha   90.00000000
_cell_angle_beta   90.00000000
_cell_angle_gamma   120.00000719
_symmetry_Int_Tables_number   1
_chemical_formula_structural   Zr3ScOs8
_chemical_formula_sum   'Zr3 Sc1 Os8'
_cell_volume   203.98130148
_cell_formula_units_Z   1
loop_
 _symmetry_equiv_pos_site_id
 _symmetry_equiv_pos_as_xyz
  1  'x, y, z'
loop_
 _atom_site_type_symbol
 _atom_site_label
 _atom_site_symmetry_multiplicity
 _atom_site_fract_x
 _atom_site_fract_y
 _atom_site_fract_z
 _atom_site_occupancy
  Zr  Zr0  1  0.333333  0.666667  0.429853  1
  Zr  Zr1  1  0.666667  0.333333  0.566548  1
  Zr  Zr2  1  0.666667  0.333333  0.936604  1
  Sc  Sc3  1  0.333333  0.666667  0.064381  1
  Os  Os4  1  0.172287  0.344573  0.749951  1
  Os  Os5  1  0.172287  0.827713  0.749951  1
  Os  Os6  1  0.344271  0.172136  0.249993  1
  Os  Os7  1  0.827864  0.655729  0.249993  1
  Os  Os8  1  0.655427  0.827713  0.749951  1
  Os  Os9  1  0.000000  0.000000  0.001611  1
  Os  Os10  1  0.827864  0.172136  0.249993  1
  Os  Os11  1  0.000000  0.000000  0.501171  1
