# generated using pymatgen
data_Dy4Lu8Co5Sn
_symmetry_space_group_name_H-M   'P 1'
_cell_length_a   8.14632674
_cell_length_b   8.14632583
_cell_length_c   8.14632573
_cell_angle_alpha   106.63158456
_cell_angle_beta   110.55545495
_cell_angle_gamma   111.26423960
_symmetry_Int_Tables_number   1
_chemical_formula_structural   Dy4Lu8Co5Sn
_chemical_formula_sum   'Dy4 Lu8 Co5 Sn1'
_cell_volume   415.38437900
_cell_formula_units_Z   1
loop_
 _symmetry_equiv_pos_site_id
 _symmetry_equiv_pos_as_xyz
  1  'x, y, z'
loop_
 _atom_site_type_symbol
 _atom_site_label
 _atom_site_symmetry_multiplicity
 _atom_site_fract_x
 _atom_site_fract_y
 _atom_site_fract_z
 _atom_site_occupancy
  Dy  Dy0  1  0.195575  0.213000  0.408575  1
  Dy  Dy1  1  0.804425  0.787000  0.591425  1
  Dy  Dy2  1  0.195575  0.787000  0.982574  1
  Dy  Dy3  1  0.804425  0.213000  0.017426  1
  Lu  Lu4  1  0.473105  0.289227  0.183878  1
  Lu  Lu5  1  0.105349  0.289227  0.816122  1
  Lu  Lu6  1  0.894651  0.710773  0.183878  1
  Lu  Lu7  1  0.526895  0.710773  0.816122  1
  Lu  Lu8  1  0.305115  0.619719  0.314604  1
  Lu  Lu9  1  0.305115  0.990512  0.685396  1
  Lu  Lu10  1  0.694885  0.380281  0.685396  1
  Lu  Lu11  1  0.694885  0.009488  0.314604  1
  Co  Co12  1  0.500000  0.612965  0.112965  1
  Co  Co13  1  0.500000  0.387035  0.887035  1
  Co  Co14  1  0.377080  0.000000  0.377080  1
  Co  Co15  1  0.622920  0.000000  0.622920  1
  Co  Co16  1  0.000000  0.000000  0.000000  1
  Sn  Sn17  1  0.000000  0.500000  0.500000  1
