# generated using pymatgen
data_Ba3PrDySe6
_symmetry_space_group_name_H-M   'P 1'
_cell_length_a   8.82576606
_cell_length_b   8.82576496
_cell_length_c   8.82576600
_cell_angle_alpha   92.04171837
_cell_angle_beta   92.04172461
_cell_angle_gamma   92.04170929
_symmetry_Int_Tables_number   1
_chemical_formula_structural   Ba3PrDySe6
_chemical_formula_sum   'Ba6 Pr2 Dy2 Se12'
_cell_volume   686.13411536
_cell_formula_units_Z   2
loop_
 _symmetry_equiv_pos_site_id
 _symmetry_equiv_pos_as_xyz
  1  'x, y, z'
loop_
 _atom_site_type_symbol
 _atom_site_label
 _atom_site_symmetry_multiplicity
 _atom_site_fract_x
 _atom_site_fract_y
 _atom_site_fract_z
 _atom_site_occupancy
  Ba  Ba0  1  0.369975  0.750000  0.130025  1
  Ba  Ba1  1  0.130025  0.369975  0.750000  1
  Ba  Ba2  1  0.750000  0.130025  0.369975  1
  Ba  Ba3  1  0.630025  0.250000  0.869975  1
  Ba  Ba4  1  0.869975  0.630025  0.250000  1
  Ba  Ba5  1  0.250000  0.869975  0.630025  1
  Pr  Pr6  1  0.250000  0.250000  0.250000  1
  Pr  Pr7  1  0.750000  0.750000  0.750000  1
  Dy  Dy8  1  0.500000  0.500000  0.500000  1
  Dy  Dy9  1  0.000000  0.000000  0.000000  1
  Se  Se10  1  0.546431  0.411660  0.194551  1
  Se  Se11  1  0.194551  0.546431  0.411660  1
  Se  Se12  1  0.411660  0.194551  0.546431  1
  Se  Se13  1  0.953569  0.305449  0.088340  1
  Se  Se14  1  0.088340  0.953569  0.305449  1
  Se  Se15  1  0.305449  0.088340  0.953569  1
  Se  Se16  1  0.453569  0.588340  0.805449  1
  Se  Se17  1  0.805449  0.453569  0.588340  1
  Se  Se18  1  0.588340  0.805449  0.453569  1
  Se  Se19  1  0.046431  0.694551  0.911660  1
  Se  Se20  1  0.694551  0.911660  0.046431  1
  Se  Se21  1  0.911660  0.046431  0.694551  1
