# generated using pymatgen
data_Sc8Ta3Ti9Ge16
_symmetry_space_group_name_H-M   'P 1'
_cell_length_a   6.87403261
_cell_length_b   6.96377364
_cell_length_c   13.16037400
_cell_angle_alpha   90.00000000
_cell_angle_beta   90.00000000
_cell_angle_gamma   90.04874803
_symmetry_Int_Tables_number   1
_chemical_formula_structural   Sc8Ta3Ti9Ge16
_chemical_formula_sum   'Sc8 Ta3 Ti9 Ge16'
_cell_volume   629.97644059
_cell_formula_units_Z   1
loop_
 _symmetry_equiv_pos_site_id
 _symmetry_equiv_pos_as_xyz
  1  'x, y, z'
loop_
 _atom_site_type_symbol
 _atom_site_label
 _atom_site_symmetry_multiplicity
 _atom_site_fract_x
 _atom_site_fract_y
 _atom_site_fract_z
 _atom_site_occupancy
  Sc  Sc0  1  0.490410  0.678215  0.594442  1
  Sc  Sc1  1  0.992717  0.824519  0.905640  1
  Sc  Sc2  1  0.508790  0.322647  0.095011  1
  Sc  Sc3  1  0.008524  0.176928  0.404933  1
  Sc  Sc4  1  0.508790  0.322647  0.404989  1
  Sc  Sc5  1  0.008524  0.176928  0.095067  1
  Sc  Sc6  1  0.490410  0.678215  0.905558  1
  Sc  Sc7  1  0.992717  0.824519  0.594360  1
  Ta  Ta8  1  0.329630  0.009220  0.750000  1
  Ta  Ta9  1  0.170584  0.508308  0.250000  1
  Ta  Ta10  1  0.670720  0.991699  0.250000  1
  Ti  Ti11  1  0.652895  0.168785  0.627294  1
  Ti  Ti12  1  0.155671  0.328675  0.872843  1
  Ti  Ti13  1  0.344906  0.829386  0.126496  1
  Ti  Ti14  1  0.845302  0.670185  0.373725  1
  Ti  Ti15  1  0.344906  0.829386  0.373504  1
  Ti  Ti16  1  0.845302  0.670185  0.126275  1
  Ti  Ti17  1  0.652895  0.168785  0.872706  1
  Ti  Ti18  1  0.155671  0.328675  0.627157  1
  Ti  Ti19  1  0.829739  0.493460  0.750000  1
  Ge  Ge20  1  0.683053  0.963634  0.459715  1
  Ge  Ge21  1  0.183598  0.535875  0.040282  1
  Ge  Ge22  1  0.316713  0.036862  0.960083  1
  Ge  Ge23  1  0.816866  0.463367  0.541004  1
  Ge  Ge24  1  0.316713  0.036862  0.539917  1
  Ge  Ge25  1  0.816866  0.463367  0.958996  1
  Ge  Ge26  1  0.683053  0.963634  0.040285  1
  Ge  Ge27  1  0.183598  0.535875  0.459718  1
  Ge  Ge28  1  0.457396  0.384097  0.750000  1
  Ge  Ge29  1  0.952957  0.119712  0.750000  1
  Ge  Ge30  1  0.546035  0.617576  0.250000  1
  Ge  Ge31  1  0.045818  0.882592  0.250000  1
  Ge  Ge32  1  0.689249  0.850063  0.750000  1
  Ge  Ge33  1  0.184766  0.645158  0.750000  1
  Ge  Ge34  1  0.312179  0.146180  0.250000  1
  Ge  Ge35  1  0.812035  0.353778  0.250000  1
