# generated using pymatgen
data_Tm16In4Ir3Ru
_symmetry_space_group_name_H-M   'P 1'
_cell_length_a   9.54670515
_cell_length_b   9.54670438
_cell_length_c   9.54181904
_cell_angle_alpha   59.98306797
_cell_angle_beta   59.98306232
_cell_angle_gamma   60.00000688
_symmetry_Int_Tables_number   1
_chemical_formula_structural   Tm16In4Ir3Ru
_chemical_formula_sum   'Tm16 In4 Ir3 Ru1'
_cell_volume   614.76901566
_cell_formula_units_Z   1
loop_
 _symmetry_equiv_pos_site_id
 _symmetry_equiv_pos_as_xyz
  1  'x, y, z'
loop_
 _atom_site_type_symbol
 _atom_site_label
 _atom_site_symmetry_multiplicity
 _atom_site_fract_x
 _atom_site_fract_y
 _atom_site_fract_z
 _atom_site_occupancy
  Tm  Tm0  1  0.059204  0.059204  0.439232  1
  Tm  Tm1  1  0.442360  0.059204  0.439232  1
  Tm  Tm2  1  0.059982  0.440166  0.059686  1
  Tm  Tm3  1  0.047881  0.650848  0.650425  1
  Tm  Tm4  1  0.440166  0.440166  0.059686  1
  Tm  Tm5  1  0.650848  0.047881  0.650425  1
  Tm  Tm6  1  0.190030  0.808776  0.192419  1
  Tm  Tm7  1  0.191235  0.191235  0.809413  1
  Tm  Tm8  1  0.808776  0.808776  0.192419  1
  Tm  Tm9  1  0.440166  0.059982  0.059686  1
  Tm  Tm10  1  0.808776  0.190030  0.192419  1
  Tm  Tm11  1  0.059204  0.442360  0.439232  1
  Tm  Tm12  1  0.808117  0.191235  0.809413  1
  Tm  Tm13  1  0.191235  0.808117  0.809413  1
  Tm  Tm14  1  0.650298  0.650298  0.049106  1
  Tm  Tm15  1  0.650848  0.650848  0.650425  1
  In  In16  1  0.415984  0.415984  0.416100  1
  In  In17  1  0.751931  0.415984  0.416100  1
  In  In18  1  0.415984  0.751931  0.416100  1
  In  In19  1  0.416339  0.416339  0.750983  1
  Ir  Ir20  1  0.858770  0.858770  0.858785  1
  Ir  Ir21  1  0.423676  0.858770  0.858785  1
  Ir  Ir22  1  0.858770  0.423676  0.858785  1
  Ru  Ru23  1  0.859422  0.859422  0.421734  1
