# generated using pymatgen
data_K2Pd3O7
_symmetry_space_group_name_H-M   'P 1'
_cell_length_a   7.40317800
_cell_length_b   7.68248345
_cell_length_c   8.19482642
_cell_angle_alpha   106.21130185
_cell_angle_beta   105.43581124
_cell_angle_gamma   113.68712914
_symmetry_Int_Tables_number   1
_chemical_formula_structural   K2Pd3O7
_chemical_formula_sum   'K4 Pd6 O14'
_cell_volume   369.97317982
_cell_formula_units_Z   2
loop_
 _symmetry_equiv_pos_site_id
 _symmetry_equiv_pos_as_xyz
  1  'x, y, z'
loop_
 _atom_site_type_symbol
 _atom_site_label
 _atom_site_symmetry_multiplicity
 _atom_site_fract_x
 _atom_site_fract_y
 _atom_site_fract_z
 _atom_site_occupancy
  K  K0  1  0.328923  0.818390  0.073781  1
  K  K1  1  0.255896  0.688868  0.495511  1
  K  K2  1  0.744103  0.311132  0.504488  1
  K  K3  1  0.671076  0.181610  0.926219  1
  Pd  Pd4  1  0.357927  0.357553  0.075493  1
  Pd  Pd5  1  0.071335  0.074083  0.217114  1
  Pd  Pd6  1  0.782937  0.785779  0.356935  1
  Pd  Pd7  1  0.217064  0.214221  0.643064  1
  Pd  Pd8  1  0.928666  0.925917  0.782885  1
  Pd  Pd9  1  0.642073  0.642447  0.924506  1
  O  O10  1  0.038094  0.197642  0.027152  1
  O  O11  1  0.680426  0.520990  0.124071  1
  O  O12  1  0.743599  0.912256  0.163354  1
  O  O13  1  0.379260  0.208579  0.239000  1
  O  O14  1  0.461091  0.635997  0.287149  1
  O  O15  1  0.112445  0.950323  0.405922  1
  O  O16  1  0.135812  0.310542  0.446457  1
  O  O17  1  0.864188  0.689457  0.553542  1
  O  O18  1  0.887555  0.049677  0.594077  1
  O  O19  1  0.538909  0.364003  0.712850  1
  O  O20  1  0.620741  0.791421  0.760999  1
  O  O21  1  0.256402  0.087744  0.836645  1
  O  O22  1  0.319574  0.479010  0.875930  1
  O  O23  1  0.961907  0.802358  0.972848  1
