# generated using pymatgen
data_La19Dy(Sn3Sb)4
_symmetry_space_group_name_H-M   'P 1'
_cell_length_a   8.56781100
_cell_length_b   8.58180814
_cell_length_c   16.23170600
_cell_angle_alpha   90.00292427
_cell_angle_beta   89.99844854
_cell_angle_gamma   89.98991200
_symmetry_Int_Tables_number   1
_chemical_formula_structural   La19Dy(Sn3Sb)4
_chemical_formula_sum   'La19 Dy1 Sn12 Sb4'
_cell_volume   1193.47366237
_cell_formula_units_Z   1
loop_
 _symmetry_equiv_pos_site_id
 _symmetry_equiv_pos_as_xyz
  1  'x, y, z'
loop_
 _atom_site_type_symbol
 _atom_site_label
 _atom_site_symmetry_multiplicity
 _atom_site_fract_x
 _atom_site_fract_y
 _atom_site_fract_z
 _atom_site_occupancy
  La  La0  1  0.397031  0.837152  0.886120  1
  La  La1  1  0.897617  0.663997  0.615585  1
  La  La2  1  0.603274  0.162603  0.384314  1
  La  La3  1  0.103943  0.336416  0.116102  1
  La  La4  1  0.606188  0.162323  0.116000  1
  La  La5  1  0.107001  0.336306  0.383407  1
  La  La6  1  0.394058  0.837279  0.614413  1
  La  La7  1  0.894735  0.663653  0.883976  1
  La  La8  1  0.548503  0.325716  0.893303  1
  La  La9  1  0.048465  0.175400  0.604985  1
  La  La10  1  0.450367  0.674869  0.393302  1
  La  La11  1  0.950891  0.825876  0.106670  1
  La  La12  1  0.456207  0.677137  0.105071  1
  La  La13  1  0.956563  0.822781  0.394821  1
  La  La14  1  0.543056  0.322830  0.605033  1
  La  La15  1  0.042631  0.178452  0.896450  1
  La  La16  1  0.222935  0.499665  0.748759  1
  La  La17  1  0.722913  0.000974  0.751342  1
  La  La18  1  0.776327  0.500631  0.248505  1
  Dy  Dy19  1  0.274642  0.000032  0.251995  1
  Sn  Sn20  1  0.731763  0.978510  0.954820  1
  Sn  Sn21  1  0.231527  0.521362  0.544930  1
  Sn  Sn22  1  0.269066  0.019107  0.450002  1
  Sn  Sn23  1  0.769107  0.477764  0.045145  1
  Sn  Sn24  1  0.594314  0.621611  0.748937  1
  Sn  Sn25  1  0.095559  0.880299  0.751007  1
  Sn  Sn26  1  0.404095  0.374445  0.248795  1
  Sn  Sn27  1  0.909941  0.119190  0.250966  1
  Sn  Sn28  1  0.346379  0.134327  0.750763  1
  Sn  Sn29  1  0.847539  0.365037  0.749146  1
  Sn  Sn30  1  0.647545  0.865843  0.250711  1
  Sn  Sn31  1  0.153956  0.641177  0.248890  1
  Sb  Sb32  1  0.267605  0.017899  0.051268  1
  Sb  Sb33  1  0.767298  0.479398  0.454184  1
  Sb  Sb34  1  0.733533  0.980018  0.545892  1
  Sb  Sb35  1  0.233426  0.519923  0.954390  1
