# generated using pymatgen
data_Dy16Tl2CdAgRh4
_symmetry_space_group_name_H-M   'P 1'
_cell_length_a   9.64591470
_cell_length_b   9.62473615
_cell_length_c   9.69102500
_cell_angle_alpha   59.77190239
_cell_angle_beta   59.84517420
_cell_angle_gamma   59.83014818
_symmetry_Int_Tables_number   1
_chemical_formula_structural   Dy16Tl2CdAgRh4
_chemical_formula_sum   'Dy16 Tl2 Cd1 Ag1 Rh4'
_cell_volume   633.52879450
_cell_formula_units_Z   1
loop_
 _symmetry_equiv_pos_site_id
 _symmetry_equiv_pos_as_xyz
  1  'x, y, z'
loop_
 _atom_site_type_symbol
 _atom_site_label
 _atom_site_symmetry_multiplicity
 _atom_site_fract_x
 _atom_site_fract_y
 _atom_site_fract_z
 _atom_site_occupancy
  Dy  Dy0  1  0.059875  0.436421  0.436685  1
  Dy  Dy1  1  0.647595  0.050887  0.650759  1
  Dy  Dy2  1  0.813326  0.811960  0.187357  1
  Dy  Dy3  1  0.437783  0.056453  0.069040  1
  Dy  Dy4  1  0.436116  0.434967  0.064459  1
  Dy  Dy5  1  0.191822  0.191247  0.808465  1
  Dy  Dy6  1  0.812569  0.189269  0.187607  1
  Dy  Dy7  1  0.059875  0.436421  0.067019  1
  Dy  Dy8  1  0.437783  0.056453  0.436725  1
  Dy  Dy9  1  0.053426  0.646598  0.649988  1
  Dy  Dy10  1  0.189888  0.812268  0.809723  1
  Dy  Dy11  1  0.650431  0.649468  0.046535  1
  Dy  Dy12  1  0.189888  0.812268  0.188120  1
  Dy  Dy13  1  0.063318  0.060052  0.438314  1
  Dy  Dy14  1  0.812569  0.189269  0.810554  1
  Dy  Dy15  1  0.650431  0.649468  0.653567  1
  Tl  Tl16  1  0.416394  0.418675  0.753136  1
  Tl  Tl17  1  0.416394  0.418675  0.411794  1
  Cd  Cd18  1  0.739860  0.426312  0.416914  1
  Ag  Ag19  1  0.417406  0.755185  0.413704  1
  Rh  Rh20  1  0.858663  0.427001  0.857169  1
  Rh  Rh21  1  0.427512  0.856635  0.857926  1
  Rh  Rh22  1  0.858539  0.857024  0.428255  1
  Rh  Rh23  1  0.858539  0.857024  0.856184  1
