# generated using pymatgen
data_HoEr7Re2(TcB12)2
_symmetry_space_group_name_H-M   'P 1'
_cell_length_a   3.65931200
_cell_length_b   9.12758416
_cell_length_c   11.50076600
_cell_angle_alpha   90.05581668
_cell_angle_beta   90.00000000
_cell_angle_gamma   90.00000000
_symmetry_Int_Tables_number   1
_chemical_formula_structural   HoEr7Re2(TcB12)2
_chemical_formula_sum   'Ho1 Er7 Re2 Tc2 B24'
_cell_volume   384.13320243
_cell_formula_units_Z   1
loop_
 _symmetry_equiv_pos_site_id
 _symmetry_equiv_pos_as_xyz
  1  'x, y, z'
loop_
 _atom_site_type_symbol
 _atom_site_label
 _atom_site_symmetry_multiplicity
 _atom_site_fract_x
 _atom_site_fract_y
 _atom_site_fract_z
 _atom_site_occupancy
  Ho  Ho0  1  0.000000  0.323921  0.414006  1
  Er  Er1  1  0.000000  0.676076  0.585986  1
  Er  Er2  1  0.000000  0.823443  0.086095  1
  Er  Er3  1  0.000000  0.176535  0.913915  1
  Er  Er4  1  0.000000  0.942384  0.370025  1
  Er  Er5  1  0.000000  0.057515  0.629993  1
  Er  Er6  1  0.000000  0.444008  0.130342  1
  Er  Er7  1  0.000000  0.556033  0.869650  1
  Re  Re8  1  0.000000  0.138849  0.179230  1
  Re  Re9  1  0.000000  0.861097  0.820694  1
  Tc  Tc10  1  0.000000  0.639111  0.320697  1
  Tc  Tc11  1  0.000000  0.361015  0.679372  1
  B  B12  1  0.500000  0.553503  0.433174  1
  B  B13  1  0.500000  0.446679  0.566920  1
  B  B14  1  0.500000  0.053257  0.066670  1
  B  B15  1  0.500000  0.946735  0.933318  1
  B  B16  1  0.500000  0.749358  0.419104  1
  B  B17  1  0.500000  0.250627  0.581052  1
  B  B18  1  0.500000  0.249855  0.080775  1
  B  B19  1  0.500000  0.750144  0.919213  1
  B  B20  1  0.500000  0.792513  0.265386  1
  B  B21  1  0.500000  0.207474  0.734627  1
  B  B22  1  0.500000  0.292850  0.234618  1
  B  B23  1  0.500000  0.707093  0.765262  1
  B  B24  1  0.500000  0.631241  0.185447  1
  B  B25  1  0.500000  0.368778  0.814553  1
  B  B26  1  0.500000  0.130849  0.314762  1
  B  B27  1  0.500000  0.869042  0.685149  1
  B  B28  1  0.500000  0.981807  0.211905  1
  B  B29  1  0.500000  0.018174  0.788094  1
  B  B30  1  0.500000  0.482406  0.288124  1
  B  B31  1  0.500000  0.517769  0.711809  1
  B  B32  1  0.500000  0.600293  0.027950  1
  B  B33  1  0.500000  0.399712  0.972044  1
  B  B34  1  0.500000  0.099955  0.471952  1
  B  B35  1  0.500000  0.899898  0.528088  1
