# generated using pymatgen
data_Y3Ho5(InPt)2
_symmetry_space_group_name_H-M   'P 1'
_cell_length_a   9.71266507
_cell_length_b   9.71266579
_cell_length_c   9.71266700
_cell_angle_alpha   60.00000611
_cell_angle_beta   60.00000365
_cell_angle_gamma   60.00000490
_symmetry_Int_Tables_number   1
_chemical_formula_structural   Y3Ho5(InPt)2
_chemical_formula_sum   'Y6 Ho10 In4 Pt4'
_cell_volume   647.88870337
_cell_formula_units_Z   2
loop_
 _symmetry_equiv_pos_site_id
 _symmetry_equiv_pos_as_xyz
  1  'x, y, z'
loop_
 _atom_site_type_symbol
 _atom_site_label
 _atom_site_symmetry_multiplicity
 _atom_site_fract_x
 _atom_site_fract_y
 _atom_site_fract_z
 _atom_site_occupancy
  Y  Y0  1  0.938168  0.561832  0.561832  1
  Y  Y1  1  0.561832  0.938168  0.938168  1
  Y  Y2  1  0.561832  0.938168  0.561832  1
  Y  Y3  1  0.938168  0.561832  0.938168  1
  Y  Y4  1  0.561832  0.561832  0.938168  1
  Y  Y5  1  0.938168  0.938168  0.561832  1
  Ho  Ho6  1  0.351020  0.351020  0.351020  1
  Ho  Ho7  1  0.351020  0.351020  0.946942  1
  Ho  Ho8  1  0.351020  0.946942  0.351020  1
  Ho  Ho9  1  0.946942  0.351020  0.351020  1
  Ho  Ho10  1  0.810495  0.189505  0.189505  1
  Ho  Ho11  1  0.189505  0.810495  0.810495  1
  Ho  Ho12  1  0.189505  0.810495  0.189505  1
  Ho  Ho13  1  0.810495  0.189505  0.810495  1
  Ho  Ho14  1  0.189505  0.189505  0.810495  1
  Ho  Ho15  1  0.810495  0.810495  0.189505  1
  In  In16  1  0.583255  0.583255  0.583255  1
  In  In17  1  0.583255  0.583255  0.250234  1
  In  In18  1  0.583255  0.250234  0.583255  1
  In  In19  1  0.250234  0.583255  0.583255  1
  Pt  Pt20  1  0.142985  0.142985  0.142985  1
  Pt  Pt21  1  0.142985  0.142985  0.571045  1
  Pt  Pt22  1  0.142985  0.571045  0.142985  1
  Pt  Pt23  1  0.571045  0.142985  0.142985  1
