# generated using pymatgen
data_Sr2Nd(B3Ir4)2
_symmetry_space_group_name_H-M   'P 1'
_cell_length_a   10.02024838
_cell_length_b   9.12678661
_cell_length_c   5.73508360
_cell_angle_alpha   81.32814538
_cell_angle_beta   64.21355574
_cell_angle_gamma   34.45830734
_symmetry_Int_Tables_number   1
_chemical_formula_structural   Sr2Nd(B3Ir4)2
_chemical_formula_sum   'Sr2 Nd1 B6 Ir8'
_cell_volume   243.94408845
_cell_formula_units_Z   1
loop_
 _symmetry_equiv_pos_site_id
 _symmetry_equiv_pos_as_xyz
  1  'x, y, z'
loop_
 _atom_site_type_symbol
 _atom_site_label
 _atom_site_symmetry_multiplicity
 _atom_site_fract_x
 _atom_site_fract_y
 _atom_site_fract_z
 _atom_site_occupancy
  Sr  Sr0  1  0.317530  0.317530  0.682470  1
  Sr  Sr1  1  0.682470  0.682470  0.317530  1
  Nd  Nd2  1  0.500000  0.500000  0.500000  1
  B  B3  1  0.667606  0.990520  0.009480  1
  B  B4  1  0.990520  0.667606  0.332394  1
  B  B5  1  0.332394  0.009480  0.990520  1
  B  B6  1  0.009480  0.332394  0.667606  1
  B  B7  1  0.166316  0.833684  0.166316  1
  B  B8  1  0.833684  0.166316  0.833684  1
  Ir  Ir9  1  0.584239  0.584239  0.915761  1
  Ir  Ir10  1  0.913594  0.913594  0.086406  1
  Ir  Ir11  1  0.415761  0.415761  0.084239  1
  Ir  Ir12  1  0.084239  0.084239  0.415761  1
  Ir  Ir13  1  0.915761  0.915761  0.584239  1
  Ir  Ir14  1  0.250000  0.250000  0.250000  1
  Ir  Ir15  1  0.086406  0.086406  0.913594  1
  Ir  Ir16  1  0.750000  0.750000  0.750000  1
