# generated using pymatgen
data_CeYPa2(IrRh)2
_symmetry_space_group_name_H-M   'P 1'
_cell_length_a   3.76595500
_cell_length_b   4.23720300
_cell_length_c   10.93705100
_cell_angle_alpha   90.00000000
_cell_angle_beta   90.00000000
_cell_angle_gamma   90.00000000
_symmetry_Int_Tables_number   1
_chemical_formula_structural   CeYPa2(IrRh)2
_chemical_formula_sum   'Ce1 Y1 Pa2 Ir2 Rh2'
_cell_volume   174.52378958
_cell_formula_units_Z   1
loop_
 _symmetry_equiv_pos_site_id
 _symmetry_equiv_pos_as_xyz
  1  'x, y, z'
loop_
 _atom_site_type_symbol
 _atom_site_label
 _atom_site_symmetry_multiplicity
 _atom_site_fract_x
 _atom_site_fract_y
 _atom_site_fract_z
 _atom_site_occupancy
  Ce  Ce0  1  0.000000  0.250000  0.141735  1
  Y  Y1  1  0.500000  0.750000  0.361357  1
  Pa  Pa2  1  0.000000  0.750000  0.864019  1
  Pa  Pa3  1  0.500000  0.250000  0.630683  1
  Ir  Ir4  1  0.000000  0.750000  0.605229  1
  Ir  Ir5  1  0.500000  0.250000  0.891984  1
  Rh  Rh6  1  0.500000  0.750000  0.085227  1
  Rh  Rh7  1  0.000000  0.250000  0.419766  1
