# generated using pymatgen
data_Ho3Lu2Tl2Bi
_symmetry_space_group_name_H-M   'P 1'
_cell_length_a   8.96751700
_cell_length_b   8.91928276
_cell_length_c   6.53535500
_cell_angle_alpha   90.00000000
_cell_angle_beta   90.00000000
_cell_angle_gamma   119.82223070
_symmetry_Int_Tables_number   1
_chemical_formula_structural   Ho3Lu2Tl2Bi
_chemical_formula_sum   'Ho6 Lu4 Tl4 Bi2'
_cell_volume   453.49983460
_cell_formula_units_Z   2
loop_
 _symmetry_equiv_pos_site_id
 _symmetry_equiv_pos_as_xyz
  1  'x, y, z'
loop_
 _atom_site_type_symbol
 _atom_site_label
 _atom_site_symmetry_multiplicity
 _atom_site_fract_x
 _atom_site_fract_y
 _atom_site_fract_z
 _atom_site_occupancy
  Ho  Ho0  1  0.770090  0.759975  0.750000  1
  Ho  Ho1  1  0.229910  0.989887  0.750000  1
  Ho  Ho2  1  0.000000  0.236461  0.750000  1
  Ho  Ho3  1  0.235544  0.236577  0.250000  1
  Ho  Ho4  1  0.764456  0.001033  0.250000  1
  Ho  Ho5  1  0.000000  0.763696  0.250000  1
  Lu  Lu6  1  0.671406  0.338990  0.007539  1
  Lu  Lu7  1  0.328594  0.667584  0.007539  1
  Lu  Lu8  1  0.328594  0.667584  0.492461  1
  Lu  Lu9  1  0.671406  0.338990  0.492461  1
  Tl  Tl10  1  0.000000  0.594329  0.750000  1
  Tl  Tl11  1  0.601880  0.605921  0.250000  1
  Tl  Tl12  1  0.398120  0.004042  0.250000  1
  Tl  Tl13  1  0.000000  0.398837  0.250000  1
  Bi  Bi14  1  0.396522  0.396310  0.750000  1
  Bi  Bi15  1  0.603478  0.999787  0.750000  1
