# generated using pymatgen
data_Er4B16Ir3Ru
_symmetry_space_group_name_H-M   'P 1'
_cell_length_a   3.55353800
_cell_length_b   5.94983568
_cell_length_c   11.53946375
_cell_angle_alpha   89.92539156
_cell_angle_beta   90.00005698
_cell_angle_gamma   89.99983928
_symmetry_Int_Tables_number   1
_chemical_formula_structural   Er4B16Ir3Ru
_chemical_formula_sum   'Er4 B16 Ir3 Ru1'
_cell_volume   243.97829652
_cell_formula_units_Z   1
loop_
 _symmetry_equiv_pos_site_id
 _symmetry_equiv_pos_as_xyz
  1  'x, y, z'
loop_
 _atom_site_type_symbol
 _atom_site_label
 _atom_site_symmetry_multiplicity
 _atom_site_fract_x
 _atom_site_fract_y
 _atom_site_fract_z
 _atom_site_occupancy
  Er  Er0  1  0.000001  0.631547  0.352920  1
  Er  Er1  1  0.999994  0.369985  0.648725  1
  Er  Er2  1  0.000003  0.131354  0.148816  1
  Er  Er3  1  0.999996  0.868314  0.848788  1
  B  B4  1  0.500003  0.792382  0.187707  1
  B  B5  1  0.500001  0.208354  0.812132  1
  B  B6  1  0.500002  0.292177  0.312709  1
  B  B7  1  0.499998  0.709339  0.686373  1
  B  B8  1  0.499999  0.864181  0.029934  1
  B  B9  1  0.499999  0.135820  0.970140  1
  B  B10  1  0.500000  0.363793  0.470435  1
  B  B11  1  0.499998  0.635144  0.530801  1
  B  B12  1  0.500004  0.886036  0.454301  1
  B  B13  1  0.500000  0.111552  0.547864  1
  B  B14  1  0.499999  0.387370  0.047124  1
  B  B15  1  0.499999  0.612847  0.952478  1
  B  B16  1  0.500004  0.972613  0.308159  1
  B  B17  1  0.499999  0.024498  0.692513  1
  B  B18  1  0.500005  0.474310  0.192888  1
  B  B19  1  0.499998  0.525321  0.807113  1
  Ir  Ir20  1  0.000001  0.644578  0.097102  1
  Ir  Ir21  1  0.999998  0.355581  0.903928  1
  Ir  Ir22  1  0.000004  0.143591  0.403019  1
  Ru  Ru23  1  0.999995  0.859314  0.594030  1
