# generated using pymatgen
data_Ca2Yb2SnN4
_symmetry_space_group_name_H-M   'P 1'
_cell_length_a   6.09112653
_cell_length_b   6.10440766
_cell_length_c   9.21949023
_cell_angle_alpha   70.53717795
_cell_angle_beta   80.08285927
_cell_angle_gamma   68.41227402
_symmetry_Int_Tables_number   1
_chemical_formula_structural   Ca2Yb2SnN4
_chemical_formula_sum   'Ca4 Yb4 Sn2 N8'
_cell_volume   300.06312472
_cell_formula_units_Z   2
loop_
 _symmetry_equiv_pos_site_id
 _symmetry_equiv_pos_as_xyz
  1  'x, y, z'
loop_
 _atom_site_type_symbol
 _atom_site_label
 _atom_site_symmetry_multiplicity
 _atom_site_fract_x
 _atom_site_fract_y
 _atom_site_fract_z
 _atom_site_occupancy
  Ca  Ca0  1  0.746592  0.604425  0.194177  1
  Ca  Ca1  1  0.253408  0.395575  0.805823  1
  Ca  Ca2  1  0.747664  0.243254  0.990490  1
  Ca  Ca3  1  0.252336  0.756746  0.009510  1
  Yb  Yb4  1  0.734105  0.483885  0.572655  1
  Yb  Yb5  1  0.265895  0.516115  0.427345  1
  Yb  Yb6  1  0.245254  0.946182  0.594146  1
  Yb  Yb7  1  0.754746  0.053818  0.405854  1
  Sn  Sn8  1  0.715276  0.847683  0.759044  1
  Sn  Sn9  1  0.284724  0.152317  0.240956  1
  N  N10  1  0.988802  0.698458  0.605032  1
  N  N11  1  0.011198  0.301542  0.394968  1
  N  N12  1  0.860017  0.852169  0.945801  1
  N  N13  1  0.139983  0.147831  0.054199  1
  N  N14  1  0.503926  0.615797  0.800324  1
  N  N15  1  0.496074  0.384203  0.199676  1
  N  N16  1  0.500538  0.811151  0.384934  1
  N  N17  1  0.499462  0.188849  0.615066  1
