# generated using pymatgen
data_TbHo3CdIr
_symmetry_space_group_name_H-M   'P 1'
_cell_length_a   9.62544174
_cell_length_b   9.62233226
_cell_length_c   9.62233250
_cell_angle_alpha   60.02138307
_cell_angle_beta   59.98930607
_cell_angle_gamma   59.98931038
_symmetry_Int_Tables_number   1
_chemical_formula_structural   TbHo3CdIr
_chemical_formula_sum   'Tb4 Ho12 Cd4 Ir4'
_cell_volume   630.18242774
_cell_formula_units_Z   4
loop_
 _symmetry_equiv_pos_site_id
 _symmetry_equiv_pos_as_xyz
  1  'x, y, z'
loop_
 _atom_site_type_symbol
 _atom_site_label
 _atom_site_symmetry_multiplicity
 _atom_site_fract_x
 _atom_site_fract_y
 _atom_site_fract_z
 _atom_site_occupancy
  Tb  Tb0  1  0.812058  0.187942  0.812058  1
  Tb  Tb1  1  0.187942  0.812058  0.187942  1
  Tb  Tb2  1  0.812058  0.812058  0.187942  1
  Tb  Tb3  1  0.187942  0.187942  0.812058  1
  Ho  Ho4  1  0.598959  0.599105  0.599105  1
  Ho  Ho5  1  0.599105  0.598959  0.202832  1
  Ho  Ho6  1  0.599105  0.202832  0.598959  1
  Ho  Ho7  1  0.202832  0.599105  0.599105  1
  Ho  Ho8  1  0.060935  0.439065  0.439065  1
  Ho  Ho9  1  0.439065  0.060935  0.060935  1
  Ho  Ho10  1  0.439190  0.060810  0.439190  1
  Ho  Ho11  1  0.060810  0.439190  0.060810  1
  Ho  Ho12  1  0.439190  0.439190  0.060810  1
  Ho  Ho13  1  0.060810  0.060810  0.439190  1
  Ho  Ho14  1  0.188409  0.811591  0.811591  1
  Ho  Ho15  1  0.811591  0.188409  0.188409  1
  Cd  Cd16  1  0.831309  0.830847  0.830847  1
  Cd  Cd17  1  0.830847  0.831309  0.506998  1
  Cd  Cd18  1  0.830847  0.506998  0.831309  1
  Cd  Cd19  1  0.506998  0.830847  0.830847  1
  Ir  Ir20  1  0.392064  0.391532  0.391532  1
  Ir  Ir21  1  0.391532  0.392064  0.824871  1
  Ir  Ir22  1  0.391532  0.824871  0.392064  1
  Ir  Ir23  1  0.824871  0.391532  0.391532  1
