# generated using pymatgen
data_Ce6Nd2Co3Si12Pd
_symmetry_space_group_name_H-M   'P 1'
_cell_length_a   8.11658700
_cell_length_b   8.11658802
_cell_length_c   8.26541200
_cell_angle_alpha   90.00000000
_cell_angle_beta   90.00000000
_cell_angle_gamma   119.99999177
_symmetry_Int_Tables_number   1
_chemical_formula_structural   Ce6Nd2Co3Si12Pd
_chemical_formula_sum   'Ce6 Nd2 Co3 Si12 Pd1'
_cell_volume   471.56560921
_cell_formula_units_Z   1
loop_
 _symmetry_equiv_pos_site_id
 _symmetry_equiv_pos_as_xyz
  1  'x, y, z'
loop_
 _atom_site_type_symbol
 _atom_site_label
 _atom_site_symmetry_multiplicity
 _atom_site_fract_x
 _atom_site_fract_y
 _atom_site_fract_z
 _atom_site_occupancy
  Ce  Ce0  1  0.496760  0.503240  0.753919  1
  Ce  Ce1  1  0.496997  0.503003  0.246958  1
  Ce  Ce2  1  0.006479  0.503240  0.753919  1
  Ce  Ce3  1  0.006006  0.503003  0.246958  1
  Ce  Ce4  1  0.496760  0.993521  0.753919  1
  Ce  Ce5  1  0.496997  0.993994  0.246958  1
  Nd  Nd6  1  0.000000  0.000000  0.751104  1
  Nd  Nd7  1  0.000000  0.000000  0.248908  1
  Co  Co8  1  0.666667  0.333333  0.993898  1
  Co  Co9  1  0.333333  0.666667  0.006270  1
  Co  Co10  1  0.333333  0.666667  0.492162  1
  Si  Si11  1  0.828311  0.171689  0.000118  1
  Si  Si12  1  0.170276  0.829724  0.000097  1
  Si  Si13  1  0.343377  0.171689  0.000118  1
  Si  Si14  1  0.172001  0.827999  0.500782  1
  Si  Si15  1  0.659448  0.829724  0.000097  1
  Si  Si16  1  0.835667  0.164333  0.499530  1
  Si  Si17  1  0.828311  0.656623  0.000118  1
  Si  Si18  1  0.655999  0.827999  0.500782  1
  Si  Si19  1  0.170276  0.340552  0.000097  1
  Si  Si20  1  0.328666  0.164333  0.499530  1
  Si  Si21  1  0.172001  0.344001  0.500782  1
  Si  Si22  1  0.835667  0.671334  0.499530  1
  Pd  Pd23  1  0.666667  0.333333  0.503443  1
