# generated using pymatgen
data_Hf6Al8IrOs3
_symmetry_space_group_name_H-M   'P 1'
_cell_length_a   9.10206832
_cell_length_b   9.06662083
_cell_length_c   8.40577400
_cell_angle_alpha   90.00000000
_cell_angle_beta   90.00000000
_cell_angle_gamma   120.04271476
_symmetry_Int_Tables_number   1
_chemical_formula_structural   Hf6Al8IrOs3
_chemical_formula_sum   'Hf12 Al16 Ir2 Os6'
_cell_volume   600.49140387
_cell_formula_units_Z   2
loop_
 _symmetry_equiv_pos_site_id
 _symmetry_equiv_pos_as_xyz
  1  'x, y, z'
loop_
 _atom_site_type_symbol
 _atom_site_label
 _atom_site_symmetry_multiplicity
 _atom_site_fract_x
 _atom_site_fract_y
 _atom_site_fract_z
 _atom_site_occupancy
  Hf  Hf0  1  0.338186  0.012581  0.061142  1
  Hf  Hf1  1  0.661814  0.987419  0.938858  1
  Hf  Hf2  1  0.000728  0.335011  0.059036  1
  Hf  Hf3  1  0.661814  0.987419  0.561142  1
  Hf  Hf4  1  0.000728  0.335011  0.440964  1
  Hf  Hf5  1  0.999272  0.664989  0.940964  1
  Hf  Hf6  1  0.338186  0.012581  0.438858  1
  Hf  Hf7  1  0.999272  0.664989  0.559036  1
  Hf  Hf8  1  0.665341  0.668771  0.061738  1
  Hf  Hf9  1  0.334659  0.331229  0.938262  1
  Hf  Hf10  1  0.334659  0.331229  0.561738  1
  Hf  Hf11  1  0.665341  0.668771  0.438262  1
  Al  Al12  1  0.337298  0.839911  0.750000  1
  Al  Al13  1  0.657448  0.502042  0.750000  1
  Al  Al14  1  0.662702  0.160089  0.250000  1
  Al  Al15  1  0.342552  0.497958  0.250000  1
  Al  Al16  1  0.826497  0.318931  0.750000  1
  Al  Al17  1  0.173503  0.681069  0.250000  1
  Al  Al18  1  0.337079  0.664984  0.502639  1
  Al  Al19  1  0.662921  0.335016  0.497361  1
  Al  Al20  1  0.662921  0.335016  0.002639  1
  Al  Al21  1  0.337079  0.664984  0.997361  1
  Al  Al22  1  0.169689  0.002153  0.750000  1
  Al  Al23  1  0.830311  0.997847  0.250000  1
  Al  Al24  1  0.005525  0.173411  0.750000  1
  Al  Al25  1  0.994475  0.826589  0.250000  1
  Al  Al26  1  0.831614  0.830059  0.750000  1
  Al  Al27  1  0.168386  0.169941  0.250000  1
  Ir  Ir28  1  0.000000  0.000000  0.500000  1
  Ir  Ir29  1  0.000000  0.000000  0.000000  1
  Os  Os30  1  0.152549  0.499653  0.750000  1
  Os  Os31  1  0.847451  0.500347  0.250000  1
  Os  Os32  1  0.507601  0.674005  0.750000  1
  Os  Os33  1  0.493215  0.164833  0.750000  1
  Os  Os34  1  0.492399  0.325995  0.250000  1
  Os  Os35  1  0.506785  0.835167  0.250000  1
