# generated using pymatgen
data_Tb8TmLuSn6
_symmetry_space_group_name_H-M   'P 1'
_cell_length_a   8.98627200
_cell_length_b   8.98627264
_cell_length_c   6.54022000
_cell_angle_alpha   90.00000000
_cell_angle_beta   90.00000000
_cell_angle_gamma   120.00000500
_symmetry_Int_Tables_number   1
_chemical_formula_structural   Tb8TmLuSn6
_chemical_formula_sum   'Tb8 Tm1 Lu1 Sn6'
_cell_volume   457.38521073
_cell_formula_units_Z   1
loop_
 _symmetry_equiv_pos_site_id
 _symmetry_equiv_pos_as_xyz
  1  'x, y, z'
loop_
 _atom_site_type_symbol
 _atom_site_label
 _atom_site_symmetry_multiplicity
 _atom_site_fract_x
 _atom_site_fract_y
 _atom_site_fract_z
 _atom_site_occupancy
  Tb  Tb0  1  0.666667  0.333333  0.000000  1
  Tb  Tb1  1  0.333333  0.666667  0.000000  1
  Tb  Tb2  1  0.760171  0.760139  0.749106  1
  Tb  Tb3  1  0.239861  0.000033  0.749106  1
  Tb  Tb4  1  0.999967  0.239829  0.749106  1
  Tb  Tb5  1  0.239861  0.239829  0.250894  1
  Tb  Tb6  1  0.760171  0.000033  0.250894  1
  Tb  Tb7  1  0.999967  0.760139  0.250894  1
  Tm  Tm8  1  0.333333  0.666667  0.500000  1
  Lu  Lu9  1  0.666667  0.333333  0.500000  1
  Sn  Sn10  1  0.395552  0.395443  0.746568  1
  Sn  Sn11  1  0.604557  0.000109  0.746568  1
  Sn  Sn12  1  0.999891  0.604448  0.746568  1
  Sn  Sn13  1  0.604557  0.604448  0.253432  1
  Sn  Sn14  1  0.395552  0.000109  0.253432  1
  Sn  Sn15  1  0.999891  0.395443  0.253432  1
