# generated using pymatgen
data_Ho4AlRh
_symmetry_space_group_name_H-M   'P 1'
_cell_length_a   9.48250102
_cell_length_b   9.48231400
_cell_length_c   9.48233952
_cell_angle_alpha   60.09544857
_cell_angle_beta   60.09492219
_cell_angle_gamma   60.09544426
_symmetry_Int_Tables_number   1
_chemical_formula_structural   Ho4AlRh
_chemical_formula_sum   'Ho16 Al4 Rh4'
_cell_volume   604.19100475
_cell_formula_units_Z   4
loop_
 _symmetry_equiv_pos_site_id
 _symmetry_equiv_pos_as_xyz
  1  'x, y, z'
loop_
 _atom_site_type_symbol
 _atom_site_label
 _atom_site_symmetry_multiplicity
 _atom_site_fract_x
 _atom_site_fract_y
 _atom_site_fract_z
 _atom_site_occupancy
  Ho  Ho0  1  0.192015  0.191985  0.808257  1
  Ho  Ho1  1  0.436425  0.062711  0.062694  1
  Ho  Ho2  1  0.435992  0.063545  0.436006  1
  Ho  Ho3  1  0.062702  0.436427  0.062694  1
  Ho  Ho4  1  0.645461  0.059861  0.645488  1
  Ho  Ho5  1  0.193080  0.807518  0.807506  1
  Ho  Ho6  1  0.062693  0.062700  0.436413  1
  Ho  Ho7  1  0.808250  0.191993  0.192013  1
  Ho  Ho8  1  0.807513  0.807520  0.193075  1
  Ho  Ho9  1  0.645454  0.645501  0.059861  1
  Ho  Ho10  1  0.649270  0.649288  0.649290  1
  Ho  Ho11  1  0.063556  0.435987  0.435993  1
  Ho  Ho12  1  0.059879  0.645485  0.645468  1
  Ho  Ho13  1  0.807508  0.193081  0.807511  1
  Ho  Ho14  1  0.435983  0.435989  0.063563  1
  Ho  Ho15  1  0.192014  0.808267  0.191977  1
  Al  Al16  1  0.422998  0.732616  0.423002  1
  Al  Al17  1  0.423001  0.422992  0.732624  1
  Al  Al18  1  0.732623  0.422993  0.423000  1
  Al  Al19  1  0.421795  0.421796  0.421801  1
  Rh  Rh20  1  0.858567  0.427983  0.858574  1
  Rh  Rh21  1  0.858573  0.858564  0.427972  1
  Rh  Rh22  1  0.427969  0.858563  0.858556  1
  Rh  Rh23  1  0.856675  0.856635  0.856659  1
