# generated using pymatgen
data_ZrTc6PdO24
_symmetry_space_group_name_H-M   'P 1'
_cell_length_a   10.48373401
_cell_length_b   10.48373308
_cell_length_c   10.48373198
_cell_angle_alpha   49.04577320
_cell_angle_beta   49.04578560
_cell_angle_gamma   49.04578611
_symmetry_Int_Tables_number   1
_chemical_formula_structural   ZrTc6PdO24
_chemical_formula_sum   'Zr1 Tc6 Pd1 O24'
_cell_volume   603.51003181
_cell_formula_units_Z   1
loop_
 _symmetry_equiv_pos_site_id
 _symmetry_equiv_pos_as_xyz
  1  'x, y, z'
loop_
 _atom_site_type_symbol
 _atom_site_label
 _atom_site_symmetry_multiplicity
 _atom_site_fract_x
 _atom_site_fract_y
 _atom_site_fract_z
 _atom_site_occupancy
  Zr  Zr0  1  0.500000  0.500000  0.500000  1
  Tc  Tc1  1  0.579417  0.943015  0.236742  1
  Tc  Tc2  1  0.236742  0.579417  0.943015  1
  Tc  Tc3  1  0.943015  0.236742  0.579417  1
  Tc  Tc4  1  0.763258  0.420583  0.056985  1
  Tc  Tc5  1  0.056985  0.763258  0.420583  1
  Tc  Tc6  1  0.420583  0.056985  0.763258  1
  Pd  Pd7  1  0.000000  0.000000  0.000000  1
  O  O8  1  0.805321  0.875400  0.190977  1
  O  O9  1  0.190977  0.805321  0.875400  1
  O  O10  1  0.875400  0.190977  0.805321  1
  O  O11  1  0.646008  0.461778  0.257925  1
  O  O12  1  0.257925  0.646008  0.461778  1
  O  O13  1  0.461778  0.257925  0.646008  1
  O  O14  1  0.194679  0.124600  0.809023  1
  O  O15  1  0.809023  0.194679  0.124600  1
  O  O16  1  0.124600  0.809023  0.194679  1
  O  O17  1  0.353992  0.538222  0.742075  1
  O  O18  1  0.742075  0.353992  0.538222  1
  O  O19  1  0.538222  0.742075  0.353992  1
  O  O20  1  0.428436  0.064890  0.371199  1
  O  O21  1  0.371199  0.428436  0.064890  1
  O  O22  1  0.064890  0.371199  0.428436  1
  O  O23  1  0.965646  0.448973  0.921858  1
  O  O24  1  0.921858  0.965646  0.448973  1
  O  O25  1  0.448973  0.921858  0.965646  1
  O  O26  1  0.571564  0.935110  0.628801  1
  O  O27  1  0.628801  0.571564  0.935110  1
  O  O28  1  0.935110  0.628801  0.571564  1
  O  O29  1  0.034354  0.551027  0.078142  1
  O  O30  1  0.078142  0.034354  0.551027  1
  O  O31  1  0.551027  0.078142  0.034354  1
