# generated using pymatgen
data_PrAl2CuSi
_symmetry_space_group_name_H-M   'P 1'
_cell_length_a   4.18348778
_cell_length_b   4.18463014
_cell_length_c   6.03432180
_cell_angle_alpha   69.71220734
_cell_angle_beta   69.71798546
_cell_angle_gamma   89.99999627
_symmetry_Int_Tables_number   1
_chemical_formula_structural   PrAl2CuSi
_chemical_formula_sum   'Pr1 Al2 Cu1 Si1'
_cell_volume   92.07051513
_cell_formula_units_Z   1
loop_
 _symmetry_equiv_pos_site_id
 _symmetry_equiv_pos_as_xyz
  1  'x, y, z'
loop_
 _atom_site_type_symbol
 _atom_site_label
 _atom_site_symmetry_multiplicity
 _atom_site_fract_x
 _atom_site_fract_y
 _atom_site_fract_z
 _atom_site_occupancy
  Pr  Pr0  1  0.993121  0.993121  0.013758  1
  Al  Al1  1  0.745187  0.245187  0.509626  1
  Al  Al2  1  0.245234  0.745234  0.509532  1
  Cu  Cu3  1  0.619670  0.619670  0.760661  1
  Si  Si4  1  0.396788  0.396788  0.206423  1
