# generated using pymatgen
data_Pr16MgHg3Rh4
_symmetry_space_group_name_H-M   'P 1'
_cell_length_a   10.01138891
_cell_length_b   10.05256153
_cell_length_c   10.05242679
_cell_angle_alpha   60.00029266
_cell_angle_beta   59.69964354
_cell_angle_gamma   59.69590871
_symmetry_Int_Tables_number   1
_chemical_formula_structural   Pr16MgHg3Rh4
_chemical_formula_sum   'Pr16 Mg1 Hg3 Rh4'
_cell_volume   712.08011768
_cell_formula_units_Z   1
loop_
 _symmetry_equiv_pos_site_id
 _symmetry_equiv_pos_as_xyz
  1  'x, y, z'
loop_
 _atom_site_type_symbol
 _atom_site_label
 _atom_site_symmetry_multiplicity
 _atom_site_fract_x
 _atom_site_fract_y
 _atom_site_fract_z
 _atom_site_occupancy
  Pr  Pr0  1  0.348940  0.347673  0.347678  1
  Pr  Pr1  1  0.350383  0.349013  0.952753  1
  Pr  Pr2  1  0.350377  0.952767  0.349018  1
  Pr  Pr3  1  0.945993  0.351789  0.351786  1
  Pr  Pr4  1  0.808155  0.191712  0.191738  1
  Pr  Pr5  1  0.186631  0.810220  0.810232  1
  Pr  Pr6  1  0.188000  0.811307  0.189023  1
  Pr  Pr7  1  0.806414  0.191639  0.807471  1
  Pr  Pr8  1  0.188012  0.189023  0.811296  1
  Pr  Pr9  1  0.806414  0.807458  0.191646  1
  Pr  Pr10  1  0.938206  0.562812  0.562804  1
  Pr  Pr11  1  0.560101  0.938685  0.938706  1
  Pr  Pr12  1  0.560703  0.939190  0.562696  1
  Pr  Pr13  1  0.937933  0.561161  0.937654  1
  Pr  Pr14  1  0.560707  0.562687  0.939198  1
  Pr  Pr15  1  0.937930  0.937647  0.561174  1
  Mg  Mg16  1  0.283030  0.571753  0.571641  1
  Hg  Hg17  1  0.580504  0.586212  0.586222  1
  Hg  Hg18  1  0.580732  0.586630  0.246867  1
  Hg  Hg19  1  0.580715  0.246872  0.586639  1
  Rh  Rh20  1  0.141352  0.142733  0.142727  1
  Rh  Rh21  1  0.142427  0.143381  0.574499  1
  Rh  Rh22  1  0.142433  0.574488  0.143386  1
  Rh  Rh23  1  0.573908  0.143149  0.143144  1
