# generated using pymatgen
data_LiNb12Ga8Fe3N4
_symmetry_space_group_name_H-M   'P 1'
_cell_length_a   8.17149886
_cell_length_b   8.23470712
_cell_length_c   8.23470800
_cell_angle_alpha   59.99999645
_cell_angle_beta   59.74378616
_cell_angle_gamma   59.74378645
_symmetry_Int_Tables_number   1
_chemical_formula_structural   LiNb12Ga8Fe3N4
_chemical_formula_sum   'Li1 Nb12 Ga8 Fe3 N4'
_cell_volume   390.29258182
_cell_formula_units_Z   1
loop_
 _symmetry_equiv_pos_site_id
 _symmetry_equiv_pos_as_xyz
  1  'x, y, z'
loop_
 _atom_site_type_symbol
 _atom_site_label
 _atom_site_symmetry_multiplicity
 _atom_site_fract_x
 _atom_site_fract_y
 _atom_site_fract_z
 _atom_site_occupancy
  Li  Li0  1  0.125000  0.625000  0.625000  1
  Nb  Nb1  1  0.806852  0.806961  0.193093  1
  Nb  Nb2  1  0.193998  0.192891  0.806555  1
  Nb  Nb3  1  0.806852  0.193093  0.806961  1
  Nb  Nb4  1  0.193998  0.806555  0.192891  1
  Nb  Nb5  1  0.193998  0.806555  0.806555  1
  Nb  Nb6  1  0.806852  0.193093  0.193093  1
  Nb  Nb7  1  0.443148  0.443039  0.056907  1
  Nb  Nb8  1  0.056002  0.057109  0.443445  1
  Nb  Nb9  1  0.443148  0.056907  0.443039  1
  Nb  Nb10  1  0.056002  0.443445  0.057109  1
  Nb  Nb11  1  0.056002  0.443445  0.443445  1
  Nb  Nb12  1  0.443148  0.056907  0.056907  1
  Ga  Ga13  1  0.750216  0.416595  0.416595  1
  Ga  Ga14  1  0.415133  0.754509  0.415180  1
  Ga  Ga15  1  0.415133  0.415180  0.754509  1
  Ga  Ga16  1  0.415133  0.415180  0.415180  1
  Ga  Ga17  1  0.499784  0.833405  0.833405  1
  Ga  Ga18  1  0.834867  0.495491  0.834820  1
  Ga  Ga19  1  0.834867  0.834820  0.495491  1
  Ga  Ga20  1  0.834867  0.834820  0.834820  1
  Fe  Fe21  1  0.625000  0.125000  0.625000  1
  Fe  Fe22  1  0.625000  0.625000  0.125000  1
  Fe  Fe23  1  0.625000  0.625000  0.625000  1
  N  N24  1  0.625000  0.125000  0.125000  1
  N  N25  1  0.125000  0.625000  0.125000  1
  N  N26  1  0.125000  0.125000  0.625000  1
  N  N27  1  0.125000  0.125000  0.125000  1
