# generated using pymatgen
data_La3TbHo4(CdIr)2
_symmetry_space_group_name_H-M   'P 1'
_cell_length_a   9.80547328
_cell_length_b   9.80547394
_cell_length_c   9.80826300
_cell_angle_alpha   59.99058702
_cell_angle_beta   59.99058480
_cell_angle_gamma   59.97355027
_symmetry_Int_Tables_number   1
_chemical_formula_structural   La3TbHo4(CdIr)2
_chemical_formula_sum   'La6 Tb2 Ho8 Cd4 Ir4'
_cell_volume   666.60041551
_cell_formula_units_Z   2
loop_
 _symmetry_equiv_pos_site_id
 _symmetry_equiv_pos_as_xyz
  1  'x, y, z'
loop_
 _atom_site_type_symbol
 _atom_site_label
 _atom_site_symmetry_multiplicity
 _atom_site_fract_x
 _atom_site_fract_y
 _atom_site_fract_z
 _atom_site_occupancy
  La  La0  1  0.193158  0.806748  0.806775  1
  La  La1  1  0.806748  0.193158  0.193319  1
  La  La2  1  0.806748  0.193158  0.806775  1
  La  La3  1  0.193158  0.806748  0.193319  1
  La  La4  1  0.807055  0.807055  0.192945  1
  La  La5  1  0.193287  0.193287  0.806713  1
  Tb  Tb6  1  0.596688  0.596688  0.596713  1
  Tb  Tb7  1  0.596688  0.596688  0.209912  1
  Ho  Ho8  1  0.596480  0.210552  0.596484  1
  Ho  Ho9  1  0.210552  0.596480  0.596484  1
  Ho  Ho10  1  0.063573  0.436310  0.436535  1
  Ho  Ho11  1  0.436310  0.063573  0.063583  1
  Ho  Ho12  1  0.436310  0.063573  0.436535  1
  Ho  Ho13  1  0.063573  0.436310  0.063583  1
  Ho  Ho14  1  0.436328  0.436328  0.063672  1
  Ho  Ho15  1  0.063555  0.063555  0.436445  1
  Cd  Cd16  1  0.828764  0.828764  0.828525  1
  Cd  Cd17  1  0.828764  0.828764  0.513945  1
  Cd  Cd18  1  0.828914  0.513807  0.828639  1
  Cd  Cd19  1  0.513807  0.828914  0.828639  1
  Ir  Ir20  1  0.390832  0.390832  0.391347  1
  Ir  Ir21  1  0.390832  0.390832  0.826989  1
  Ir  Ir22  1  0.390506  0.827371  0.391062  1
  Ir  Ir23  1  0.827371  0.390506  0.391062  1
