# generated using pymatgen
data_HgPd2F12
_symmetry_space_group_name_H-M   'P 1'
_cell_length_a   9.98814267
_cell_length_b   9.98814255
_cell_length_c   9.98814178
_cell_angle_alpha   132.67327015
_cell_angle_beta   132.67327302
_cell_angle_gamma   69.16771974
_symmetry_Int_Tables_number   1
_chemical_formula_structural   HgPd2F12
_chemical_formula_sum   'Hg2 Pd4 F24'
_cell_volume   528.61961122
_cell_formula_units_Z   2
loop_
 _symmetry_equiv_pos_site_id
 _symmetry_equiv_pos_as_xyz
  1  'x, y, z'
loop_
 _atom_site_type_symbol
 _atom_site_label
 _atom_site_symmetry_multiplicity
 _atom_site_fract_x
 _atom_site_fract_y
 _atom_site_fract_z
 _atom_site_occupancy
  Hg  Hg0  1  0.750000  0.250000  0.500000  1
  Hg  Hg1  1  0.000000  0.000000  0.000000  1
  Pd  Pd2  1  0.783411  0.783411  0.000000  1
  Pd  Pd3  1  0.216589  0.216589  0.000000  1
  Pd  Pd4  1  0.966589  0.466589  0.500000  1
  Pd  Pd5  1  0.533411  0.033411  0.500000  1
  F  F6  1  0.863642  0.761078  0.217197  1
  F  F7  1  0.543879  0.646445  0.782803  1
  F  F8  1  0.396445  0.793879  0.282803  1
  F  F9  1  0.353555  0.136358  0.897434  1
  F  F10  1  0.238922  0.456121  0.102566  1
  F  F11  1  0.206121  0.488922  0.602566  1
  F  F12  1  0.675095  0.273220  0.706458  1
  F  F13  1  0.726780  0.433239  0.401876  1
  F  F14  1  0.031364  0.324905  0.598124  1
  F  F15  1  0.074905  0.281364  0.098124  1
  F  F16  1  0.183239  0.976780  0.901876  1
  F  F17  1  0.566761  0.968636  0.293542  1
  F  F18  1  0.718636  0.816761  0.793542  1
  F  F19  1  0.023220  0.925095  0.206458  1
  F  F20  1  0.307332  0.119661  0.357195  1
  F  F21  1  0.880339  0.237534  0.187671  1
  F  F22  1  0.049863  0.692668  0.812329  1
  F  F23  1  0.442668  0.299863  0.312329  1
  F  F24  1  0.987534  0.130339  0.687671  1
  F  F25  1  0.762466  0.950137  0.642805  1
  F  F26  1  0.700137  0.012466  0.142805  1
  F  F27  1  0.869661  0.557332  0.857195  1
  F  F28  1  0.511078  0.113642  0.717197  1
  F  F29  1  0.886358  0.603555  0.397434  1
