# generated using pymatgen
data_NdTm2Th(Al3Rh)6
_symmetry_space_group_name_H-M   'P 1'
_cell_length_a   7.58481869
_cell_length_b   7.59306688
_cell_length_c   9.48448900
_cell_angle_alpha   90.00000000
_cell_angle_beta   90.00000000
_cell_angle_gamma   119.31835188
_symmetry_Int_Tables_number   1
_chemical_formula_structural   NdTm2Th(Al3Rh)6
_chemical_formula_sum   'Nd1 Tm2 Th1 Al18 Rh6'
_cell_volume   476.26564982
_cell_formula_units_Z   1
loop_
 _symmetry_equiv_pos_site_id
 _symmetry_equiv_pos_as_xyz
  1  'x, y, z'
loop_
 _atom_site_type_symbol
 _atom_site_label
 _atom_site_symmetry_multiplicity
 _atom_site_fract_x
 _atom_site_fract_y
 _atom_site_fract_z
 _atom_site_occupancy
  Nd  Nd0  1  0.671782  0.994055  0.250000  1
  Tm  Tm1  1  0.004176  0.327178  0.750000  1
  Tm  Tm2  1  0.326735  0.004653  0.750000  1
  Th  Th3  1  0.994518  0.671522  0.250000  1
  Al  Al4  1  0.133523  0.133401  0.250000  1
  Al  Al5  1  0.872920  0.874198  0.750000  1
  Al  Al6  1  0.003320  0.332912  0.069817  1
  Al  Al7  1  0.000105  0.663849  0.916868  1
  Al  Al8  1  0.000105  0.663849  0.583132  1
  Al  Al9  1  0.338516  0.005506  0.430270  1
  Al  Al10  1  0.003320  0.332912  0.430183  1
  Al  Al11  1  0.663972  0.001110  0.580119  1
  Al  Al12  1  0.663972  0.001110  0.919881  1
  Al  Al13  1  0.338516  0.005506  0.069730  1
  Al  Al14  1  0.331678  0.331771  0.556927  1
  Al  Al15  1  0.663508  0.665457  0.460469  1
  Al  Al16  1  0.663508  0.665457  0.039531  1
  Al  Al17  1  0.331678  0.331771  0.943073  1
  Al  Al18  1  0.341384  0.546731  0.250000  1
  Al  Al19  1  0.658037  0.447344  0.750000  1
  Al  Al20  1  0.545642  0.338835  0.250000  1
  Al  Al21  1  0.447138  0.659859  0.750000  1
  Rh  Rh22  1  0.672977  0.328805  0.998790  1
  Rh  Rh23  1  0.326619  0.671613  0.998720  1
  Rh  Rh24  1  0.326619  0.671613  0.501280  1
  Rh  Rh25  1  0.672977  0.328805  0.501210  1
  Rh  Rh26  1  0.001379  0.000090  0.998196  1
  Rh  Rh27  1  0.001379  0.000090  0.501804  1
