# generated using pymatgen
data_Tb7Nd6Er3(CdPt)4
_symmetry_space_group_name_H-M   'P 1'
_cell_length_a   9.81326164
_cell_length_b   9.79446280
_cell_length_c   9.80753604
_cell_angle_alpha   60.08274556
_cell_angle_beta   60.07236001
_cell_angle_gamma   60.02470594
_symmetry_Int_Tables_number   1
_chemical_formula_structural   Tb7Nd6Er3(CdPt)4
_chemical_formula_sum   'Tb7 Nd6 Er3 Cd4 Pt4'
_cell_volume   667.46455932
_cell_formula_units_Z   1
loop_
 _symmetry_equiv_pos_site_id
 _symmetry_equiv_pos_as_xyz
  1  'x, y, z'
loop_
 _atom_site_type_symbol
 _atom_site_label
 _atom_site_symmetry_multiplicity
 _atom_site_fract_x
 _atom_site_fract_y
 _atom_site_fract_z
 _atom_site_occupancy
  Tb  Tb0  1  0.350044  0.349661  0.351252  1
  Tb  Tb1  1  0.351869  0.350321  0.946689  1
  Tb  Tb2  1  0.351252  0.949042  0.350044  1
  Tb  Tb3  1  0.946689  0.351121  0.351869  1
  Tb  Tb4  1  0.812533  0.188288  0.186916  1
  Tb  Tb5  1  0.186916  0.812263  0.812533  1
  Tb  Tb6  1  0.188097  0.811903  0.188097  1
  Nd  Nd7  1  0.937857  0.562197  0.562214  1
  Nd  Nd8  1  0.562214  0.937732  0.937857  1
  Nd  Nd9  1  0.562427  0.937573  0.562427  1
  Nd  Nd10  1  0.938209  0.561791  0.938209  1
  Nd  Nd11  1  0.562211  0.562175  0.938196  1
  Nd  Nd12  1  0.938196  0.937419  0.562211  1
  Er  Er13  1  0.812106  0.187894  0.812106  1
  Er  Er14  1  0.187426  0.188726  0.811980  1
  Er  Er15  1  0.811980  0.811867  0.187426  1
  Cd  Cd16  1  0.580173  0.579710  0.579454  1
  Cd  Cd17  1  0.580003  0.580150  0.260061  1
  Cd  Cd18  1  0.579454  0.260665  0.580173  1
  Cd  Cd19  1  0.260061  0.579787  0.580003  1
  Pt  Pt20  1  0.143802  0.143701  0.141233  1
  Pt  Pt21  1  0.141613  0.143526  0.573637  1
  Pt  Pt22  1  0.141233  0.571265  0.143802  1
  Pt  Pt23  1  0.573637  0.141224  0.141613  1
