# generated using pymatgen
data_Pr10Ir3RuRh2
_symmetry_space_group_name_H-M   'P 1'
_cell_length_a   11.33004064
_cell_length_b   11.32650800
_cell_length_c   6.67346998
_cell_angle_alpha   90.00000000
_cell_angle_beta   90.06182644
_cell_angle_gamma   90.00000000
_symmetry_Int_Tables_number   1
_chemical_formula_structural   Pr10Ir3RuRh2
_chemical_formula_sum   'Pr20 Ir6 Ru2 Rh4'
_cell_volume   856.40454178
_cell_formula_units_Z   2
loop_
 _symmetry_equiv_pos_site_id
 _symmetry_equiv_pos_as_xyz
  1  'x, y, z'
loop_
 _atom_site_type_symbol
 _atom_site_label
 _atom_site_symmetry_multiplicity
 _atom_site_fract_x
 _atom_site_fract_y
 _atom_site_fract_z
 _atom_site_occupancy
  Pr  Pr0  1  0.294013  0.087903  0.386826  1
  Pr  Pr1  1  0.294013  0.912097  0.886826  1
  Pr  Pr2  1  0.704579  0.089123  0.885561  1
  Pr  Pr3  1  0.704579  0.910877  0.385561  1
  Pr  Pr4  1  0.586541  0.793778  0.886998  1
  Pr  Pr5  1  0.586541  0.206222  0.386998  1
  Pr  Pr6  1  0.411233  0.794038  0.386978  1
  Pr  Pr7  1  0.411233  0.205962  0.886978  1
  Pr  Pr8  1  0.209339  0.408888  0.615838  1
  Pr  Pr9  1  0.209339  0.591112  0.115838  1
  Pr  Pr10  1  0.790656  0.410538  0.116386  1
  Pr  Pr11  1  0.790656  0.589462  0.616386  1
  Pr  Pr12  1  0.909770  0.708908  0.117249  1
  Pr  Pr13  1  0.909770  0.291092  0.617249  1
  Pr  Pr14  1  0.092548  0.708490  0.615843  1
  Pr  Pr15  1  0.092548  0.291510  0.115843  1
  Pr  Pr16  1  0.999738  0.999815  0.494336  1
  Pr  Pr17  1  0.999738  0.000185  0.994336  1
  Pr  Pr18  1  0.499883  0.500004  0.994260  1
  Pr  Pr19  1  0.499883  0.499996  0.494260  1
  Ir  Ir20  1  0.151367  0.154911  0.749065  1
  Ir  Ir21  1  0.151367  0.845089  0.249065  1
  Ir  Ir22  1  0.655789  0.348182  0.749006  1
  Ir  Ir23  1  0.655789  0.651818  0.249006  1
  Ir  Ir24  1  0.345065  0.348176  0.248770  1
  Ir  Ir25  1  0.345065  0.651824  0.748770  1
  Ru  Ru26  1  0.501398  0.000018  0.122862  1
  Ru  Ru27  1  0.501398  0.999982  0.622862  1
  Rh  Rh28  1  0.848804  0.154610  0.248995  1
  Rh  Rh29  1  0.848804  0.845390  0.748995  1
  Rh  Rh30  1  0.999277  0.500478  0.881035  1
  Rh  Rh31  1  0.999277  0.499522  0.381035  1
