# generated using pymatgen
data_Tm5Zr3Ni16(AsP2)4
_symmetry_space_group_name_H-M   'P 1'
_cell_length_a   12.44381344
_cell_length_b   12.51442549
_cell_length_c   3.80755100
_cell_angle_alpha   90.00000000
_cell_angle_beta   90.00000000
_cell_angle_gamma   120.12354483
_symmetry_Int_Tables_number   1
_chemical_formula_structural   Tm5Zr3Ni16(AsP2)4
_chemical_formula_sum   'Tm5 Zr3 Ni16 As4 P8'
_cell_volume   512.85991984
_cell_formula_units_Z   1
loop_
 _symmetry_equiv_pos_site_id
 _symmetry_equiv_pos_as_xyz
  1  'x, y, z'
loop_
 _atom_site_type_symbol
 _atom_site_label
 _atom_site_symmetry_multiplicity
 _atom_site_fract_x
 _atom_site_fract_y
 _atom_site_fract_z
 _atom_site_occupancy
  Tm  Tm0  1  0.665013  0.331993  0.000000  1
  Tm  Tm1  1  0.329084  0.662022  0.000000  1
  Tm  Tm2  1  0.187589  0.003641  0.500000  1
  Tm  Tm3  1  0.002231  0.181114  0.500000  1
  Tm  Tm4  1  0.817997  0.822368  0.500000  1
  Zr  Zr5  1  0.560753  0.003461  0.000000  1
  Zr  Zr6  1  0.435786  0.432065  0.000000  1
  Zr  Zr7  1  0.000752  0.563446  0.000000  1
  Ni  Ni8  1  0.001243  0.008133  0.000000  1
  Ni  Ni9  1  0.802793  0.180577  0.000000  1
  Ni  Ni10  1  0.375698  0.188047  0.000000  1
  Ni  Ni11  1  0.197441  0.375440  0.000000  1
  Ni  Ni12  1  0.812811  0.615443  0.000000  1
  Ni  Ni13  1  0.190464  0.808858  0.000000  1
  Ni  Ni14  1  0.634739  0.827097  0.000000  1
  Ni  Ni15  1  0.733270  0.009043  0.500000  1
  Ni  Ni16  1  0.485070  0.125600  0.500000  1
  Ni  Ni17  1  0.272431  0.271930  0.500000  1
  Ni  Ni18  1  0.867129  0.360085  0.500000  1
  Ni  Ni19  1  0.133245  0.493381  0.500000  1
  Ni  Ni20  1  0.638206  0.504099  0.500000  1
  Ni  Ni21  1  0.508411  0.630783  0.500000  1
  Ni  Ni22  1  0.998743  0.719879  0.500000  1
  Ni  Ni23  1  0.354219  0.880049  0.500000  1
  As  As24  1  0.000522  0.354450  0.000000  1
  As  As25  1  0.643679  0.646157  0.000000  1
  As  As26  1  0.000777  0.825737  0.000000  1
  As  As27  1  0.518562  0.827176  0.500000  1
  P  P28  1  0.354761  0.000229  0.000000  1
  P  P29  1  0.823402  0.003259  0.000000  1
  P  P30  1  0.180368  0.178405  0.000000  1
  P  P31  1  0.692241  0.172160  0.500000  1
  P  P32  1  0.474983  0.301851  0.500000  1
  P  P33  1  0.305867  0.475202  0.500000  1
  P  P34  1  0.827979  0.521228  0.500000  1
  P  P35  1  0.171853  0.695698  0.500000  1
