# generated using pymatgen
data_Dy3Y9(Si3Pt)4
_symmetry_space_group_name_H-M   'P 1'
_cell_length_a   4.26110500
_cell_length_b   10.69952702
_cell_length_c   12.37350902
_cell_angle_alpha   89.99303248
_cell_angle_beta   90.00000000
_cell_angle_gamma   90.00000000
_symmetry_Int_Tables_number   1
_chemical_formula_structural   Dy3Y9(Si3Pt)4
_chemical_formula_sum   'Dy3 Y9 Si12 Pt4'
_cell_volume   564.13064450
_cell_formula_units_Z   1
loop_
 _symmetry_equiv_pos_site_id
 _symmetry_equiv_pos_as_xyz
  1  'x, y, z'
loop_
 _atom_site_type_symbol
 _atom_site_label
 _atom_site_symmetry_multiplicity
 _atom_site_fract_x
 _atom_site_fract_y
 _atom_site_fract_z
 _atom_site_occupancy
  Dy  Dy0  1  0.250000  0.839497  0.301528  1
  Dy  Dy1  1  0.750000  0.339478  0.198490  1
  Dy  Dy2  1  0.750000  0.160504  0.698472  1
  Y  Y3  1  0.250000  0.878712  0.020688  1
  Y  Y4  1  0.250000  0.621322  0.520614  1
  Y  Y5  1  0.750000  0.121337  0.979360  1
  Y  Y6  1  0.750000  0.378677  0.479357  1
  Y  Y7  1  0.250000  0.919339  0.602148  1
  Y  Y8  1  0.250000  0.580688  0.102212  1
  Y  Y9  1  0.750000  0.080713  0.397828  1
  Y  Y10  1  0.750000  0.419194  0.897881  1
  Y  Y11  1  0.250000  0.660566  0.801572  1
  Si  Si12  1  0.250000  0.015393  0.822864  1
  Si  Si13  1  0.250000  0.484607  0.322848  1
  Si  Si14  1  0.750000  0.984610  0.177153  1
  Si  Si15  1  0.750000  0.515298  0.677034  1
  Si  Si16  1  0.250000  0.245593  0.842865  1
  Si  Si17  1  0.250000  0.254425  0.342858  1
  Si  Si18  1  0.750000  0.754422  0.157129  1
  Si  Si19  1  0.750000  0.745639  0.657037  1
  Si  Si20  1  0.250000  0.194566  0.540767  1
  Si  Si21  1  0.250000  0.305430  0.040739  1
  Si  Si22  1  0.750000  0.805417  0.459247  1
  Si  Si23  1  0.750000  0.694577  0.959348  1
  Pt  Pt24  1  0.250000  0.389392  0.681458  1
  Pt  Pt25  1  0.250000  0.110454  0.181505  1
  Pt  Pt26  1  0.750000  0.610466  0.318495  1
  Pt  Pt27  1  0.750000  0.889688  0.818506  1
