# generated using pymatgen
data_Eu2GaRuI
_symmetry_space_group_name_H-M   'P 1'
_cell_length_a   4.30938600
_cell_length_b   4.30938535
_cell_length_c   17.75966800
_cell_angle_alpha   90.00000000
_cell_angle_beta   90.00000000
_cell_angle_gamma   120.00000499
_symmetry_Int_Tables_number   1
_chemical_formula_structural   Eu2GaRuI
_chemical_formula_sum   'Eu4 Ga2 Ru2 I2'
_cell_volume   285.62497538
_cell_formula_units_Z   2
loop_
 _symmetry_equiv_pos_site_id
 _symmetry_equiv_pos_as_xyz
  1  'x, y, z'
loop_
 _atom_site_type_symbol
 _atom_site_label
 _atom_site_symmetry_multiplicity
 _atom_site_fract_x
 _atom_site_fract_y
 _atom_site_fract_z
 _atom_site_occupancy
  Eu  Eu0  1  0.000000  0.000000  0.111676  1
  Eu  Eu1  1  0.000000  0.000000  0.388324  1
  Eu  Eu2  1  0.000000  0.000000  0.611351  1
  Eu  Eu3  1  0.000000  0.000000  0.888649  1
  Ga  Ga4  1  0.666666  0.333332  0.500683  1
  Ga  Ga5  1  0.666666  0.333332  0.999317  1
  Ru  Ru6  1  0.333334  0.666668  0.000471  1
  Ru  Ru7  1  0.333334  0.666668  0.499529  1
  I  I8  1  0.666666  0.333332  0.250000  1
  I  I9  1  0.333334  0.666668  0.750000  1
