# generated using pymatgen
data_YbHoTm5Co6Sn23
_symmetry_space_group_name_H-M   'P 1'
_cell_length_a   9.69884914
_cell_length_b   9.69884772
_cell_length_c   9.91523753
_cell_angle_alpha   90.10441698
_cell_angle_beta   89.89558385
_cell_angle_gamma   119.98015951
_symmetry_Int_Tables_number   1
_chemical_formula_structural   YbHoTm5Co6Sn23
_chemical_formula_sum   'Yb1 Ho1 Tm5 Co6 Sn23'
_cell_volume   807.90431825
_cell_formula_units_Z   1
loop_
 _symmetry_equiv_pos_site_id
 _symmetry_equiv_pos_as_xyz
  1  'x, y, z'
loop_
 _atom_site_type_symbol
 _atom_site_label
 _atom_site_symmetry_multiplicity
 _atom_site_fract_x
 _atom_site_fract_y
 _atom_site_fract_z
 _atom_site_occupancy
  Yb  Yb0  1  0.000098  0.999902  0.999821  1
  Ho  Ho1  1  0.479675  0.520325  0.306260  1
  Tm  Tm2  1  0.519559  0.480441  0.694217  1
  Tm  Tm3  1  0.519637  0.039212  0.694176  1
  Tm  Tm4  1  0.960788  0.480363  0.694176  1
  Tm  Tm5  1  0.039189  0.519445  0.305934  1
  Tm  Tm6  1  0.480555  0.960811  0.305934  1
  Co  Co7  1  0.169041  0.830959  0.800923  1
  Co  Co8  1  0.169102  0.337984  0.801070  1
  Co  Co9  1  0.662016  0.830898  0.801070  1
  Co  Co10  1  0.337832  0.168416  0.198825  1
  Co  Co11  1  0.831584  0.662168  0.198825  1
  Co  Co12  1  0.830851  0.169149  0.198867  1
  Sn  Sn13  1  0.666644  0.333356  0.183080  1
  Sn  Sn14  1  0.666608  0.333392  0.876805  1
  Sn  Sn15  1  0.332528  0.667472  0.122219  1
  Sn  Sn16  1  0.346098  0.346096  0.999940  1
  Sn  Sn17  1  0.000096  0.653939  0.999950  1
  Sn  Sn18  1  0.653956  0.000020  0.999921  1
  Sn  Sn19  1  0.653904  0.653902  0.999940  1
  Sn  Sn20  1  0.333346  0.666654  0.816867  1
  Sn  Sn21  1  0.438372  0.218748  0.453515  1
  Sn  Sn22  1  0.219159  0.780841  0.546777  1
  Sn  Sn23  1  0.218813  0.438185  0.547151  1
  Sn  Sn24  1  0.561815  0.781187  0.547151  1
  Sn  Sn25  1  0.118126  0.881874  0.273740  1
  Sn  Sn26  1  0.781252  0.561628  0.453515  1
  Sn  Sn27  1  0.780917  0.219083  0.453370  1
  Sn  Sn28  1  0.346061  0.999904  0.999950  1
  Sn  Sn29  1  0.117120  0.234778  0.273704  1
  Sn  Sn30  1  0.765222  0.882880  0.273704  1
  Sn  Sn31  1  0.235608  0.117768  0.726210  1
  Sn  Sn32  1  0.882232  0.764392  0.726210  1
  Sn  Sn33  1  0.882024  0.117976  0.726222  1
  Sn  Sn34  1  0.000192  0.999808  0.500039  1
  Sn  Sn35  1  0.999980  0.346044  0.999921  1
