# generated using pymatgen
data_Dy2Pa(CoSn)3
_symmetry_space_group_name_H-M   'P 1'
_cell_length_a   7.31919850
_cell_length_b   7.31919856
_cell_length_c   3.78122300
_cell_angle_alpha   90.00000000
_cell_angle_beta   90.00000000
_cell_angle_gamma   118.63684486
_symmetry_Int_Tables_number   1
_chemical_formula_structural   Dy2Pa(CoSn)3
_chemical_formula_sum   'Dy2 Pa1 Co3 Sn3'
_cell_volume   177.78415672
_cell_formula_units_Z   1
loop_
 _symmetry_equiv_pos_site_id
 _symmetry_equiv_pos_as_xyz
  1  'x, y, z'
loop_
 _atom_site_type_symbol
 _atom_site_label
 _atom_site_symmetry_multiplicity
 _atom_site_fract_x
 _atom_site_fract_y
 _atom_site_fract_z
 _atom_site_occupancy
  Dy  Dy0  1  0.595308  0.001373  0.500000  1
  Dy  Dy1  1  0.001373  0.595308  0.500000  1
  Pa  Pa2  1  0.415083  0.415083  0.500000  1
  Co  Co3  1  0.631081  0.337643  0.000000  1
  Co  Co4  1  0.337643  0.631081  0.000000  1
  Co  Co5  1  0.015810  0.015810  0.500000  1
  Sn  Sn6  1  0.757037  0.757037  0.000000  1
  Sn  Sn7  1  0.256400  0.990264  0.000000  1
  Sn  Sn8  1  0.990264  0.256400  0.000000  1
