# generated using pymatgen
data_DyScP7Ru11Pt
_symmetry_space_group_name_H-M   'P 1'
_cell_length_a   9.32775708
_cell_length_b   9.44795427
_cell_length_c   3.93125700
_cell_angle_alpha   90.00000000
_cell_angle_beta   90.00000000
_cell_angle_gamma   119.25207579
_symmetry_Int_Tables_number   1
_chemical_formula_structural   DyScP7Ru11Pt
_chemical_formula_sum   'Dy1 Sc1 P7 Ru11 Pt1'
_cell_volume   302.27420103
_cell_formula_units_Z   1
loop_
 _symmetry_equiv_pos_site_id
 _symmetry_equiv_pos_as_xyz
  1  'x, y, z'
loop_
 _atom_site_type_symbol
 _atom_site_label
 _atom_site_symmetry_multiplicity
 _atom_site_fract_x
 _atom_site_fract_y
 _atom_site_fract_z
 _atom_site_occupancy
  Dy  Dy0  1  0.328656  0.658432  0.000000  1
  Sc  Sc1  1  0.671771  0.337920  0.500000  1
  P  P2  1  0.598595  0.704897  0.500000  1
  P  P3  1  0.997800  0.001125  0.000000  1
  P  P4  1  0.270174  0.876325  0.500000  1
  P  P5  1  0.118022  0.400582  0.500000  1
  P  P6  1  0.886182  0.577940  0.000000  1
  P  P7  1  0.430758  0.310295  0.000000  1
  P  P8  1  0.703478  0.129128  0.000000  1
  Ru  Ru9  1  0.392340  0.437098  0.500000  1
  Ru  Ru10  1  0.909788  0.127643  0.500000  1
  Ru  Ru11  1  0.210643  0.086190  0.500000  1
  Ru  Ru12  1  0.876829  0.795260  0.500000  1
  Ru  Ru13  1  0.723245  0.893809  0.000000  1
  Ru  Ru14  1  0.111990  0.839406  0.000000  1
  Ru  Ru15  1  0.163693  0.269929  0.000000  1
  Ru  Ru16  1  0.435665  0.072090  0.000000  1
  Ru  Ru17  1  0.935814  0.365023  0.000000  1
  Ru  Ru18  1  0.642493  0.573747  0.000000  1
  Ru  Ru19  1  0.048499  0.607024  0.500000  1
  Pt  Pt20  1  0.543565  0.936139  0.500000  1
