# generated using pymatgen
data_Sc2V12P7
_symmetry_space_group_name_H-M   'P 1'
_cell_length_a   9.99930403
_cell_length_b   9.99892591
_cell_length_c   3.28590900
_cell_angle_alpha   90.00000000
_cell_angle_beta   90.00000000
_cell_angle_gamma   120.00471981
_symmetry_Int_Tables_number   1
_chemical_formula_structural   Sc2V12P7
_chemical_formula_sum   'Sc2 V12 P7'
_cell_volume   284.50416621
_cell_formula_units_Z   1
loop_
 _symmetry_equiv_pos_site_id
 _symmetry_equiv_pos_as_xyz
  1  'x, y, z'
loop_
 _atom_site_type_symbol
 _atom_site_label
 _atom_site_symmetry_multiplicity
 _atom_site_fract_x
 _atom_site_fract_y
 _atom_site_fract_z
 _atom_site_occupancy
  Sc  Sc0  1  0.333373  0.666691  0.000000  1
  Sc  Sc1  1  0.666679  0.333349  0.499998  1
  V  V2  1  0.432250  0.047534  0.000000  1
  V  V3  1  0.165802  0.277247  0.000000  1
  V  V4  1  0.952453  0.384722  0.000000  1
  V  V5  1  0.615283  0.567744  0.000000  1
  V  V6  1  0.111470  0.834222  0.000000  1
  V  V7  1  0.722749  0.888505  0.000000  1
  V  V8  1  0.213199  0.084175  0.499998  1
  V  V9  1  0.915754  0.129031  0.499998  1
  V  V10  1  0.388203  0.433407  0.499998  1
  V  V11  1  0.045206  0.611816  0.499998  1
  V  V12  1  0.870968  0.786745  0.499998  1
  V  V13  1  0.566623  0.954767  0.499998  1
  P  P14  1  0.999963  0.999992  0.000000  1
  P  P15  1  0.720851  0.140865  0.000000  1
  P  P16  1  0.420039  0.279193  0.000000  1
  P  P17  1  0.859134  0.579998  0.000000  1
  P  P18  1  0.140319  0.432198  0.499998  1
  P  P19  1  0.567835  0.708105  0.499998  1
  P  P20  1  0.291848  0.859690  0.499998  1
