# generated using pymatgen
data_Sm2Fe7Ni5P7
_symmetry_space_group_name_H-M   'P 1'
_cell_length_a   9.07754641
_cell_length_b   9.09538668
_cell_length_c   3.67650400
_cell_angle_alpha   90.00000000
_cell_angle_beta   90.00000000
_cell_angle_gamma   120.14769825
_symmetry_Int_Tables_number   1
_chemical_formula_structural   Sm2Fe7Ni5P7
_chemical_formula_sum   'Sm2 Fe7 Ni5 P7'
_cell_volume   262.48653581
_cell_formula_units_Z   1
loop_
 _symmetry_equiv_pos_site_id
 _symmetry_equiv_pos_as_xyz
  1  'x, y, z'
loop_
 _atom_site_type_symbol
 _atom_site_label
 _atom_site_symmetry_multiplicity
 _atom_site_fract_x
 _atom_site_fract_y
 _atom_site_fract_z
 _atom_site_occupancy
  Sm  Sm0  1  0.335673  0.667870  0.000000  1
  Sm  Sm1  1  0.997828  0.998790  0.500000  1
  Fe  Fe2  1  0.940306  0.487530  0.000000  1
  Fe  Fe3  1  0.510713  0.450816  0.000000  1
  Fe  Fe4  1  0.548532  0.063622  0.000000  1
  Fe  Fe5  1  0.619734  0.901057  0.500000  1
  Fe  Fe6  1  0.762667  0.551779  0.500000  1
  Fe  Fe7  1  0.450821  0.213765  0.500000  1
  Fe  Fe8  1  0.784125  0.239008  0.500000  1
  Ni  Ni9  1  0.726978  0.763293  0.000000  1
  Ni  Ni10  1  0.234070  0.959218  0.000000  1
  Ni  Ni11  1  0.037322  0.270683  0.000000  1
  Ni  Ni12  1  0.102546  0.719543  0.500000  1
  Ni  Ni13  1  0.279675  0.381057  0.500000  1
  P  P14  1  0.960314  0.735586  0.000000  1
  P  P15  1  0.262813  0.221950  0.000000  1
  P  P16  1  0.770065  0.032424  0.000000  1
  P  P17  1  0.061445  0.444264  0.500000  1
  P  P18  1  0.556763  0.623088  0.500000  1
  P  P19  1  0.390457  0.938915  0.500000  1
  P  P20  1  0.667154  0.335743  0.000000  1
