# generated using pymatgen
data_Dy2GaSi13Ir6
_symmetry_space_group_name_H-M   'P 1'
_cell_length_a   8.03261611
_cell_length_b   8.03261651
_cell_length_c   8.03261721
_cell_angle_alpha   57.09506299
_cell_angle_beta   57.09505412
_cell_angle_gamma   57.09505750
_symmetry_Int_Tables_number   1
_chemical_formula_structural   Dy2GaSi13Ir6
_chemical_formula_sum   'Dy2 Ga1 Si13 Ir6'
_cell_volume   341.94888741
_cell_formula_units_Z   1
loop_
 _symmetry_equiv_pos_site_id
 _symmetry_equiv_pos_as_xyz
  1  'x, y, z'
loop_
 _atom_site_type_symbol
 _atom_site_label
 _atom_site_symmetry_multiplicity
 _atom_site_fract_x
 _atom_site_fract_y
 _atom_site_fract_z
 _atom_site_occupancy
  Dy  Dy0  1  0.999389  0.999389  0.999389  1
  Dy  Dy1  1  0.500611  0.500611  0.500611  1
  Ga  Ga2  1  0.750000  0.750000  0.750000  1
  Si  Si3  1  0.250000  0.250000  0.250000  1
  Si  Si4  1  0.850350  0.065879  0.670713  1
  Si  Si5  1  0.670713  0.850350  0.065879  1
  Si  Si6  1  0.065879  0.670713  0.850350  1
  Si  Si7  1  0.649650  0.829287  0.434121  1
  Si  Si8  1  0.434121  0.649650  0.829287  1
  Si  Si9  1  0.829287  0.434121  0.649650  1
  Si  Si10  1  0.171238  0.560936  0.354895  1
  Si  Si11  1  0.560936  0.354895  0.171238  1
  Si  Si12  1  0.354895  0.171238  0.560936  1
  Si  Si13  1  0.939064  0.328762  0.145105  1
  Si  Si14  1  0.328762  0.145105  0.939064  1
  Si  Si15  1  0.145105  0.939064  0.328762  1
  Ir  Ir16  1  0.082121  0.417879  0.750000  1
  Ir  Ir17  1  0.250000  0.928727  0.571273  1
  Ir  Ir18  1  0.571273  0.250000  0.928727  1
  Ir  Ir19  1  0.928727  0.571273  0.250000  1
  Ir  Ir20  1  0.417879  0.750000  0.082121  1
  Ir  Ir21  1  0.750000  0.082121  0.417879  1
