# generated using pymatgen
data_Tb12Fe2I17
_symmetry_space_group_name_H-M   'P 1'
_cell_length_a   9.72804655
_cell_length_b   11.66854608
_cell_length_c   11.69790501
_cell_angle_alpha   93.48743597
_cell_angle_beta   104.71475675
_cell_angle_gamma   114.29222979
_symmetry_Int_Tables_number   1
_chemical_formula_structural   Tb12Fe2I17
_chemical_formula_sum   'Tb12 Fe2 I17'
_cell_volume   1149.82143246
_cell_formula_units_Z   1
loop_
 _symmetry_equiv_pos_site_id
 _symmetry_equiv_pos_as_xyz
  1  'x, y, z'
loop_
 _atom_site_type_symbol
 _atom_site_label
 _atom_site_symmetry_multiplicity
 _atom_site_fract_x
 _atom_site_fract_y
 _atom_site_fract_z
 _atom_site_occupancy
  Tb  Tb0  1  0.054429  0.504220  0.320628  1
  Tb  Tb1  1  0.993560  0.810395  0.587704  1
  Tb  Tb2  1  0.654338  0.241225  0.281006  1
  Tb  Tb3  1  0.006440  0.189605  0.412296  1
  Tb  Tb4  1  0.219713  0.670779  0.983791  1
  Tb  Tb5  1  0.256747  0.979633  0.889390  1
  Tb  Tb6  1  0.345662  0.758775  0.718994  1
  Tb  Tb7  1  0.945571  0.495780  0.679372  1
  Tb  Tb8  1  0.743253  0.020367  0.110610  1
  Tb  Tb9  1  0.142668  0.287549  0.154928  1
  Tb  Tb10  1  0.780287  0.329221  0.016209  1
  Tb  Tb11  1  0.857332  0.712451  0.845072  1
  Fe  Fe12  1  0.103981  0.737969  0.785716  1
  Fe  Fe13  1  0.896019  0.262031  0.214284  1
  I  I14  1  0.783087  0.528691  0.416942  1
  I  I15  1  0.640948  0.418350  0.759269  1
  I  I16  1  0.842977  0.893726  0.325254  1
  I  I17  1  0.326775  0.212479  0.369664  1
  I  I18  1  0.157023  0.106274  0.674746  1
  I  I19  1  0.587786  0.053109  0.841508  1
  I  I20  1  0.754128  0.183469  0.537939  1
  I  I21  1  0.550035  0.707598  0.953242  1
  I  I22  1  0.359052  0.581650  0.240731  1
  I  I23  1  0.216913  0.471309  0.583058  1
  I  I24  1  0.056413  0.366489  0.896325  1
  I  I25  1  0.449965  0.292402  0.046758  1
  I  I26  1  0.000000  0.000000  0.000000  1
  I  I27  1  0.245872  0.816531  0.462061  1
  I  I28  1  0.412214  0.946891  0.158492  1
  I  I29  1  0.673225  0.787521  0.630336  1
  I  I30  1  0.943587  0.633511  0.103675  1
