# generated using pymatgen
data_CsLiWF6
_symmetry_space_group_name_H-M   'P 1'
_cell_length_a   11.33116800
_cell_length_b   5.94540814
_cell_length_c   9.57861432
_cell_angle_alpha   88.97802154
_cell_angle_beta   90.00000000
_cell_angle_gamma   90.00000000
_symmetry_Int_Tables_number   1
_chemical_formula_structural   CsLiWF6
_chemical_formula_sum   'Cs4 Li4 W4 F24'
_cell_volume   645.19344853
_cell_formula_units_Z   4
loop_
 _symmetry_equiv_pos_site_id
 _symmetry_equiv_pos_as_xyz
  1  'x, y, z'
loop_
 _atom_site_type_symbol
 _atom_site_label
 _atom_site_symmetry_multiplicity
 _atom_site_fract_x
 _atom_site_fract_y
 _atom_site_fract_z
 _atom_site_occupancy
  Cs  Cs0  1  0.690203  0.299170  0.503462  1
  Cs  Cs1  1  0.809797  0.299170  0.003462  1
  Cs  Cs2  1  0.309797  0.700830  0.496538  1
  Cs  Cs3  1  0.190203  0.700830  0.996538  1
  Li  Li4  1  0.899434  0.751824  0.680281  1
  Li  Li5  1  0.100566  0.248176  0.319719  1
  Li  Li6  1  0.399434  0.248176  0.819719  1
  Li  Li7  1  0.600566  0.751824  0.180281  1
  W  W8  1  0.913982  0.772925  0.278340  1
  W  W9  1  0.413982  0.227075  0.221660  1
  W  W10  1  0.086018  0.227075  0.721660  1
  W  W11  1  0.586018  0.772925  0.778340  1
  F  F12  1  0.247324  0.366400  0.250239  1
  F  F13  1  0.005992  0.525891  0.751452  1
  F  F14  1  0.075346  0.933267  0.300607  1
  F  F15  1  0.752676  0.633600  0.749761  1
  F  F16  1  0.494008  0.525891  0.251452  1
  F  F17  1  0.597857  0.703479  0.983828  1
  F  F18  1  0.924654  0.066733  0.699393  1
  F  F19  1  0.575346  0.066733  0.199393  1
  F  F20  1  0.839036  0.070023  0.299318  1
  F  F21  1  0.902143  0.703479  0.483828  1
  F  F22  1  0.160964  0.929977  0.700682  1
  F  F23  1  0.422466  0.182449  0.427657  1
  F  F24  1  0.577534  0.817551  0.572343  1
  F  F25  1  0.505992  0.474109  0.748548  1
  F  F26  1  0.252676  0.366400  0.750239  1
  F  F27  1  0.747324  0.633600  0.249761  1
  F  F28  1  0.339036  0.929977  0.200682  1
  F  F29  1  0.994008  0.474109  0.248548  1
  F  F30  1  0.402143  0.296521  0.016172  1
  F  F31  1  0.660964  0.070023  0.799318  1
  F  F32  1  0.097857  0.296521  0.516172  1
  F  F33  1  0.077534  0.182449  0.927657  1
  F  F34  1  0.922466  0.817551  0.072343  1
  F  F35  1  0.424654  0.933267  0.800607  1
