# generated using pymatgen
data_Ti3Mn2CrAsP2
_symmetry_space_group_name_H-M   'P 1'
_cell_length_a   6.36229211
_cell_length_b   6.36561623
_cell_length_c   3.34156700
_cell_angle_alpha   90.00000000
_cell_angle_beta   90.00000000
_cell_angle_gamma   119.55627848
_symmetry_Int_Tables_number   1
_chemical_formula_structural   Ti3Mn2CrAsP2
_chemical_formula_sum   'Ti3 Mn2 Cr1 As1 P2'
_cell_volume   117.72247400
_cell_formula_units_Z   1
loop_
 _symmetry_equiv_pos_site_id
 _symmetry_equiv_pos_as_xyz
  1  'x, y, z'
loop_
 _atom_site_type_symbol
 _atom_site_label
 _atom_site_symmetry_multiplicity
 _atom_site_fract_x
 _atom_site_fract_y
 _atom_site_fract_z
 _atom_site_occupancy
  Ti  Ti0  1  0.397519  0.410204  0.500000  1
  Ti  Ti1  1  0.590025  0.983950  0.500000  1
  Ti  Ti2  1  0.009930  0.604367  0.500000  1
  Mn  Mn3  1  0.007915  0.250382  0.000000  1
  Mn  Mn4  1  0.242973  0.992388  0.000000  1
  Cr  Cr5  1  0.749741  0.757276  0.000000  1
  As  As6  1  0.665906  0.329699  0.000000  1
  P  P7  1  0.329163  0.664499  0.000000  1
  P  P8  1  0.006828  0.007237  0.500000  1
