# generated using pymatgen
data_Tb6InCoTc
_symmetry_space_group_name_H-M   'P 1'
_cell_length_a   8.48932910
_cell_length_b   8.48932854
_cell_length_c   8.48932941
_cell_angle_alpha   112.91029742
_cell_angle_beta   110.86030261
_cell_angle_gamma   104.75106427
_symmetry_Int_Tables_number   1
_chemical_formula_structural   Tb6InCoTc
_chemical_formula_sum   'Tb12 In2 Co2 Tc2'
_cell_volume   468.44008023
_cell_formula_units_Z   2
loop_
 _symmetry_equiv_pos_site_id
 _symmetry_equiv_pos_as_xyz
  1  'x, y, z'
loop_
 _atom_site_type_symbol
 _atom_site_label
 _atom_site_symmetry_multiplicity
 _atom_site_fract_x
 _atom_site_fract_y
 _atom_site_fract_z
 _atom_site_occupancy
  Tb  Tb0  1  0.443769  0.243204  0.200565  1
  Tb  Tb1  1  0.556231  0.756796  0.799435  1
  Tb  Tb2  1  0.042638  0.243204  0.799435  1
  Tb  Tb3  1  0.957362  0.756796  0.200565  1
  Tb  Tb4  1  0.185055  0.286688  0.471744  1
  Tb  Tb5  1  0.814945  0.713312  0.528256  1
  Tb  Tb6  1  0.185055  0.713312  0.898367  1
  Tb  Tb7  1  0.814945  0.286688  0.101633  1
  Tb  Tb8  1  0.326383  0.645121  0.318738  1
  Tb  Tb9  1  0.673617  0.354879  0.681262  1
  Tb  Tb10  1  0.326383  0.007646  0.681262  1
  Tb  Tb11  1  0.673617  0.992354  0.318738  1
  In  In12  1  0.500000  0.500000  0.000000  1
  In  In13  1  0.000000  0.000000  0.000000  1
  Co  Co14  1  0.109678  0.609678  0.500000  1
  Co  Co15  1  0.890322  0.390322  0.500000  1
  Tc  Tc16  1  0.323283  0.000000  0.323283  1
  Tc  Tc17  1  0.676717  0.000000  0.676717  1
