# generated using pymatgen
data_Yb8Cd4GePd20
_symmetry_space_group_name_H-M   'P 1'
_cell_length_a   8.08899300
_cell_length_b   8.57075400
_cell_length_c   8.51645600
_cell_angle_alpha   90.00000000
_cell_angle_beta   90.00000000
_cell_angle_gamma   90.00000000
_symmetry_Int_Tables_number   1
_chemical_formula_structural   Yb8Cd4GePd20
_chemical_formula_sum   'Yb8 Cd4 Ge1 Pd20'
_cell_volume   590.43541167
_cell_formula_units_Z   1
loop_
 _symmetry_equiv_pos_site_id
 _symmetry_equiv_pos_as_xyz
  1  'x, y, z'
loop_
 _atom_site_type_symbol
 _atom_site_label
 _atom_site_symmetry_multiplicity
 _atom_site_fract_x
 _atom_site_fract_y
 _atom_site_fract_z
 _atom_site_occupancy
  Yb  Yb0  1  0.252067  0.233479  0.251105  1
  Yb  Yb1  1  0.747933  0.766521  0.748895  1
  Yb  Yb2  1  0.747933  0.766521  0.251105  1
  Yb  Yb3  1  0.747933  0.233479  0.748895  1
  Yb  Yb4  1  0.252067  0.233479  0.748895  1
  Yb  Yb5  1  0.252067  0.766521  0.251105  1
  Yb  Yb6  1  0.252067  0.766521  0.748895  1
  Yb  Yb7  1  0.747933  0.233479  0.251105  1
  Cd  Cd8  1  0.260319  0.500000  0.000000  1
  Cd  Cd9  1  0.739681  0.500000  0.000000  1
  Cd  Cd10  1  0.252312  0.500000  0.500000  1
  Cd  Cd11  1  0.747688  0.500000  0.500000  1
  Ge  Ge12  1  0.000000  0.000000  0.000000  1
  Pd  Pd13  1  0.000000  0.256730  0.500000  1
  Pd  Pd14  1  0.500000  0.263379  0.000000  1
  Pd  Pd15  1  0.000000  0.743270  0.500000  1
  Pd  Pd16  1  0.500000  0.736621  0.000000  1
  Pd  Pd17  1  0.500000  0.000000  0.264031  1
  Pd  Pd18  1  0.259024  0.000000  0.500000  1
  Pd  Pd19  1  0.500000  0.000000  0.735969  1
  Pd  Pd20  1  0.740976  0.000000  0.500000  1
  Pd  Pd21  1  0.000000  0.500000  0.256532  1
  Pd  Pd22  1  0.000000  0.500000  0.743468  1
  Pd  Pd23  1  0.500000  0.252690  0.500000  1
  Pd  Pd24  1  0.500000  0.747310  0.500000  1
  Pd  Pd25  1  0.500000  0.500000  0.254332  1
  Pd  Pd26  1  0.500000  0.500000  0.745668  1
  Pd  Pd27  1  0.298649  0.000000  0.000000  1
  Pd  Pd28  1  0.701351  0.000000  0.000000  1
  Pd  Pd29  1  0.000000  0.284643  0.000000  1
  Pd  Pd30  1  0.000000  0.715357  0.000000  1
  Pd  Pd31  1  0.000000  0.000000  0.286775  1
  Pd  Pd32  1  0.000000  0.000000  0.713225  1
