# generated using pymatgen
data_Re5B2W
_symmetry_space_group_name_H-M   'P 1'
_cell_length_a   4.92036232
_cell_length_b   4.92036175
_cell_length_c   7.34980000
_cell_angle_alpha   90.00000000
_cell_angle_beta   90.00000000
_cell_angle_gamma   145.04068466
_symmetry_Int_Tables_number   1
_chemical_formula_structural   Re5B2W
_chemical_formula_sum   'Re5 B2 W1'
_cell_volume   101.95773747
_cell_formula_units_Z   1
loop_
 _symmetry_equiv_pos_site_id
 _symmetry_equiv_pos_as_xyz
  1  'x, y, z'
loop_
 _atom_site_type_symbol
 _atom_site_label
 _atom_site_symmetry_multiplicity
 _atom_site_fract_x
 _atom_site_fract_y
 _atom_site_fract_z
 _atom_site_occupancy
  Re  Re0  1  0.863317  0.136683  0.189314  1
  Re  Re1  1  0.135208  0.864792  0.312344  1
  Re  Re2  1  0.863317  0.136683  0.810686  1
  Re  Re3  1  0.135208  0.864792  0.687656  1
  Re  Re4  1  0.426187  0.573813  0.500000  1
  B  B5  1  0.259654  0.740346  0.000000  1
  B  B6  1  0.743916  0.256084  0.500000  1
  W  W7  1  0.573194  0.426806  0.000000  1
