# generated using pymatgen
data_Ce4PrNd5Ru4
_symmetry_space_group_name_H-M   'P 1'
_cell_length_a   9.10926323
_cell_length_b   9.11791107
_cell_length_c   7.15409989
_cell_angle_alpha   85.61478037
_cell_angle_beta   85.55476321
_cell_angle_gamma   41.96798232
_symmetry_Int_Tables_number   1
_chemical_formula_structural   Ce4PrNd5Ru4
_chemical_formula_sum   'Ce4 Pr1 Nd5 Ru4'
_cell_volume   395.99806255
_cell_formula_units_Z   1
loop_
 _symmetry_equiv_pos_site_id
 _symmetry_equiv_pos_as_xyz
  1  'x, y, z'
loop_
 _atom_site_type_symbol
 _atom_site_label
 _atom_site_symmetry_multiplicity
 _atom_site_fract_x
 _atom_site_fract_y
 _atom_site_fract_z
 _atom_site_occupancy
  Ce  Ce0  1  0.007676  0.809947  0.902798  1
  Ce  Ce1  1  0.190375  0.992106  0.597305  1
  Ce  Ce2  1  0.992097  0.190480  0.097403  1
  Ce  Ce3  1  0.810073  0.007336  0.402677  1
  Pr  Pr4  1  0.352439  0.215688  0.823350  1
  Nd  Nd5  1  0.784058  0.647160  0.676039  1
  Nd  Nd6  1  0.647429  0.783778  0.176591  1
  Nd  Nd7  1  0.215609  0.352971  0.323790  1
  Nd  Nd8  1  0.579323  0.421127  0.749916  1
  Nd  Nd9  1  0.420858  0.579122  0.250019  1
  Ru  Ru10  1  0.140430  0.644118  0.597158  1
  Ru  Ru11  1  0.357032  0.858068  0.902314  1
  Ru  Ru12  1  0.858928  0.357302  0.402278  1
  Ru  Ru13  1  0.643673  0.140798  0.098363  1
