# generated using pymatgen
data_Lu20Ru5I24
_symmetry_space_group_name_H-M   'P 1'
_cell_length_a   11.91830838
_cell_length_b   12.71154889
_cell_length_c   14.31055900
_cell_angle_alpha   99.77307152
_cell_angle_beta   107.72511305
_cell_angle_gamma   109.10491442
_symmetry_Int_Tables_number   1
_chemical_formula_structural   Lu20Ru5I24
_chemical_formula_sum   'Lu20 Ru5 I24'
_cell_volume   1861.92904781
_cell_formula_units_Z   1
loop_
 _symmetry_equiv_pos_site_id
 _symmetry_equiv_pos_as_xyz
  1  'x, y, z'
loop_
 _atom_site_type_symbol
 _atom_site_label
 _atom_site_symmetry_multiplicity
 _atom_site_fract_x
 _atom_site_fract_y
 _atom_site_fract_z
 _atom_site_occupancy
  Lu  Lu0  1  0.496004  0.024531  0.705332  1
  Lu  Lu1  1  0.503996  0.975469  0.294668  1
  Lu  Lu2  1  0.734551  0.999282  0.642527  1
  Lu  Lu3  1  0.265449  0.000718  0.357473  1
  Lu  Lu4  1  0.814118  0.166957  0.897621  1
  Lu  Lu5  1  0.185882  0.833043  0.102379  1
  Lu  Lu6  1  0.482700  0.220371  0.576919  1
  Lu  Lu7  1  0.517300  0.779629  0.423081  1
  Lu  Lu8  1  0.721110  0.195865  0.514532  1
  Lu  Lu9  1  0.278890  0.804135  0.485468  1
  Lu  Lu10  1  0.797017  0.447287  0.715747  1
  Lu  Lu11  1  0.202983  0.552713  0.284253  1
  Lu  Lu12  1  0.973377  0.289501  0.761717  1
  Lu  Lu13  1  0.026623  0.710499  0.238283  1
  Lu  Lu14  1  0.637275  0.324908  0.850439  1
  Lu  Lu15  1  0.362725  0.675092  0.149561  1
  Lu  Lu16  1  0.114039  0.586830  0.904912  1
  Lu  Lu17  1  0.885961  0.413170  0.095088  1
  Lu  Lu18  1  0.874265  0.612731  0.969057  1
  Lu  Lu19  1  0.125735  0.387269  0.030943  1
  Ru  Ru20  1  0.500000  0.000000  0.500000  1
  Ru  Ru21  1  0.707733  0.209994  0.709320  1
  Ru  Ru22  1  0.292267  0.790006  0.290680  1
  Ru  Ru23  1  0.903696  0.405393  0.904302  1
  Ru  Ru24  1  0.096304  0.594607  0.095698  1
  I  I25  1  0.263083  0.823136  0.696203  1
  I  I26  1  0.736917  0.176864  0.303797  1
  I  I27  1  0.761146  0.772789  0.566864  1
  I  I28  1  0.238854  0.227211  0.433136  1
  I  I29  1  0.661987  0.896601  0.812428  1
  I  I30  1  0.338013  0.103399  0.187572  1
  I  I31  1  0.340135  0.179535  0.727082  1
  I  I32  1  0.659865  0.820465  0.272918  1
  I  I33  1  0.949475  0.118196  0.565882  1
  I  I34  1  0.050525  0.881804  0.434118  1
  I  I35  1  0.630965  0.397945  0.484097  1
  I  I36  1  0.369035  0.602055  0.515903  1
  I  I37  1  0.052286  0.123694  0.880868  1
  I  I38  1  0.947714  0.876306  0.119132  1
  I  I39  1  0.608298  0.165976  0.990822  1
  I  I40  1  0.391702  0.834024  0.009178  1
  I  I41  1  0.004362  0.238288  0.153588  1
  I  I42  1  0.995638  0.761712  0.846412  1
  I  I43  1  0.304648  0.466982  0.913514  1
  I  I44  1  0.695352  0.533018  0.086486  1
  I  I45  1  0.027435  0.478116  0.649088  1
  I  I46  1  0.972565  0.521884  0.350912  1
  I  I47  1  0.599464  0.530094  0.770464  1
  I  I48  1  0.400536  0.469906  0.229536  1
