# generated using pymatgen
data_K4Th6FeBr18
_symmetry_space_group_name_H-M   'P 1'
_cell_length_a   11.18408901
_cell_length_b   11.17783221
_cell_length_c   11.28785722
_cell_angle_alpha   118.24775672
_cell_angle_beta   100.37821623
_cell_angle_gamma   103.21261380
_symmetry_Int_Tables_number   1
_chemical_formula_structural   K4Th6FeBr18
_chemical_formula_sum   'K4 Th6 Fe1 Br18'
_cell_volume   1139.73529857
_cell_formula_units_Z   1
loop_
 _symmetry_equiv_pos_site_id
 _symmetry_equiv_pos_as_xyz
  1  'x, y, z'
loop_
 _atom_site_type_symbol
 _atom_site_label
 _atom_site_symmetry_multiplicity
 _atom_site_fract_x
 _atom_site_fract_y
 _atom_site_fract_z
 _atom_site_occupancy
  K  K0  1  0.644418  0.535180  0.223761  1
  K  K1  1  0.355582  0.464820  0.776239  1
  K  K2  1  0.679129  0.224101  0.561837  1
  K  K3  1  0.320871  0.775899  0.438163  1
  Th  Th4  1  0.161848  0.060896  0.250410  1
  Th  Th5  1  0.838152  0.939104  0.749590  1
  Th  Th6  1  0.850924  0.139071  0.144825  1
  Th  Th7  1  0.149076  0.860929  0.855175  1
  Th  Th8  1  0.152444  0.256858  0.045302  1
  Th  Th9  1  0.847556  0.743142  0.954698  1
  Fe  Fe10  1  0.000000  0.000000  0.000000  1
  Br  Br11  1  0.010257  0.431016  0.209384  1
  Br  Br12  1  0.989743  0.568984  0.790616  1
  Br  Br13  1  0.337741  0.346111  0.322367  1
  Br  Br14  1  0.662259  0.653889  0.677633  1
  Br  Br15  1  0.345077  0.536367  0.106295  1
  Br  Br16  1  0.654923  0.463633  0.893705  1
  Br  Br17  1  0.008305  0.787204  0.223470  1
  Br  Br18  1  0.991695  0.212796  0.776530  1
  Br  Br19  1  0.698010  0.297844  0.310135  1
  Br  Br20  1  0.301990  0.702156  0.689865  1
  Br  Br21  1  0.325377  0.129759  0.895498  1
  Br  Br22  1  0.674623  0.870241  0.104502  1
  Br  Br23  1  0.016024  0.214528  0.427669  1
  Br  Br24  1  0.983976  0.785472  0.572331  1
  Br  Br25  1  0.331042  0.913549  0.113908  1
  Br  Br26  1  0.668958  0.086451  0.886092  1
  Br  Br27  1  0.354696  0.124840  0.519592  1
  Br  Br28  1  0.645304  0.875160  0.480408  1
