# generated using pymatgen
data_Rb4Ge(TeSe)2
_symmetry_space_group_name_H-M   'P 1'
_cell_length_a   8.81487200
_cell_length_b   10.97084500
_cell_length_c   15.62430700
_cell_angle_alpha   90.00000000
_cell_angle_beta   90.00000000
_cell_angle_gamma   90.00000000
_symmetry_Int_Tables_number   1
_chemical_formula_structural   Rb4Ge(TeSe)2
_chemical_formula_sum   'Rb16 Ge4 Te8 Se8'
_cell_volume   1510.97351994
_cell_formula_units_Z   4
loop_
 _symmetry_equiv_pos_site_id
 _symmetry_equiv_pos_as_xyz
  1  'x, y, z'
loop_
 _atom_site_type_symbol
 _atom_site_label
 _atom_site_symmetry_multiplicity
 _atom_site_fract_x
 _atom_site_fract_y
 _atom_site_fract_z
 _atom_site_occupancy
  Rb  Rb0  1  0.500000  0.500000  0.500000  1
  Rb  Rb1  1  0.147520  0.463103  0.271696  1
  Rb  Rb2  1  0.147520  0.036897  0.271696  1
  Rb  Rb3  1  0.980244  0.750000  0.433148  1
  Rb  Rb4  1  0.019756  0.250000  0.566852  1
  Rb  Rb5  1  0.647520  0.963103  0.228304  1
  Rb  Rb6  1  0.352480  0.036897  0.771696  1
  Rb  Rb7  1  0.852480  0.963103  0.728304  1
  Rb  Rb8  1  0.352480  0.463103  0.771696  1
  Rb  Rb9  1  0.000000  0.500000  0.000000  1
  Rb  Rb10  1  0.480244  0.250000  0.066852  1
  Rb  Rb11  1  0.647520  0.536897  0.228304  1
  Rb  Rb12  1  0.519756  0.750000  0.933148  1
  Rb  Rb13  1  0.000000  0.000000  0.000000  1
  Rb  Rb14  1  0.852480  0.536897  0.728304  1
  Rb  Rb15  1  0.500000  0.000000  0.500000  1
  Ge  Ge16  1  0.733663  0.250000  0.839229  1
  Ge  Ge17  1  0.766337  0.250000  0.339229  1
  Ge  Ge18  1  0.233663  0.750000  0.660771  1
  Ge  Ge19  1  0.266337  0.750000  0.160771  1
  Te  Te20  1  0.535149  0.750000  0.668245  1
  Te  Te21  1  0.464851  0.250000  0.331755  1
  Te  Te22  1  0.362443  0.750000  0.322426  1
  Te  Te23  1  0.137557  0.750000  0.822426  1
  Te  Te24  1  0.035149  0.250000  0.831755  1
  Te  Te25  1  0.964851  0.750000  0.168245  1
  Te  Te26  1  0.637557  0.250000  0.677574  1
  Te  Te27  1  0.862443  0.250000  0.177574  1
  Se  Se28  1  0.849378  0.429417  0.411554  1
  Se  Se29  1  0.650622  0.070583  0.911554  1
  Se  Se30  1  0.349378  0.929417  0.088446  1
  Se  Se31  1  0.349378  0.570583  0.088446  1
  Se  Se32  1  0.150622  0.570583  0.588446  1
  Se  Se33  1  0.849378  0.070583  0.411554  1
  Se  Se34  1  0.150622  0.929417  0.588446  1
  Se  Se35  1  0.650622  0.429417  0.911554  1
