# generated using pymatgen
data_Hf2Zr8AlSb5
_symmetry_space_group_name_H-M   'P 1'
_cell_length_a   5.64143103
_cell_length_b   8.37800783
_cell_length_c   8.37800809
_cell_angle_alpha   96.50627458
_cell_angle_beta   109.67478443
_cell_angle_gamma   70.32523106
_symmetry_Int_Tables_number   1
_chemical_formula_structural   Hf2Zr8AlSb5
_chemical_formula_sum   'Hf2 Zr8 Al1 Sb5'
_cell_volume   351.09214278
_cell_formula_units_Z   1
loop_
 _symmetry_equiv_pos_site_id
 _symmetry_equiv_pos_as_xyz
  1  'x, y, z'
loop_
 _atom_site_type_symbol
 _atom_site_label
 _atom_site_symmetry_multiplicity
 _atom_site_fract_x
 _atom_site_fract_y
 _atom_site_fract_z
 _atom_site_occupancy
  Hf  Hf0  1  0.250000  0.500000  0.500000  1
  Hf  Hf1  1  0.750000  0.500000  0.500000  1
  Zr  Zr2  1  0.930784  0.856875  0.705199  1
  Zr  Zr3  1  0.082459  0.143126  0.294802  1
  Zr  Zr4  1  0.417541  0.294801  0.143125  1
  Zr  Zr5  1  0.569216  0.705198  0.856874  1
  Zr  Zr6  1  0.225584  0.705193  0.143137  1
  Zr  Zr7  1  0.787641  0.294806  0.856862  1
  Zr  Zr8  1  0.274413  0.143138  0.705194  1
  Zr  Zr9  1  0.712362  0.856863  0.294807  1
  Al  Al10  1  0.250002  0.999998  0.000002  1
  Sb  Sb11  1  0.336577  0.826848  0.500009  1
  Sb  Sb12  1  0.663413  0.173151  0.499986  1
  Sb  Sb13  1  0.836585  0.499991  0.173152  1
  Sb  Sb14  1  0.163421  0.500014  0.826849  1
  Sb  Sb15  1  0.750002  0.999998  0.000002  1
