# generated using pymatgen
data_Pr5Nd3Si12Rh3Au
_symmetry_space_group_name_H-M   'P 1'
_cell_length_a   8.29301000
_cell_length_b   8.29300921
_cell_length_c   8.54005700
_cell_angle_alpha   90.00000000
_cell_angle_beta   90.00000000
_cell_angle_gamma   119.99999517
_symmetry_Int_Tables_number   1
_chemical_formula_structural   Pr5Nd3Si12Rh3Au
_chemical_formula_sum   'Pr5 Nd3 Si12 Rh3 Au1'
_cell_volume   508.64614695
_cell_formula_units_Z   1
loop_
 _symmetry_equiv_pos_site_id
 _symmetry_equiv_pos_as_xyz
  1  'x, y, z'
loop_
 _atom_site_type_symbol
 _atom_site_label
 _atom_site_symmetry_multiplicity
 _atom_site_fract_x
 _atom_site_fract_y
 _atom_site_fract_z
 _atom_site_occupancy
  Pr  Pr0  1  0.000000  0.000000  0.748931  1
  Pr  Pr1  1  0.000000  0.000000  0.251920  1
  Pr  Pr2  1  0.496103  0.503897  0.745132  1
  Pr  Pr3  1  0.496103  0.992207  0.745132  1
  Pr  Pr4  1  0.007793  0.503897  0.745132  1
  Nd  Nd5  1  0.499091  0.500909  0.254932  1
  Nd  Nd6  1  0.001817  0.500909  0.254932  1
  Nd  Nd7  1  0.499091  0.998183  0.254932  1
  Si  Si8  1  0.838753  0.161247  0.001666  1
  Si  Si9  1  0.838753  0.677506  0.001666  1
  Si  Si10  1  0.322494  0.161247  0.001666  1
  Si  Si11  1  0.832621  0.167379  0.498405  1
  Si  Si12  1  0.832621  0.665242  0.498405  1
  Si  Si13  1  0.334758  0.167379  0.498405  1
  Si  Si14  1  0.166275  0.833725  0.500415  1
  Si  Si15  1  0.667450  0.833725  0.500415  1
  Si  Si16  1  0.166275  0.332550  0.500415  1
  Si  Si17  1  0.168584  0.831416  0.999678  1
  Si  Si18  1  0.662830  0.831416  0.999678  1
  Si  Si19  1  0.168584  0.337170  0.999678  1
  Rh  Rh20  1  0.666667  0.333333  0.505215  1
  Rh  Rh21  1  0.333333  0.666667  0.491792  1
  Rh  Rh22  1  0.333333  0.666667  0.006552  1
  Au  Au23  1  0.666667  0.333333  0.994908  1
