# generated using pymatgen
data_Nd12InCo4Pd
_symmetry_space_group_name_H-M   'P 1'
_cell_length_a   8.59837058
_cell_length_b   8.59808107
_cell_length_c   8.59837063
_cell_angle_alpha   111.44384451
_cell_angle_beta   109.48446616
_cell_angle_gamma   107.51059000
_symmetry_Int_Tables_number   1
_chemical_formula_structural   Nd12InCo4Pd
_chemical_formula_sum   'Nd12 In1 Co4 Pd1'
_cell_volume   488.75672185
_cell_formula_units_Z   1
loop_
 _symmetry_equiv_pos_site_id
 _symmetry_equiv_pos_as_xyz
  1  'x, y, z'
loop_
 _atom_site_type_symbol
 _atom_site_label
 _atom_site_symmetry_multiplicity
 _atom_site_fract_x
 _atom_site_fract_y
 _atom_site_fract_z
 _atom_site_occupancy
  Nd  Nd0  1  0.406040  0.208174  0.197869  1
  Nd  Nd1  1  0.593960  0.791826  0.802131  1
  Nd  Nd2  1  0.010305  0.208174  0.802135  1
  Nd  Nd3  1  0.989695  0.791826  0.197865  1
  Nd  Nd4  1  0.185336  0.298138  0.483475  1
  Nd  Nd5  1  0.814664  0.701862  0.516525  1
  Nd  Nd6  1  0.185337  0.701862  0.887200  1
  Nd  Nd7  1  0.814663  0.298138  0.112800  1
  Nd  Nd8  1  0.317444  0.622466  0.305023  1
  Nd  Nd9  1  0.682556  0.377534  0.694977  1
  Nd  Nd10  1  0.317435  0.012417  0.694982  1
  Nd  Nd11  1  0.682565  0.987583  0.305018  1
  In  In12  1  0.500000  0.500000  0.000000  1
  Co  Co13  1  0.378806  0.000000  0.378806  1
  Co  Co14  1  0.621194  0.000000  0.621194  1
  Co  Co15  1  0.112293  0.612290  0.499997  1
  Co  Co16  1  0.887707  0.387710  0.500003  1
  Pd  Pd17  1  0.000000  0.000000  0.000000  1
