# generated using pymatgen
data_Li3Bi(Rh3Pb)2
_symmetry_space_group_name_H-M   'P 1'
_cell_length_a   4.48754800
_cell_length_b   6.32143400
_cell_length_c   13.52797900
_cell_angle_alpha   89.99916800
_cell_angle_beta   89.99772860
_cell_angle_gamma   89.99987271
_symmetry_Int_Tables_number   1
_chemical_formula_structural   Li3Bi(Rh3Pb)2
_chemical_formula_sum   'Li6 Bi2 Rh12 Pb4'
_cell_volume   383.75817059
_cell_formula_units_Z   2
loop_
 _symmetry_equiv_pos_site_id
 _symmetry_equiv_pos_as_xyz
  1  'x, y, z'
loop_
 _atom_site_type_symbol
 _atom_site_label
 _atom_site_symmetry_multiplicity
 _atom_site_fract_x
 _atom_site_fract_y
 _atom_site_fract_z
 _atom_site_occupancy
  Li  Li0  1  0.999997  0.000010  0.998898  1
  Li  Li1  1  0.499801  0.500007  0.167739  1
  Li  Li2  1  0.999782  0.999992  0.334748  1
  Li  Li3  1  0.500001  0.500010  0.500320  1
  Li  Li4  1  0.000214  0.000002  0.666363  1
  Li  Li5  1  0.500214  0.499982  0.831915  1
  Bi  Bi6  1  0.000006  0.500014  0.998843  1
  Bi  Bi7  1  0.499797  0.999985  0.167832  1
  Rh  Rh8  1  0.499994  0.249767  0.001340  1
  Rh  Rh9  1  0.499996  0.750240  0.001334  1
  Rh  Rh10  1  0.999784  0.250254  0.165346  1
  Rh  Rh11  1  0.999785  0.749738  0.165342  1
  Rh  Rh12  1  0.499799  0.248527  0.331958  1
  Rh  Rh13  1  0.499798  0.751480  0.331961  1
  Rh  Rh14  1  0.999999  0.249484  0.499849  1
  Rh  Rh15  1  0.000001  0.750512  0.499847  1
  Rh  Rh16  1  0.500200  0.250503  0.666808  1
  Rh  Rh17  1  0.500194  0.749502  0.666817  1
  Rh  Rh18  1  0.000209  0.251477  0.834707  1
  Rh  Rh19  1  0.000208  0.748513  0.834707  1
  Pb  Pb20  1  0.999816  0.499979  0.334618  1
  Pb  Pb21  1  0.500001  0.000024  0.500463  1
  Pb  Pb22  1  0.000208  0.499974  0.666197  1
  Pb  Pb23  1  0.500198  0.000020  0.832052  1
