# generated using pymatgen
data_LuZn2PdRh2
_symmetry_space_group_name_H-M   'P 1'
_cell_length_a   4.46380700
_cell_length_b   5.44590697
_cell_length_c   7.73666143
_cell_angle_alpha   90.20093572
_cell_angle_beta   90.00000000
_cell_angle_gamma   90.00000000
_symmetry_Int_Tables_number   1
_chemical_formula_structural   LuZn2PdRh2
_chemical_formula_sum   'Lu2 Zn4 Pd2 Rh4'
_cell_volume   188.07304141
_cell_formula_units_Z   2
loop_
 _symmetry_equiv_pos_site_id
 _symmetry_equiv_pos_as_xyz
  1  'x, y, z'
loop_
 _atom_site_type_symbol
 _atom_site_label
 _atom_site_symmetry_multiplicity
 _atom_site_fract_x
 _atom_site_fract_y
 _atom_site_fract_z
 _atom_site_occupancy
  Lu  Lu0  1  0.750000  0.998882  0.750379  1
  Lu  Lu1  1  0.250000  0.001118  0.249621  1
  Zn  Zn2  1  0.250000  0.678501  0.583009  1
  Zn  Zn3  1  0.750000  0.321499  0.416991  1
  Zn  Zn4  1  0.750000  0.680976  0.083575  1
  Zn  Zn5  1  0.250000  0.319024  0.916425  1
  Pd  Pd6  1  0.250000  0.501176  0.249828  1
  Pd  Pd7  1  0.750000  0.498824  0.750172  1
  Rh  Rh8  1  0.250000  0.803487  0.916147  1
  Rh  Rh9  1  0.750000  0.196513  0.083853  1
  Rh  Rh10  1  0.750000  0.807194  0.416514  1
  Rh  Rh11  1  0.250000  0.192806  0.583486  1
