# generated using pymatgen
data_CaNd6NiI12
_symmetry_space_group_name_H-M   'P 1'
_cell_length_a   10.02237497
_cell_length_b   10.02237444
_cell_length_c   10.02237509
_cell_angle_alpha   106.81666711
_cell_angle_beta   106.81666760
_cell_angle_gamma   106.81667677
_symmetry_Int_Tables_number   1
_chemical_formula_structural   CaNd6NiI12
_chemical_formula_sum   'Ca1 Nd6 Ni1 I12'
_cell_volume   842.57003663
_cell_formula_units_Z   1
loop_
 _symmetry_equiv_pos_site_id
 _symmetry_equiv_pos_as_xyz
  1  'x, y, z'
loop_
 _atom_site_type_symbol
 _atom_site_label
 _atom_site_symmetry_multiplicity
 _atom_site_fract_x
 _atom_site_fract_y
 _atom_site_fract_z
 _atom_site_occupancy
  Ca  Ca0  1  0.500000  0.500000  0.500000  1
  Nd  Nd1  1  0.024339  0.098313  0.299914  1
  Nd  Nd2  1  0.098313  0.299914  0.024339  1
  Nd  Nd3  1  0.299914  0.024339  0.098313  1
  Nd  Nd4  1  0.975661  0.901687  0.700086  1
  Nd  Nd5  1  0.901687  0.700086  0.975661  1
  Nd  Nd6  1  0.700086  0.975661  0.901687  1
  Ni  Ni7  1  0.000000  0.000000  0.000000  1
  I  I8  1  0.157008  0.458586  0.380598  1
  I  I9  1  0.458586  0.380598  0.157008  1
  I  I10  1  0.380598  0.157008  0.458586  1
  I  I11  1  0.842992  0.541414  0.619402  1
  I  I12  1  0.541414  0.619402  0.842992  1
  I  I13  1  0.619402  0.842992  0.541414  1
  I  I14  1  0.678828  0.072041  0.224370  1
  I  I15  1  0.072041  0.224370  0.678828  1
  I  I16  1  0.224370  0.678828  0.072041  1
  I  I17  1  0.321172  0.927959  0.775630  1
  I  I18  1  0.927959  0.775630  0.321172  1
  I  I19  1  0.775630  0.321172  0.927959  1
