# generated using pymatgen
data_Y4Al2FeRu5
_symmetry_space_group_name_H-M   'P 1'
_cell_length_a   5.37218600
_cell_length_b   5.18422424
_cell_length_c   8.81187500
_cell_angle_alpha   90.00000000
_cell_angle_beta   90.00000000
_cell_angle_gamma   120.28499454
_symmetry_Int_Tables_number   1
_chemical_formula_structural   Y4Al2FeRu5
_chemical_formula_sum   'Y4 Al2 Fe1 Ru5'
_cell_volume   211.92363647
_cell_formula_units_Z   1
loop_
 _symmetry_equiv_pos_site_id
 _symmetry_equiv_pos_as_xyz
  1  'x, y, z'
loop_
 _atom_site_type_symbol
 _atom_site_label
 _atom_site_symmetry_multiplicity
 _atom_site_fract_x
 _atom_site_fract_y
 _atom_site_fract_z
 _atom_site_occupancy
  Y  Y0  1  0.667682  0.334637  0.563705  1
  Y  Y1  1  0.330398  0.660598  0.437238  1
  Y  Y2  1  0.330398  0.660598  0.062762  1
  Y  Y3  1  0.667682  0.334637  0.936295  1
  Al  Al4  1  0.169786  0.829984  0.750000  1
  Al  Al5  1  0.836249  0.672329  0.250000  1
  Fe  Fe6  1  0.160064  0.322413  0.750000  1
  Ru  Ru7  1  0.005277  0.012162  0.503953  1
  Ru  Ru8  1  0.005277  0.012162  0.996047  1
  Ru  Ru9  1  0.650278  0.820784  0.750000  1
  Ru  Ru10  1  0.828974  0.170166  0.250000  1
  Ru  Ru11  1  0.347932  0.169526  0.250000  1
