# generated using pymatgen
data_HoErZr2F14
_symmetry_space_group_name_H-M   'P 1'
_cell_length_a   5.76345791
_cell_length_b   6.08106633
_cell_length_c   8.28556290
_cell_angle_alpha   102.92110471
_cell_angle_beta   89.99940400
_cell_angle_gamma   90.02712307
_symmetry_Int_Tables_number   1
_chemical_formula_structural   HoErZr2F14
_chemical_formula_sum   'Ho1 Er1 Zr2 F14'
_cell_volume   283.03907479
_cell_formula_units_Z   1
loop_
 _symmetry_equiv_pos_site_id
 _symmetry_equiv_pos_as_xyz
  1  'x, y, z'
loop_
 _atom_site_type_symbol
 _atom_site_label
 _atom_site_symmetry_multiplicity
 _atom_site_fract_x
 _atom_site_fract_y
 _atom_site_fract_z
 _atom_site_occupancy
  Ho  Ho0  1  0.198198  0.348013  0.315415  1
  Er  Er1  1  0.698383  0.653051  0.686205  1
  Zr  Zr2  1  0.706782  0.813903  0.225779  1
  Zr  Zr3  1  0.207101  0.185512  0.774423  1
  F  F4  1  0.902867  0.468333  0.482407  1
  F  F5  1  0.403978  0.536632  0.520288  1
  F  F6  1  0.437867  0.927378  0.766814  1
  F  F7  1  0.928529  0.078850  0.233436  1
  F  F8  1  0.956857  0.939687  0.755779  1
  F  F9  1  0.449253  0.051449  0.241418  1
  F  F10  1  0.982516  0.448243  0.789026  1
  F  F11  1  0.489271  0.544655  0.209660  1
  F  F12  1  0.697926  0.755838  0.974123  1
  F  F13  1  0.195505  0.242780  0.025150  1
  F  F14  1  0.700259  0.864227  0.476824  1
  F  F15  1  0.200056  0.135615  0.522696  1
  F  F16  1  0.496307  0.384602  0.781951  1
  F  F17  1  0.001064  0.621230  0.218604  1
