# generated using pymatgen
data_La2Pr7NdSi6
_symmetry_space_group_name_H-M   'P 1'
_cell_length_a   8.94467540
_cell_length_b   8.94682573
_cell_length_c   8.94797762
_cell_angle_alpha   127.63210944
_cell_angle_beta   127.61462898
_cell_angle_gamma   77.27888428
_symmetry_Int_Tables_number   1
_chemical_formula_structural   La2Pr7NdSi6
_chemical_formula_sum   'La2 Pr7 Nd1 Si6'
_cell_volume   435.74508416
_cell_formula_units_Z   1
loop_
 _symmetry_equiv_pos_site_id
 _symmetry_equiv_pos_as_xyz
  1  'x, y, z'
loop_
 _atom_site_type_symbol
 _atom_site_label
 _atom_site_symmetry_multiplicity
 _atom_site_fract_x
 _atom_site_fract_y
 _atom_site_fract_z
 _atom_site_occupancy
  La  La0  1  0.673683  0.173378  0.141544  1
  La  La1  1  0.999695  0.000386  0.000462  1
  Pr  Pr2  1  0.532135  0.675452  0.499244  1
  Pr  Pr3  1  0.033547  0.533248  0.857941  1
  Pr  Pr4  1  0.824723  0.966719  0.500056  1
  Pr  Pr5  1  0.325470  0.825107  0.857611  1
  Pr  Pr6  1  0.175806  0.032541  0.500031  1
  Pr  Pr7  1  0.467086  0.325007  0.500680  1
  Pr  Pr8  1  0.966706  0.467069  0.142420  1
  Nd  Nd9  1  0.500068  0.500031  0.000174  1
  Si  Si10  1  0.886277  0.614215  0.499266  1
  Si  Si11  1  0.612328  0.114157  0.725911  1
  Si  Si12  1  0.387209  0.885308  0.271764  1
  Si  Si13  1  0.116066  0.388192  0.503063  1
  Si  Si14  1  0.749251  0.747283  0.999930  1
  Si  Si15  1  0.249951  0.251907  0.999903  1
