# generated using pymatgen
data_Ti2Cr2Co10P7
_symmetry_space_group_name_H-M   'P 1'
_cell_length_a   8.83588981
_cell_length_b   8.86692613
_cell_length_c   3.52735700
_cell_angle_alpha   90.00000000
_cell_angle_beta   90.00000000
_cell_angle_gamma   120.06629652
_symmetry_Int_Tables_number   1
_chemical_formula_structural   Ti2Cr2Co10P7
_chemical_formula_sum   'Ti2 Cr2 Co10 P7'
_cell_volume   239.17341949
_cell_formula_units_Z   1
loop_
 _symmetry_equiv_pos_site_id
 _symmetry_equiv_pos_as_xyz
  1  'x, y, z'
loop_
 _atom_site_type_symbol
 _atom_site_label
 _atom_site_symmetry_multiplicity
 _atom_site_fract_x
 _atom_site_fract_y
 _atom_site_fract_z
 _atom_site_occupancy
  Ti  Ti0  1  0.338865  0.668477  0.000000  1
  Ti  Ti1  1  0.664731  0.328904  0.500000  1
  Cr  Cr2  1  0.217690  0.096129  0.500000  1
  Cr  Cr3  1  0.905904  0.123354  0.500000  1
  Co  Co4  1  0.435202  0.063756  0.000000  1
  Co  Co5  1  0.164534  0.286286  0.000000  1
  Co  Co6  1  0.934346  0.371229  0.000000  1
  Co  Co7  1  0.627970  0.562962  0.000000  1
  Co  Co8  1  0.118867  0.835988  0.000000  1
  Co  Co9  1  0.720843  0.881479  0.000000  1
  Co  Co10  1  0.388201  0.440571  0.500000  1
  Co  Co11  1  0.050465  0.611230  0.500000  1
  Co  Co12  1  0.870192  0.778227  0.500000  1
  Co  Co13  1  0.558663  0.946581  0.500000  1
  P  P14  1  0.003406  0.999776  0.000000  1
  P  P15  1  0.702633  0.119985  0.000000  1
  P  P16  1  0.416597  0.295075  0.000000  1
  P  P17  1  0.878819  0.583137  0.000000  1
  P  P18  1  0.125793  0.416771  0.500000  1
  P  P19  1  0.589314  0.712125  0.500000  1
  P  P20  1  0.286966  0.877948  0.500000  1
