# generated using pymatgen
data_Yb20Mg2CdAg9
_symmetry_space_group_name_H-M   'P 1'
_cell_length_a   8.07647600
_cell_length_b   8.07647600
_cell_length_c   14.67848500
_cell_angle_alpha   90.00000000
_cell_angle_beta   90.00000000
_cell_angle_gamma   90.00000000
_symmetry_Int_Tables_number   1
_chemical_formula_structural   Yb20Mg2CdAg9
_chemical_formula_sum   'Yb20 Mg2 Cd1 Ag9'
_cell_volume   957.46971737
_cell_formula_units_Z   1
loop_
 _symmetry_equiv_pos_site_id
 _symmetry_equiv_pos_as_xyz
  1  'x, y, z'
loop_
 _atom_site_type_symbol
 _atom_site_label
 _atom_site_symmetry_multiplicity
 _atom_site_fract_x
 _atom_site_fract_y
 _atom_site_fract_z
 _atom_site_occupancy
  Yb  Yb0  1  0.000000  0.000000  0.754143  1
  Yb  Yb1  1  0.500000  0.500000  0.250418  1
  Yb  Yb2  1  0.000000  0.000000  0.245857  1
  Yb  Yb3  1  0.500000  0.500000  0.749582  1
  Yb  Yb4  1  0.172944  0.658231  0.107656  1
  Yb  Yb5  1  0.663110  0.167800  0.611019  1
  Yb  Yb6  1  0.827056  0.341769  0.107656  1
  Yb  Yb7  1  0.336890  0.832200  0.611019  1
  Yb  Yb8  1  0.341769  0.172944  0.107656  1
  Yb  Yb9  1  0.832200  0.663110  0.611019  1
  Yb  Yb10  1  0.658231  0.827056  0.107656  1
  Yb  Yb11  1  0.167800  0.336890  0.611019  1
  Yb  Yb12  1  0.341769  0.827056  0.892344  1
  Yb  Yb13  1  0.832200  0.336890  0.388981  1
  Yb  Yb14  1  0.658231  0.172944  0.892344  1
  Yb  Yb15  1  0.167800  0.663110  0.388981  1
  Yb  Yb16  1  0.172944  0.341769  0.892344  1
  Yb  Yb17  1  0.663110  0.832200  0.388981  1
  Yb  Yb18  1  0.827056  0.658231  0.892344  1
  Yb  Yb19  1  0.336890  0.167800  0.388981  1
  Mg  Mg20  1  0.000000  0.000000  0.500000  1
  Mg  Mg21  1  0.000000  0.000000  0.000000  1
  Cd  Cd22  1  0.500000  0.500000  0.500000  1
  Ag  Ag23  1  0.629124  0.127486  0.248539  1
  Ag  Ag24  1  0.127486  0.629124  0.751461  1
  Ag  Ag25  1  0.872514  0.370876  0.751461  1
  Ag  Ag26  1  0.370876  0.872514  0.248539  1
  Ag  Ag27  1  0.370876  0.127486  0.751461  1
  Ag  Ag28  1  0.872514  0.629124  0.248539  1
  Ag  Ag29  1  0.127486  0.370876  0.248539  1
  Ag  Ag30  1  0.629124  0.872514  0.751461  1
  Ag  Ag31  1  0.500000  0.500000  0.000000  1
