# generated using pymatgen
data_DyHoZn(PRh2)6
_symmetry_space_group_name_H-M   'P 1'
_cell_length_a   9.65867100
_cell_length_b   9.65867086
_cell_length_c   3.88929200
_cell_angle_alpha   90.00000000
_cell_angle_beta   90.00000000
_cell_angle_gamma   120.00000391
_symmetry_Int_Tables_number   1
_chemical_formula_structural   DyHoZn(PRh2)6
_chemical_formula_sum   'Dy1 Ho1 Zn1 P6 Rh12'
_cell_volume   314.22150521
_cell_formula_units_Z   1
loop_
 _symmetry_equiv_pos_site_id
 _symmetry_equiv_pos_as_xyz
  1  'x, y, z'
loop_
 _atom_site_type_symbol
 _atom_site_label
 _atom_site_symmetry_multiplicity
 _atom_site_fract_x
 _atom_site_fract_y
 _atom_site_fract_z
 _atom_site_occupancy
  Dy  Dy0  1  0.333333  0.666667  0.753100  1
  Ho  Ho1  1  0.666667  0.333333  0.246903  1
  Zn  Zn2  1  0.000000  0.000000  0.499949  1
  P  P3  1  0.402059  0.284687  0.748277  1
  P  P4  1  0.715313  0.117370  0.748277  1
  P  P5  1  0.882630  0.597941  0.748277  1
  P  P6  1  0.598152  0.715374  0.251720  1
  P  P7  1  0.284626  0.882779  0.251720  1
  P  P8  1  0.117221  0.401848  0.251720  1
  Rh  Rh9  1  0.452491  0.066200  0.749041  1
  Rh  Rh10  1  0.933800  0.386291  0.749041  1
  Rh  Rh11  1  0.613709  0.547509  0.749041  1
  Rh  Rh12  1  0.547896  0.934323  0.250966  1
  Rh  Rh13  1  0.065677  0.613573  0.250966  1
  Rh  Rh14  1  0.386427  0.452104  0.250966  1
  Rh  Rh15  1  0.158812  0.283834  0.753595  1
  Rh  Rh16  1  0.716166  0.874978  0.753595  1
  Rh  Rh17  1  0.125022  0.841188  0.753595  1
  Rh  Rh18  1  0.841155  0.716028  0.246416  1
  Rh  Rh19  1  0.283972  0.125127  0.246416  1
  Rh  Rh20  1  0.874873  0.158845  0.246416  1
