# generated using pymatgen
data_Zr10Be2GaBi5
_symmetry_space_group_name_H-M   'P 1'
_cell_length_a   8.68899900
_cell_length_b   8.73046142
_cell_length_c   5.86943800
_cell_angle_alpha   90.00000000
_cell_angle_beta   90.00000000
_cell_angle_gamma   119.84301898
_symmetry_Int_Tables_number   1
_chemical_formula_structural   Zr10Be2GaBi5
_chemical_formula_sum   'Zr10 Be2 Ga1 Bi5'
_cell_volume   386.20590645
_cell_formula_units_Z   1
loop_
 _symmetry_equiv_pos_site_id
 _symmetry_equiv_pos_as_xyz
  1  'x, y, z'
loop_
 _atom_site_type_symbol
 _atom_site_label
 _atom_site_symmetry_multiplicity
 _atom_site_fract_x
 _atom_site_fract_y
 _atom_site_fract_z
 _atom_site_occupancy
  Zr  Zr0  1  0.737156  0.000000  0.250000  1
  Zr  Zr1  1  0.016706  0.755811  0.250000  1
  Zr  Zr2  1  0.260896  0.244189  0.250000  1
  Zr  Zr3  1  0.243296  0.000000  0.750000  1
  Zr  Zr4  1  0.997597  0.242395  0.750000  1
  Zr  Zr5  1  0.755202  0.757605  0.750000  1
  Zr  Zr6  1  0.334419  0.673332  0.495104  1
  Zr  Zr7  1  0.661088  0.326668  0.495104  1
  Zr  Zr8  1  0.661088  0.326668  0.004896  1
  Zr  Zr9  1  0.334419  0.673332  0.004896  1
  Be  Be10  1  0.998730  0.000000  0.478743  1
  Be  Be11  1  0.998730  0.000000  0.021257  1
  Ga  Ga12  1  0.389946  0.000000  0.250000  1
  Bi  Bi13  1  0.002371  0.384742  0.250000  1
  Bi  Bi14  1  0.617628  0.615258  0.250000  1
  Bi  Bi15  1  0.601190  0.000000  0.750000  1
  Bi  Bi16  1  0.997788  0.606039  0.750000  1
  Bi  Bi17  1  0.391749  0.393961  0.750000  1
