# generated using pymatgen
data_LuAs4(RuRh2)2
_symmetry_space_group_name_H-M   'P 1'
_cell_length_a   7.20088328
_cell_length_b   7.20088283
_cell_length_c   3.83395200
_cell_angle_alpha   90.00000000
_cell_angle_beta   90.00000000
_cell_angle_gamma   119.37449203
_symmetry_Int_Tables_number   1
_chemical_formula_structural   LuAs4(RuRh2)2
_chemical_formula_sum   'Lu1 As4 Ru2 Rh4'
_cell_volume   173.24145680
_cell_formula_units_Z   1
loop_
 _symmetry_equiv_pos_site_id
 _symmetry_equiv_pos_as_xyz
  1  'x, y, z'
loop_
 _atom_site_type_symbol
 _atom_site_label
 _atom_site_symmetry_multiplicity
 _atom_site_fract_x
 _atom_site_fract_y
 _atom_site_fract_z
 _atom_site_occupancy
  Lu  Lu0  1  0.333236  0.666764  0.000000  1
  As  As1  1  0.665414  0.334586  0.000000  1
  As  As2  1  0.716692  0.854740  0.500000  1
  As  As3  1  0.145260  0.283308  0.500000  1
  As  As4  1  0.140049  0.859951  0.500000  1
  Ru  Ru5  1  0.263920  0.134508  0.000000  1
  Ru  Ru6  1  0.865492  0.736080  0.000000  1
  Rh  Rh7  1  0.866343  0.133657  0.000000  1
  Rh  Rh8  1  0.945496  0.473144  0.500000  1
  Rh  Rh9  1  0.526856  0.054504  0.500000  1
  Rh  Rh10  1  0.531241  0.468759  0.500000  1
