# generated using pymatgen
data_Tb2Lu14Tl5InCo2
_symmetry_space_group_name_H-M   'P 1'
_cell_length_a   10.15458074
_cell_length_b   10.15458061
_cell_length_c   6.95609503
_cell_angle_alpha   90.01876698
_cell_angle_beta   89.98123166
_cell_angle_gamma   119.95562111
_symmetry_Int_Tables_number   1
_chemical_formula_structural   Tb2Lu14Tl5InCo2
_chemical_formula_sum   'Tb2 Lu14 Tl5 In1 Co2'
_cell_volume   621.46136456
_cell_formula_units_Z   1
loop_
 _symmetry_equiv_pos_site_id
 _symmetry_equiv_pos_as_xyz
  1  'x, y, z'
loop_
 _atom_site_type_symbol
 _atom_site_label
 _atom_site_symmetry_multiplicity
 _atom_site_fract_x
 _atom_site_fract_y
 _atom_site_fract_z
 _atom_site_occupancy
  Tb  Tb0  1  0.533633  0.068694  0.520936  1
  Tb  Tb1  1  0.931306  0.466367  0.520936  1
  Lu  Lu2  1  0.535375  0.464625  0.523075  1
  Lu  Lu3  1  0.463354  0.926960  0.023057  1
  Lu  Lu4  1  0.073040  0.536646  0.023057  1
  Lu  Lu5  1  0.463924  0.536076  0.024014  1
  Lu  Lu6  1  0.180425  0.358712  0.727855  1
  Lu  Lu7  1  0.641288  0.819575  0.727855  1
  Lu  Lu8  1  0.178600  0.821400  0.729576  1
  Lu  Lu9  1  0.820079  0.642216  0.224518  1
  Lu  Lu10  1  0.357784  0.179921  0.224518  1
  Lu  Lu11  1  0.821415  0.178585  0.222608  1
  Lu  Lu12  1  0.666290  0.333710  0.913628  1
  Lu  Lu13  1  0.333797  0.666203  0.414108  1
  Lu  Lu14  1  0.000439  0.999561  0.507432  1
  Lu  Lu15  1  0.000398  0.999602  0.008925  1
  Tl  Tl16  1  0.836608  0.674829  0.771314  1
  Tl  Tl17  1  0.325171  0.163392  0.771314  1
  Tl  Tl18  1  0.838451  0.161549  0.771741  1
  Tl  Tl19  1  0.162825  0.325990  0.272025  1
  Tl  Tl20  1  0.674010  0.837175  0.272025  1
  In  In21  1  0.162966  0.837034  0.270881  1
  Co  Co22  1  0.665471  0.334529  0.293551  1
  Co  Co23  1  0.333348  0.666652  0.796725  1
