# generated using pymatgen
data_Ho4ReSn3F28
_symmetry_space_group_name_H-M   'P 1'
_cell_length_a   5.66863665
_cell_length_b   8.98434123
_cell_length_c   12.07917000
_cell_angle_alpha   62.44778433
_cell_angle_beta   89.94464118
_cell_angle_gamma   89.97236543
_symmetry_Int_Tables_number   1
_chemical_formula_structural   Ho4ReSn3F28
_chemical_formula_sum   'Ho4 Re1 Sn3 F28'
_cell_volume   545.41164854
_cell_formula_units_Z   1
loop_
 _symmetry_equiv_pos_site_id
 _symmetry_equiv_pos_as_xyz
  1  'x, y, z'
loop_
 _atom_site_type_symbol
 _atom_site_label
 _atom_site_symmetry_multiplicity
 _atom_site_fract_x
 _atom_site_fract_y
 _atom_site_fract_z
 _atom_site_occupancy
  Ho  Ho0  1  0.757354  0.814600  0.765222  1
  Ho  Ho1  1  0.257147  0.185874  0.733707  1
  Ho  Ho2  1  0.242181  0.185790  0.235160  1
  Ho  Ho3  1  0.742951  0.813924  0.265814  1
  Re  Re4  1  0.742780  0.273218  0.455668  1
  Sn  Sn5  1  0.756212  0.273176  0.956294  1
  Sn  Sn6  1  0.256800  0.727040  0.543272  1
  Sn  Sn7  1  0.243547  0.726930  0.043681  1
  F  F8  1  0.460036  0.705664  0.921137  1
  F  F9  1  0.954821  0.292024  0.578784  1
  F  F10  1  0.538476  0.293658  0.078964  1
  F  F11  1  0.041136  0.707206  0.420010  1
  F  F12  1  0.455902  0.281829  0.548091  1
  F  F13  1  0.952139  0.717790  0.951902  1
  F  F14  1  0.548811  0.716579  0.452279  1
  F  F15  1  0.046748  0.282541  0.048620  1
  F  F16  1  0.769905  0.522098  0.857193  1
  F  F17  1  0.267562  0.477876  0.641484  1
  F  F18  1  0.229019  0.477860  0.143756  1
  F  F19  1  0.734621  0.521055  0.357033  1
  F  F20  1  0.758080  0.023592  0.054632  1
  F  F21  1  0.259756  0.976853  0.445712  1
  F  F22  1  0.241697  0.976571  0.945109  1
  F  F23  1  0.741633  0.025681  0.553592  1
  F  F24  1  0.982555  0.732372  0.646058  1
  F  F25  1  0.483820  0.268522  0.852375  1
  F  F26  1  0.017344  0.267165  0.356100  1
  F  F27  1  0.516769  0.731486  0.147215  1
  F  F28  1  0.036621  0.746590  0.171746  1
  F  F29  1  0.537210  0.254925  0.328747  1
  F  F30  1  0.964294  0.254280  0.828172  1
  F  F31  1  0.463548  0.745247  0.671908  1
  F  F32  1  0.429735  0.974506  0.235721  1
  F  F33  1  0.929070  0.026020  0.265460  1
  F  F34  1  0.569310  0.025030  0.764888  1
  F  F35  1  0.070410  0.974426  0.734491  1
