# generated using pymatgen
data_Li3Sm(Tc3Ge4)2
_symmetry_space_group_name_H-M   'P 1'
_cell_length_a   6.56152200
_cell_length_b   6.86831626
_cell_length_c   12.58497700
_cell_angle_alpha   90.36877083
_cell_angle_beta   90.00000000
_cell_angle_gamma   90.00000000
_symmetry_Int_Tables_number   1
_chemical_formula_structural   Li3Sm(Tc3Ge4)2
_chemical_formula_sum   'Li6 Sm2 Tc12 Ge16'
_cell_volume   567.15048086
_cell_formula_units_Z   2
loop_
 _symmetry_equiv_pos_site_id
 _symmetry_equiv_pos_as_xyz
  1  'x, y, z'
loop_
 _atom_site_type_symbol
 _atom_site_label
 _atom_site_symmetry_multiplicity
 _atom_site_fract_x
 _atom_site_fract_y
 _atom_site_fract_z
 _atom_site_occupancy
  Li  Li0  1  0.472530  0.331727  0.082126  1
  Li  Li1  1  0.972530  0.168273  0.417874  1
  Li  Li2  1  0.530426  0.674357  0.592550  1
  Li  Li3  1  0.030426  0.825643  0.907450  1
  Li  Li4  1  0.529839  0.663435  0.908597  1
  Li  Li5  1  0.029839  0.836565  0.591403  1
  Sm  Sm6  1  0.493672  0.332203  0.420778  1
  Sm  Sm7  1  0.993672  0.167797  0.079222  1
  Tc  Tc8  1  0.822781  0.335911  0.628016  1
  Tc  Tc9  1  0.322781  0.164089  0.871984  1
  Tc  Tc10  1  0.164604  0.661285  0.128021  1
  Tc  Tc11  1  0.664604  0.838715  0.371979  1
  Tc  Tc12  1  0.175220  0.656768  0.372478  1
  Tc  Tc13  1  0.675220  0.843232  0.127522  1
  Tc  Tc14  1  0.823322  0.338621  0.869558  1
  Tc  Tc15  1  0.323322  0.161379  0.630442  1
  Tc  Tc16  1  0.658781  0.998460  0.747161  1
  Tc  Tc17  1  0.158781  0.501540  0.752839  1
  Tc  Tc18  1  0.330679  0.000434  0.251679  1
  Tc  Tc19  1  0.830679  0.499566  0.248321  1
  Ge  Ge20  1  0.682019  0.020022  0.548931  1
  Ge  Ge21  1  0.182019  0.479978  0.951069  1
  Ge  Ge22  1  0.341631  0.948503  0.042357  1
  Ge  Ge23  1  0.841631  0.551497  0.457643  1
  Ge  Ge24  1  0.316769  0.951715  0.459569  1
  Ge  Ge25  1  0.816769  0.548285  0.040431  1
  Ge  Ge26  1  0.669357  0.026083  0.943975  1
  Ge  Ge27  1  0.169357  0.473917  0.556025  1
  Ge  Ge28  1  0.522386  0.391768  0.750057  1
  Ge  Ge29  1  0.022386  0.108232  0.749943  1
  Ge  Ge30  1  0.470480  0.620323  0.242618  1
  Ge  Ge31  1  0.970480  0.879677  0.257382  1
  Ge  Ge32  1  0.816496  0.665031  0.749026  1
  Ge  Ge33  1  0.316496  0.834969  0.750974  1
  Ge  Ge34  1  0.179007  0.342084  0.256289  1
  Ge  Ge35  1  0.679007  0.157916  0.243711  1
