# generated using pymatgen
data_TbLuTa2(SbRh)4
_symmetry_space_group_name_H-M   'P 1'
_cell_length_a   6.36239625
_cell_length_b   4.49168800
_cell_length_c   8.99863916
_cell_angle_alpha   90.00000000
_cell_angle_beta   90.09612304
_cell_angle_gamma   90.00000000
_symmetry_Int_Tables_number   1
_chemical_formula_structural   TbLuTa2(SbRh)4
_chemical_formula_sum   'Tb1 Lu1 Ta2 Sb4 Rh4'
_cell_volume   257.16183784
_cell_formula_units_Z   1
loop_
 _symmetry_equiv_pos_site_id
 _symmetry_equiv_pos_as_xyz
  1  'x, y, z'
loop_
 _atom_site_type_symbol
 _atom_site_label
 _atom_site_symmetry_multiplicity
 _atom_site_fract_x
 _atom_site_fract_y
 _atom_site_fract_z
 _atom_site_occupancy
  Tb  Tb0  1  0.005308  0.500000  0.375992  1
  Lu  Lu1  1  0.505530  0.000000  0.624078  1
  Ta  Ta2  1  0.495610  0.000000  0.121544  1
  Ta  Ta3  1  0.994661  0.500000  0.878305  1
  Sb  Sb4  1  0.986531  0.000000  0.123646  1
  Sb  Sb5  1  0.510320  0.500000  0.373198  1
  Sb  Sb6  1  0.009208  0.000000  0.629781  1
  Sb  Sb7  1  0.485142  0.500000  0.873503  1
  Rh  Rh8  1  0.733315  0.500000  0.108945  1
  Rh  Rh9  1  0.272948  0.000000  0.353837  1
  Rh  Rh10  1  0.766269  0.500000  0.647884  1
  Rh  Rh11  1  0.235168  0.000000  0.889281  1
