# generated using pymatgen
data_Y2Tm3Sn3Bi
_symmetry_space_group_name_H-M   'P 1'
_cell_length_a   8.11493300
_cell_length_b   8.13376300
_cell_length_c   15.33561500
_cell_angle_alpha   90.00000000
_cell_angle_beta   90.00000000
_cell_angle_gamma   90.00000000
_symmetry_Int_Tables_number   1
_chemical_formula_structural   Y2Tm3Sn3Bi
_chemical_formula_sum   'Y8 Tm12 Sn12 Bi4'
_cell_volume   1012.22637528
_cell_formula_units_Z   4
loop_
 _symmetry_equiv_pos_site_id
 _symmetry_equiv_pos_as_xyz
  1  'x, y, z'
loop_
 _atom_site_type_symbol
 _atom_site_label
 _atom_site_symmetry_multiplicity
 _atom_site_fract_x
 _atom_site_fract_y
 _atom_site_fract_z
 _atom_site_occupancy
  Y  Y0  1  0.539195  0.324839  0.897375  1
  Y  Y1  1  0.039195  0.175161  0.602625  1
  Y  Y2  1  0.460805  0.675161  0.397375  1
  Y  Y3  1  0.960805  0.824839  0.102625  1
  Y  Y4  1  0.478019  0.674682  0.100941  1
  Y  Y5  1  0.978019  0.825318  0.399059  1
  Y  Y6  1  0.521981  0.325318  0.600941  1
  Y  Y7  1  0.021981  0.174682  0.899059  1
  Tm  Tm8  1  0.373891  0.840139  0.873944  1
  Tm  Tm9  1  0.873891  0.659861  0.626056  1
  Tm  Tm10  1  0.626109  0.159861  0.373944  1
  Tm  Tm11  1  0.126109  0.340139  0.126056  1
  Tm  Tm12  1  0.636102  0.162610  0.124217  1
  Tm  Tm13  1  0.136102  0.337390  0.375783  1
  Tm  Tm14  1  0.363898  0.837390  0.624217  1
  Tm  Tm15  1  0.863898  0.662610  0.875783  1
  Tm  Tm16  1  0.198100  0.501915  0.747079  1
  Tm  Tm17  1  0.698100  0.998085  0.752921  1
  Tm  Tm18  1  0.801900  0.498085  0.247079  1
  Tm  Tm19  1  0.301900  0.001915  0.252921  1
  Sn  Sn20  1  0.710379  0.964537  0.957930  1
  Sn  Sn21  1  0.210379  0.535463  0.542070  1
  Sn  Sn22  1  0.289621  0.035463  0.457930  1
  Sn  Sn23  1  0.789621  0.464537  0.042070  1
  Sn  Sn24  1  0.563975  0.622523  0.748386  1
  Sn  Sn25  1  0.063975  0.877477  0.751614  1
  Sn  Sn26  1  0.436025  0.377477  0.248386  1
  Sn  Sn27  1  0.936025  0.122523  0.251614  1
  Sn  Sn28  1  0.337052  0.149099  0.751080  1
  Sn  Sn29  1  0.837052  0.350901  0.748920  1
  Sn  Sn30  1  0.662948  0.850901  0.251080  1
  Sn  Sn31  1  0.162948  0.649099  0.248920  1
  Bi  Bi32  1  0.287179  0.034895  0.042343  1
  Bi  Bi33  1  0.787179  0.465105  0.457657  1
  Bi  Bi34  1  0.712821  0.965105  0.542343  1
  Bi  Bi35  1  0.212821  0.534895  0.957657  1
