# generated using pymatgen
data_Ho8Er7Tm5Pb16
_symmetry_space_group_name_H-M   'P 1'
_cell_length_a   8.15312103
_cell_length_b   15.53308600
_cell_length_c   8.22855303
_cell_angle_alpha   90.00277257
_cell_angle_beta   90.00968124
_cell_angle_gamma   89.99990274
_symmetry_Int_Tables_number   1
_chemical_formula_structural   Ho8Er7Tm5Pb16
_chemical_formula_sum   'Ho8 Er7 Tm5 Pb16'
_cell_volume   1042.08969646
_cell_formula_units_Z   1
loop_
 _symmetry_equiv_pos_site_id
 _symmetry_equiv_pos_as_xyz
  1  'x, y, z'
loop_
 _atom_site_type_symbol
 _atom_site_label
 _atom_site_symmetry_multiplicity
 _atom_site_fract_x
 _atom_site_fract_y
 _atom_site_fract_z
 _atom_site_occupancy
  Ho  Ho0  1  0.465431  0.599930  0.676888  1
  Ho  Ho1  1  0.965439  0.900056  0.823177  1
  Ho  Ho2  1  0.534548  0.099941  0.323154  1
  Ho  Ho3  1  0.034579  0.400053  0.176876  1
  Ho  Ho4  1  0.534577  0.400123  0.323127  1
  Ho  Ho5  1  0.034549  0.099941  0.176835  1
  Ho  Ho6  1  0.465445  0.900057  0.676849  1
  Ho  Ho7  1  0.965400  0.599951  0.823188  1
  Er  Er8  1  0.122897  0.879358  0.340784  1
  Er  Er9  1  0.377127  0.120630  0.840786  1
  Er  Er10  1  0.877112  0.379368  0.659201  1
  Er  Er11  1  0.377125  0.379321  0.840771  1
  Er  Er12  1  0.877133  0.120629  0.659216  1
  Er  Er13  1  0.622893  0.879346  0.159224  1
  Er  Er14  1  0.122829  0.620659  0.340825  1
  Tm  Tm15  1  0.622924  0.620658  0.159189  1
  Tm  Tm16  1  0.791343  0.749959  0.495935  1
  Tm  Tm17  1  0.291459  0.749961  0.004013  1
  Tm  Tm18  1  0.208599  0.250003  0.503993  1
  Tm  Tm19  1  0.708605  0.250008  0.996045  1
  Pb  Pb20  1  0.718547  0.457506  0.966709  1
  Pb  Pb21  1  0.218609  0.042625  0.533410  1
  Pb  Pb22  1  0.281378  0.957347  0.033417  1
  Pb  Pb23  1  0.781279  0.542678  0.466342  1
  Pb  Pb24  1  0.281583  0.542680  0.033464  1
  Pb  Pb25  1  0.781384  0.957356  0.466568  1
  Pb  Pb26  1  0.718637  0.042636  0.966596  1
  Pb  Pb27  1  0.218606  0.457372  0.533414  1
  Pb  Pb28  1  0.428403  0.749927  0.372372  1
  Pb  Pb29  1  0.928225  0.749950  0.127510  1
  Pb  Pb30  1  0.571689  0.250001  0.627517  1
  Pb  Pb31  1  0.071669  0.250009  0.872488  1
  Pb  Pb32  1  0.653319  0.749955  0.847385  1
  Pb  Pb33  1  0.153321  0.749994  0.652755  1
  Pb  Pb34  1  0.346661  0.250004  0.152711  1
  Pb  Pb35  1  0.846674  0.250007  0.347264  1
