# generated using pymatgen
data_Tm2Lu14CdIn3Ni4
_symmetry_space_group_name_H-M   'P 1'
_cell_length_a   9.38180730
_cell_length_b   9.37128626
_cell_length_c   9.38773400
_cell_angle_alpha   59.94192406
_cell_angle_beta   59.97910059
_cell_angle_gamma   59.88500247
_symmetry_Int_Tables_number   1
_chemical_formula_structural   Tm2Lu14CdIn3Ni4
_chemical_formula_sum   'Tm2 Lu14 Cd1 In3 Ni4'
_cell_volume   582.76507284
_cell_formula_units_Z   1
loop_
 _symmetry_equiv_pos_site_id
 _symmetry_equiv_pos_as_xyz
  1  'x, y, z'
loop_
 _atom_site_type_symbol
 _atom_site_label
 _atom_site_symmetry_multiplicity
 _atom_site_fract_x
 _atom_site_fract_y
 _atom_site_fract_z
 _atom_site_occupancy
  Tm  Tm0  1  0.565784  0.564514  0.934850  1
  Tm  Tm1  1  0.939332  0.936196  0.562236  1
  Lu  Lu2  1  0.347140  0.346801  0.346466  1
  Lu  Lu3  1  0.347140  0.346801  0.959593  1
  Lu  Lu4  1  0.348489  0.956498  0.347506  1
  Lu  Lu5  1  0.953908  0.349066  0.348512  1
  Lu  Lu6  1  0.811786  0.189131  0.187560  1
  Lu  Lu7  1  0.187988  0.812494  0.812581  1
  Lu  Lu8  1  0.187988  0.812494  0.186939  1
  Lu  Lu9  1  0.811786  0.189131  0.811523  1
  Lu  Lu10  1  0.187550  0.186650  0.812901  1
  Lu  Lu11  1  0.812131  0.811432  0.188219  1
  Lu  Lu12  1  0.940068  0.562387  0.561994  1
  Lu  Lu13  1  0.563434  0.937852  0.937179  1
  Lu  Lu14  1  0.563434  0.937852  0.561533  1
  Lu  Lu15  1  0.940068  0.562387  0.935552  1
  Cd  Cd16  1  0.252515  0.581076  0.583206  1
  In  In17  1  0.580204  0.583697  0.583971  1
  In  In18  1  0.580204  0.583697  0.252129  1
  In  In19  1  0.580124  0.253598  0.583139  1
  Ni  Ni20  1  0.141208  0.142245  0.141792  1
  Ni  Ni21  1  0.141208  0.142245  0.574755  1
  Ni  Ni22  1  0.140430  0.573662  0.142954  1
  Ni  Ni23  1  0.576079  0.138095  0.142913  1
