# generated using pymatgen
data_Sb8Ir2RuPt
_symmetry_space_group_name_H-M   'P 1'
_cell_length_a   6.65283741
_cell_length_b   6.72979906
_cell_length_c   6.80182463
_cell_angle_alpha   64.96664058
_cell_angle_beta   89.91164616
_cell_angle_gamma   89.90155226
_symmetry_Int_Tables_number   1
_chemical_formula_structural   Sb8Ir2RuPt
_chemical_formula_sum   'Sb8 Ir2 Ru1 Pt1'
_cell_volume   275.92517826
_cell_formula_units_Z   1
loop_
 _symmetry_equiv_pos_site_id
 _symmetry_equiv_pos_as_xyz
  1  'x, y, z'
loop_
 _atom_site_type_symbol
 _atom_site_label
 _atom_site_symmetry_multiplicity
 _atom_site_fract_x
 _atom_site_fract_y
 _atom_site_fract_z
 _atom_site_occupancy
  Sb  Sb0  1  0.128994  0.138839  0.126326  1
  Sb  Sb1  1  0.639410  0.840392  0.376766  1
  Sb  Sb2  1  0.866826  0.850737  0.878845  1
  Sb  Sb3  1  0.364481  0.151818  0.629107  1
  Sb  Sb4  1  0.639889  0.354670  0.818147  1
  Sb  Sb5  1  0.137049  0.662250  0.671408  1
  Sb  Sb6  1  0.355356  0.659810  0.171551  1
  Sb  Sb7  1  0.868879  0.345401  0.323201  1
  Ir  Ir8  1  0.501198  0.736736  0.784689  1
  Ir  Ir9  1  0.001413  0.274390  0.712317  1
  Ru  Ru10  1  0.998404  0.721919  0.291987  1
  Pt  Pt11  1  0.498098  0.263037  0.215656  1
