# generated using pymatgen
data_LiLu3Ag2Sn2Pb
_symmetry_space_group_name_H-M   'P 1'
_cell_length_a   7.27072637
_cell_length_b   7.27072541
_cell_length_c   4.54096200
_cell_angle_alpha   90.00000000
_cell_angle_beta   90.00000000
_cell_angle_gamma   120.34414510
_symmetry_Int_Tables_number   1
_chemical_formula_structural   LiLu3Ag2Sn2Pb
_chemical_formula_sum   'Li1 Lu3 Ag2 Sn2 Pb1'
_cell_volume   207.16553797
_cell_formula_units_Z   1
loop_
 _symmetry_equiv_pos_site_id
 _symmetry_equiv_pos_as_xyz
  1  'x, y, z'
loop_
 _atom_site_type_symbol
 _atom_site_label
 _atom_site_symmetry_multiplicity
 _atom_site_fract_x
 _atom_site_fract_y
 _atom_site_fract_z
 _atom_site_occupancy
  Li  Li0  1  0.231503  0.231503  0.500000  1
  Lu  Lu1  1  0.997807  0.440145  0.000000  1
  Lu  Lu2  1  0.570745  0.570745  0.000000  1
  Lu  Lu3  1  0.440145  0.997807  0.000000  1
  Ag  Ag4  1  0.753919  0.001751  0.500000  1
  Ag  Ag5  1  0.001751  0.753919  0.500000  1
  Sn  Sn6  1  0.331993  0.656037  0.500000  1
  Sn  Sn7  1  0.656037  0.331993  0.500000  1
  Pb  Pb8  1  0.016100  0.016100  0.000000  1
