# generated using pymatgen
data_Nd2InSnIr2
_symmetry_space_group_name_H-M   'P 1'
_cell_length_a   7.58998948
_cell_length_b   7.58487552
_cell_length_c   8.23592819
_cell_angle_alpha   90.00458214
_cell_angle_beta   89.99781143
_cell_angle_gamma   119.82814422
_symmetry_Int_Tables_number   1
_chemical_formula_structural   Nd2InSnIr2
_chemical_formula_sum   'Nd6 In3 Sn3 Ir6'
_cell_volume   411.32233592
_cell_formula_units_Z   3
loop_
 _symmetry_equiv_pos_site_id
 _symmetry_equiv_pos_as_xyz
  1  'x, y, z'
loop_
 _atom_site_type_symbol
 _atom_site_label
 _atom_site_symmetry_multiplicity
 _atom_site_fract_x
 _atom_site_fract_y
 _atom_site_fract_z
 _atom_site_occupancy
  Nd  Nd0  1  0.410510  0.000686  0.250311  1
  Nd  Nd1  1  0.589062  0.589452  0.749242  1
  Nd  Nd2  1  0.589485  0.589061  0.250739  1
  Nd  Nd3  1  0.999785  0.409901  0.250158  1
  Nd  Nd4  1  0.000680  0.410320  0.749854  1
  Nd  Nd5  1  0.410188  0.000028  0.749706  1
  In  In6  1  0.254398  0.254192  0.499920  1
  In  In7  1  0.247665  0.248775  0.000094  1
  In  In8  1  0.750267  0.000976  0.999953  1
  Sn  Sn9  1  0.000265  0.745536  0.500023  1
  Sn  Sn10  1  0.748712  0.001155  0.500039  1
  Sn  Sn11  1  0.001028  0.753281  0.999967  1
  Ir  Ir12  1  0.670612  0.334258  0.500601  1
  Ir  Ir13  1  0.671681  0.340348  0.999448  1
  Ir  Ir14  1  0.329339  0.668335  0.000560  1
  Ir  Ir15  1  0.334848  0.671176  0.499394  1
  Ir  Ir16  1  0.995827  0.991311  0.745929  1
  Ir  Ir17  1  0.995650  0.991209  0.254064  1
