# generated using pymatgen
data_Nd6Dy(YRh3)2
_symmetry_space_group_name_H-M   'P 1'
_cell_length_a   7.55920627
_cell_length_b   7.55920614
_cell_length_c   7.55920599
_cell_angle_alpha   71.20805537
_cell_angle_beta   71.20804376
_cell_angle_gamma   71.20804777
_symmetry_Int_Tables_number   1
_chemical_formula_structural   Nd6Dy(YRh3)2
_chemical_formula_sum   'Nd6 Dy1 Y2 Rh6'
_cell_volume   375.45613611
_cell_formula_units_Z   1
loop_
 _symmetry_equiv_pos_site_id
 _symmetry_equiv_pos_as_xyz
  1  'x, y, z'
loop_
 _atom_site_type_symbol
 _atom_site_label
 _atom_site_symmetry_multiplicity
 _atom_site_fract_x
 _atom_site_fract_y
 _atom_site_fract_z
 _atom_site_occupancy
  Nd  Nd0  1  0.162033  0.391500  0.666091  1
  Nd  Nd1  1  0.666091  0.162033  0.391500  1
  Nd  Nd2  1  0.391500  0.666091  0.162033  1
  Nd  Nd3  1  0.837967  0.608500  0.333909  1
  Nd  Nd4  1  0.333909  0.837967  0.608500  1
  Nd  Nd5  1  0.608500  0.333909  0.837967  1
  Dy  Dy6  1  0.000000  0.000000  0.000000  1
  Y  Y7  1  0.799283  0.799283  0.799283  1
  Y  Y8  1  0.200717  0.200717  0.200717  1
  Rh  Rh9  1  0.959452  0.158213  0.592001  1
  Rh  Rh10  1  0.592001  0.959452  0.158213  1
  Rh  Rh11  1  0.158213  0.592001  0.959452  1
  Rh  Rh12  1  0.040548  0.841787  0.407999  1
  Rh  Rh13  1  0.407999  0.040548  0.841787  1
  Rh  Rh14  1  0.841787  0.407999  0.040548  1
