# generated using pymatgen
data_SmHo2Ga8Ag3
_symmetry_space_group_name_H-M   'P 1'
_cell_length_a   4.35926223
_cell_length_b   8.38048090
_cell_length_c   8.38048081
_cell_angle_alpha   69.40638480
_cell_angle_beta   74.92493803
_cell_angle_gamma   74.92493944
_symmetry_Int_Tables_number   1
_chemical_formula_structural   SmHo2Ga8Ag3
_chemical_formula_sum   'Sm1 Ho2 Ga8 Ag3'
_cell_volume   271.87761669
_cell_formula_units_Z   1
loop_
 _symmetry_equiv_pos_site_id
 _symmetry_equiv_pos_as_xyz
  1  'x, y, z'
loop_
 _atom_site_type_symbol
 _atom_site_label
 _atom_site_symmetry_multiplicity
 _atom_site_fract_x
 _atom_site_fract_y
 _atom_site_fract_z
 _atom_site_occupancy
  Sm  Sm0  1  0.500000  0.500000  0.500000  1
  Ho  Ho1  1  0.201049  0.798951  0.798951  1
  Ho  Ho2  1  0.798951  0.201049  0.201049  1
  Ga  Ga3  1  0.356147  0.360875  0.926830  1
  Ga  Ga4  1  0.643853  0.639125  0.073170  1
  Ga  Ga5  1  0.356147  0.926830  0.360875  1
  Ga  Ga6  1  0.643853  0.073170  0.639125  1
  Ga  Ga7  1  0.159087  0.472787  0.209038  1
  Ga  Ga8  1  0.840913  0.527213  0.790962  1
  Ga  Ga9  1  0.159087  0.209038  0.472787  1
  Ga  Ga10  1  0.840913  0.790962  0.527213  1
  Ag  Ag11  1  0.500000  0.000000  0.000000  1
  Ag  Ag12  1  0.000000  0.808332  0.191668  1
  Ag  Ag13  1  0.000000  0.191668  0.808332  1
