# generated using pymatgen
data_YbCe(NiAs)4
_symmetry_space_group_name_H-M   'P 1'
_cell_length_a   4.17141100
_cell_length_b   4.17141100
_cell_length_c   9.46148700
_cell_angle_alpha   90.00000000
_cell_angle_beta   90.00000000
_cell_angle_gamma   90.00000000
_symmetry_Int_Tables_number   1
_chemical_formula_structural   YbCe(NiAs)4
_chemical_formula_sum   'Yb1 Ce1 Ni4 As4'
_cell_volume   164.63621045
_cell_formula_units_Z   1
loop_
 _symmetry_equiv_pos_site_id
 _symmetry_equiv_pos_as_xyz
  1  'x, y, z'
loop_
 _atom_site_type_symbol
 _atom_site_label
 _atom_site_symmetry_multiplicity
 _atom_site_fract_x
 _atom_site_fract_y
 _atom_site_fract_z
 _atom_site_occupancy
  Yb  Yb0  1  0.500000  0.000000  0.255226  1
  Ce  Ce1  1  0.000000  0.500000  0.748683  1
  Ni  Ni2  1  0.500000  0.000000  0.876145  1
  Ni  Ni3  1  0.500000  0.500000  0.500354  1
  Ni  Ni4  1  0.000000  0.500000  0.119698  1
  Ni  Ni5  1  0.000000  0.000000  0.500354  1
  As  As6  1  0.000000  0.500000  0.367307  1
  As  As7  1  0.500000  0.500000  0.001898  1
  As  As8  1  0.000000  0.000000  0.001898  1
  As  As9  1  0.500000  0.000000  0.628435  1
