# generated using pymatgen
data_NaNdVH9
_symmetry_space_group_name_H-M   'P 1'
_cell_length_a   8.34441600
_cell_length_b   8.34441493
_cell_length_c   4.86662100
_cell_angle_alpha   90.00000000
_cell_angle_beta   90.00000000
_cell_angle_gamma   120.00000424
_symmetry_Int_Tables_number   1
_chemical_formula_structural   NaNdVH9
_chemical_formula_sum   'Na3 Nd3 V3 H27'
_cell_volume   293.46071919
_cell_formula_units_Z   3
loop_
 _symmetry_equiv_pos_site_id
 _symmetry_equiv_pos_as_xyz
  1  'x, y, z'
loop_
 _atom_site_type_symbol
 _atom_site_label
 _atom_site_symmetry_multiplicity
 _atom_site_fract_x
 _atom_site_fract_y
 _atom_site_fract_z
 _atom_site_occupancy
  Na  Na0  1  0.000000  0.601707  0.000000  1
  Na  Na1  1  0.398293  0.398293  0.000000  1
  Na  Na2  1  0.601707  0.000000  0.000000  1
  Nd  Nd3  1  0.000000  0.278564  0.500000  1
  Nd  Nd4  1  0.721436  0.721436  0.500000  1
  Nd  Nd5  1  0.278564  0.000000  0.500000  1
  V  V6  1  0.666667  0.333333  0.500000  1
  V  V7  1  0.333333  0.666667  0.500000  1
  V  V8  1  0.000000  0.000000  0.000000  1
  H  H9  1  0.807823  0.335184  0.758378  1
  H  H10  1  0.664816  0.472636  0.758378  1
  H  H11  1  0.527364  0.192177  0.758378  1
  H  H12  1  0.192177  0.527364  0.241622  1
  H  H13  1  0.527364  0.192177  0.241622  1
  H  H14  1  0.807823  0.335184  0.241622  1
  H  H15  1  0.664816  0.472636  0.241622  1
  H  H16  1  0.335184  0.807823  0.758378  1
  H  H17  1  0.472636  0.664816  0.758378  1
  H  H18  1  0.204346  0.000000  0.000000  1
  H  H19  1  0.795654  0.795654  0.000000  1
  H  H20  1  0.000000  0.204346  0.000000  1
  H  H21  1  0.852025  0.000000  0.241837  1
  H  H22  1  0.147975  0.147975  0.758163  1
  H  H23  1  0.000000  0.852025  0.758163  1
  H  H24  1  0.000000  0.852025  0.241837  1
  H  H25  1  0.147975  0.147975  0.241837  1
  H  H26  1  0.852025  0.000000  0.758163  1
  H  H27  1  0.136470  0.674922  0.500000  1
  H  H28  1  0.538452  0.863530  0.500000  1
  H  H29  1  0.325078  0.461548  0.500000  1
  H  H30  1  0.461548  0.325078  0.500000  1
  H  H31  1  0.863530  0.538452  0.500000  1
  H  H32  1  0.674922  0.136470  0.500000  1
  H  H33  1  0.192177  0.527364  0.758378  1
  H  H34  1  0.335184  0.807823  0.241622  1
  H  H35  1  0.472636  0.664816  0.241622  1
