# generated using pymatgen
data_Li3Ho12Th4HgIr4
_symmetry_space_group_name_H-M   'P 1'
_cell_length_a   9.75207316
_cell_length_b   9.75207339
_cell_length_c   9.75207300
_cell_angle_alpha   59.95825309
_cell_angle_beta   59.95825230
_cell_angle_gamma   59.95825354
_symmetry_Int_Tables_number   1
_chemical_formula_structural   Li3Ho12Th4HgIr4
_chemical_formula_sum   'Li3 Ho12 Th4 Hg1 Ir4'
_cell_volume   655.18582193
_cell_formula_units_Z   1
loop_
 _symmetry_equiv_pos_site_id
 _symmetry_equiv_pos_as_xyz
  1  'x, y, z'
loop_
 _atom_site_type_symbol
 _atom_site_label
 _atom_site_symmetry_multiplicity
 _atom_site_fract_x
 _atom_site_fract_y
 _atom_site_fract_z
 _atom_site_occupancy
  Li  Li0  1  0.578965  0.578965  0.264637  1
  Li  Li1  1  0.578965  0.264637  0.578965  1
  Li  Li2  1  0.264637  0.578965  0.578965  1
  Ho  Ho3  1  0.814192  0.185171  0.185171  1
  Ho  Ho4  1  0.187279  0.812870  0.812870  1
  Ho  Ho5  1  0.185171  0.814192  0.185171  1
  Ho  Ho6  1  0.812870  0.187279  0.812870  1
  Ho  Ho7  1  0.185171  0.185171  0.814192  1
  Ho  Ho8  1  0.812870  0.812870  0.187279  1
  Ho  Ho9  1  0.933324  0.565953  0.565953  1
  Ho  Ho10  1  0.566272  0.934045  0.934045  1
  Ho  Ho11  1  0.565953  0.933324  0.565953  1
  Ho  Ho12  1  0.934045  0.566272  0.934045  1
  Ho  Ho13  1  0.565953  0.565953  0.933324  1
  Ho  Ho14  1  0.934045  0.934045  0.566272  1
  Th  Th15  1  0.347065  0.347065  0.347065  1
  Th  Th16  1  0.350278  0.350278  0.949511  1
  Th  Th17  1  0.350278  0.949511  0.350278  1
  Th  Th18  1  0.949511  0.350278  0.350278  1
  Hg  Hg19  1  0.584590  0.584590  0.584590  1
  Ir  Ir20  1  0.142876  0.142876  0.142876  1
  Ir  Ir21  1  0.142813  0.142813  0.570069  1
  Ir  Ir22  1  0.142813  0.570069  0.142813  1
  Ir  Ir23  1  0.570069  0.142813  0.142813  1
