# generated using pymatgen
data_InI37
_symmetry_space_group_name_H-M   'P 1'
_cell_length_a   15.28042983
_cell_length_b   14.45940329
_cell_length_c   15.62529533
_cell_angle_alpha   105.90558658
_cell_angle_beta   60.58880098
_cell_angle_gamma   83.55215294
_symmetry_Int_Tables_number   1
_chemical_formula_structural   InI37
_chemical_formula_sum   'In1 I37'
_cell_volume   2763.82543804
_cell_formula_units_Z   1
loop_
 _symmetry_equiv_pos_site_id
 _symmetry_equiv_pos_as_xyz
  1  'x, y, z'
loop_
 _atom_site_type_symbol
 _atom_site_label
 _atom_site_symmetry_multiplicity
 _atom_site_fract_x
 _atom_site_fract_y
 _atom_site_fract_z
 _atom_site_occupancy
  In  In0  1  0.500000  0.000000  0.000000  1
  I  I1  1  0.771822  0.273275  0.051381  1
  I  I2  1  0.228178  0.726725  0.948619  1
  I  I3  1  0.721022  0.064623  0.328828  1
  I  I4  1  0.278978  0.935377  0.671172  1
  I  I5  1  0.077130  0.304252  0.150199  1
  I  I6  1  0.922870  0.695748  0.849801  1
  I  I7  1  0.854395  0.513354  0.218555  1
  I  I8  1  0.145605  0.486646  0.781445  1
  I  I9  1  0.688345  0.266788  0.487316  1
  I  I10  1  0.311655  0.733212  0.512684  1
  I  I11  1  0.016613  0.123410  0.425343  1
  I  I12  1  0.983387  0.876590  0.574657  1
  I  I13  1  0.938556  0.962594  0.232799  1
  I  I14  1  0.061444  0.037406  0.767201  1
  I  I15  1  0.957129  0.342610  0.569305  1
  I  I16  1  0.042871  0.657390  0.430695  1
  I  I17  1  0.560184  0.415857  0.213668  1
  I  I18  1  0.439816  0.584143  0.786332  1
  I  I19  1  0.149399  0.455486  0.281774  1
  I  I20  1  0.850601  0.544514  0.718226  1
  I  I21  1  0.000000  0.500000  0.000000  1
  I  I22  1  0.477140  0.953699  0.186920  1
  I  I23  1  0.522860  0.046301  0.813080  1
  I  I24  1  0.241904  0.025635  0.297643  1
  I  I25  1  0.758096  0.974365  0.702357  1
  I  I26  1  0.492911  0.164048  0.403981  1
  I  I27  1  0.507089  0.835952  0.596019  1
  I  I28  1  0.057636  0.171116  0.997222  1
  I  I29  1  0.942364  0.828884  0.002778  1
  I  I30  1  0.670554  0.680534  0.385645  1
  I  I31  1  0.329446  0.319466  0.614355  1
  I  I32  1  0.758748  0.134278  0.889254  1
  I  I33  1  0.241252  0.865722  0.110746  1
  I  I34  1  0.395932  0.198094  0.120487  1
  I  I35  1  0.604068  0.801906  0.879513  1
  I  I36  1  0.658158  0.459307  0.628680  1
  I  I37  1  0.341842  0.540693  0.371320  1
