# generated using pymatgen
data_Er6Th4Sn7Pb
_symmetry_space_group_name_H-M   'P 1'
_cell_length_a   8.12784500
_cell_length_b   8.21245709
_cell_length_c   15.51377406
_cell_angle_alpha   90.05907112
_cell_angle_beta   90.00000000
_cell_angle_gamma   90.00000000
_symmetry_Int_Tables_number   1
_chemical_formula_structural   Er6Th4Sn7Pb
_chemical_formula_sum   'Er12 Th8 Sn14 Pb2'
_cell_volume   1035.53732617
_cell_formula_units_Z   2
loop_
 _symmetry_equiv_pos_site_id
 _symmetry_equiv_pos_as_xyz
  1  'x, y, z'
loop_
 _atom_site_type_symbol
 _atom_site_label
 _atom_site_symmetry_multiplicity
 _atom_site_fract_x
 _atom_site_fract_y
 _atom_site_fract_z
 _atom_site_occupancy
  Er  Er0  1  0.362522  0.835957  0.875142  1
  Er  Er1  1  0.862522  0.664043  0.624858  1
  Er  Er2  1  0.636939  0.160832  0.375532  1
  Er  Er3  1  0.136939  0.339168  0.124468  1
  Er  Er4  1  0.639705  0.163231  0.124318  1
  Er  Er5  1  0.139705  0.336769  0.375682  1
  Er  Er6  1  0.362246  0.836971  0.624049  1
  Er  Er7  1  0.862246  0.663029  0.875951  1
  Er  Er8  1  0.191013  0.498320  0.749998  1
  Er  Er9  1  0.691013  0.001680  0.750002  1
  Er  Er10  1  0.808859  0.501883  0.248870  1
  Er  Er11  1  0.308859  0.998117  0.251130  1
  Th  Th12  1  0.520335  0.321744  0.903175  1
  Th  Th13  1  0.020335  0.178256  0.596825  1
  Th  Th14  1  0.478375  0.680882  0.403305  1
  Th  Th15  1  0.978375  0.819118  0.096695  1
  Th  Th16  1  0.481523  0.677247  0.096487  1
  Th  Th17  1  0.981523  0.822753  0.403513  1
  Th  Th18  1  0.517597  0.319916  0.597181  1
  Th  Th19  1  0.017597  0.180084  0.902819  1
  Sn  Sn20  1  0.701981  0.960409  0.542361  1
  Sn  Sn21  1  0.201981  0.539591  0.957639  1
  Sn  Sn22  1  0.702459  0.960435  0.957517  1
  Sn  Sn23  1  0.202459  0.539565  0.542483  1
  Sn  Sn24  1  0.298144  0.039904  0.457780  1
  Sn  Sn25  1  0.798144  0.460096  0.042220  1
  Sn  Sn26  1  0.557859  0.623132  0.749838  1
  Sn  Sn27  1  0.057859  0.876868  0.750162  1
  Sn  Sn28  1  0.442459  0.376634  0.249978  1
  Sn  Sn29  1  0.942459  0.123366  0.250022  1
  Sn  Sn30  1  0.325755  0.142356  0.750219  1
  Sn  Sn31  1  0.825755  0.357644  0.749781  1
  Sn  Sn32  1  0.673954  0.857173  0.249962  1
  Sn  Sn33  1  0.173954  0.642827  0.250038  1
  Pb  Pb34  1  0.298275  0.040205  0.042236  1
  Pb  Pb35  1  0.798275  0.459795  0.457764  1
