# generated using pymatgen
data_Tb3Ho5Ti3Si16Tc9
_symmetry_space_group_name_H-M   'P 1'
_cell_length_a   6.78843909
_cell_length_b   6.78862926
_cell_length_c   12.96802126
_cell_angle_alpha   89.92758664
_cell_angle_beta   90.09740874
_cell_angle_gamma   89.28447696
_symmetry_Int_Tables_number   1
_chemical_formula_structural   Tb3Ho5Ti3Si16Tc9
_chemical_formula_sum   'Tb3 Ho5 Ti3 Si16 Tc9'
_cell_volume   597.57287870
_cell_formula_units_Z   1
loop_
 _symmetry_equiv_pos_site_id
 _symmetry_equiv_pos_as_xyz
  1  'x, y, z'
loop_
 _atom_site_type_symbol
 _atom_site_label
 _atom_site_symmetry_multiplicity
 _atom_site_fract_x
 _atom_site_fract_y
 _atom_site_fract_z
 _atom_site_occupancy
  Tb  Tb0  1  0.662652  0.997714  0.971796  1
  Tb  Tb1  1  0.003031  0.336689  0.528778  1
  Tb  Tb2  1  0.997706  0.662637  0.028193  1
  Ho  Ho3  1  0.337628  0.002109  0.471306  1
  Ho  Ho4  1  0.509619  0.823899  0.716717  1
  Ho  Ho5  1  0.487791  0.178850  0.216835  1
  Ho  Ho6  1  0.823835  0.509650  0.283286  1
  Ho  Ho7  1  0.178938  0.487761  0.783238  1
  Ti  Ti8  1  0.155679  0.845010  0.249259  1
  Ti  Ti9  1  0.845072  0.155635  0.750922  1
  Ti  Ti10  1  0.666052  0.665996  0.499914  1
  Si  Si11  1  0.211788  0.117709  0.680976  1
  Si  Si12  1  0.397606  0.680825  0.940171  1
  Si  Si13  1  0.610523  0.308592  0.437828  1
  Si  Si14  1  0.680817  0.397603  0.059822  1
  Si  Si15  1  0.309042  0.611919  0.562036  1
  Si  Si16  1  0.786750  0.883851  0.183093  1
  Si  Si17  1  0.118347  0.211234  0.318983  1
  Si  Si18  1  0.883836  0.786766  0.816895  1
  Si  Si19  1  0.262674  0.985896  0.055576  1
  Si  Si20  1  0.525411  0.803866  0.314347  1
  Si  Si21  1  0.471441  0.198106  0.815008  1
  Si  Si22  1  0.803396  0.525731  0.685893  1
  Si  Si23  1  0.198043  0.471351  0.184979  1
  Si  Si24  1  0.729990  0.022369  0.557667  1
  Si  Si25  1  0.985899  0.262678  0.944416  1
  Si  Si26  1  0.022732  0.731308  0.442276  1
  Tc  Tc27  1  0.334096  0.334058  0.999995  1
  Tc  Tc28  1  0.182686  0.981444  0.864291  1
  Tc  Tc29  1  0.473915  0.692893  0.132476  1
  Tc  Tc30  1  0.522879  0.314743  0.632541  1
  Tc  Tc31  1  0.692871  0.474037  0.867666  1
  Tc  Tc32  1  0.315384  0.523826  0.367255  1
  Tc  Tc33  1  0.817972  0.012111  0.363958  1
  Tc  Tc34  1  0.981522  0.182687  0.135740  1
  Tc  Tc35  1  0.012375  0.818447  0.635870  1
