# generated using pymatgen
data_Ac3(IrO5)2
_symmetry_space_group_name_H-M   'P 1'
_cell_length_a   5.74027227
_cell_length_b   5.74027561
_cell_length_c   7.35827300
_cell_angle_alpha   72.20982567
_cell_angle_beta   72.20993028
_cell_angle_gamma   89.89171526
_symmetry_Int_Tables_number   1
_chemical_formula_structural   Ac3(IrO5)2
_chemical_formula_sum   'Ac3 Ir2 O10'
_cell_volume   218.70571751
_cell_formula_units_Z   1
loop_
 _symmetry_equiv_pos_site_id
 _symmetry_equiv_pos_as_xyz
  1  'x, y, z'
loop_
 _atom_site_type_symbol
 _atom_site_label
 _atom_site_symmetry_multiplicity
 _atom_site_fract_x
 _atom_site_fract_y
 _atom_site_fract_z
 _atom_site_occupancy
  Ac  Ac0  1  0.000000  0.000000  0.500000  1
  Ac  Ac1  1  0.748064  0.251937  0.999999  1
  Ac  Ac2  1  0.251936  0.748063  0.000001  1
  Ir  Ir3  1  0.631012  0.631014  0.320163  1
  Ir  Ir4  1  0.368988  0.368986  0.679837  1
  O  O5  1  0.399012  0.883508  0.285332  1
  O  O6  1  0.600988  0.116492  0.714668  1
  O  O7  1  0.116491  0.600988  0.714668  1
  O  O8  1  0.883509  0.399012  0.285332  1
  O  O9  1  0.637804  0.637804  0.593374  1
  O  O10  1  0.362196  0.362196  0.406626  1
  O  O11  1  0.674636  0.674636  0.036884  1
  O  O12  1  0.325364  0.325364  0.963116  1
  O  O13  1  0.898034  0.898035  0.219843  1
  O  O14  1  0.101966  0.101965  0.780157  1
