# generated using pymatgen
data_LaPr4Te9
_symmetry_space_group_name_H-M   'P 1'
_cell_length_a   13.60583103
_cell_length_b   13.59917224
_cell_length_c   11.23611701
_cell_angle_alpha   79.64977935
_cell_angle_beta   79.65724085
_cell_angle_gamma   26.75962598
_symmetry_Int_Tables_number   1
_chemical_formula_structural   LaPr4Te9
_chemical_formula_sum   'La2 Pr8 Te18'
_cell_volume   919.97557874
_cell_formula_units_Z   2
loop_
 _symmetry_equiv_pos_site_id
 _symmetry_equiv_pos_as_xyz
  1  'x, y, z'
loop_
 _atom_site_type_symbol
 _atom_site_label
 _atom_site_symmetry_multiplicity
 _atom_site_fract_x
 _atom_site_fract_y
 _atom_site_fract_z
 _atom_site_occupancy
  La  La0  1  0.945743  0.045226  0.240268  1
  La  La1  1  0.146513  0.246878  0.840511  1
  Pr  Pr2  1  0.345033  0.449503  0.437811  1
  Pr  Pr3  1  0.540083  0.651680  0.037038  1
  Pr  Pr4  1  0.752814  0.837385  0.636370  1
  Pr  Pr5  1  0.348470  0.459928  0.963026  1
  Pr  Pr6  1  0.550455  0.654746  0.562673  1
  Pr  Pr7  1  0.752836  0.853369  0.158472  1
  Pr  Pr8  1  0.955074  0.053416  0.758925  1
  Pr  Pr9  1  0.162921  0.247221  0.363541  1
  Te  Te10  1  0.473464  0.572125  0.821707  1
  Te  Te11  1  0.071688  0.177008  0.620101  1
  Te  Te12  1  0.868837  0.979603  0.019260  1
  Te  Te13  1  0.681662  0.763471  0.422224  1
  Te  Te14  1  0.273825  0.375459  0.221496  1
  Te  Te15  1  0.020383  0.130787  0.979990  1
  Te  Te16  1  0.624620  0.726150  0.778510  1
  Te  Te17  1  0.427774  0.526657  0.178626  1
  Te  Te18  1  0.237011  0.318693  0.577471  1
  Te  Te19  1  0.822551  0.927567  0.379483  1
  Te  Te20  1  0.698920  0.300877  0.500806  1
  Te  Te21  1  0.301139  0.900846  0.299518  1
  Te  Te22  1  0.098490  0.700126  0.700618  1
  Te  Te23  1  0.894492  0.494338  0.112412  1
  Te  Te24  1  0.505985  0.105540  0.888209  1
  Te  Te25  1  0.002443  0.603325  0.894114  1
  Te  Te26  1  0.199286  0.800778  0.500369  1
  Te  Te27  1  0.397483  0.997303  0.106449  1
