# generated using pymatgen
data_LiDyCu4
_symmetry_space_group_name_H-M   'P 1'
_cell_length_a   5.03324609
_cell_length_b   5.03324589
_cell_length_c   5.03324600
_cell_angle_alpha   59.99999926
_cell_angle_beta   60.00000057
_cell_angle_gamma   59.99999907
_symmetry_Int_Tables_number   1
_chemical_formula_structural   LiDyCu4
_chemical_formula_sum   'Li1 Dy1 Cu4'
_cell_volume   90.16323126
_cell_formula_units_Z   1
loop_
 _symmetry_equiv_pos_site_id
 _symmetry_equiv_pos_as_xyz
  1  'x, y, z'
loop_
 _atom_site_type_symbol
 _atom_site_label
 _atom_site_symmetry_multiplicity
 _atom_site_fract_x
 _atom_site_fract_y
 _atom_site_fract_z
 _atom_site_occupancy
  Li  Li0  1  0.250000  0.250000  0.250000  1
  Dy  Dy1  1  0.000000  0.000000  0.000000  1
  Cu  Cu2  1  0.623644  0.623644  0.129068  1
  Cu  Cu3  1  0.623644  0.129068  0.623644  1
  Cu  Cu4  1  0.129068  0.623644  0.623644  1
  Cu  Cu5  1  0.623644  0.623644  0.623644  1
