# generated using pymatgen
data_Cs6InSe4Br
_symmetry_space_group_name_H-M   'P 1'
_cell_length_a   11.60722100
_cell_length_b   11.60722240
_cell_length_c   8.70656900
_cell_angle_alpha   90.00000000
_cell_angle_beta   90.00000000
_cell_angle_gamma   120.00000457
_symmetry_Int_Tables_number   1
_chemical_formula_structural   Cs6InSe4Br
_chemical_formula_sum   'Cs12 In2 Se8 Br2'
_cell_volume   1015.86083482
_cell_formula_units_Z   2
loop_
 _symmetry_equiv_pos_site_id
 _symmetry_equiv_pos_as_xyz
  1  'x, y, z'
loop_
 _atom_site_type_symbol
 _atom_site_label
 _atom_site_symmetry_multiplicity
 _atom_site_fract_x
 _atom_site_fract_y
 _atom_site_fract_z
 _atom_site_occupancy
  Cs  Cs0  1  0.138891  0.861109  0.513172  1
  Cs  Cs1  1  0.722215  0.861109  0.513172  1
  Cs  Cs2  1  0.945033  0.472516  0.320621  1
  Cs  Cs3  1  0.527484  0.472516  0.320621  1
  Cs  Cs4  1  0.861109  0.722215  0.013172  1
  Cs  Cs5  1  0.277785  0.138891  0.013172  1
  Cs  Cs6  1  0.527484  0.054967  0.320621  1
  Cs  Cs7  1  0.138891  0.277785  0.513172  1
  Cs  Cs8  1  0.861109  0.138891  0.013172  1
  Cs  Cs9  1  0.054967  0.527484  0.820621  1
  Cs  Cs10  1  0.472516  0.945033  0.820621  1
  Cs  Cs11  1  0.472516  0.527484  0.820621  1
  In  In12  1  0.666667  0.333333  0.709446  1
  In  In13  1  0.333333  0.666667  0.209446  1
  Se  Se14  1  0.416084  0.208042  0.613204  1
  Se  Se15  1  0.583916  0.791958  0.113204  1
  Se  Se16  1  0.666667  0.333333  0.018549  1
  Se  Se17  1  0.791958  0.583916  0.613204  1
  Se  Se18  1  0.208042  0.416084  0.113204  1
  Se  Se19  1  0.333333  0.666667  0.518549  1
  Se  Se20  1  0.208042  0.791958  0.113204  1
  Se  Se21  1  0.791958  0.208042  0.613204  1
  Br  Br22  1  0.000000  0.000000  0.271616  1
  Br  Br23  1  0.000000  0.000000  0.771616  1
