# generated using pymatgen
data_Li4Ca2Sm2Si7Ge
_symmetry_space_group_name_H-M   'P 1'
_cell_length_a   3.83647500
_cell_length_b   7.82592858
_cell_length_c   10.51814392
_cell_angle_alpha   89.98758355
_cell_angle_beta   90.00000000
_cell_angle_gamma   90.00000000
_symmetry_Int_Tables_number   1
_chemical_formula_structural   Li4Ca2Sm2Si7Ge
_chemical_formula_sum   'Li4 Ca2 Sm2 Si7 Ge1'
_cell_volume   315.79652820
_cell_formula_units_Z   1
loop_
 _symmetry_equiv_pos_site_id
 _symmetry_equiv_pos_as_xyz
  1  'x, y, z'
loop_
 _atom_site_type_symbol
 _atom_site_label
 _atom_site_symmetry_multiplicity
 _atom_site_fract_x
 _atom_site_fract_y
 _atom_site_fract_z
 _atom_site_occupancy
  Li  Li0  1  0.250000  0.492144  0.391745  1
  Li  Li1  1  0.250000  0.991600  0.109307  1
  Li  Li2  1  0.750000  0.507421  0.606107  1
  Li  Li3  1  0.750000  0.005138  0.891006  1
  Ca  Ca4  1  0.250000  0.135690  0.632618  1
  Ca  Ca5  1  0.250000  0.641065  0.867536  1
  Sm  Sm6  1  0.750000  0.865588  0.365905  1
  Sm  Sm7  1  0.750000  0.365308  0.135490  1
  Si  Si8  1  0.250000  0.231036  0.935090  1
  Si  Si9  1  0.250000  0.733745  0.567500  1
  Si  Si10  1  0.750000  0.763993  0.072633  1
  Si  Si11  1  0.750000  0.263404  0.428508  1
  Si  Si12  1  0.250000  0.159959  0.318327  1
  Si  Si13  1  0.250000  0.659624  0.182425  1
  Si  Si14  1  0.750000  0.840157  0.673818  1
  Ge  Ge15  1  0.750000  0.344128  0.821987  1
