# generated using pymatgen
data_CsGaGeS4
_symmetry_space_group_name_H-M   'P 1'
_cell_length_a   16.58673200
_cell_length_b   7.00850759
_cell_length_c   7.94178284
_cell_angle_alpha   70.72820615
_cell_angle_beta   90.00000000
_cell_angle_gamma   90.00000000
_symmetry_Int_Tables_number   1
_chemical_formula_structural   CsGaGeS4
_chemical_formula_sum   'Cs4 Ga4 Ge4 S16'
_cell_volume   871.48437757
_cell_formula_units_Z   4
loop_
 _symmetry_equiv_pos_site_id
 _symmetry_equiv_pos_as_xyz
  1  'x, y, z'
loop_
 _atom_site_type_symbol
 _atom_site_label
 _atom_site_symmetry_multiplicity
 _atom_site_fract_x
 _atom_site_fract_y
 _atom_site_fract_z
 _atom_site_occupancy
  Cs  Cs0  1  0.397546  0.958734  0.178028  1
  Cs  Cs1  1  0.897546  0.041266  0.821972  1
  Cs  Cs2  1  0.602594  0.528648  0.826656  1
  Cs  Cs3  1  0.102594  0.471352  0.173344  1
  Ga  Ga4  1  0.584069  0.171841  0.471666  1
  Ga  Ga5  1  0.084069  0.828159  0.528334  1
  Ga  Ga6  1  0.271605  0.593940  0.701745  1
  Ga  Ga7  1  0.771605  0.406060  0.298255  1
  Ge  Ge8  1  0.419167  0.323868  0.538247  1
  Ge  Ge9  1  0.919167  0.676132  0.461753  1
  Ge  Ge10  1  0.726058  0.911182  0.279809  1
  Ge  Ge11  1  0.226058  0.088818  0.720191  1
  S  S12  1  0.598601  0.898265  0.374382  1
  S  S13  1  0.098601  0.101735  0.625618  1
  S  S14  1  0.406296  0.591947  0.627042  1
  S  S15  1  0.906296  0.408053  0.372958  1
  S  S16  1  0.800547  0.788310  0.533106  1
  S  S17  1  0.300547  0.211690  0.466894  1
  S  S18  1  0.199919  0.716369  0.447863  1
  S  S19  1  0.699919  0.283631  0.552137  1
  S  S20  1  0.765828  0.218005  0.107055  1
  S  S21  1  0.265828  0.781995  0.892945  1
  S  S22  1  0.236747  0.277747  0.896836  1
  S  S23  1  0.736747  0.722253  0.103164  1
  S  S24  1  0.999210  0.910756  0.277716  1
  S  S25  1  0.499210  0.089244  0.722284  1
  S  S26  1  0.991812  0.601696  0.713673  1
  S  S27  1  0.491812  0.398304  0.286327  1
