# generated using pymatgen
data_Na4IrO5
_symmetry_space_group_name_H-M   'P 1'
_cell_length_a   5.72396852
_cell_length_b   5.75689823
_cell_length_c   8.56644775
_cell_angle_alpha   101.82916268
_cell_angle_beta   108.99701981
_cell_angle_gamma   102.11201757
_symmetry_Int_Tables_number   1
_chemical_formula_structural   Na4IrO5
_chemical_formula_sum   'Na8 Ir2 O10'
_cell_volume   249.30440010
_cell_formula_units_Z   2
loop_
 _symmetry_equiv_pos_site_id
 _symmetry_equiv_pos_as_xyz
  1  'x, y, z'
loop_
 _atom_site_type_symbol
 _atom_site_label
 _atom_site_symmetry_multiplicity
 _atom_site_fract_x
 _atom_site_fract_y
 _atom_site_fract_z
 _atom_site_occupancy
  Na  Na0  1  0.696532  0.486534  0.902946  1
  Na  Na1  1  0.885656  0.500706  0.297590  1
  Na  Na2  1  0.698755  0.002909  0.400368  1
  Na  Na3  1  0.301245  0.997091  0.599632  1
  Na  Na4  1  0.303468  0.513466  0.097054  1
  Na  Na5  1  0.500000  0.500000  0.500000  1
  Na  Na6  1  0.500000  0.000000  0.000000  1
  Na  Na7  1  0.114344  0.499294  0.702410  1
  Ir  Ir8  1  0.902063  0.993987  0.800171  1
  Ir  Ir9  1  0.097937  0.006013  0.199829  1
  O  O10  1  0.242634  0.214534  0.844716  1
  O  O11  1  0.757366  0.785466  0.155284  1
  O  O12  1  0.907382  0.776126  0.596968  1
  O  O13  1  0.092618  0.223874  0.403032  1
  O  O14  1  0.437251  0.225086  0.241267  1
  O  O15  1  0.562749  0.774914  0.758733  1
  O  O16  1  0.077862  0.804883  0.962559  1
  O  O17  1  0.922138  0.195117  0.037441  1
  O  O18  1  0.258623  0.794158  0.315944  1
  O  O19  1  0.741377  0.205842  0.684056  1
