# generated using pymatgen
data_Dy2Y6Si12IrRh3
_symmetry_space_group_name_H-M   'P 1'
_cell_length_a   8.17114825
_cell_length_b   8.17115306
_cell_length_c   7.94073700
_cell_angle_alpha   90.00190919
_cell_angle_beta   89.99815070
_cell_angle_gamma   120.02852333
_symmetry_Int_Tables_number   1
_chemical_formula_structural   Dy2Y6Si12IrRh3
_chemical_formula_sum   'Dy2 Y6 Si12 Ir1 Rh3'
_cell_volume   459.02145239
_cell_formula_units_Z   1
loop_
 _symmetry_equiv_pos_site_id
 _symmetry_equiv_pos_as_xyz
  1  'x, y, z'
loop_
 _atom_site_type_symbol
 _atom_site_label
 _atom_site_symmetry_multiplicity
 _atom_site_fract_x
 _atom_site_fract_y
 _atom_site_fract_z
 _atom_site_occupancy
  Dy  Dy0  1  0.490825  0.981649  0.749865  1
  Dy  Dy1  1  0.018350  0.509175  0.749865  1
  Y  Y2  1  0.000028  0.999972  0.248950  1
  Y  Y3  1  0.999990  0.000010  0.750320  1
  Y  Y4  1  0.508657  0.491344  0.250167  1
  Y  Y5  1  0.508639  0.017335  0.250169  1
  Y  Y6  1  0.982664  0.491360  0.250171  1
  Y  Y7  1  0.490695  0.509303  0.749877  1
  Si  Si8  1  0.166641  0.833357  0.499387  1
  Si  Si9  1  0.166617  0.333297  0.499300  1
  Si  Si10  1  0.666704  0.833383  0.499300  1
  Si  Si11  1  0.832713  0.167288  0.500453  1
  Si  Si12  1  0.832759  0.665424  0.500306  1
  Si  Si13  1  0.334576  0.167241  0.500306  1
  Si  Si14  1  0.832904  0.167097  0.999532  1
  Si  Si15  1  0.832946  0.665803  0.999665  1
  Si  Si16  1  0.334197  0.167055  0.999665  1
  Si  Si17  1  0.166999  0.833001  0.999558  1
  Si  Si18  1  0.166960  0.333994  0.999657  1
  Si  Si19  1  0.666006  0.833040  0.999657  1
  Ir  Ir20  1  0.333236  0.666764  0.469467  1
  Rh  Rh21  1  0.666822  0.333180  0.533495  1
  Rh  Rh22  1  0.666817  0.333183  0.965756  1
  Rh  Rh23  1  0.333254  0.666747  0.035111  1
