# generated using pymatgen
data_Tb6ScCr(Co4P3)4
_symmetry_space_group_name_H-M   'P 1'
_cell_length_a   3.70713700
_cell_length_b   10.59486500
_cell_length_c   12.28718500
_cell_angle_alpha   90.00000000
_cell_angle_beta   90.00000000
_cell_angle_gamma   90.00000000
_symmetry_Int_Tables_number   1
_chemical_formula_structural   Tb6ScCr(Co4P3)4
_chemical_formula_sum   'Tb6 Sc1 Cr1 Co16 P12'
_cell_volume   482.59904760
_cell_formula_units_Z   1
loop_
 _symmetry_equiv_pos_site_id
 _symmetry_equiv_pos_as_xyz
  1  'x, y, z'
loop_
 _atom_site_type_symbol
 _atom_site_label
 _atom_site_symmetry_multiplicity
 _atom_site_fract_x
 _atom_site_fract_y
 _atom_site_fract_z
 _atom_site_occupancy
  Tb  Tb0  1  0.000000  0.500000  0.527537  1
  Tb  Tb1  1  0.500000  0.000000  0.477485  1
  Tb  Tb2  1  0.500000  0.821422  0.205868  1
  Tb  Tb3  1  0.500000  0.178578  0.205868  1
  Tb  Tb4  1  0.000000  0.682379  0.795627  1
  Tb  Tb5  1  0.000000  0.317621  0.795627  1
  Sc  Sc6  1  0.500000  0.500000  0.152573  1
  Cr  Cr7  1  0.000000  0.000000  0.841635  1
  Co  Co8  1  0.500000  0.500000  0.703221  1
  Co  Co9  1  0.000000  0.000000  0.296863  1
  Co  Co10  1  0.000000  0.500000  0.984282  1
  Co  Co11  1  0.500000  0.000000  0.009816  1
  Co  Co12  1  0.500000  0.326357  0.989851  1
  Co  Co13  1  0.500000  0.673643  0.989851  1
  Co  Co14  1  0.000000  0.162727  0.002676  1
  Co  Co15  1  0.000000  0.837273  0.002676  1
  Co  Co16  1  0.500000  0.294355  0.434412  1
  Co  Co17  1  0.500000  0.705645  0.434412  1
  Co  Co18  1  0.000000  0.202613  0.570718  1
  Co  Co19  1  0.000000  0.797387  0.570718  1
  Co  Co20  1  0.500000  0.880967  0.707459  1
  Co  Co21  1  0.500000  0.119033  0.707459  1
  Co  Co22  1  0.000000  0.622630  0.296802  1
  Co  Co23  1  0.000000  0.377370  0.296802  1
  P  P24  1  0.500000  0.500000  0.883564  1
  P  P25  1  0.000000  0.000000  0.115929  1
  P  P26  1  0.500000  0.500000  0.357274  1
  P  P27  1  0.000000  0.000000  0.655621  1
  P  P28  1  0.500000  0.309182  0.617542  1
  P  P29  1  0.500000  0.690818  0.617542  1
  P  P30  1  0.000000  0.189200  0.386223  1
  P  P31  1  0.000000  0.810800  0.386223  1
  P  P32  1  0.500000  0.850588  0.887849  1
  P  P33  1  0.500000  0.149412  0.887849  1
  P  P34  1  0.000000  0.662216  0.102076  1
  P  P35  1  0.000000  0.337784  0.102076  1
