# generated using pymatgen
data_SmErFe3Re14C3
_symmetry_space_group_name_H-M   'P 1'
_cell_length_a   6.93010225
_cell_length_b   6.93010230
_cell_length_c   6.93010294
_cell_angle_alpha   82.55875491
_cell_angle_beta   82.55874991
_cell_angle_gamma   82.55875088
_symmetry_Int_Tables_number   1
_chemical_formula_structural   SmErFe3Re14C3
_chemical_formula_sum   'Sm1 Er1 Fe3 Re14 C3'
_cell_volume   325.08666416
_cell_formula_units_Z   1
loop_
 _symmetry_equiv_pos_site_id
 _symmetry_equiv_pos_as_xyz
  1  'x, y, z'
loop_
 _atom_site_type_symbol
 _atom_site_label
 _atom_site_symmetry_multiplicity
 _atom_site_fract_x
 _atom_site_fract_y
 _atom_site_fract_z
 _atom_site_occupancy
  Sm  Sm0  1  0.351821  0.351821  0.351821  1
  Er  Er1  1  0.649071  0.649071  0.649071  1
  Fe  Fe2  1  0.000169  0.000169  0.499527  1
  Fe  Fe3  1  0.499527  0.000169  0.000169  1
  Fe  Fe4  1  0.000169  0.499527  0.000169  1
  Re  Re5  1  0.722583  0.278106  0.999550  1
  Re  Re6  1  0.999550  0.722583  0.278106  1
  Re  Re7  1  0.278106  0.999550  0.722583  1
  Re  Re8  1  0.999550  0.278106  0.722583  1
  Re  Re9  1  0.722583  0.999550  0.278106  1
  Re  Re10  1  0.278106  0.722583  0.999550  1
  Re  Re11  1  0.346373  0.346373  0.860477  1
  Re  Re12  1  0.860477  0.346373  0.346373  1
  Re  Re13  1  0.346373  0.860477  0.346373  1
  Re  Re14  1  0.654410  0.654410  0.137741  1
  Re  Re15  1  0.137741  0.654410  0.654410  1
  Re  Re16  1  0.654410  0.137741  0.654410  1
  Re  Re17  1  0.897697  0.897697  0.897697  1
  Re  Re18  1  0.101928  0.101928  0.101928  1
  C  C19  1  0.502544  0.502544  0.994266  1
  C  C20  1  0.994266  0.502544  0.502544  1
  C  C21  1  0.502544  0.994266  0.502544  1
