# generated using pymatgen
data_Ho6Er3LuSn6
_symmetry_space_group_name_H-M   'P 1'
_cell_length_a   8.90189600
_cell_length_b   8.90189680
_cell_length_c   6.48202900
_cell_angle_alpha   90.00000000
_cell_angle_beta   90.00000000
_cell_angle_gamma   119.99999703
_symmetry_Int_Tables_number   1
_chemical_formula_structural   Ho6Er3LuSn6
_chemical_formula_sum   'Ho6 Er3 Lu1 Sn6'
_cell_volume   444.84292287
_cell_formula_units_Z   1
loop_
 _symmetry_equiv_pos_site_id
 _symmetry_equiv_pos_as_xyz
  1  'x, y, z'
loop_
 _atom_site_type_symbol
 _atom_site_label
 _atom_site_symmetry_multiplicity
 _atom_site_fract_x
 _atom_site_fract_y
 _atom_site_fract_z
 _atom_site_occupancy
  Ho  Ho0  1  0.000071  0.761543  0.749956  1
  Ho  Ho1  1  0.000071  0.238528  0.250044  1
  Ho  Ho2  1  0.761472  0.761543  0.250044  1
  Ho  Ho3  1  0.761472  0.999929  0.749956  1
  Ho  Ho4  1  0.238457  0.238528  0.749956  1
  Ho  Ho5  1  0.238457  0.999929  0.250044  1
  Er  Er6  1  0.666667  0.333333  0.000000  1
  Er  Er7  1  0.666667  0.333333  0.500000  1
  Er  Er8  1  0.333333  0.666667  0.000000  1
  Lu  Lu9  1  0.333333  0.666667  0.500000  1
  Sn  Sn10  1  0.395303  0.999772  0.749838  1
  Sn  Sn11  1  0.395303  0.395531  0.250162  1
  Sn  Sn12  1  0.000228  0.604697  0.250162  1
  Sn  Sn13  1  0.000228  0.395531  0.749838  1
  Sn  Sn14  1  0.604469  0.604697  0.749838  1
  Sn  Sn15  1  0.604469  0.999772  0.250162  1
