# generated using pymatgen
data_La3Bi(SO6)2
_symmetry_space_group_name_H-M   'P 1'
_cell_length_a   4.31021431
_cell_length_b   7.54767244
_cell_length_c   8.40148745
_cell_angle_alpha   106.20029678
_cell_angle_beta   90.41045900
_cell_angle_gamma   106.35336759
_symmetry_Int_Tables_number   1
_chemical_formula_structural   La3Bi(SO6)2
_chemical_formula_sum   'La3 Bi1 S2 O12'
_cell_volume   250.75454926
_cell_formula_units_Z   1
loop_
 _symmetry_equiv_pos_site_id
 _symmetry_equiv_pos_as_xyz
  1  'x, y, z'
loop_
 _atom_site_type_symbol
 _atom_site_label
 _atom_site_symmetry_multiplicity
 _atom_site_fract_x
 _atom_site_fract_y
 _atom_site_fract_z
 _atom_site_occupancy
  La  La0  1  0.326431  0.670370  0.416053  1
  La  La1  1  0.337665  0.667959  0.918545  1
  La  La2  1  0.659716  0.329667  0.082239  1
  Bi  Bi3  1  0.675172  0.354570  0.588456  1
  S  S4  1  0.942303  0.997555  0.752668  1
  S  S5  1  0.057099  0.998714  0.246272  1
  O  O6  1  0.764039  0.505351  0.870828  1
  O  O7  1  0.230872  0.494290  0.124142  1
  O  O8  1  0.267500  0.497199  0.623381  1
  O  O9  1  0.742211  0.508782  0.383143  1
  O  O10  1  0.739220  0.987486  0.604653  1
  O  O11  1  0.254091  0.997183  0.392083  1
  O  O12  1  0.735374  0.998044  0.896144  1
  O  O13  1  0.264290  0.994996  0.102783  1
  O  O14  1  0.216499  0.178294  0.799518  1
  O  O15  1  0.774043  0.820105  0.199363  1
  O  O16  1  0.056565  0.822478  0.715043  1
  O  O17  1  0.956910  0.176959  0.284684  1
