# generated using pymatgen
data_Ti12Mn3I16
_symmetry_space_group_name_H-M   'P 1'
_cell_length_a   8.43058829
_cell_length_b   11.88679146
_cell_length_c   12.53020125
_cell_angle_alpha   118.19964646
_cell_angle_beta   98.89669404
_cell_angle_gamma   100.92978302
_symmetry_Int_Tables_number   1
_chemical_formula_structural   Ti12Mn3I16
_chemical_formula_sum   'Ti12 Mn3 I16'
_cell_volume   1042.38447550
_cell_formula_units_Z   1
loop_
 _symmetry_equiv_pos_site_id
 _symmetry_equiv_pos_as_xyz
  1  'x, y, z'
loop_
 _atom_site_type_symbol
 _atom_site_label
 _atom_site_symmetry_multiplicity
 _atom_site_fract_x
 _atom_site_fract_y
 _atom_site_fract_z
 _atom_site_occupancy
  Ti  Ti0  1  0.099894  0.295114  0.377811  1
  Ti  Ti1  1  0.900106  0.704886  0.622189  1
  Ti  Ti2  1  0.759029  0.533857  0.338944  1
  Ti  Ti3  1  0.240971  0.466143  0.661056  1
  Ti  Ti4  1  0.270297  0.706041  0.629802  1
  Ti  Ti5  1  0.729703  0.293959  0.370198  1
  Ti  Ti6  1  0.134333  0.532432  0.349778  1
  Ti  Ti7  1  0.865667  0.467568  0.650222  1
  Ti  Ti8  1  0.410013  0.375151  0.299456  1
  Ti  Ti9  1  0.589987  0.624849  0.700544  1
  Ti  Ti10  1  0.470110  0.326281  0.519721  1
  Ti  Ti11  1  0.529890  0.673719  0.480279  1
  Mn  Mn12  1  0.000000  0.500000  0.500000  1
  Mn  Mn13  1  0.338079  0.505810  0.492181  1
  Mn  Mn14  1  0.661922  0.494190  0.507819  1
  I  I15  1  0.386637  0.731985  0.868485  1
  I  I16  1  0.613363  0.268015  0.131515  1
  I  I17  1  0.180760  0.945549  0.774059  1
  I  I18  1  0.819240  0.054451  0.225941  1
  I  I19  1  0.343492  0.112108  0.263018  1
  I  I20  1  0.656508  0.887892  0.736982  1
  I  I21  1  0.551753  0.438242  0.787434  1
  I  I22  1  0.448247  0.561758  0.212566  1
  I  I23  1  0.297133  0.813699  0.465957  1
  I  I24  1  0.702867  0.186301  0.534043  1
  I  I25  1  0.160482  0.183861  0.531593  1
  I  I26  1  0.839518  0.816139  0.468407  1
  I  I27  1  0.930272  0.569134  0.170507  1
  I  I28  1  0.069728  0.430866  0.829493  1
  I  I29  1  0.921355  0.727389  0.864187  1
  I  I30  1  0.078645  0.272611  0.135813  1
