# generated using pymatgen
data_LiCeDyAgAs4
_symmetry_space_group_name_H-M   'P 1'
_cell_length_a   3.99059619
_cell_length_b   3.99059517
_cell_length_c   20.75378151
_cell_angle_alpha   90.03128435
_cell_angle_beta   90.03128487
_cell_angle_gamma   89.99739688
_symmetry_Int_Tables_number   1
_chemical_formula_structural   LiCeDyAgAs4
_chemical_formula_sum   'Li2 Ce2 Dy2 Ag2 As8'
_cell_volume   330.50083846
_cell_formula_units_Z   2
loop_
 _symmetry_equiv_pos_site_id
 _symmetry_equiv_pos_as_xyz
  1  'x, y, z'
loop_
 _atom_site_type_symbol
 _atom_site_label
 _atom_site_symmetry_multiplicity
 _atom_site_fract_x
 _atom_site_fract_y
 _atom_site_fract_z
 _atom_site_occupancy
  Li  Li0  1  0.241425  0.741497  0.749104  1
  Li  Li1  1  0.258503  0.758575  0.250896  1
  Ce  Ce2  1  0.755213  0.754963  0.111909  1
  Ce  Ce3  1  0.245037  0.244787  0.888091  1
  Dy  Dy4  1  0.255076  0.255413  0.387178  1
  Dy  Dy5  1  0.744587  0.744924  0.612822  1
  Ag  Ag6  1  0.758343  0.258278  0.250518  1
  Ag  Ag7  1  0.741722  0.241657  0.749482  1
  As  As8  1  0.744059  0.743618  0.838821  1
  As  As9  1  0.256382  0.255941  0.161179  1
  As  As10  1  0.243364  0.243868  0.661944  1
  As  As11  1  0.756132  0.756636  0.338056  1
  As  As12  1  0.251819  0.748181  0.000000  1
  As  As13  1  0.247500  0.752500  0.500000  1
  As  As14  1  0.748255  0.251745  0.000000  1
  As  As15  1  0.752585  0.247415  0.500000  1
