# generated using pymatgen
data_Cs4SmPaCl12
_symmetry_space_group_name_H-M   'P 1'
_cell_length_a   13.75118184
_cell_length_b   13.75118153
_cell_length_c   13.75118100
_cell_angle_alpha   131.87221395
_cell_angle_beta   131.87221282
_cell_angle_gamma   70.43092942
_symmetry_Int_Tables_number   1
_chemical_formula_structural   Cs4SmPaCl12
_chemical_formula_sum   'Cs8 Sm2 Pa2 Cl24'
_cell_volume   1412.84739471
_cell_formula_units_Z   2
loop_
 _symmetry_equiv_pos_site_id
 _symmetry_equiv_pos_as_xyz
  1  'x, y, z'
loop_
 _atom_site_type_symbol
 _atom_site_label
 _atom_site_symmetry_multiplicity
 _atom_site_fract_x
 _atom_site_fract_y
 _atom_site_fract_z
 _atom_site_occupancy
  Cs  Cs0  1  0.375001  0.833919  0.958918  1
  Cs  Cs1  1  0.583919  0.625001  0.458918  1
  Cs  Cs2  1  0.875002  0.833923  0.458922  1
  Cs  Cs3  1  0.583923  0.125002  0.958922  1
  Cs  Cs4  1  0.874998  0.416077  0.041078  1
  Cs  Cs5  1  0.166077  0.124998  0.541078  1
  Cs  Cs6  1  0.374999  0.416081  0.541082  1
  Cs  Cs7  1  0.166081  0.624999  0.041082  1
  Sm  Sm8  1  0.499999  0.500001  0.000000  1
  Sm  Sm9  1  0.250001  0.749999  0.500000  1
  Pa  Pa10  1  0.000166  0.999834  0.000000  1
  Pa  Pa11  1  0.749834  0.250166  0.500000  1
  Cl  Cl12  1  0.738206  0.496705  0.241464  1
  Cl  Cl13  1  0.503295  0.261794  0.758536  1
  Cl  Cl14  1  0.379004  0.379004  0.999978  1
  Cl  Cl15  1  0.129004  0.629004  0.499978  1
  Cl  Cl16  1  0.370996  0.870996  0.500022  1
  Cl  Cl17  1  0.620996  0.620996  0.000022  1
  Cl  Cl18  1  0.113883  0.113868  0.000023  1
  Cl  Cl19  1  0.863868  0.363883  0.500023  1
  Cl  Cl20  1  0.636117  0.136132  0.499977  1
  Cl  Cl21  1  0.886132  0.886117  0.999977  1
  Cl  Cl22  1  0.228836  0.000411  0.228406  1
  Cl  Cl23  1  0.750415  0.022029  0.271608  1
  Cl  Cl24  1  0.503300  0.744768  0.241504  1
  Cl  Cl25  1  0.521164  0.249589  0.271594  1
  Cl  Cl26  1  0.977971  0.249585  0.728392  1
  Cl  Cl27  1  0.999585  0.227971  0.228392  1
  Cl  Cl28  1  0.999589  0.771164  0.771594  1
  Cl  Cl29  1  0.772029  0.000415  0.771608  1
  Cl  Cl30  1  0.750411  0.478836  0.728406  1
  Cl  Cl31  1  0.246700  0.505232  0.258496  1
  Cl  Cl32  1  0.246705  0.988206  0.741464  1
  Cl  Cl33  1  0.011794  0.753295  0.258536  1
  Cl  Cl34  1  0.494768  0.753300  0.741504  1
  Cl  Cl35  1  0.255232  0.496700  0.758496  1
