# generated using pymatgen
data_V4CrFe
_symmetry_space_group_name_H-M   'P 1'
_cell_length_a   2.92053872
_cell_length_b   6.49106990
_cell_length_c   4.87791668
_cell_angle_alpha   82.35305065
_cell_angle_beta   72.45567174
_cell_angle_gamma   116.49638551
_symmetry_Int_Tables_number   1
_chemical_formula_structural   V4CrFe
_chemical_formula_sum   'V4 Cr1 Fe1'
_cell_volume   74.93090125
_cell_formula_units_Z   1
loop_
 _symmetry_equiv_pos_site_id
 _symmetry_equiv_pos_as_xyz
  1  'x, y, z'
loop_
 _atom_site_type_symbol
 _atom_site_label
 _atom_site_symmetry_multiplicity
 _atom_site_fract_x
 _atom_site_fract_y
 _atom_site_fract_z
 _atom_site_occupancy
  V  V0  1  0.367076  0.592226  0.695633  1
  V  V1  1  0.879626  0.429272  0.345033  1
  V  V2  1  0.374084  0.928732  0.350918  1
  V  V3  1  0.862750  0.091783  0.701592  1
  Cr  Cr4  1  0.371440  0.260553  0.023222  1
  Fe  Fe5  1  0.870341  0.760595  0.023196  1
