# generated using pymatgen
data_Tb16Tl3In(PdRh)2
_symmetry_space_group_name_H-M   'P 1'
_cell_length_a   9.75720731
_cell_length_b   9.74957868
_cell_length_c   9.75691717
_cell_angle_alpha   60.02487729
_cell_angle_beta   60.10730756
_cell_angle_gamma   60.02585879
_symmetry_Int_Tables_number   1
_chemical_formula_structural   Tb16Tl3In(PdRh)2
_chemical_formula_sum   'Tb16 Tl3 In1 Pd2 Rh2'
_cell_volume   657.09271979
_cell_formula_units_Z   1
loop_
 _symmetry_equiv_pos_site_id
 _symmetry_equiv_pos_as_xyz
  1  'x, y, z'
loop_
 _atom_site_type_symbol
 _atom_site_label
 _atom_site_symmetry_multiplicity
 _atom_site_fract_x
 _atom_site_fract_y
 _atom_site_fract_z
 _atom_site_occupancy
  Tb  Tb0  1  0.810936  0.810139  0.193831  1
  Tb  Tb1  1  0.810723  0.189946  0.809385  1
  Tb  Tb2  1  0.193671  0.184720  0.810552  1
  Tb  Tb3  1  0.648486  0.049015  0.648088  1
  Tb  Tb4  1  0.061042  0.063475  0.435839  1
  Tb  Tb5  1  0.436207  0.439954  0.061297  1
  Tb  Tb6  1  0.648486  0.654412  0.648088  1
  Tb  Tb7  1  0.810936  0.185094  0.193831  1
  Tb  Tb8  1  0.193671  0.811056  0.810552  1
  Tb  Tb9  1  0.055684  0.650405  0.643507  1
  Tb  Tb10  1  0.436207  0.062543  0.061297  1
  Tb  Tb11  1  0.437294  0.062784  0.437137  1
  Tb  Tb12  1  0.060770  0.438589  0.062052  1
  Tb  Tb13  1  0.643711  0.650229  0.055830  1
  Tb  Tb14  1  0.188610  0.811498  0.188395  1
  Tb  Tb15  1  0.061042  0.439645  0.435839  1
  Tl  Tl16  1  0.416097  0.414192  0.414993  1
  Tl  Tl17  1  0.416872  0.414459  0.754208  1
  Tl  Tl18  1  0.416097  0.754716  0.414993  1
  In  In19  1  0.750535  0.416072  0.417319  1
  Pd  Pd20  1  0.857457  0.430489  0.857480  1
  Pd  Pd21  1  0.857457  0.854576  0.857480  1
  Rh  Rh22  1  0.858597  0.856032  0.429340  1
  Rh  Rh23  1  0.429411  0.855961  0.858667  1
