# generated using pymatgen
data_BaMoOF4
_symmetry_space_group_name_H-M   'P 1'
_cell_length_a   5.50304000
_cell_length_b   5.76503800
_cell_length_c   14.21519400
_cell_angle_alpha   90.00000000
_cell_angle_beta   90.00000000
_cell_angle_gamma   90.00000000
_symmetry_Int_Tables_number   1
_chemical_formula_structural   BaMoOF4
_chemical_formula_sum   'Ba4 Mo4 O4 F16'
_cell_volume   450.98036618
_cell_formula_units_Z   4
loop_
 _symmetry_equiv_pos_site_id
 _symmetry_equiv_pos_as_xyz
  1  'x, y, z'
loop_
 _atom_site_type_symbol
 _atom_site_label
 _atom_site_symmetry_multiplicity
 _atom_site_fract_x
 _atom_site_fract_y
 _atom_site_fract_z
 _atom_site_occupancy
  Ba  Ba0  1  0.260333  0.750000  0.596741  1
  Ba  Ba1  1  0.260333  0.250000  0.903259  1
  Ba  Ba2  1  0.739667  0.250000  0.403259  1
  Ba  Ba3  1  0.739667  0.750000  0.096741  1
  Mo  Mo4  1  0.189572  0.750000  0.326437  1
  Mo  Mo5  1  0.189572  0.250000  0.173563  1
  Mo  Mo6  1  0.810428  0.250000  0.673563  1
  Mo  Mo7  1  0.810428  0.750000  0.826437  1
  O  O8  1  0.050935  0.500000  0.250000  1
  O  O9  1  0.949065  0.000000  0.750000  1
  O  O10  1  0.949065  0.500000  0.750000  1
  O  O11  1  0.050935  0.000000  0.250000  1
  F  F12  1  0.109142  0.750000  0.915440  1
  F  F13  1  0.109142  0.250000  0.584560  1
  F  F14  1  0.890858  0.250000  0.084560  1
  F  F15  1  0.890858  0.750000  0.415440  1
  F  F16  1  0.331139  0.517540  0.422447  1
  F  F17  1  0.331139  0.482460  0.077553  1
  F  F18  1  0.668861  0.017540  0.577553  1
  F  F19  1  0.668861  0.982460  0.922447  1
  F  F20  1  0.668861  0.482460  0.577553  1
  F  F21  1  0.668861  0.517540  0.922447  1
  F  F22  1  0.331139  0.982460  0.422447  1
  F  F23  1  0.331139  0.017540  0.077553  1
  F  F24  1  0.512073  0.750000  0.254931  1
  F  F25  1  0.512073  0.250000  0.245069  1
  F  F26  1  0.487927  0.250000  0.745069  1
  F  F27  1  0.487927  0.750000  0.754931  1
