# generated using pymatgen
data_Dy2Zn4Ru
_symmetry_space_group_name_H-M   'P 1'
_cell_length_a   6.96611300
_cell_length_b   6.96611300
_cell_length_c   5.31548600
_cell_angle_alpha   90.00000000
_cell_angle_beta   90.00000000
_cell_angle_gamma   90.00000000
_symmetry_Int_Tables_number   1
_chemical_formula_structural   Dy2Zn4Ru
_chemical_formula_sum   'Dy4 Zn8 Ru2'
_cell_volume   257.94315569
_cell_formula_units_Z   2
loop_
 _symmetry_equiv_pos_site_id
 _symmetry_equiv_pos_as_xyz
  1  'x, y, z'
loop_
 _atom_site_type_symbol
 _atom_site_label
 _atom_site_symmetry_multiplicity
 _atom_site_fract_x
 _atom_site_fract_y
 _atom_site_fract_z
 _atom_site_occupancy
  Dy  Dy0  1  0.000000  0.500000  0.767759  1
  Dy  Dy1  1  0.000000  0.000000  0.000000  1
  Dy  Dy2  1  0.500000  0.000000  0.232241  1
  Dy  Dy3  1  0.500000  0.500000  0.000000  1
  Zn  Zn4  1  0.187332  0.687332  0.290961  1
  Zn  Zn5  1  0.812668  0.687332  0.290961  1
  Zn  Zn6  1  0.812668  0.312668  0.290961  1
  Zn  Zn7  1  0.312668  0.187332  0.709039  1
  Zn  Zn8  1  0.187332  0.312668  0.290961  1
  Zn  Zn9  1  0.687332  0.187332  0.709039  1
  Zn  Zn10  1  0.687332  0.812668  0.709039  1
  Zn  Zn11  1  0.312668  0.812668  0.709039  1
  Ru  Ru12  1  0.500000  0.500000  0.500000  1
  Ru  Ru13  1  0.000000  0.000000  0.500000  1
