# generated using pymatgen
data_Y2HoTm3(Si3Ru)8
_symmetry_space_group_name_H-M   'P 1'
_cell_length_a   10.10667486
_cell_length_b   10.10672488
_cell_length_c   8.12192026
_cell_angle_alpha   89.94108466
_cell_angle_beta   90.05771971
_cell_angle_gamma   132.61591672
_symmetry_Int_Tables_number   1
_chemical_formula_structural   Y2HoTm3(Si3Ru)8
_chemical_formula_sum   'Y2 Ho1 Tm3 Si24 Ru8'
_cell_volume   610.52200083
_cell_formula_units_Z   1
loop_
 _symmetry_equiv_pos_site_id
 _symmetry_equiv_pos_as_xyz
  1  'x, y, z'
loop_
 _atom_site_type_symbol
 _atom_site_label
 _atom_site_symmetry_multiplicity
 _atom_site_fract_x
 _atom_site_fract_y
 _atom_site_fract_z
 _atom_site_occupancy
  Y  Y0  1  0.997828  0.497863  0.750056  1
  Y  Y1  1  0.502165  0.002195  0.249965  1
  Ho  Ho2  1  0.497050  0.997020  0.750059  1
  Tm  Tm3  1  0.000057  0.999972  0.000026  1
  Tm  Tm4  1  0.499963  0.500056  0.499976  1
  Tm  Tm5  1  0.002615  0.502571  0.249961  1
  Si  Si6  1  0.295474  0.706088  0.999795  1
  Si  Si7  1  0.793762  0.204376  0.500002  1
  Si  Si8  1  0.704381  0.293712  0.999996  1
  Si  Si9  1  0.206058  0.795503  0.500200  1
  Si  Si10  1  0.831839  0.832338  0.333022  1
  Si  Si11  1  0.167957  0.167844  0.667167  1
  Si  Si12  1  0.667858  0.667962  0.832809  1
  Si  Si13  1  0.332330  0.331827  0.167009  1
  Si  Si14  1  0.621057  0.387438  0.228293  1
  Si  Si15  1  0.611077  0.376481  0.771494  1
  Si  Si16  1  0.114645  0.880173  0.728816  1
  Si  Si17  1  0.121215  0.887344  0.272485  1
  Si  Si18  1  0.380252  0.614764  0.771222  1
  Si  Si19  1  0.387216  0.621114  0.227474  1
  Si  Si20  1  0.887564  0.121153  0.271662  1
  Si  Si21  1  0.876400  0.110962  0.728538  1
  Si  Si22  1  0.843641  0.611085  0.005202  1
  Si  Si23  1  0.387553  0.153159  0.994540  1
  Si  Si24  1  0.889077  0.656805  0.503121  1
  Si  Si25  1  0.346775  0.112486  0.496136  1
  Si  Si26  1  0.156820  0.389131  0.996959  1
  Si  Si27  1  0.612434  0.846764  0.003787  1
  Si  Si28  1  0.111131  0.343655  0.494715  1
  Si  Si29  1  0.653151  0.887507  0.505547  1
  Ru  Ru30  1  0.166306  0.828447  0.001130  1
  Ru  Ru31  1  0.671680  0.333770  0.499745  1
  Ru  Ru32  1  0.833796  0.171625  0.000237  1
  Ru  Ru33  1  0.328419  0.666353  0.498879  1
  Ru  Ru34  1  0.625917  0.626685  0.127265  1
  Ru  Ru35  1  0.373839  0.373989  0.872363  1
  Ru  Ru36  1  0.873919  0.873784  0.627695  1
  Ru  Ru37  1  0.126782  0.126001  0.372655  1
