# generated using pymatgen
data_TbAl10FeRh
_symmetry_space_group_name_H-M   'P 1'
_cell_length_a   6.80245898
_cell_length_b   6.80245827
_cell_length_c   9.07986022
_cell_angle_alpha   90.18279324
_cell_angle_beta   89.81721009
_cell_angle_gamma   97.32387485
_symmetry_Int_Tables_number   1
_chemical_formula_structural   TbAl10FeRh
_chemical_formula_sum   'Tb2 Al20 Fe2 Rh2'
_cell_volume   416.72475134
_cell_formula_units_Z   2
loop_
 _symmetry_equiv_pos_site_id
 _symmetry_equiv_pos_as_xyz
  1  'x, y, z'
loop_
 _atom_site_type_symbol
 _atom_site_label
 _atom_site_symmetry_multiplicity
 _atom_site_fract_x
 _atom_site_fract_y
 _atom_site_fract_z
 _atom_site_occupancy
  Tb  Tb0  1  0.872536  0.127464  0.747147  1
  Tb  Tb1  1  0.127464  0.872536  0.252853  1
  Al  Al2  1  0.414047  0.140612  0.744063  1
  Al  Al3  1  0.140612  0.414047  0.255937  1
  Al  Al4  1  0.585953  0.859388  0.255937  1
  Al  Al5  1  0.859388  0.585953  0.744063  1
  Al  Al6  1  0.519076  0.777979  0.743470  1
  Al  Al7  1  0.777979  0.519076  0.256530  1
  Al  Al8  1  0.480924  0.222021  0.256530  1
  Al  Al9  1  0.222021  0.480924  0.743470  1
  Al  Al10  1  0.844037  0.155963  0.402778  1
  Al  Al11  1  0.155963  0.844037  0.597222  1
  Al  Al12  1  0.845937  0.154063  0.103622  1
  Al  Al13  1  0.154063  0.845937  0.896378  1
  Al  Al14  1  0.622825  0.377175  0.949424  1
  Al  Al15  1  0.377175  0.622825  0.050576  1
  Al  Al16  1  0.626140  0.373860  0.545394  1
  Al  Al17  1  0.373860  0.626140  0.454606  1
  Al  Al18  1  0.773680  0.773679  0.000000  1
  Al  Al19  1  0.773939  0.773938  0.500000  1
  Al  Al20  1  0.226320  0.226320  0.000000  1
  Al  Al21  1  0.226061  0.226061  0.500000  1
  Fe  Fe22  1  0.500000  0.000000  0.500000  1
  Fe  Fe23  1  0.000000  0.500000  0.500000  1
  Rh  Rh24  1  0.500000  0.000000  0.000000  1
  Rh  Rh25  1  0.000000  0.500000  0.000000  1
