# generated using pymatgen
data_Dy3Mg3Ag2Ir
_symmetry_space_group_name_H-M   'P 1'
_cell_length_a   7.79653300
_cell_length_b   7.79653270
_cell_length_c   3.91034100
_cell_angle_alpha   90.00000000
_cell_angle_beta   90.00000000
_cell_angle_gamma   120.00000553
_symmetry_Int_Tables_number   1
_chemical_formula_structural   Dy3Mg3Ag2Ir
_chemical_formula_sum   'Dy3 Mg3 Ag2 Ir1'
_cell_volume   205.84876464
_cell_formula_units_Z   1
loop_
 _symmetry_equiv_pos_site_id
 _symmetry_equiv_pos_as_xyz
  1  'x, y, z'
loop_
 _atom_site_type_symbol
 _atom_site_label
 _atom_site_symmetry_multiplicity
 _atom_site_fract_x
 _atom_site_fract_y
 _atom_site_fract_z
 _atom_site_occupancy
  Dy  Dy0  1  0.430803  0.399436  0.500000  1
  Dy  Dy1  1  0.600564  0.031366  0.500000  1
  Dy  Dy2  1  0.968634  0.569197  0.500000  1
  Mg  Mg3  1  0.745947  0.745098  0.000000  1
  Mg  Mg4  1  0.254902  0.000850  0.000000  1
  Mg  Mg5  1  0.999150  0.254053  0.000000  1
  Ag  Ag6  1  0.333333  0.666667  0.000000  1
  Ag  Ag7  1  0.000000  0.000000  0.500000  1
  Ir  Ir8  1  0.666667  0.333333  0.000000  1
