# generated using pymatgen
data_Sr3La(NiAs)4
_symmetry_space_group_name_H-M   'P 1'
_cell_length_a   4.12129800
_cell_length_b   4.12129734
_cell_length_c   17.62123900
_cell_angle_alpha   90.00000000
_cell_angle_beta   90.00000000
_cell_angle_gamma   120.00000531
_symmetry_Int_Tables_number   1
_chemical_formula_structural   Sr3La(NiAs)4
_chemical_formula_sum   'Sr3 La1 Ni4 As4'
_cell_volume   259.20001180
_cell_formula_units_Z   1
loop_
 _symmetry_equiv_pos_site_id
 _symmetry_equiv_pos_as_xyz
  1  'x, y, z'
loop_
 _atom_site_type_symbol
 _atom_site_label
 _atom_site_symmetry_multiplicity
 _atom_site_fract_x
 _atom_site_fract_y
 _atom_site_fract_z
 _atom_site_occupancy
  Sr  Sr0  1  0.000000  0.000000  0.250000  1
  Sr  Sr1  1  0.000000  0.000000  0.997805  1
  Sr  Sr2  1  0.000000  0.000000  0.502195  1
  La  La3  1  0.000000  0.000000  0.750000  1
  Ni  Ni4  1  0.333333  0.666667  0.124121  1
  Ni  Ni5  1  0.666667  0.333333  0.867794  1
  Ni  Ni6  1  0.666667  0.333333  0.632206  1
  Ni  Ni7  1  0.333333  0.666667  0.375879  1
  As  As8  1  0.333333  0.666667  0.629897  1
  As  As9  1  0.666667  0.333333  0.376600  1
  As  As10  1  0.666667  0.333333  0.123400  1
  As  As11  1  0.333333  0.666667  0.870103  1
