# generated using pymatgen
data_Tb2YbEu7Ir4
_symmetry_space_group_name_H-M   'P 1'
_cell_length_a   6.73092891
_cell_length_b   7.47470821
_cell_length_c   8.79547151
_cell_angle_alpha   96.77400175
_cell_angle_beta   112.47722115
_cell_angle_gamma   90.27188334
_symmetry_Int_Tables_number   1
_chemical_formula_structural   Tb2YbEu7Ir4
_chemical_formula_sum   'Tb2 Yb1 Eu7 Ir4'
_cell_volume   405.44429832
_cell_formula_units_Z   1
loop_
 _symmetry_equiv_pos_site_id
 _symmetry_equiv_pos_as_xyz
  1  'x, y, z'
loop_
 _atom_site_type_symbol
 _atom_site_label
 _atom_site_symmetry_multiplicity
 _atom_site_fract_x
 _atom_site_fract_y
 _atom_site_fract_z
 _atom_site_occupancy
  Tb  Tb0  1  0.438818  0.750584  0.001142  1
  Tb  Tb1  1  0.563909  0.249408  0.000963  1
  Yb  Yb2  1  0.977217  0.918113  0.173462  1
  Eu  Eu3  1  0.801434  0.580017  0.824351  1
  Eu  Eu4  1  0.023514  0.078791  0.825911  1
  Eu  Eu5  1  0.199323  0.420852  0.178057  1
  Eu  Eu6  1  0.640043  0.817637  0.433893  1
  Eu  Eu7  1  0.203667  0.684536  0.565168  1
  Eu  Eu8  1  0.360387  0.183038  0.564534  1
  Eu  Eu9  1  0.795721  0.316816  0.433938  1
  Ir  Ir10  1  0.806841  0.574892  0.206159  1
  Ir  Ir11  1  0.598552  0.927317  0.792937  1
  Ir  Ir12  1  0.194791  0.426543  0.793577  1
  Ir  Ir13  1  0.395782  0.071455  0.205908  1
