# generated using pymatgen
data_Yb12Dy8Si15Pt
_symmetry_space_group_name_H-M   'P 1'
_cell_length_a   7.45322256
_cell_length_b   7.77285899
_cell_length_c   15.09243967
_cell_angle_alpha   89.77916404
_cell_angle_beta   90.67473557
_cell_angle_gamma   90.42525679
_symmetry_Int_Tables_number   1
_chemical_formula_structural   Yb12Dy8Si15Pt
_chemical_formula_sum   'Yb12 Dy8 Si15 Pt1'
_cell_volume   874.25710031
_cell_formula_units_Z   1
loop_
 _symmetry_equiv_pos_site_id
 _symmetry_equiv_pos_as_xyz
  1  'x, y, z'
loop_
 _atom_site_type_symbol
 _atom_site_label
 _atom_site_symmetry_multiplicity
 _atom_site_fract_x
 _atom_site_fract_y
 _atom_site_fract_z
 _atom_site_occupancy
  Yb  Yb0  1  0.974478  0.812734  0.405603  1
  Yb  Yb1  1  0.470635  0.683354  0.096825  1
  Yb  Yb2  1  0.523489  0.328402  0.595960  1
  Yb  Yb3  1  0.028482  0.185748  0.902522  1
  Yb  Yb4  1  0.026653  0.185575  0.596137  1
  Yb  Yb5  1  0.530367  0.316242  0.902753  1
  Yb  Yb6  1  0.473693  0.681568  0.405383  1
  Yb  Yb7  1  0.971140  0.816771  0.096917  1
  Yb  Yb8  1  0.353059  0.019607  0.749425  1
  Yb  Yb9  1  0.849734  0.480944  0.745201  1
  Yb  Yb10  1  0.149026  0.519299  0.251143  1
  Yb  Yb11  1  0.646070  0.980899  0.250889  1
  Dy  Dy12  1  0.314212  0.176232  0.120923  1
  Dy  Dy13  1  0.821207  0.326854  0.379394  1
  Dy  Dy14  1  0.183368  0.676757  0.879101  1
  Dy  Dy15  1  0.679672  0.816078  0.620371  1
  Dy  Dy16  1  0.317000  0.177206  0.378134  1
  Dy  Dy17  1  0.814370  0.322337  0.121159  1
  Dy  Dy18  1  0.184677  0.674754  0.619862  1
  Dy  Dy19  1  0.683423  0.823550  0.878959  1
  Si  Si20  1  0.358460  0.966873  0.961191  1
  Si  Si21  1  0.643309  0.035547  0.464086  1
  Si  Si22  1  0.139905  0.467613  0.039252  1
  Si  Si23  1  0.155035  0.463168  0.461481  1
  Si  Si24  1  0.639700  0.032530  0.038884  1
  Si  Si25  1  0.358909  0.968525  0.538521  1
  Si  Si26  1  0.858534  0.532835  0.961272  1
  Si  Si27  1  0.974977  0.883037  0.746796  1
  Si  Si28  1  0.472817  0.618340  0.753509  1
  Si  Si29  1  0.524916  0.382892  0.248244  1
  Si  Si30  1  0.022670  0.115239  0.250215  1
  Si  Si31  1  0.246798  0.393695  0.751079  1
  Si  Si32  1  0.748566  0.105144  0.750427  1
  Si  Si33  1  0.250680  0.894055  0.249826  1
  Si  Si34  1  0.751438  0.606524  0.250977  1
  Pt  Pt35  1  0.858530  0.529071  0.537580  1
