# generated using pymatgen
data_Tb6Ho5In(Hg2Pd)4
_symmetry_space_group_name_H-M   'P 1'
_cell_length_a   13.08881526
_cell_length_b   13.08881575
_cell_length_c   3.71301100
_cell_angle_alpha   90.00000000
_cell_angle_beta   90.00000000
_cell_angle_gamma   112.95841992
_symmetry_Int_Tables_number   1
_chemical_formula_structural   Tb6Ho5In(Hg2Pd)4
_chemical_formula_sum   'Tb6 Ho5 In1 Hg8 Pd4'
_cell_volume   585.71542068
_cell_formula_units_Z   1
loop_
 _symmetry_equiv_pos_site_id
 _symmetry_equiv_pos_as_xyz
  1  'x, y, z'
loop_
 _atom_site_type_symbol
 _atom_site_label
 _atom_site_symmetry_multiplicity
 _atom_site_fract_x
 _atom_site_fract_y
 _atom_site_fract_z
 _atom_site_occupancy
  Tb  Tb0  1  0.167461  0.832539  0.000000  1
  Tb  Tb1  1  0.832539  0.167461  0.000000  1
  Tb  Tb2  1  0.371376  0.628624  0.000000  1
  Tb  Tb3  1  0.628624  0.371376  0.000000  1
  Tb  Tb4  1  0.295665  0.295665  0.000000  1
  Tb  Tb5  1  0.704335  0.704335  0.000000  1
  Ho  Ho6  1  0.413794  0.075109  0.000000  1
  Ho  Ho7  1  0.586206  0.924891  0.000000  1
  Ho  Ho8  1  0.075109  0.413794  0.000000  1
  Ho  Ho9  1  0.924891  0.586206  0.000000  1
  Ho  Ho10  1  0.000000  0.000000  0.000000  1
  In  In11  1  0.500000  0.500000  0.500000  1
  Hg  Hg12  1  0.371227  0.846182  0.500000  1
  Hg  Hg13  1  0.628773  0.153818  0.500000  1
  Hg  Hg14  1  0.846184  0.371227  0.500000  1
  Hg  Hg15  1  0.153816  0.628773  0.500000  1
  Hg  Hg16  1  0.211823  0.061682  0.500000  1
  Hg  Hg17  1  0.788177  0.938318  0.500000  1
  Hg  Hg18  1  0.061681  0.211822  0.500000  1
  Hg  Hg19  1  0.938319  0.788178  0.500000  1
  Pd  Pd20  1  0.448116  0.249752  0.500000  1
  Pd  Pd21  1  0.551884  0.750248  0.500000  1
  Pd  Pd22  1  0.249753  0.448116  0.500000  1
  Pd  Pd23  1  0.750247  0.551884  0.500000  1
