# generated using pymatgen
data_DyTmMn4Fe8P7
_symmetry_space_group_name_H-M   'P 1'
_cell_length_a   9.05669133
_cell_length_b   9.16577507
_cell_length_c   3.60272700
_cell_angle_alpha   90.00000000
_cell_angle_beta   90.00000000
_cell_angle_gamma   120.17978525
_symmetry_Int_Tables_number   1
_chemical_formula_structural   DyTmMn4Fe8P7
_chemical_formula_sum   'Dy1 Tm1 Mn4 Fe8 P7'
_cell_volume   258.53009764
_cell_formula_units_Z   1
loop_
 _symmetry_equiv_pos_site_id
 _symmetry_equiv_pos_as_xyz
  1  'x, y, z'
loop_
 _atom_site_type_symbol
 _atom_site_label
 _atom_site_symmetry_multiplicity
 _atom_site_fract_x
 _atom_site_fract_y
 _atom_site_fract_z
 _atom_site_occupancy
  Dy  Dy0  1  0.331429  0.661483  0.500000  1
  Tm  Tm1  1  0.669469  0.340145  0.000000  1
  Mn  Mn2  1  0.610655  0.048652  0.500000  1
  Mn  Mn3  1  0.123984  0.892606  0.500000  1
  Mn  Mn4  1  0.102609  0.223631  0.500000  1
  Mn  Mn5  1  0.772644  0.876627  0.500000  1
  Fe  Fe6  1  0.377199  0.948193  0.000000  1
  Fe  Fe7  1  0.057148  0.426508  0.000000  1
  Fe  Fe8  1  0.573988  0.627462  0.000000  1
  Fe  Fe9  1  0.881904  0.728529  0.000000  1
  Fe  Fe10  1  0.272184  0.153277  0.000000  1
  Fe  Fe11  1  0.840972  0.119847  0.000000  1
  Fe  Fe12  1  0.949533  0.565691  0.500000  1
  Fe  Fe13  1  0.436468  0.386744  0.500000  1
  P  P14  1  0.109607  0.696736  0.000000  1
  P  P15  1  0.301310  0.410562  0.000000  1
  P  P16  1  0.588115  0.876802  0.000000  1
  P  P17  1  0.712218  0.593607  0.500000  1
  P  P18  1  0.405480  0.127411  0.500000  1
  P  P19  1  0.885696  0.295508  0.500000  1
  P  P20  1  0.997388  0.999979  0.000000  1
