# generated using pymatgen
data_SrSmAg(H6Ir)2
_symmetry_space_group_name_H-M   'P 1'
_cell_length_a   4.95407000
_cell_length_b   4.95406959
_cell_length_c   8.26447000
_cell_angle_alpha   90.00000000
_cell_angle_beta   90.00000000
_cell_angle_gamma   120.00000273
_symmetry_Int_Tables_number   1
_chemical_formula_structural   SrSmAg(H6Ir)2
_chemical_formula_sum   'Sr1 Sm1 Ag1 H12 Ir2'
_cell_volume   175.65878278
_cell_formula_units_Z   1
loop_
 _symmetry_equiv_pos_site_id
 _symmetry_equiv_pos_as_xyz
  1  'x, y, z'
loop_
 _atom_site_type_symbol
 _atom_site_label
 _atom_site_symmetry_multiplicity
 _atom_site_fract_x
 _atom_site_fract_y
 _atom_site_fract_z
 _atom_site_occupancy
  Sr  Sr0  1  0.000000  0.000000  0.046889  1
  Sm  Sm1  1  0.333333  0.666667  0.616908  1
  Ag  Ag2  1  0.666667  0.333333  0.355801  1
  H  H3  1  0.168654  0.831346  0.368545  1
  H  H4  1  0.662693  0.831346  0.368545  1
  H  H5  1  0.168654  0.337307  0.368545  1
  H  H6  1  0.833081  0.166919  0.630696  1
  H  H7  1  0.333838  0.166919  0.630696  1
  H  H8  1  0.833081  0.666162  0.630696  1
  H  H9  1  0.510109  0.020217  0.860570  1
  H  H10  1  0.510109  0.489891  0.860570  1
  H  H11  1  0.979783  0.489891  0.860570  1
  H  H12  1  0.488281  0.976562  0.134500  1
  H  H13  1  0.488281  0.511719  0.134500  1
  H  H14  1  0.023438  0.511719  0.134500  1
  Ir  Ir15  1  0.666667  0.333333  0.739630  1
  Ir  Ir16  1  0.333333  0.666667  0.257840  1
