# generated using pymatgen
data_Ho10HgBi5Se2
_symmetry_space_group_name_H-M   'P 1'
_cell_length_a   9.20611100
_cell_length_b   9.21605657
_cell_length_c   6.61715500
_cell_angle_alpha   90.00000000
_cell_angle_beta   90.00000000
_cell_angle_gamma   120.03575441
_symmetry_Int_Tables_number   1
_chemical_formula_structural   Ho10HgBi5Se2
_chemical_formula_sum   'Ho10 Hg1 Bi5 Se2'
_cell_volume   486.03404992
_cell_formula_units_Z   1
loop_
 _symmetry_equiv_pos_site_id
 _symmetry_equiv_pos_as_xyz
  1  'x, y, z'
loop_
 _atom_site_type_symbol
 _atom_site_label
 _atom_site_symmetry_multiplicity
 _atom_site_fract_x
 _atom_site_fract_y
 _atom_site_fract_z
 _atom_site_occupancy
  Ho  Ho0  1  0.673688  0.335112  0.001753  1
  Ho  Ho1  1  0.326312  0.661425  0.001753  1
  Ho  Ho2  1  0.326312  0.661425  0.498247  1
  Ho  Ho3  1  0.673688  0.335112  0.498247  1
  Ho  Ho4  1  0.747390  0.747764  0.750000  1
  Ho  Ho5  1  0.252610  0.000373  0.750000  1
  Ho  Ho6  1  0.000000  0.253463  0.750000  1
  Ho  Ho7  1  0.246896  0.256360  0.250000  1
  Ho  Ho8  1  0.753104  0.009465  0.250000  1
  Ho  Ho9  1  0.000000  0.741957  0.250000  1
  Hg  Hg10  1  0.000000  0.395892  0.250000  1
  Bi  Bi11  1  0.393679  0.392965  0.750000  1
  Bi  Bi12  1  0.606321  0.999286  0.750000  1
  Bi  Bi13  1  0.000000  0.603924  0.750000  1
  Bi  Bi14  1  0.607442  0.608006  0.250000  1
  Bi  Bi15  1  0.392558  0.000564  0.250000  1
  Se  Se16  1  0.000000  0.998454  0.999842  1
  Se  Se17  1  0.000000  0.998454  0.500158  1
