# generated using pymatgen
data_NdYPPt8
_symmetry_space_group_name_H-M   'P 1'
_cell_length_a   9.14644932
_cell_length_b   9.13514550
_cell_length_c   4.30837800
_cell_angle_alpha   90.00000000
_cell_angle_beta   90.00000000
_cell_angle_gamma   145.52034649
_symmetry_Int_Tables_number   1
_chemical_formula_structural   NdYPPt8
_chemical_formula_sum   'Nd1 Y1 P1 Pt8'
_cell_volume   203.79116189
_cell_formula_units_Z   1
loop_
 _symmetry_equiv_pos_site_id
 _symmetry_equiv_pos_as_xyz
  1  'x, y, z'
loop_
 _atom_site_type_symbol
 _atom_site_label
 _atom_site_symmetry_multiplicity
 _atom_site_fract_x
 _atom_site_fract_y
 _atom_site_fract_z
 _atom_site_occupancy
  Nd  Nd0  1  0.374006  0.620060  0.500000  1
  Y  Y1  1  0.623921  0.373096  0.500000  1
  P  P2  1  0.224398  0.225280  0.000000  1
  Pt  Pt3  1  0.111214  0.892115  0.000000  1
  Pt  Pt4  1  0.888642  0.109127  0.000000  1
  Pt  Pt5  1  0.486969  0.982787  0.000000  1
  Pt  Pt6  1  0.979572  0.488354  0.000000  1
  Pt  Pt7  1  0.193005  0.793726  0.500000  1
  Pt  Pt8  1  0.790612  0.195215  0.500000  1
  Pt  Pt9  1  0.005493  0.004457  0.500000  1
  Pt  Pt10  1  0.635767  0.629381  0.000000  1
