# generated using pymatgen
data_CaTbGaRh3
_symmetry_space_group_name_H-M   'P 1'
_cell_length_a   5.16003000
_cell_length_b   5.16003141
_cell_length_c   5.16002955
_cell_angle_alpha   65.64245127
_cell_angle_beta   65.64244845
_cell_angle_gamma   65.64244352
_symmetry_Int_Tables_number   1
_chemical_formula_structural   CaTbGaRh3
_chemical_formula_sum   'Ca1 Tb1 Ga1 Rh3'
_cell_volume   109.05142210
_cell_formula_units_Z   1
loop_
 _symmetry_equiv_pos_site_id
 _symmetry_equiv_pos_as_xyz
  1  'x, y, z'
loop_
 _atom_site_type_symbol
 _atom_site_label
 _atom_site_symmetry_multiplicity
 _atom_site_fract_x
 _atom_site_fract_y
 _atom_site_fract_z
 _atom_site_occupancy
  Ca  Ca0  1  0.752993  0.752993  0.752993  1
  Tb  Tb1  1  0.495166  0.495166  0.495166  1
  Ga  Ga2  1  0.124865  0.124865  0.124865  1
  Rh  Rh3  1  0.125811  0.625354  0.125811  1
  Rh  Rh4  1  0.125811  0.125811  0.625354  1
  Rh  Rh5  1  0.625354  0.125811  0.125811  1
