# generated using pymatgen
data_Li3B3Pd7Pt2
_symmetry_space_group_name_H-M   'P 1'
_cell_length_a   9.28337769
_cell_length_b   9.31469008
_cell_length_c   2.79933100
_cell_angle_alpha   90.00000000
_cell_angle_beta   90.00000000
_cell_angle_gamma   119.81989831
_symmetry_Int_Tables_number   1
_chemical_formula_structural   Li3B3Pd7Pt2
_chemical_formula_sum   'Li3 B3 Pd7 Pt2'
_cell_volume   210.01224876
_cell_formula_units_Z   1
loop_
 _symmetry_equiv_pos_site_id
 _symmetry_equiv_pos_as_xyz
  1  'x, y, z'
loop_
 _atom_site_type_symbol
 _atom_site_label
 _atom_site_symmetry_multiplicity
 _atom_site_fract_x
 _atom_site_fract_y
 _atom_site_fract_z
 _atom_site_occupancy
  Li  Li0  1  0.003414  0.364415  0.000000  1
  Li  Li1  1  0.633475  0.637550  0.000000  1
  Li  Li2  1  0.363592  0.998297  0.000000  1
  B  B3  1  0.000800  0.999478  0.500000  1
  B  B4  1  0.668071  0.334804  0.000000  1
  B  B5  1  0.337145  0.665889  0.000000  1
  Pd  Pd6  1  0.683233  0.168266  0.500000  1
  Pd  Pd7  1  0.483719  0.315933  0.500000  1
  Pd  Pd8  1  0.832572  0.516613  0.500000  1
  Pd  Pd9  1  0.166033  0.683956  0.500000  1
  Pd  Pd10  1  0.000118  0.823894  0.000000  1
  Pd  Pd11  1  0.173792  0.175885  0.000000  1
  Pd  Pd12  1  0.822789  0.997808  0.000000  1
  Pt  Pt13  1  0.314244  0.480685  0.500000  1
  Pt  Pt14  1  0.517003  0.836526  0.500000  1
