# generated using pymatgen
data_Y3Ho2In4IrPt
_symmetry_space_group_name_H-M   'P 1'
_cell_length_a   3.63259700
_cell_length_b   8.11767514
_cell_length_c   18.27143500
_cell_angle_alpha   89.95768192
_cell_angle_beta   90.00000000
_cell_angle_gamma   90.00000000
_symmetry_Int_Tables_number   1
_chemical_formula_structural   Y3Ho2In4IrPt
_chemical_formula_sum   'Y6 Ho4 In8 Ir2 Pt2'
_cell_volume   538.79235695
_cell_formula_units_Z   2
loop_
 _symmetry_equiv_pos_site_id
 _symmetry_equiv_pos_as_xyz
  1  'x, y, z'
loop_
 _atom_site_type_symbol
 _atom_site_label
 _atom_site_symmetry_multiplicity
 _atom_site_fract_x
 _atom_site_fract_y
 _atom_site_fract_z
 _atom_site_occupancy
  Y  Y0  1  0.000000  0.115371  0.412385  1
  Y  Y1  1  0.000000  0.884629  0.587615  1
  Y  Y2  1  0.000000  0.383028  0.914162  1
  Y  Y3  1  0.000000  0.616972  0.085838  1
  Y  Y4  1  0.000000  0.000000  0.000000  1
  Y  Y5  1  0.000000  0.500000  0.500000  1
  Ho  Ho6  1  0.000000  0.235897  0.221954  1
  Ho  Ho7  1  0.000000  0.764103  0.778046  1
  Ho  Ho8  1  0.000000  0.248582  0.720402  1
  Ho  Ho9  1  0.000000  0.751418  0.279598  1
  In  In10  1  0.500000  0.424729  0.350913  1
  In  In11  1  0.500000  0.575271  0.649087  1
  In  In12  1  0.500000  0.073384  0.850741  1
  In  In13  1  0.500000  0.926616  0.149259  1
  In  In14  1  0.500000  0.292143  0.067020  1
  In  In15  1  0.500000  0.707857  0.932980  1
  In  In16  1  0.500000  0.206994  0.568064  1
  In  In17  1  0.500000  0.793006  0.431936  1
  Ir  Ir18  1  0.500000  0.020378  0.302967  1
  Ir  Ir19  1  0.500000  0.979622  0.697033  1
  Pt  Pt20  1  0.500000  0.478664  0.802412  1
  Pt  Pt21  1  0.500000  0.521336  0.197588  1
