# generated using pymatgen
data_Ho3TmCo12(Ni2P3)4
_symmetry_space_group_name_H-M   'P 1'
_cell_length_a   3.66763200
_cell_length_b   10.23687816
_cell_length_c   11.80134318
_cell_angle_alpha   89.97994011
_cell_angle_beta   90.00000000
_cell_angle_gamma   90.00000000
_symmetry_Int_Tables_number   1
_chemical_formula_structural   Ho3TmCo12(Ni2P3)4
_chemical_formula_sum   'Ho3 Tm1 Co12 Ni8 P12'
_cell_volume   443.08260522
_cell_formula_units_Z   1
loop_
 _symmetry_equiv_pos_site_id
 _symmetry_equiv_pos_as_xyz
  1  'x, y, z'
loop_
 _atom_site_type_symbol
 _atom_site_label
 _atom_site_symmetry_multiplicity
 _atom_site_fract_x
 _atom_site_fract_y
 _atom_site_fract_z
 _atom_site_occupancy
  Ho  Ho0  1  0.250000  0.918339  0.203593  1
  Ho  Ho1  1  0.750000  0.418397  0.296424  1
  Ho  Ho2  1  0.750000  0.081649  0.796281  1
  Tm  Tm3  1  0.250000  0.581496  0.703685  1
  Co  Co4  1  0.250000  0.221737  0.175998  1
  Co  Co5  1  0.250000  0.278578  0.676147  1
  Co  Co6  1  0.750000  0.777793  0.823706  1
  Co  Co7  1  0.750000  0.721596  0.324082  1
  Co  Co8  1  0.250000  0.880517  0.697780  1
  Co  Co9  1  0.250000  0.618959  0.197622  1
  Co  Co10  1  0.750000  0.119003  0.302320  1
  Co  Co11  1  0.750000  0.381656  0.801955  1
  Co  Co12  1  0.250000  0.467486  0.932045  1
  Co  Co13  1  0.250000  0.032759  0.432630  1
  Co  Co14  1  0.750000  0.532890  0.067048  1
  Co  Co15  1  0.750000  0.966731  0.567647  1
  Ni  Ni16  1  0.250000  0.713487  0.989706  1
  Ni  Ni17  1  0.250000  0.786367  0.489779  1
  Ni  Ni18  1  0.750000  0.286657  0.010149  1
  Ni  Ni19  1  0.750000  0.213756  0.510605  1
  Ni  Ni20  1  0.250000  0.408706  0.485017  1
  Ni  Ni21  1  0.250000  0.091580  0.984747  1
  Ni  Ni22  1  0.750000  0.591613  0.516216  1
  Ni  Ni23  1  0.750000  0.908395  0.015083  1
  P  P24  1  0.250000  0.420025  0.112697  1
  P  P25  1  0.250000  0.080064  0.612967  1
  P  P26  1  0.750000  0.579985  0.886374  1
  P  P27  1  0.750000  0.919919  0.387147  1
  P  P28  1  0.250000  0.271741  0.865614  1
  P  P29  1  0.250000  0.228383  0.365693  1
  P  P30  1  0.750000  0.728263  0.134354  1
  P  P31  1  0.750000  0.770815  0.634666  1
  P  P32  1  0.250000  0.604904  0.387520  1
  P  P33  1  0.250000  0.895030  0.887533  1
  P  P34  1  0.750000  0.395779  0.612722  1
  P  P35  1  0.750000  0.104945  0.112447  1
