# generated using pymatgen
data_ErLu3(GaCo)4
_symmetry_space_group_name_H-M   'P 1'
_cell_length_a   4.04952200
_cell_length_b   6.64202871
_cell_length_c   7.59155629
_cell_angle_alpha   89.87853375
_cell_angle_beta   90.00000000
_cell_angle_gamma   90.00000000
_symmetry_Int_Tables_number   1
_chemical_formula_structural   ErLu3(GaCo)4
_chemical_formula_sum   'Er1 Lu3 Ga4 Co4'
_cell_volume   204.18994485
_cell_formula_units_Z   1
loop_
 _symmetry_equiv_pos_site_id
 _symmetry_equiv_pos_as_xyz
  1  'x, y, z'
loop_
 _atom_site_type_symbol
 _atom_site_label
 _atom_site_symmetry_multiplicity
 _atom_site_fract_x
 _atom_site_fract_y
 _atom_site_fract_z
 _atom_site_occupancy
  Er  Er0  1  0.750000  0.474316  0.316770  1
  Lu  Lu1  1  0.250000  0.525884  0.684429  1
  Lu  Lu2  1  0.250000  0.025734  0.816669  1
  Lu  Lu3  1  0.750000  0.974279  0.182836  1
  Ga  Ga4  1  0.750000  0.346509  0.935654  1
  Ga  Ga5  1  0.250000  0.152112  0.437290  1
  Ga  Ga6  1  0.250000  0.654428  0.062946  1
  Ga  Ga7  1  0.750000  0.847824  0.563990  1
  Co  Co8  1  0.750000  0.228612  0.621570  1
  Co  Co9  1  0.250000  0.772315  0.379636  1
  Co  Co10  1  0.750000  0.729280  0.879446  1
  Co  Co11  1  0.250000  0.268708  0.118765  1
