# generated using pymatgen
data_CaDyY6(B6Ru)4
_symmetry_space_group_name_H-M   'P 1'
_cell_length_a   3.67011600
_cell_length_b   9.16708445
_cell_length_c   11.55830106
_cell_angle_alpha   89.89410350
_cell_angle_beta   90.00000000
_cell_angle_gamma   90.00000000
_symmetry_Int_Tables_number   1
_chemical_formula_structural   CaDyY6(B6Ru)4
_chemical_formula_sum   'Ca1 Dy1 Y6 B24 Ru4'
_cell_volume   388.86986011
_cell_formula_units_Z   1
loop_
 _symmetry_equiv_pos_site_id
 _symmetry_equiv_pos_as_xyz
  1  'x, y, z'
loop_
 _atom_site_type_symbol
 _atom_site_label
 _atom_site_symmetry_multiplicity
 _atom_site_fract_x
 _atom_site_fract_y
 _atom_site_fract_z
 _atom_site_occupancy
  Ca  Ca0  1  0.000000  0.323204  0.413829  1
  Dy  Dy1  1  0.000000  0.556205  0.872066  1
  Y  Y2  1  0.000000  0.675359  0.584983  1
  Y  Y3  1  0.000000  0.822994  0.086352  1
  Y  Y4  1  0.000000  0.177435  0.914529  1
  Y  Y5  1  0.000000  0.944123  0.371257  1
  Y  Y6  1  0.000000  0.057747  0.628072  1
  Y  Y7  1  0.000000  0.443134  0.129464  1
  B  B8  1  0.500000  0.554570  0.432472  1
  B  B9  1  0.500000  0.445997  0.567858  1
  B  B10  1  0.500000  0.053381  0.066637  1
  B  B11  1  0.500000  0.945658  0.932311  1
  B  B12  1  0.500000  0.748101  0.419158  1
  B  B13  1  0.500000  0.252582  0.581350  1
  B  B14  1  0.500000  0.247167  0.080351  1
  B  B15  1  0.500000  0.752099  0.919483  1
  B  B16  1  0.500000  0.791384  0.266116  1
  B  B17  1  0.500000  0.209867  0.734161  1
  B  B18  1  0.500000  0.289569  0.233045  1
  B  B19  1  0.500000  0.709404  0.766578  1
  B  B20  1  0.500000  0.632586  0.186027  1
  B  B21  1  0.500000  0.368176  0.814984  1
  B  B22  1  0.500000  0.131333  0.313445  1
  B  B23  1  0.500000  0.868115  0.685468  1
  B  B24  1  0.500000  0.983759  0.211639  1
  B  B25  1  0.500000  0.015969  0.787432  1
  B  B26  1  0.500000  0.484820  0.287676  1
  B  B27  1  0.500000  0.515909  0.712890  1
  B  B28  1  0.500000  0.609050  0.030376  1
  B  B29  1  0.500000  0.391150  0.970331  1
  B  B30  1  0.500000  0.104971  0.470883  1
  B  B31  1  0.500000  0.893713  0.529388  1
  Ru  Ru32  1  0.000000  0.640039  0.320495  1
  Ru  Ru33  1  0.000000  0.362125  0.680682  1
  Ru  Ru34  1  0.000000  0.136419  0.177028  1
  Ru  Ru35  1  0.000000  0.861886  0.821186  1
