# generated using pymatgen
data_Y3Er3Ni19P13Ir
_symmetry_space_group_name_H-M   'P 1'
_cell_length_a   12.70162200
_cell_length_b   12.70162172
_cell_length_c   3.75710100
_cell_angle_alpha   90.00000000
_cell_angle_beta   90.00000000
_cell_angle_gamma   120.00000072
_symmetry_Int_Tables_number   1
_chemical_formula_structural   Y3Er3Ni19P13Ir
_chemical_formula_sum   'Y3 Er3 Ni19 P13 Ir1'
_cell_volume   524.93056024
_cell_formula_units_Z   1
loop_
 _symmetry_equiv_pos_site_id
 _symmetry_equiv_pos_as_xyz
  1  'x, y, z'
loop_
 _atom_site_type_symbol
 _atom_site_label
 _atom_site_symmetry_multiplicity
 _atom_site_fract_x
 _atom_site_fract_y
 _atom_site_fract_z
 _atom_site_occupancy
  Y  Y0  1  0.531089  0.812806  0.500000  1
  Y  Y1  1  0.281718  0.468911  0.500000  1
  Y  Y2  1  0.187194  0.718282  0.500000  1
  Er  Er3  1  0.466618  0.185090  0.000000  1
  Er  Er4  1  0.718471  0.533382  0.000000  1
  Er  Er5  1  0.814910  0.281529  0.000000  1
  Ni  Ni6  1  0.333333  0.666667  0.000000  1
  Ni  Ni7  1  0.195135  0.090630  0.000000  1
  Ni  Ni8  1  0.895496  0.804865  0.000000  1
  Ni  Ni9  1  0.909370  0.104504  0.000000  1
  Ni  Ni10  1  0.850178  0.927919  0.500000  1
  Ni  Ni11  1  0.077741  0.149822  0.500000  1
  Ni  Ni12  1  0.072081  0.922259  0.500000  1
  Ni  Ni13  1  0.437157  0.417100  0.000000  1
  Ni  Ni14  1  0.979944  0.562843  0.000000  1
  Ni  Ni15  1  0.582900  0.020056  0.000000  1
  Ni  Ni16  1  0.564929  0.589255  0.500000  1
  Ni  Ni17  1  0.024325  0.435071  0.500000  1
  Ni  Ni18  1  0.410745  0.975675  0.500000  1
  Ni  Ni19  1  0.078017  0.319938  0.000000  1
  Ni  Ni20  1  0.241920  0.921983  0.000000  1
  Ni  Ni21  1  0.680062  0.758080  0.000000  1
  Ni  Ni22  1  0.931076  0.685682  0.500000  1
  Ni  Ni23  1  0.754606  0.068924  0.500000  1
  Ni  Ni24  1  0.314318  0.245394  0.500000  1
  P  P25  1  0.233411  0.282097  0.000000  1
  P  P26  1  0.048686  0.766589  0.000000  1
  P  P27  1  0.717903  0.951314  0.000000  1
  P  P28  1  0.767591  0.721704  0.500000  1
  P  P29  1  0.954113  0.232409  0.500000  1
  P  P30  1  0.278296  0.045887  0.500000  1
  P  P31  1  0.476685  0.615567  0.000000  1
  P  P32  1  0.138883  0.523315  0.000000  1
  P  P33  1  0.384433  0.861117  0.000000  1
  P  P34  1  0.517837  0.388707  0.500000  1
  P  P35  1  0.870870  0.482163  0.500000  1
  P  P36  1  0.611293  0.129130  0.500000  1
  P  P37  1  0.000000  0.000000  0.000000  1
  Ir  Ir38  1  0.666667  0.333333  0.500000  1
