# generated using pymatgen
data_CsTb6(CI6)2
_symmetry_space_group_name_H-M   'P 1'
_cell_length_a   9.53661200
_cell_length_b   9.54087180
_cell_length_c   9.96706972
_cell_angle_alpha   72.35655276
_cell_angle_beta   71.35663801
_cell_angle_gamma   72.82862248
_symmetry_Int_Tables_number   1
_chemical_formula_structural   CsTb6(CI6)2
_chemical_formula_sum   'Cs1 Tb6 C2 I12'
_cell_volume   798.87367135
_cell_formula_units_Z   1
loop_
 _symmetry_equiv_pos_site_id
 _symmetry_equiv_pos_as_xyz
  1  'x, y, z'
loop_
 _atom_site_type_symbol
 _atom_site_label
 _atom_site_symmetry_multiplicity
 _atom_site_fract_x
 _atom_site_fract_y
 _atom_site_fract_z
 _atom_site_occupancy
  Cs  Cs0  1  0.999999  0.500000  0.000000  1
  Tb  Tb1  1  0.474237  0.106915  0.196915  1
  Tb  Tb2  1  0.762847  0.030858  0.412995  1
  Tb  Tb3  1  0.586940  0.739759  0.476341  1
  Tb  Tb4  1  0.413061  0.260240  0.523658  1
  Tb  Tb5  1  0.237154  0.969143  0.587005  1
  Tb  Tb6  1  0.525763  0.893085  0.803085  1
  C  C7  1  0.493422  0.024726  0.426796  1
  C  C8  1  0.506578  0.975274  0.573204  1
  I  I9  1  0.797131  0.154983  0.081413  1
  I  I10  1  0.582910  0.782433  0.142177  1
  I  I11  1  0.353229  0.431544  0.222566  1
  I  I12  1  0.137307  0.067834  0.294811  1
  I  I13  1  0.922388  0.721008  0.356796  1
  I  I14  1  0.713877  0.362011  0.432859  1
  I  I15  1  0.286123  0.637989  0.567141  1
  I  I16  1  0.077613  0.278992  0.643204  1
  I  I17  1  0.862692  0.932166  0.705190  1
  I  I18  1  0.646771  0.568457  0.777435  1
  I  I19  1  0.417090  0.217565  0.857822  1
  I  I20  1  0.202870  0.845018  0.918586  1
