# generated using pymatgen
data_Dy2Cr2Co10P7
_symmetry_space_group_name_H-M   'P 1'
_cell_length_a   9.01889558
_cell_length_b   9.00586623
_cell_length_c   3.61577600
_cell_angle_alpha   90.00000000
_cell_angle_beta   90.00000000
_cell_angle_gamma   120.18786558
_symmetry_Int_Tables_number   1
_chemical_formula_structural   Dy2Cr2Co10P7
_chemical_formula_sum   'Dy2 Cr2 Co10 P7'
_cell_volume   253.85500979
_cell_formula_units_Z   1
loop_
 _symmetry_equiv_pos_site_id
 _symmetry_equiv_pos_as_xyz
  1  'x, y, z'
loop_
 _atom_site_type_symbol
 _atom_site_label
 _atom_site_symmetry_multiplicity
 _atom_site_fract_x
 _atom_site_fract_y
 _atom_site_fract_z
 _atom_site_occupancy
  Dy  Dy0  1  0.664560  0.330793  0.000000  1
  Dy  Dy1  1  0.332791  0.665754  0.500000  1
  Cr  Cr2  1  0.098467  0.220344  0.500000  1
  Cr  Cr3  1  0.780844  0.881747  0.500000  1
  Co  Co4  1  0.370777  0.939089  0.000000  1
  Co  Co5  1  0.059711  0.431024  0.000000  1
  Co  Co6  1  0.567626  0.628547  0.000000  1
  Co  Co7  1  0.880990  0.723814  0.000000  1
  Co  Co8  1  0.275918  0.156449  0.000000  1
  Co  Co9  1  0.842892  0.120111  0.000000  1
  Co  Co10  1  0.951557  0.566055  0.500000  1
  Co  Co11  1  0.435192  0.383096  0.500000  1
  Co  Co12  1  0.616136  0.050916  0.500000  1
  Co  Co13  1  0.125556  0.905448  0.500000  1
  P  P14  1  0.111980  0.703359  0.000000  1
  P  P15  1  0.296593  0.408698  0.000000  1
  P  P16  1  0.588824  0.887445  0.000000  1
  P  P17  1  0.709697  0.594532  0.500000  1
  P  P18  1  0.402166  0.111886  0.500000  1
  P  P19  1  0.887329  0.291053  0.500000  1
  P  P20  1  0.000393  0.999841  0.000000  1
