# generated using pymatgen
data_TmPa3MnGa12
_symmetry_space_group_name_H-M   'P 1'
_cell_length_a   7.49854309
_cell_length_b   7.46637062
_cell_length_c   7.46637167
_cell_angle_alpha   109.38376927
_cell_angle_beta   109.55853883
_cell_angle_gamma   109.55853451
_symmetry_Int_Tables_number   1
_chemical_formula_structural   TmPa3MnGa12
_chemical_formula_sum   'Tm1 Pa3 Mn1 Ga12'
_cell_volume   321.44375265
_cell_formula_units_Z   1
loop_
 _symmetry_equiv_pos_site_id
 _symmetry_equiv_pos_as_xyz
  1  'x, y, z'
loop_
 _atom_site_type_symbol
 _atom_site_label
 _atom_site_symmetry_multiplicity
 _atom_site_fract_x
 _atom_site_fract_y
 _atom_site_fract_z
 _atom_site_occupancy
  Tm  Tm0  1  0.500000  0.000000  0.000000  1
  Pa  Pa1  1  0.000000  0.000000  0.500000  1
  Pa  Pa2  1  0.000000  0.500000  0.000000  1
  Pa  Pa3  1  0.500000  0.500000  0.500000  1
  Mn  Mn4  1  0.000000  0.000000  0.000000  1
  Ga  Ga5  1  0.749511  0.249511  0.499023  1
  Ga  Ga6  1  0.749511  0.499023  0.249511  1
  Ga  Ga7  1  0.500000  0.249511  0.750489  1
  Ga  Ga8  1  0.250489  0.500977  0.750489  1
  Ga  Ga9  1  0.250489  0.750489  0.500977  1
  Ga  Ga10  1  0.500000  0.750489  0.249511  1
  Ga  Ga11  1  0.708645  0.710589  0.000000  1
  Ga  Ga12  1  0.291355  0.000000  0.289411  1
  Ga  Ga13  1  0.998056  0.289411  0.289411  1
  Ga  Ga14  1  0.291355  0.289411  0.000000  1
  Ga  Ga15  1  0.708645  0.000000  0.710589  1
  Ga  Ga16  1  0.001944  0.710589  0.710589  1
