# generated using pymatgen
data_Tm4CuTc2Ru5
_symmetry_space_group_name_H-M   'P 1'
_cell_length_a   5.28478275
_cell_length_b   5.28478274
_cell_length_c   8.91185000
_cell_angle_alpha   90.00000000
_cell_angle_beta   90.00000000
_cell_angle_gamma   122.17250203
_symmetry_Int_Tables_number   1
_chemical_formula_structural   Tm4CuTc2Ru5
_chemical_formula_sum   'Tm4 Cu1 Tc2 Ru5'
_cell_volume   210.67977433
_cell_formula_units_Z   1
loop_
 _symmetry_equiv_pos_site_id
 _symmetry_equiv_pos_as_xyz
  1  'x, y, z'
loop_
 _atom_site_type_symbol
 _atom_site_label
 _atom_site_symmetry_multiplicity
 _atom_site_fract_x
 _atom_site_fract_y
 _atom_site_fract_z
 _atom_site_occupancy
  Tm  Tm0  1  0.335071  0.664929  0.434062  1
  Tm  Tm1  1  0.664280  0.335720  0.562728  1
  Tm  Tm2  1  0.664280  0.335720  0.937272  1
  Tm  Tm3  1  0.335071  0.664929  0.065938  1
  Cu  Cu4  1  0.832029  0.167971  0.250000  1
  Tc  Tc5  1  0.172036  0.339161  0.750000  1
  Tc  Tc6  1  0.660839  0.827964  0.750000  1
  Ru  Ru7  1  0.000246  0.999754  0.497959  1
  Ru  Ru8  1  0.000246  0.999754  0.002041  1
  Ru  Ru9  1  0.823038  0.660400  0.250000  1
  Ru  Ru10  1  0.339600  0.176962  0.250000  1
  Ru  Ru11  1  0.173265  0.826735  0.750000  1
