# generated using pymatgen
data_CeHoTaB2Ru5
_symmetry_space_group_name_H-M   'P 1'
_cell_length_a   9.70348249
_cell_length_b   9.70348323
_cell_length_c   3.14187300
_cell_angle_alpha   90.00000000
_cell_angle_beta   90.00000000
_cell_angle_gamma   89.80328017
_symmetry_Int_Tables_number   1
_chemical_formula_structural   CeHoTaB2Ru5
_chemical_formula_sum   'Ce2 Ho2 Ta2 B4 Ru10'
_cell_volume   295.82941373
_cell_formula_units_Z   2
loop_
 _symmetry_equiv_pos_site_id
 _symmetry_equiv_pos_as_xyz
  1  'x, y, z'
loop_
 _atom_site_type_symbol
 _atom_site_label
 _atom_site_symmetry_multiplicity
 _atom_site_fract_x
 _atom_site_fract_y
 _atom_site_fract_z
 _atom_site_occupancy
  Ce  Ce0  1  0.324212  0.824212  0.000000  1
  Ce  Ce1  1  0.675788  0.175788  0.000000  1
  Ho  Ho2  1  0.825134  0.674866  0.000000  1
  Ho  Ho3  1  0.174866  0.325134  0.000000  1
  Ta  Ta4  1  0.500000  0.500000  0.000000  1
  Ta  Ta5  1  0.000000  0.000000  0.000000  1
  B  B6  1  0.623712  0.876288  0.000000  1
  B  B7  1  0.376288  0.123712  0.000000  1
  B  B8  1  0.118390  0.618390  0.000000  1
  B  B9  1  0.881610  0.381610  0.000000  1
  Ru  Ru10  1  0.569623  0.718515  0.500000  1
  Ru  Ru11  1  0.430377  0.281485  0.500000  1
  Ru  Ru12  1  0.071491  0.781505  0.500000  1
  Ru  Ru13  1  0.928509  0.218495  0.500000  1
  Ru  Ru14  1  0.281505  0.571491  0.500000  1
  Ru  Ru15  1  0.718495  0.428509  0.500000  1
  Ru  Ru16  1  0.218515  0.069623  0.500000  1
  Ru  Ru17  1  0.781485  0.930377  0.500000  1
  Ru  Ru18  1  0.500000  0.000000  0.500000  1
  Ru  Ru19  1  0.000000  0.500000  0.500000  1
