# generated using pymatgen
data_Ba10Si17Pt
_symmetry_space_group_name_H-M   'P 1'
_cell_length_a   6.66637220
_cell_length_b   6.66637799
_cell_length_c   17.94090820
_cell_angle_alpha   81.86629555
_cell_angle_beta   81.86628680
_cell_angle_gamma   100.52700302
_symmetry_Int_Tables_number   1
_chemical_formula_structural   Ba10Si17Pt
_chemical_formula_sum   'Ba10 Si17 Pt1'
_cell_volume   764.44422477
_cell_formula_units_Z   1
loop_
 _symmetry_equiv_pos_site_id
 _symmetry_equiv_pos_as_xyz
  1  'x, y, z'
loop_
 _atom_site_type_symbol
 _atom_site_label
 _atom_site_symmetry_multiplicity
 _atom_site_fract_x
 _atom_site_fract_y
 _atom_site_fract_z
 _atom_site_occupancy
  Ba  Ba0  1  0.751468  0.255951  0.998551  1
  Ba  Ba1  1  0.110063  0.579699  0.790285  1
  Ba  Ba2  1  0.285987  0.707605  0.500158  1
  Ba  Ba3  1  0.756530  0.756530  0.647687  1
  Ba  Ba4  1  0.242516  0.242516  0.349488  1
  Ba  Ba5  1  0.579699  0.110063  0.790285  1
  Ba  Ba6  1  0.255951  0.751468  0.998551  1
  Ba  Ba7  1  0.707605  0.285987  0.500158  1
  Ba  Ba8  1  0.419318  0.891885  0.210083  1
  Ba  Ba9  1  0.891885  0.419318  0.210083  1
  Si  Si10  1  0.913855  0.913855  0.261667  1
  Si  Si11  1  0.073260  0.073260  0.735659  1
  Si  Si12  1  0.780262  0.780262  0.932228  1
  Si  Si13  1  0.347122  0.347122  0.647052  1
  Si  Si14  1  0.292612  0.292612  0.936878  1
  Si  Si15  1  0.944000  0.944000  0.127881  1
  Si  Si16  1  0.645952  0.645952  0.356772  1
  Si  Si17  1  0.436337  0.436337  0.140363  1
  Si  Si18  1  0.067675  0.067675  0.868056  1
  Si  Si19  1  0.819893  0.819893  0.450207  1
  Si  Si20  1  0.327610  0.970679  0.643399  1
  Si  Si21  1  0.665839  0.021783  0.357076  1
  Si  Si22  1  0.180485  0.180485  0.549574  1
  Si  Si23  1  0.970679  0.327610  0.643399  1
  Si  Si24  1  0.021783  0.665838  0.357076  1
  Si  Si25  1  0.711750  0.711750  0.070721  1
  Si  Si26  1  0.575129  0.575129  0.854468  1
  Pt  Pt27  1  0.224735  0.224735  0.072197  1
