# generated using pymatgen
data_Rb14Fe5Cu3Se16
_symmetry_space_group_name_H-M   'P 1'
_cell_length_a   10.30779336
_cell_length_b   10.36566195
_cell_length_c   16.88952508
_cell_angle_alpha   66.82866507
_cell_angle_beta   65.81569880
_cell_angle_gamma   48.86349493
_symmetry_Int_Tables_number   1
_chemical_formula_structural   Rb14Fe5Cu3Se16
_chemical_formula_sum   'Rb14 Fe5 Cu3 Se16'
_cell_volume   1219.48231315
_cell_formula_units_Z   1
loop_
 _symmetry_equiv_pos_site_id
 _symmetry_equiv_pos_as_xyz
  1  'x, y, z'
loop_
 _atom_site_type_symbol
 _atom_site_label
 _atom_site_symmetry_multiplicity
 _atom_site_fract_x
 _atom_site_fract_y
 _atom_site_fract_z
 _atom_site_occupancy
  Rb  Rb0  1  0.250555  0.753199  0.747041  1
  Rb  Rb1  1  0.752967  0.236009  0.257482  1
  Rb  Rb2  1  0.244976  0.740151  0.987961  1
  Rb  Rb3  1  0.260761  0.746224  0.507050  1
  Rb  Rb4  1  0.743873  0.261530  0.008953  1
  Rb  Rb5  1  0.740702  0.251211  0.492560  1
  Rb  Rb6  1  0.997103  0.519213  0.609136  1
  Rb  Rb7  1  0.479796  0.006176  0.889303  1
  Rb  Rb8  1  0.005101  0.479876  0.390813  1
  Rb  Rb9  1  0.512505  0.012964  0.111682  1
  Rb  Rb10  1  0.010437  0.506881  0.861114  1
  Rb  Rb11  1  0.493123  0.993769  0.634919  1
  Rb  Rb12  1  0.983863  0.497198  0.141217  1
  Rb  Rb13  1  0.510245  0.003520  0.365797  1
  Fe  Fe14  1  0.426579  0.687978  0.163621  1
  Fe  Fe15  1  0.905629  0.208347  0.778592  1
  Fe  Fe16  1  0.791902  0.094909  0.722011  1
  Fe  Fe17  1  0.098702  0.793856  0.220178  1
  Fe  Fe18  1  0.208932  0.904805  0.275000  1
  Cu  Cu19  1  0.685067  0.436038  0.657384  1
  Cu  Cu20  1  0.558744  0.318530  0.844330  1
  Cu  Cu21  1  0.323776  0.558315  0.339535  1
  Se  Se22  1  0.665363  0.503263  0.793859  1
  Se  Se23  1  0.495857  0.332320  0.709703  1
  Se  Se24  1  0.344309  0.494956  0.203246  1
  Se  Se25  1  0.511873  0.662926  0.285905  1
  Se  Se26  1  0.988574  0.174694  0.627182  1
  Se  Se27  1  0.821092  0.017021  0.872581  1
  Se  Se28  1  0.015483  0.822736  0.372445  1
  Se  Se29  1  0.181480  0.982445  0.125374  1
  Se  Se30  1  0.666201  0.616012  0.044176  1
  Se  Se31  1  0.393172  0.319184  0.458619  1
  Se  Se32  1  0.310082  0.390524  0.963682  1
  Se  Se33  1  0.608161  0.679101  0.539996  1
  Se  Se34  1  0.883702  0.851160  0.681084  1
  Se  Se35  1  0.147191  0.116274  0.821937  1
  Se  Se36  1  0.124148  0.144346  0.316863  1
  Se  Se37  1  0.857973  0.882340  0.177665  1
