# generated using pymatgen
data_EuDy5Ti2(Co4P3)4
_symmetry_space_group_name_H-M   'P 1'
_cell_length_a   3.70625300
_cell_length_b   10.62745900
_cell_length_c   12.31441600
_cell_angle_alpha   90.00000000
_cell_angle_beta   90.00000000
_cell_angle_gamma   90.00000000
_symmetry_Int_Tables_number   1
_chemical_formula_structural   EuDy5Ti2(Co4P3)4
_chemical_formula_sum   'Eu1 Dy5 Ti2 Co16 P12'
_cell_volume   485.04085531
_cell_formula_units_Z   1
loop_
 _symmetry_equiv_pos_site_id
 _symmetry_equiv_pos_as_xyz
  1  'x, y, z'
loop_
 _atom_site_type_symbol
 _atom_site_label
 _atom_site_symmetry_multiplicity
 _atom_site_fract_x
 _atom_site_fract_y
 _atom_site_fract_z
 _atom_site_occupancy
  Eu  Eu0  1  0.000000  0.500000  0.526676  1
  Dy  Dy1  1  0.500000  0.000000  0.475089  1
  Dy  Dy2  1  0.500000  0.820360  0.203710  1
  Dy  Dy3  1  0.500000  0.179640  0.203710  1
  Dy  Dy4  1  0.000000  0.679814  0.796197  1
  Dy  Dy5  1  0.000000  0.320186  0.796197  1
  Ti  Ti6  1  0.500000  0.500000  0.152702  1
  Ti  Ti7  1  0.000000  0.000000  0.846644  1
  Co  Co8  1  0.500000  0.500000  0.704637  1
  Co  Co9  1  0.000000  0.000000  0.297411  1
  Co  Co10  1  0.000000  0.500000  0.987341  1
  Co  Co11  1  0.500000  0.000000  0.012708  1
  Co  Co12  1  0.500000  0.331963  0.993769  1
  Co  Co13  1  0.500000  0.668037  0.993769  1
  Co  Co14  1  0.000000  0.167708  0.006115  1
  Co  Co15  1  0.000000  0.832292  0.006115  1
  Co  Co16  1  0.500000  0.292816  0.431165  1
  Co  Co17  1  0.500000  0.707184  0.431165  1
  Co  Co18  1  0.000000  0.201922  0.568354  1
  Co  Co19  1  0.000000  0.798078  0.568354  1
  Co  Co20  1  0.500000  0.879230  0.706512  1
  Co  Co21  1  0.500000  0.120770  0.706512  1
  Co  Co22  1  0.000000  0.621780  0.293156  1
  Co  Co23  1  0.000000  0.378220  0.293156  1
  P  P24  1  0.500000  0.500000  0.883916  1
  P  P25  1  0.000000  0.000000  0.116612  1
  P  P26  1  0.500000  0.500000  0.351098  1
  P  P27  1  0.000000  0.000000  0.647230  1
  P  P28  1  0.500000  0.306990  0.616196  1
  P  P29  1  0.500000  0.693010  0.616196  1
  P  P30  1  0.000000  0.189569  0.384065  1
  P  P31  1  0.000000  0.810431  0.384065  1
  P  P32  1  0.500000  0.843192  0.892301  1
  P  P33  1  0.500000  0.156808  0.892301  1
  P  P34  1  0.000000  0.657026  0.107428  1
  P  P35  1  0.000000  0.342974  0.107428  1
