# generated using pymatgen
data_Sm2YCBr5
_symmetry_space_group_name_H-M   'P 1'
_cell_length_a   7.43809027
_cell_length_b   9.03290748
_cell_length_c   9.12132384
_cell_angle_alpha   107.36910619
_cell_angle_beta   96.20006598
_cell_angle_gamma   104.62823347
_symmetry_Int_Tables_number   1
_chemical_formula_structural   Sm2YCBr5
_chemical_formula_sum   'Sm4 Y2 C2 Br10'
_cell_volume   554.66350326
_cell_formula_units_Z   2
loop_
 _symmetry_equiv_pos_site_id
 _symmetry_equiv_pos_as_xyz
  1  'x, y, z'
loop_
 _atom_site_type_symbol
 _atom_site_label
 _atom_site_symmetry_multiplicity
 _atom_site_fract_x
 _atom_site_fract_y
 _atom_site_fract_z
 _atom_site_occupancy
  Sm  Sm0  1  0.887255  0.956715  0.230567  1
  Sm  Sm1  1  0.112745  0.043285  0.769433  1
  Sm  Sm2  1  0.029486  0.724003  0.918063  1
  Sm  Sm3  1  0.970514  0.275997  0.081937  1
  Y  Y4  1  0.618015  0.858251  0.810417  1
  Y  Y5  1  0.381985  0.141749  0.189583  1
  C  C6  1  0.906351  0.968378  0.955961  1
  C  C7  1  0.093649  0.031622  0.044039  1
  Br  Br8  1  0.748407  0.915787  0.542822  1
  Br  Br9  1  0.251593  0.084213  0.457178  1
  Br  Br10  1  0.458155  0.819102  0.086945  1
  Br  Br11  1  0.541845  0.180898  0.913055  1
  Br  Br12  1  0.798567  0.261474  0.351584  1
  Br  Br13  1  0.201433  0.738526  0.648416  1
  Br  Br14  1  0.910077  0.629327  0.176686  1
  Br  Br15  1  0.089923  0.370673  0.823314  1
  Br  Br16  1  0.655524  0.546986  0.725466  1
  Br  Br17  1  0.344476  0.453014  0.274534  1
