# generated using pymatgen
data_Dy2Y6Tc3B24Ru
_symmetry_space_group_name_H-M   'P 1'
_cell_length_a   3.68790400
_cell_length_b   9.17259483
_cell_length_c   11.56297718
_cell_angle_alpha   89.93052352
_cell_angle_beta   90.00000000
_cell_angle_gamma   90.00000000
_symmetry_Int_Tables_number   1
_chemical_formula_structural   Dy2Y6Tc3B24Ru
_chemical_formula_sum   'Dy2 Y6 Tc3 B24 Ru1'
_cell_volume   391.14804777
_cell_formula_units_Z   1
loop_
 _symmetry_equiv_pos_site_id
 _symmetry_equiv_pos_as_xyz
  1  'x, y, z'
loop_
 _atom_site_type_symbol
 _atom_site_label
 _atom_site_symmetry_multiplicity
 _atom_site_fract_x
 _atom_site_fract_y
 _atom_site_fract_z
 _atom_site_occupancy
  Dy  Dy0  1  0.000000  0.442895  0.130143  1
  Dy  Dy1  1  0.000000  0.557912  0.868942  1
  Y  Y2  1  0.000000  0.323785  0.414023  1
  Y  Y3  1  0.000000  0.674971  0.584043  1
  Y  Y4  1  0.000000  0.823179  0.087206  1
  Y  Y5  1  0.000000  0.177911  0.914614  1
  Y  Y6  1  0.000000  0.942618  0.370319  1
  Y  Y7  1  0.000000  0.057866  0.630623  1
  Tc  Tc8  1  0.000000  0.638200  0.320530  1
  Tc  Tc9  1  0.000000  0.361843  0.679952  1
  Tc  Tc10  1  0.000000  0.137996  0.178236  1
  B  B11  1  0.500000  0.553032  0.432673  1
  B  B12  1  0.500000  0.446566  0.566944  1
  B  B13  1  0.500000  0.053108  0.066979  1
  B  B14  1  0.500000  0.946077  0.932707  1
  B  B15  1  0.500000  0.748128  0.418551  1
  B  B16  1  0.500000  0.251250  0.581631  1
  B  B17  1  0.500000  0.248852  0.081465  1
  B  B18  1  0.500000  0.751806  0.918233  1
  B  B19  1  0.500000  0.791473  0.265516  1
  B  B20  1  0.500000  0.208895  0.735144  1
  B  B21  1  0.500000  0.291467  0.234477  1
  B  B22  1  0.500000  0.709572  0.765389  1
  B  B23  1  0.500000  0.631109  0.185718  1
  B  B24  1  0.500000  0.369012  0.814670  1
  B  B25  1  0.500000  0.130656  0.313919  1
  B  B26  1  0.500000  0.868670  0.685989  1
  B  B27  1  0.500000  0.982070  0.211705  1
  B  B28  1  0.500000  0.016431  0.788559  1
  B  B29  1  0.500000  0.482465  0.287939  1
  B  B30  1  0.500000  0.517261  0.711561  1
  B  B31  1  0.500000  0.602463  0.028196  1
  B  B32  1  0.500000  0.399179  0.971490  1
  B  B33  1  0.500000  0.101960  0.471905  1
  B  B34  1  0.500000  0.897706  0.528908  1
  Ru  Ru35  1  0.000000  0.861615  0.821100  1
