# generated using pymatgen
data_Y5HoTi2(Al11Ru4)2
_symmetry_space_group_name_H-M   'P 1'
_cell_length_a   8.85984407
_cell_length_b   8.85981849
_cell_length_c   9.54546402
_cell_angle_alpha   89.99391469
_cell_angle_beta   90.00588384
_cell_angle_gamma   120.01379165
_symmetry_Int_Tables_number   1
_chemical_formula_structural   Y5HoTi2(Al11Ru4)2
_chemical_formula_sum   'Y5 Ho1 Ti2 Al22 Ru8'
_cell_volume   648.81100009
_cell_formula_units_Z   1
loop_
 _symmetry_equiv_pos_site_id
 _symmetry_equiv_pos_as_xyz
  1  'x, y, z'
loop_
 _atom_site_type_symbol
 _atom_site_label
 _atom_site_symmetry_multiplicity
 _atom_site_fract_x
 _atom_site_fract_y
 _atom_site_fract_z
 _atom_site_occupancy
  Y  Y0  1  0.193649  0.387250  0.251045  1
  Y  Y1  1  0.806404  0.612610  0.748933  1
  Y  Y2  1  0.612754  0.806355  0.251044  1
  Y  Y3  1  0.387389  0.193598  0.748933  1
  Y  Y4  1  0.193630  0.806360  0.251020  1
  Ho  Ho5  1  0.806079  0.193916  0.748941  1
  Ti  Ti6  1  0.333357  0.666643  0.996583  1
  Ti  Ti7  1  0.666796  0.333205  0.003093  1
  Al  Al8  1  0.666760  0.333241  0.516698  1
  Al  Al9  1  0.333364  0.666639  0.483511  1
  Al  Al10  1  0.161354  0.323039  0.577363  1
  Al  Al11  1  0.838379  0.676823  0.422816  1
  Al  Al12  1  0.676961  0.838646  0.577363  1
  Al  Al13  1  0.840664  0.681404  0.077066  1
  Al  Al14  1  0.323175  0.161620  0.422815  1
  Al  Al15  1  0.159110  0.318532  0.922755  1
  Al  Al16  1  0.161568  0.838430  0.577253  1
  Al  Al17  1  0.318595  0.159337  0.077067  1
  Al  Al18  1  0.838424  0.161576  0.423066  1
  Al  Al19  1  0.681469  0.840888  0.922753  1
  Al  Al20  1  0.840720  0.159284  0.076844  1
  Al  Al21  1  0.159316  0.840681  0.922883  1
  Al  Al22  1  0.560893  0.121771  0.252086  1
  Al  Al23  1  0.439440  0.878454  0.747949  1
  Al  Al24  1  0.878228  0.439107  0.252084  1
  Al  Al25  1  0.121545  0.560560  0.747950  1
  Al  Al26  1  0.560873  0.439128  0.252081  1
  Al  Al27  1  0.439117  0.560883  0.747942  1
  Al  Al28  1  0.999994  0.000010  0.250479  1
  Al  Al29  1  0.999674  0.000323  0.749523  1
  Ru  Ru30  1  0.500230  0.000132  0.999838  1
  Ru  Ru31  1  0.999872  0.499771  0.999840  1
  Ru  Ru32  1  0.500221  0.000141  0.500158  1
  Ru  Ru33  1  0.499978  0.500025  0.000026  1
  Ru  Ru34  1  0.999858  0.499775  0.500159  1
  Ru  Ru35  1  0.500053  0.499946  0.500040  1
  Ru  Ru36  1  0.000048  0.999953  0.000040  1
  Ru  Ru37  1  0.000060  0.999943  0.499961  1
