# generated using pymatgen
data_TmTa(SeO3)4
_symmetry_space_group_name_H-M   'P 1'
_cell_length_a   8.55388400
_cell_length_b   8.84879355
_cell_length_c   8.64309884
_cell_angle_alpha   90.43170169
_cell_angle_beta   90.00000000
_cell_angle_gamma   90.00000000
_symmetry_Int_Tables_number   1
_chemical_formula_structural   TmTa(SeO3)4
_chemical_formula_sum   'Tm2 Ta2 Se8 O24'
_cell_volume   654.19100876
_cell_formula_units_Z   2
loop_
 _symmetry_equiv_pos_site_id
 _symmetry_equiv_pos_as_xyz
  1  'x, y, z'
loop_
 _atom_site_type_symbol
 _atom_site_label
 _atom_site_symmetry_multiplicity
 _atom_site_fract_x
 _atom_site_fract_y
 _atom_site_fract_z
 _atom_site_occupancy
  Tm  Tm0  1  0.000000  0.500000  0.000000  1
  Tm  Tm1  1  0.500000  0.500000  0.500000  1
  Ta  Ta2  1  0.000000  0.000000  0.500000  1
  Ta  Ta3  1  0.500000  0.000000  0.000000  1
  Se  Se4  1  0.332105  0.683464  0.174833  1
  Se  Se5  1  0.832105  0.316536  0.325167  1
  Se  Se6  1  0.693293  0.827275  0.688240  1
  Se  Se7  1  0.193293  0.172725  0.811760  1
  Se  Se8  1  0.667895  0.316536  0.825167  1
  Se  Se9  1  0.167895  0.683464  0.674833  1
  Se  Se10  1  0.306707  0.172725  0.311760  1
  Se  Se11  1  0.806707  0.827275  0.188240  1
  O  O12  1  0.243464  0.565421  0.047172  1
  O  O13  1  0.743464  0.434579  0.452828  1
  O  O14  1  0.776886  0.964635  0.566630  1
  O  O15  1  0.276886  0.035365  0.933370  1
  O  O16  1  0.559127  0.948181  0.781310  1
  O  O17  1  0.470284  0.573352  0.257625  1
  O  O18  1  0.970284  0.426648  0.242375  1
  O  O19  1  0.059127  0.051819  0.718690  1
  O  O20  1  0.953969  0.213555  0.457734  1
  O  O21  1  0.575414  0.735485  0.564667  1
  O  O22  1  0.453969  0.786445  0.042266  1
  O  O23  1  0.075414  0.264515  0.935333  1
  O  O24  1  0.756536  0.434579  0.952828  1
  O  O25  1  0.256536  0.565421  0.547172  1
  O  O26  1  0.223114  0.035365  0.433370  1
  O  O27  1  0.723114  0.964635  0.066630  1
  O  O28  1  0.440873  0.051819  0.218690  1
  O  O29  1  0.529716  0.426648  0.742375  1
  O  O30  1  0.029716  0.573352  0.757625  1
  O  O31  1  0.940873  0.948181  0.281310  1
  O  O32  1  0.046031  0.786445  0.542266  1
  O  O33  1  0.424586  0.264515  0.435333  1
  O  O34  1  0.546031  0.213555  0.957734  1
  O  O35  1  0.924586  0.735485  0.064667  1
