# generated using pymatgen
data_Tm8Cr2B24IrRh
_symmetry_space_group_name_H-M   'P 1'
_cell_length_a   3.57706200
_cell_length_b   9.09040558
_cell_length_c   11.47048343
_cell_angle_alpha   90.19918782
_cell_angle_beta   90.00000000
_cell_angle_gamma   90.00000000
_symmetry_Int_Tables_number   1
_chemical_formula_structural   Tm8Cr2B24IrRh
_chemical_formula_sum   'Tm8 Cr2 B24 Ir1 Rh1'
_cell_volume   372.98281756
_cell_formula_units_Z   1
loop_
 _symmetry_equiv_pos_site_id
 _symmetry_equiv_pos_as_xyz
  1  'x, y, z'
loop_
 _atom_site_type_symbol
 _atom_site_label
 _atom_site_symmetry_multiplicity
 _atom_site_fract_x
 _atom_site_fract_y
 _atom_site_fract_z
 _atom_site_occupancy
  Tm  Tm0  1  0.500000  0.316786  0.410556  1
  Tm  Tm1  1  0.500000  0.683050  0.589248  1
  Tm  Tm2  1  0.500000  0.173590  0.917396  1
  Tm  Tm3  1  0.500000  0.826611  0.082696  1
  Tm  Tm4  1  0.500000  0.440808  0.126574  1
  Tm  Tm5  1  0.500000  0.559717  0.874067  1
  Tm  Tm6  1  0.500000  0.052718  0.628674  1
  Tm  Tm7  1  0.500000  0.946415  0.370932  1
  Cr  Cr8  1  0.500000  0.139109  0.180778  1
  Cr  Cr9  1  0.500000  0.861199  0.818987  1
  B  B10  1  0.000000  0.107157  0.470858  1
  B  B11  1  0.000000  0.892279  0.528970  1
  B  B12  1  0.000000  0.392090  0.970011  1
  B  B13  1  0.000000  0.608429  0.030242  1
  B  B14  1  0.000000  0.131723  0.314638  1
  B  B15  1  0.000000  0.868075  0.685247  1
  B  B16  1  0.000000  0.368354  0.816492  1
  B  B17  1  0.000000  0.631854  0.183417  1
  B  B18  1  0.000000  0.052775  0.067114  1
  B  B19  1  0.000000  0.947443  0.932834  1
  B  B20  1  0.000000  0.446508  0.565870  1
  B  B21  1  0.000000  0.553421  0.433987  1
  B  B22  1  0.000000  0.481154  0.287055  1
  B  B23  1  0.000000  0.519068  0.713133  1
  B  B24  1  0.000000  0.017756  0.787838  1
  B  B25  1  0.000000  0.982242  0.211977  1
  B  B26  1  0.000000  0.246998  0.080588  1
  B  B27  1  0.000000  0.753309  0.919543  1
  B  B28  1  0.000000  0.249632  0.578852  1
  B  B29  1  0.000000  0.750128  0.421173  1
  B  B30  1  0.000000  0.292189  0.234374  1
  B  B31  1  0.000000  0.707888  0.765754  1
  B  B32  1  0.000000  0.207343  0.735117  1
  B  B33  1  0.000000  0.792404  0.264712  1
  Ir  Ir34  1  0.500000  0.362059  0.678467  1
  Rh  Rh35  1  0.500000  0.637718  0.321827  1
