# generated using pymatgen
data_Nd3TlInSnPd3
_symmetry_space_group_name_H-M   'P 1'
_cell_length_a   7.80824822
_cell_length_b   7.81931722
_cell_length_c   4.03801800
_cell_angle_alpha   90.00000000
_cell_angle_beta   90.00000000
_cell_angle_gamma   119.51816254
_symmetry_Int_Tables_number   1
_chemical_formula_structural   Nd3TlInSnPd3
_chemical_formula_sum   'Nd3 Tl1 In1 Sn1 Pd3'
_cell_volume   214.54062961
_cell_formula_units_Z   1
loop_
 _symmetry_equiv_pos_site_id
 _symmetry_equiv_pos_as_xyz
  1  'x, y, z'
loop_
 _atom_site_type_symbol
 _atom_site_label
 _atom_site_symmetry_multiplicity
 _atom_site_fract_x
 _atom_site_fract_y
 _atom_site_fract_z
 _atom_site_occupancy
  Nd  Nd0  1  0.000894  0.591036  0.000000  1
  Nd  Nd1  1  0.410112  0.409784  0.000000  1
  Nd  Nd2  1  0.592003  0.000720  0.000000  1
  Tl  Tl3  1  0.740430  0.740067  0.500000  1
  In  In4  1  0.001699  0.256760  0.500000  1
  Sn  Sn5  1  0.253941  0.001576  0.500000  1
  Pd  Pd6  1  0.663904  0.324997  0.500000  1
  Pd  Pd7  1  0.010368  0.007763  0.000000  1
  Pd  Pd8  1  0.326649  0.667297  0.500000  1
