# generated using pymatgen
data_VSi4Tc
_symmetry_space_group_name_H-M   'P 1'
_cell_length_a   13.02534300
_cell_length_b   4.51796185
_cell_length_c   4.52610500
_cell_angle_alpha   60.18823475
_cell_angle_beta   90.00000000
_cell_angle_gamma   90.00000000
_symmetry_Int_Tables_number   1
_chemical_formula_structural   VSi4Tc
_chemical_formula_sum   'V3 Si12 Tc3'
_cell_volume   231.10408575
_cell_formula_units_Z   3
loop_
 _symmetry_equiv_pos_site_id
 _symmetry_equiv_pos_as_xyz
  1  'x, y, z'
loop_
 _atom_site_type_symbol
 _atom_site_label
 _atom_site_symmetry_multiplicity
 _atom_site_fract_x
 _atom_site_fract_y
 _atom_site_fract_z
 _atom_site_occupancy
  V  V0  1  0.252461  0.000000  0.500000  1
  V  V1  1  0.585089  0.500000  0.500000  1
  V  V2  1  0.079517  0.500000  0.500000  1
  Si  Si3  1  0.920403  0.833770  0.328620  1
  Si  Si4  1  0.415188  0.833515  0.330813  1
  Si  Si5  1  0.747519  0.328604  0.832400  1
  Si  Si6  1  0.247931  0.330367  0.830451  1
  Si  Si7  1  0.582349  0.836264  0.834739  1
  Si  Si8  1  0.086696  0.838406  0.830652  1
  Si  Si9  1  0.920403  0.166230  0.671380  1
  Si  Si10  1  0.415188  0.166485  0.669187  1
  Si  Si11  1  0.747519  0.671396  0.167600  1
  Si  Si12  1  0.247931  0.669633  0.169549  1
  Si  Si13  1  0.582349  0.163736  0.165261  1
  Si  Si14  1  0.086696  0.161594  0.169348  1
  Tc  Tc15  1  0.911174  0.500000  0.000000  1
  Tc  Tc16  1  0.418984  0.500000  0.000000  1
  Tc  Tc17  1  0.752603  0.000000  0.500000  1
