# generated using pymatgen
data_PuTe2IrF24
_symmetry_space_group_name_H-M   'P 1'
_cell_length_a   5.28123073
_cell_length_b   9.10360300
_cell_length_c   10.03106100
_cell_angle_alpha   90.00000000
_cell_angle_beta   90.46741026
_cell_angle_gamma   90.00000000
_symmetry_Int_Tables_number   1
_chemical_formula_structural   PuTe2IrF24
_chemical_formula_sum   'Pu1 Te2 Ir1 F24'
_cell_volume   482.25958956
_cell_formula_units_Z   1
loop_
 _symmetry_equiv_pos_site_id
 _symmetry_equiv_pos_as_xyz
  1  'x, y, z'
loop_
 _atom_site_type_symbol
 _atom_site_label
 _atom_site_symmetry_multiplicity
 _atom_site_fract_x
 _atom_site_fract_y
 _atom_site_fract_z
 _atom_site_occupancy
  Pu  Pu0  1  0.594161  0.250000  0.871961  1
  Te  Te1  1  0.906805  0.250000  0.373271  1
  Te  Te2  1  0.406364  0.750000  0.127242  1
  Ir  Ir3  1  0.093149  0.750000  0.627611  1
  F  F4  1  0.243046  0.604275  0.522069  1
  F  F5  1  0.255454  0.894950  0.021810  1
  F  F6  1  0.943485  0.895757  0.733328  1
  F  F7  1  0.189649  0.250000  0.485812  1
  F  F8  1  0.750362  0.092968  0.985047  1
  F  F9  1  0.556408  0.894843  0.232917  1
  F  F10  1  0.289184  0.250000  0.990932  1
  F  F11  1  0.243046  0.895725  0.522069  1
  F  F12  1  0.756131  0.394757  0.477761  1
  F  F13  1  0.438860  0.407150  0.758746  1
  F  F14  1  0.750362  0.407032  0.985047  1
  F  F15  1  0.807935  0.750000  0.514756  1
  F  F16  1  0.687550  0.750000  0.016064  1
  F  F17  1  0.255454  0.605050  0.021810  1
  F  F18  1  0.438860  0.092850  0.758746  1
  F  F19  1  0.055645  0.394773  0.268465  1
  F  F20  1  0.623656  0.250000  0.260635  1
  F  F21  1  0.556408  0.605157  0.232917  1
  F  F22  1  0.900302  0.250000  0.753479  1
  F  F23  1  0.123650  0.750000  0.237683  1
  F  F24  1  0.055645  0.105227  0.268465  1
  F  F25  1  0.943485  0.604243  0.733328  1
  F  F26  1  0.378814  0.750000  0.740268  1
  F  F27  1  0.756131  0.105243  0.477761  1
