# generated using pymatgen
data_DyCoNiB2C
_symmetry_space_group_name_H-M   'P 1'
_cell_length_a   3.53953908
_cell_length_b   3.53954445
_cell_length_c   5.72606267
_cell_angle_alpha   107.97460138
_cell_angle_beta   107.97456058
_cell_angle_gamma   90.00317408
_symmetry_Int_Tables_number   1
_chemical_formula_structural   DyCoNiB2C
_chemical_formula_sum   'Dy1 Co1 Ni1 B2 C1'
_cell_volume   64.54550825
_cell_formula_units_Z   1
loop_
 _symmetry_equiv_pos_site_id
 _symmetry_equiv_pos_as_xyz
  1  'x, y, z'
loop_
 _atom_site_type_symbol
 _atom_site_label
 _atom_site_symmetry_multiplicity
 _atom_site_fract_x
 _atom_site_fract_y
 _atom_site_fract_z
 _atom_site_occupancy
  Dy  Dy0  1  0.499620  0.500379  0.000000  1
  Co  Co1  1  0.750323  0.249676  0.500000  1
  Ni  Ni2  1  0.250455  0.749544  0.500000  1
  B  B3  1  0.145691  0.145751  0.291942  1
  B  B4  1  0.854248  0.854308  0.708059  1
  C  C5  1  0.999661  0.000339  0.000000  1
