# generated using pymatgen
data_LuTh7Ti8(Si4Mo)4
_symmetry_space_group_name_H-M   'P 1'
_cell_length_a   6.93462071
_cell_length_b   7.16414260
_cell_length_c   13.47337410
_cell_angle_alpha   89.87329818
_cell_angle_beta   89.86418695
_cell_angle_gamma   89.96478200
_symmetry_Int_Tables_number   1
_chemical_formula_structural   LuTh7Ti8(Si4Mo)4
_chemical_formula_sum   'Lu1 Th7 Ti8 Si16 Mo4'
_cell_volume   669.36182529
_cell_formula_units_Z   1
loop_
 _symmetry_equiv_pos_site_id
 _symmetry_equiv_pos_as_xyz
  1  'x, y, z'
loop_
 _atom_site_type_symbol
 _atom_site_label
 _atom_site_symmetry_multiplicity
 _atom_site_fract_x
 _atom_site_fract_y
 _atom_site_fract_z
 _atom_site_occupancy
  Lu  Lu0  1  0.998558  0.170493  0.098430  1
  Th  Th1  1  0.500769  0.333013  0.096496  1
  Th  Th2  1  0.000514  0.167548  0.402655  1
  Th  Th3  1  0.500667  0.667769  0.597174  1
  Th  Th4  1  0.999183  0.830751  0.904724  1
  Th  Th5  1  0.498795  0.668577  0.905461  1
  Th  Th6  1  0.001272  0.831427  0.597213  1
  Th  Th7  1  0.498924  0.331201  0.400994  1
  Ti  Ti8  1  0.835349  0.327575  0.625585  1
  Ti  Ti9  1  0.335530  0.172844  0.875590  1
  Ti  Ti10  1  0.166778  0.673336  0.124752  1
  Ti  Ti11  1  0.666964  0.829922  0.372837  1
  Ti  Ti12  1  0.162290  0.672351  0.372188  1
  Ti  Ti13  1  0.663233  0.827080  0.124310  1
  Ti  Ti14  1  0.835187  0.325006  0.875992  1
  Ti  Ti15  1  0.338097  0.172417  0.625680  1
  Si  Si16  1  0.659453  0.046025  0.544308  1
  Si  Si17  1  0.156580  0.451002  0.959029  1
  Si  Si18  1  0.331928  0.960486  0.046378  1
  Si  Si19  1  0.840458  0.545901  0.454789  1
  Si  Si20  1  0.342060  0.952638  0.454224  1
  Si  Si21  1  0.845628  0.538049  0.046209  1
  Si  Si22  1  0.660014  0.044936  0.957995  1
  Si  Si23  1  0.158747  0.453775  0.544400  1
  Si  Si24  1  0.541060  0.361819  0.751022  1
  Si  Si25  1  0.041894  0.138255  0.750423  1
  Si  Si26  1  0.458508  0.639819  0.249408  1
  Si  Si27  1  0.960389  0.866462  0.246355  1
  Si  Si28  1  0.806746  0.608241  0.751151  1
  Si  Si29  1  0.307089  0.891337  0.751067  1
  Si  Si30  1  0.188390  0.385253  0.245879  1
  Si  Si31  1  0.699530  0.111149  0.246279  1
  Mo  Mo32  1  0.665741  0.009647  0.751828  1
  Mo  Mo33  1  0.166069  0.489503  0.750633  1
  Mo  Mo34  1  0.334587  0.993027  0.248836  1
  Mo  Mo35  1  0.833017  0.511364  0.249704  1
