# generated using pymatgen
data_U6Sb8Pt5Rh
_symmetry_space_group_name_H-M   'P 1'
_cell_length_a   8.42146064
_cell_length_b   8.42180482
_cell_length_c   8.42240157
_cell_angle_alpha   109.40374692
_cell_angle_beta   109.51906224
_cell_angle_gamma   109.49020410
_symmetry_Int_Tables_number   1
_chemical_formula_structural   U6Sb8Pt5Rh
_chemical_formula_sum   'U6 Sb8 Pt5 Rh1'
_cell_volume   459.84319957
_cell_formula_units_Z   1
loop_
 _symmetry_equiv_pos_site_id
 _symmetry_equiv_pos_as_xyz
  1  'x, y, z'
loop_
 _atom_site_type_symbol
 _atom_site_label
 _atom_site_symmetry_multiplicity
 _atom_site_fract_x
 _atom_site_fract_y
 _atom_site_fract_z
 _atom_site_occupancy
  U  U0  1  0.379178  0.251634  0.624015  1
  U  U1  1  0.120546  0.744478  0.872239  1
  U  U2  1  0.627586  0.375902  0.255119  1
  U  U3  1  0.872369  0.127783  0.748419  1
  U  U4  1  0.249990  0.624814  0.375402  1
  U  U5  1  0.750342  0.875479  0.124732  1
  Sb  Sb6  1  0.499294  0.000093  0.822294  1
  Sb  Sb7  1  0.821249  0.497945  0.996015  1
  Sb  Sb8  1  0.000463  0.822818  0.500607  1
  Sb  Sb9  1  0.678849  0.674904  0.676594  1
  Sb  Sb10  1  0.322283  0.499381  0.000122  1
  Sb  Sb11  1  0.501834  0.003858  0.325255  1
  Sb  Sb12  1  0.998186  0.323474  0.502218  1
  Sb  Sb13  1  0.177844  0.177684  0.177049  1
  Pt  Pt14  1  0.874790  0.249753  0.125807  1
  Pt  Pt15  1  0.625071  0.750749  0.375031  1
  Pt  Pt16  1  0.124046  0.874250  0.249044  1
  Pt  Pt17  1  0.375876  0.624890  0.749986  1
  Pt  Pt18  1  0.250027  0.125003  0.874977  1
  Rh  Rh19  1  0.750177  0.375111  0.625076  1
