# generated using pymatgen
data_Ca19Cd2In6N7
_symmetry_space_group_name_H-M   'P 1'
_cell_length_a   10.42783833
_cell_length_b   10.45341477
_cell_length_c   10.45341461
_cell_angle_alpha   60.21893748
_cell_angle_beta   60.08090172
_cell_angle_gamma   60.08090342
_symmetry_Int_Tables_number   1
_chemical_formula_structural   Ca19Cd2In6N7
_chemical_formula_sum   'Ca19 Cd2 In6 N7'
_cell_volume   808.05485814
_cell_formula_units_Z   1
loop_
 _symmetry_equiv_pos_site_id
 _symmetry_equiv_pos_as_xyz
  1  'x, y, z'
loop_
 _atom_site_type_symbol
 _atom_site_label
 _atom_site_symmetry_multiplicity
 _atom_site_fract_x
 _atom_site_fract_y
 _atom_site_fract_z
 _atom_site_occupancy
  Ca  Ca0  1  0.173440  0.499893  0.826245  1
  Ca  Ca1  1  0.500000  0.826573  0.173427  1
  Ca  Ca2  1  0.826560  0.173755  0.500107  1
  Ca  Ca3  1  0.165884  0.834360  0.165640  1
  Ca  Ca4  1  0.826665  0.499716  0.173499  1
  Ca  Ca5  1  0.173335  0.826501  0.500284  1
  Ca  Ca6  1  0.165757  0.166430  0.833570  1
  Ca  Ca7  1  0.173726  0.499578  0.500422  1
  Ca  Ca8  1  0.834116  0.834360  0.165640  1
  Ca  Ca9  1  0.834243  0.166430  0.833570  1
  Ca  Ca10  1  0.499880  0.826501  0.500284  1
  Ca  Ca11  1  0.500000  0.499879  0.500121  1
  Ca  Ca12  1  0.500120  0.499716  0.173499  1
  Ca  Ca13  1  0.165827  0.834660  0.833687  1
  Ca  Ca14  1  0.500000  0.173779  0.826221  1
  Ca  Ca15  1  0.499578  0.173755  0.500107  1
  Ca  Ca16  1  0.826274  0.499578  0.500422  1
  Ca  Ca17  1  0.834173  0.166313  0.165340  1
  Ca  Ca18  1  0.500422  0.499893  0.826245  1
  Cd  Cd19  1  0.174607  0.174329  0.476456  1
  Cd  Cd20  1  0.825393  0.523544  0.825671  1
  In  In21  1  0.474985  0.174967  0.175457  1
  In  In22  1  0.175184  0.474032  0.175600  1
  In  In23  1  0.525015  0.824543  0.825033  1
  In  In24  1  0.174590  0.174967  0.175457  1
  In  In25  1  0.825410  0.824543  0.825033  1
  In  In26  1  0.824816  0.824400  0.525968  1
  N  N27  1  0.674633  0.326876  0.673124  1
  N  N28  1  0.674337  0.326429  0.324897  1
  N  N29  1  0.325663  0.675103  0.673571  1
  N  N30  1  0.325389  0.674738  0.325262  1
  N  N31  1  0.325367  0.326876  0.673124  1
  N  N32  1  0.674611  0.674738  0.325262  1
  N  N33  1  0.000000  0.998242  0.001758  1
