# generated using pymatgen
data_TbPrEr8(In2Pd)4
_symmetry_space_group_name_H-M   'P 1'
_cell_length_a   3.60549800
_cell_length_b   8.17154024
_cell_length_c   18.29899659
_cell_angle_alpha   90.11706004
_cell_angle_beta   90.00000000
_cell_angle_gamma   90.00000000
_symmetry_Int_Tables_number   1
_chemical_formula_structural   TbPrEr8(In2Pd)4
_chemical_formula_sum   'Tb1 Pr1 Er8 In8 Pd4'
_cell_volume   539.13254962
_cell_formula_units_Z   1
loop_
 _symmetry_equiv_pos_site_id
 _symmetry_equiv_pos_as_xyz
  1  'x, y, z'
loop_
 _atom_site_type_symbol
 _atom_site_label
 _atom_site_symmetry_multiplicity
 _atom_site_fract_x
 _atom_site_fract_y
 _atom_site_fract_z
 _atom_site_occupancy
  Tb  Tb0  1  0.000000  0.000000  0.000000  1
  Pr  Pr1  1  0.000000  0.500000  0.500000  1
  Er  Er2  1  0.000000  0.739622  0.280222  1
  Er  Er3  1  0.000000  0.260378  0.719778  1
  Er  Er4  1  0.000000  0.761381  0.782729  1
  Er  Er5  1  0.000000  0.238619  0.217271  1
  Er  Er6  1  0.000000  0.618813  0.083628  1
  Er  Er7  1  0.000000  0.381187  0.916372  1
  Er  Er8  1  0.000000  0.878272  0.584791  1
  Er  Er9  1  0.000000  0.121728  0.415209  1
  In  In10  1  0.500000  0.704914  0.933401  1
  In  In11  1  0.500000  0.295086  0.066599  1
  In  In12  1  0.500000  0.801670  0.431137  1
  In  In13  1  0.500000  0.198330  0.568863  1
  In  In14  1  0.500000  0.582369  0.654332  1
  In  In15  1  0.500000  0.417631  0.345668  1
  In  In16  1  0.500000  0.919193  0.150535  1
  In  In17  1  0.500000  0.080807  0.849465  1
  Pd  Pd18  1  0.500000  0.523010  0.194458  1
  Pd  Pd19  1  0.500000  0.476990  0.805542  1
  Pd  Pd20  1  0.500000  0.975772  0.697236  1
  Pd  Pd21  1  0.500000  0.024228  0.302764  1
