# generated using pymatgen
data_Fe8Si4Mo12C3N
_symmetry_space_group_name_H-M   'P 1'
_cell_length_a   7.88817412
_cell_length_b   7.87820144
_cell_length_c   7.88592601
_cell_angle_alpha   59.97303589
_cell_angle_beta   60.01510235
_cell_angle_gamma   59.98190952
_symmetry_Int_Tables_number   1
_chemical_formula_structural   Fe8Si4Mo12C3N
_chemical_formula_sum   'Fe8 Si4 Mo12 C3 N1'
_cell_volume   346.45179370
_cell_formula_units_Z   1
loop_
 _symmetry_equiv_pos_site_id
 _symmetry_equiv_pos_as_xyz
  1  'x, y, z'
loop_
 _atom_site_type_symbol
 _atom_site_label
 _atom_site_symmetry_multiplicity
 _atom_site_fract_x
 _atom_site_fract_y
 _atom_site_fract_z
 _atom_site_occupancy
  Fe  Fe0  1  0.918925  0.918814  0.243422  1
  Fe  Fe1  1  0.331097  0.331206  0.331166  1
  Fe  Fe2  1  0.243346  0.918851  0.918913  1
  Fe  Fe3  1  0.330858  0.007140  0.330990  1
  Fe  Fe4  1  0.006654  0.331149  0.331087  1
  Fe  Fe5  1  0.331075  0.331186  0.006578  1
  Fe  Fe6  1  0.918903  0.918794  0.918834  1
  Fe  Fe7  1  0.919142  0.242860  0.919010  1
  Si  Si8  1  0.125000  0.125000  0.125000  1
  Si  Si9  1  0.625000  0.125000  0.125000  1
  Si  Si10  1  0.125000  0.125000  0.625000  1
  Si  Si11  1  0.125000  0.625000  0.125000  1
  Mo  Mo12  1  0.694425  0.305665  0.305572  1
  Mo  Mo13  1  0.944322  0.944273  0.555678  1
  Mo  Mo14  1  0.694603  0.695678  0.304855  1
  Mo  Mo15  1  0.694407  0.305674  0.694359  1
  Mo  Mo16  1  0.304877  0.695699  0.304908  1
  Mo  Mo17  1  0.555593  0.944326  0.555641  1
  Mo  Mo18  1  0.555575  0.944335  0.944428  1
  Mo  Mo19  1  0.945118  0.554337  0.555470  1
  Mo  Mo20  1  0.945123  0.554301  0.945092  1
  Mo  Mo21  1  0.305678  0.305727  0.694322  1
  Mo  Mo22  1  0.555397  0.554322  0.945145  1
  Mo  Mo23  1  0.304882  0.695663  0.694530  1
  C  C24  1  0.625000  0.625000  0.625000  1
  C  C25  1  0.625000  0.625000  0.125000  1
  C  C26  1  0.125000  0.625000  0.625000  1
  N  N27  1  0.625000  0.125000  0.625000  1
