# generated using pymatgen
data_Y8Ho8MgHg3Ir4
_symmetry_space_group_name_H-M   'P 1'
_cell_length_a   9.62640813
_cell_length_b   9.61347785
_cell_length_c   9.63219300
_cell_angle_alpha   59.93558416
_cell_angle_beta   59.98012259
_cell_angle_gamma   60.17014095
_symmetry_Int_Tables_number   1
_chemical_formula_structural   Y8Ho8MgHg3Ir4
_chemical_formula_sum   'Y8 Ho8 Mg1 Hg3 Ir4'
_cell_volume   630.71403677
_cell_formula_units_Z   1
loop_
 _symmetry_equiv_pos_site_id
 _symmetry_equiv_pos_as_xyz
  1  'x, y, z'
loop_
 _atom_site_type_symbol
 _atom_site_label
 _atom_site_symmetry_multiplicity
 _atom_site_fract_x
 _atom_site_fract_y
 _atom_site_fract_z
 _atom_site_occupancy
  Y  Y0  1  0.437844  0.438997  0.061579  1
  Y  Y1  1  0.057893  0.059015  0.441545  1
  Y  Y2  1  0.187786  0.811000  0.810962  1
  Y  Y3  1  0.810191  0.188948  0.188953  1
  Y  Y4  1  0.810191  0.188948  0.811907  1
  Y  Y5  1  0.187786  0.811000  0.190253  1
  Y  Y6  1  0.809874  0.811532  0.189297  1
  Y  Y7  1  0.188125  0.190730  0.810573  1
  Ho  Ho8  1  0.599203  0.597478  0.597411  1
  Ho  Ho9  1  0.599203  0.597478  0.205906  1
  Ho  Ho10  1  0.599187  0.206096  0.597358  1
  Ho  Ho11  1  0.194905  0.601647  0.601723  1
  Ho  Ho12  1  0.057930  0.441627  0.441637  1
  Ho  Ho13  1  0.437853  0.061407  0.061492  1
  Ho  Ho14  1  0.437853  0.061407  0.439248  1
  Ho  Ho15  1  0.057930  0.441627  0.058805  1
  Mg  Mg16  1  0.535318  0.821521  0.821581  1
  Hg  Hg17  1  0.832528  0.836656  0.836882  1
  Hg  Hg18  1  0.832528  0.836656  0.493935  1
  Hg  Hg19  1  0.832578  0.494022  0.836701  1
  Ir  Ir20  1  0.388290  0.392035  0.395982  1
  Ir  Ir21  1  0.388290  0.392035  0.823692  1
  Ir  Ir22  1  0.392238  0.823676  0.392042  1
  Ir  Ir23  1  0.824474  0.394457  0.390535  1
