# generated using pymatgen
data_Dy5Mg2P12Ir5Rh12
_symmetry_space_group_name_H-M   'P 1'
_cell_length_a   12.71317447
_cell_length_b   12.81478450
_cell_length_c   3.94517100
_cell_angle_alpha   90.00000000
_cell_angle_beta   90.00000000
_cell_angle_gamma   119.70594137
_symmetry_Int_Tables_number   1
_chemical_formula_structural   Dy5Mg2P12Ir5Rh12
_chemical_formula_sum   'Dy5 Mg2 P12 Ir5 Rh12'
_cell_volume   558.26581839
_cell_formula_units_Z   1
loop_
 _symmetry_equiv_pos_site_id
 _symmetry_equiv_pos_as_xyz
  1  'x, y, z'
loop_
 _atom_site_type_symbol
 _atom_site_label
 _atom_site_symmetry_multiplicity
 _atom_site_fract_x
 _atom_site_fract_y
 _atom_site_fract_z
 _atom_site_occupancy
  Dy  Dy0  1  0.332863  0.665332  0.500000  1
  Dy  Dy1  1  0.667492  0.334555  0.500000  1
  Dy  Dy2  1  0.000492  0.809938  0.000000  1
  Dy  Dy3  1  0.190476  0.189336  0.000000  1
  Dy  Dy4  1  0.810838  0.000050  0.000000  1
  Mg  Mg5  1  0.999672  0.444666  0.500000  1
  Mg  Mg6  1  0.554326  0.555730  0.500000  1
  P  P7  1  0.002608  0.642306  0.500000  1
  P  P8  1  0.360409  0.357555  0.500000  1
  P  P9  1  0.637755  0.000123  0.500000  1
  P  P10  1  0.513526  0.686602  0.000000  1
  P  P11  1  0.310351  0.828250  0.000000  1
  P  P12  1  0.171249  0.481774  0.000000  1
  P  P13  1  0.482078  0.170977  0.000000  1
  P  P14  1  0.689204  0.518041  0.000000  1
  P  P15  1  0.827918  0.314210  0.000000  1
  P  P16  1  0.000206  0.177083  0.500000  1
  P  P17  1  0.822435  0.822633  0.500000  1
  P  P18  1  0.179420  0.999190  0.500000  1
  Ir  Ir19  1  0.640344  0.132390  0.000000  1
  Ir  Ir20  1  0.996270  0.276931  0.000000  1
  Ir  Ir21  1  0.718644  0.722902  0.000000  1
  Ir  Ir22  1  0.282703  0.000130  0.000000  1
  Ir  Ir23  1  0.000054  0.999674  0.500000  1
  Rh  Rh24  1  0.507793  0.868817  0.000000  1
  Rh  Rh25  1  0.129926  0.641143  0.000000  1
  Rh  Rh26  1  0.358401  0.487846  0.000000  1
  Rh  Rh27  1  0.488625  0.358111  0.000000  1
  Rh  Rh28  1  0.870375  0.512198  0.000000  1
  Rh  Rh29  1  0.459126  0.002503  0.500000  1
  Rh  Rh30  1  0.620859  0.804694  0.500000  1
  Rh  Rh31  1  0.200728  0.823235  0.500000  1
  Rh  Rh32  1  0.176627  0.373251  0.500000  1
  Rh  Rh33  1  0.377151  0.176322  0.500000  1
  Rh  Rh34  1  0.802336  0.626103  0.500000  1
  Rh  Rh35  1  0.816718  0.195402  0.500000  1
