# generated using pymatgen
data_Ho16Cd4IrRu2Rh
_symmetry_space_group_name_H-M   'P 1'
_cell_length_a   9.60419064
_cell_length_b   9.58555251
_cell_length_c   9.63916600
_cell_angle_alpha   59.81480677
_cell_angle_beta   59.87946099
_cell_angle_gamma   59.68569807
_symmetry_Int_Tables_number   1
_chemical_formula_structural   Ho16Cd4IrRu2Rh
_chemical_formula_sum   'Ho16 Cd4 Ir1 Ru2 Rh1'
_cell_volume   624.53575247
_cell_formula_units_Z   1
loop_
 _symmetry_equiv_pos_site_id
 _symmetry_equiv_pos_as_xyz
  1  'x, y, z'
loop_
 _atom_site_type_symbol
 _atom_site_label
 _atom_site_symmetry_multiplicity
 _atom_site_fract_x
 _atom_site_fract_y
 _atom_site_fract_z
 _atom_site_occupancy
  Ho  Ho0  1  0.598500  0.598076  0.598611  1
  Ho  Ho1  1  0.598500  0.598076  0.204815  1
  Ho  Ho2  1  0.596945  0.208909  0.597073  1
  Ho  Ho3  1  0.208432  0.596649  0.597460  1
  Ho  Ho4  1  0.061860  0.437996  0.440055  1
  Ho  Ho5  1  0.438065  0.062332  0.059839  1
  Ho  Ho6  1  0.438065  0.062332  0.439763  1
  Ho  Ho7  1  0.061860  0.437996  0.060089  1
  Ho  Ho8  1  0.438387  0.438033  0.061790  1
  Ho  Ho9  1  0.059596  0.060060  0.440172  1
  Ho  Ho10  1  0.187397  0.810360  0.814231  1
  Ho  Ho11  1  0.810352  0.187736  0.188571  1
  Ho  Ho12  1  0.810352  0.187736  0.813341  1
  Ho  Ho13  1  0.187397  0.810360  0.188012  1
  Ho  Ho14  1  0.812933  0.811595  0.187736  1
  Ho  Ho15  1  0.188365  0.188135  0.811750  1
  Cd  Cd16  1  0.830351  0.830329  0.830512  1
  Cd  Cd17  1  0.830351  0.830329  0.508808  1
  Cd  Cd18  1  0.830539  0.507865  0.830797  1
  Cd  Cd19  1  0.507805  0.830521  0.830836  1
  Ir  Ir20  1  0.826341  0.394037  0.389811  1
  Ru  Ru21  1  0.392022  0.391906  0.388211  1
  Ru  Ru22  1  0.392022  0.391906  0.827860  1
  Rh  Rh23  1  0.393561  0.826726  0.389856  1
