# generated using pymatgen
data_TbEr2Al4Ni9B2
_symmetry_space_group_name_H-M   'P 1'
_cell_length_a   5.17956900
_cell_length_b   5.18114644
_cell_length_c   10.62013400
_cell_angle_alpha   90.00000000
_cell_angle_beta   90.00000000
_cell_angle_gamma   119.98992276
_symmetry_Int_Tables_number   1
_chemical_formula_structural   TbEr2Al4Ni9B2
_chemical_formula_sum   'Tb1 Er2 Al4 Ni9 B2'
_cell_volume   246.84492902
_cell_formula_units_Z   1
loop_
 _symmetry_equiv_pos_site_id
 _symmetry_equiv_pos_as_xyz
  1  'x, y, z'
loop_
 _atom_site_type_symbol
 _atom_site_label
 _atom_site_symmetry_multiplicity
 _atom_site_fract_x
 _atom_site_fract_y
 _atom_site_fract_z
 _atom_site_occupancy
  Tb  Tb0  1  0.500000  0.000000  0.662594  1
  Er  Er1  1  0.500000  0.000000  0.000253  1
  Er  Er2  1  0.500000  0.000000  0.337208  1
  Al  Al3  1  0.833313  0.666623  0.684109  1
  Al  Al4  1  0.166687  0.333377  0.684109  1
  Al  Al5  1  0.166677  0.333356  0.315901  1
  Al  Al6  1  0.833323  0.666644  0.315901  1
  Ni  Ni7  1  0.000000  0.000000  0.499776  1
  Ni  Ni8  1  0.500000  0.500000  0.499779  1
  Ni  Ni9  1  0.000000  0.500000  0.499779  1
  Ni  Ni10  1  0.000000  0.000000  0.871083  1
  Ni  Ni11  1  0.500000  0.500000  0.871069  1
  Ni  Ni12  1  0.000000  0.500000  0.871069  1
  Ni  Ni13  1  0.000000  0.000000  0.129119  1
  Ni  Ni14  1  0.500000  0.500000  0.129124  1
  Ni  Ni15  1  0.000000  0.500000  0.129124  1
  B  B16  1  0.833342  0.666683  0.000001  1
  B  B17  1  0.166658  0.333317  0.000001  1
