# generated using pymatgen
data_Sr5CeBiSbO12
_symmetry_space_group_name_H-M   'P 1'
_cell_length_a   5.97569225
_cell_length_b   6.13845678
_cell_length_c   8.50012192
_cell_angle_alpha   89.92113873
_cell_angle_beta   89.85914953
_cell_angle_gamma   89.94424410
_symmetry_Int_Tables_number   1
_chemical_formula_structural   Sr5CeBiSbO12
_chemical_formula_sum   'Sr5 Ce1 Bi1 Sb1 O12'
_cell_volume   311.79608135
_cell_formula_units_Z   1
loop_
 _symmetry_equiv_pos_site_id
 _symmetry_equiv_pos_as_xyz
  1  'x, y, z'
loop_
 _atom_site_type_symbol
 _atom_site_label
 _atom_site_symmetry_multiplicity
 _atom_site_fract_x
 _atom_site_fract_y
 _atom_site_fract_z
 _atom_site_occupancy
  Sr  Sr0  1  0.000000  0.000000  0.000000  1
  Sr  Sr1  1  0.986897  0.452410  0.235046  1
  Sr  Sr2  1  0.514221  0.952990  0.236835  1
  Sr  Sr3  1  0.485779  0.047010  0.763165  1
  Sr  Sr4  1  0.013103  0.547590  0.764954  1
  Ce  Ce5  1  0.500000  0.500000  0.500000  1
  Bi  Bi6  1  0.000000  0.000000  0.500000  1
  Sb  Sb7  1  0.500000  0.500000  0.000000  1
  O  O8  1  0.890008  0.954648  0.729344  1
  O  O9  1  0.796347  0.716153  0.434920  1
  O  O10  1  0.773085  0.676811  0.041494  1
  O  O11  1  0.713860  0.209156  0.444544  1
  O  O12  1  0.672589  0.228473  0.048173  1
  O  O13  1  0.591346  0.465232  0.759716  1
  O  O14  1  0.408654  0.534768  0.240284  1
  O  O15  1  0.327411  0.771527  0.951827  1
  O  O16  1  0.286140  0.790844  0.555456  1
  O  O17  1  0.226915  0.323189  0.958506  1
  O  O18  1  0.203653  0.283847  0.565080  1
  O  O19  1  0.109992  0.045352  0.270656  1
