# generated using pymatgen
data_Li5UO5
_symmetry_space_group_name_H-M   'P 1'
_cell_length_a   5.48873849
_cell_length_b   5.48873859
_cell_length_c   6.04515884
_cell_angle_alpha   71.51664532
_cell_angle_beta   71.51664561
_cell_angle_gamma   46.93796266
_symmetry_Int_Tables_number   1
_chemical_formula_structural   Li5UO5
_chemical_formula_sum   'Li5 U1 O5'
_cell_volume   124.85831348
_cell_formula_units_Z   1
loop_
 _symmetry_equiv_pos_site_id
 _symmetry_equiv_pos_as_xyz
  1  'x, y, z'
loop_
 _atom_site_type_symbol
 _atom_site_label
 _atom_site_symmetry_multiplicity
 _atom_site_fract_x
 _atom_site_fract_y
 _atom_site_fract_z
 _atom_site_occupancy
  Li  Li0  1  0.706812  0.706812  0.643394  1
  Li  Li1  1  0.988765  0.988765  0.482491  1
  Li  Li2  1  0.305234  0.305234  0.846116  1
  Li  Li3  1  0.684416  0.684416  0.123348  1
  Li  Li4  1  0.277312  0.277312  0.331480  1
  U  U5  1  0.994838  0.994838  0.983206  1
  O  O6  1  0.844115  0.844115  0.804758  1
  O  O7  1  0.496231  0.496231  0.978393  1
  O  O8  1  0.163404  0.163404  0.660734  1
  O  O9  1  0.827209  0.827209  0.310413  1
  O  O10  1  0.143665  0.143665  0.165667  1
