# generated using pymatgen
data_Nd2Be2(Re5C)3
_symmetry_space_group_name_H-M   'P 1'
_cell_length_a   6.96814381
_cell_length_b   6.96814428
_cell_length_c   6.93798051
_cell_angle_alpha   82.34625986
_cell_angle_beta   82.34626525
_cell_angle_gamma   83.27147913
_symmetry_Int_Tables_number   1
_chemical_formula_structural   Nd2Be2(Re5C)3
_chemical_formula_sum   'Nd2 Be2 Re15 C3'
_cell_volume   329.19867972
_cell_formula_units_Z   1
loop_
 _symmetry_equiv_pos_site_id
 _symmetry_equiv_pos_as_xyz
  1  'x, y, z'
loop_
 _atom_site_type_symbol
 _atom_site_label
 _atom_site_symmetry_multiplicity
 _atom_site_fract_x
 _atom_site_fract_y
 _atom_site_fract_z
 _atom_site_occupancy
  Nd  Nd0  1  0.652884  0.652884  0.651383  1
  Nd  Nd1  1  0.347116  0.347116  0.348617  1
  Be  Be2  1  0.500000  0.000000  0.000000  1
  Be  Be3  1  0.000000  0.500000  0.000000  1
  Re  Re4  1  0.000000  0.000000  0.500000  1
  Re  Re5  1  0.721135  0.278865  0.000000  1
  Re  Re6  1  0.000444  0.718566  0.272224  1
  Re  Re7  1  0.281434  0.999556  0.727776  1
  Re  Re8  1  0.999556  0.281434  0.727776  1
  Re  Re9  1  0.718566  0.000444  0.272224  1
  Re  Re10  1  0.278865  0.721135  0.000000  1
  Re  Re11  1  0.353682  0.855742  0.343145  1
  Re  Re12  1  0.341148  0.341148  0.865638  1
  Re  Re13  1  0.855742  0.353682  0.343145  1
  Re  Re14  1  0.646318  0.144258  0.656855  1
  Re  Re15  1  0.658852  0.658852  0.134362  1
  Re  Re16  1  0.144258  0.646318  0.656855  1
  Re  Re17  1  0.902008  0.902008  0.899573  1
  Re  Re18  1  0.097992  0.097992  0.100427  1
  C  C19  1  0.500000  0.500000  0.000000  1
  C  C20  1  0.000000  0.500000  0.500000  1
  C  C21  1  0.500000  0.000000  0.500000  1
