# generated using pymatgen
data_Cs4CoSbCl12
_symmetry_space_group_name_H-M   'P 1'
_cell_length_a   7.37497762
_cell_length_b   7.37497762
_cell_length_c   10.82582900
_cell_angle_alpha   90.00000000
_cell_angle_beta   90.00000000
_cell_angle_gamma   89.27251131
_symmetry_Int_Tables_number   1
_chemical_formula_structural   Cs4CoSbCl12
_chemical_formula_sum   'Cs4 Co1 Sb1 Cl12'
_cell_volume   588.77256889
_cell_formula_units_Z   1
loop_
 _symmetry_equiv_pos_site_id
 _symmetry_equiv_pos_as_xyz
  1  'x, y, z'
loop_
 _atom_site_type_symbol
 _atom_site_label
 _atom_site_symmetry_multiplicity
 _atom_site_fract_x
 _atom_site_fract_y
 _atom_site_fract_z
 _atom_site_occupancy
  Cs  Cs0  1  0.500000  0.000000  0.781563  1
  Cs  Cs1  1  0.000000  0.500000  0.218437  1
  Cs  Cs2  1  0.500000  0.000000  0.218437  1
  Cs  Cs3  1  0.000000  0.500000  0.781563  1
  Co  Co4  1  0.000000  0.000000  0.000000  1
  Sb  Sb5  1  0.500000  0.500000  0.500000  1
  Cl  Cl6  1  0.000000  0.000000  0.788898  1
  Cl  Cl7  1  0.500000  0.500000  0.273836  1
  Cl  Cl8  1  0.731512  0.731512  0.500000  1
  Cl  Cl9  1  0.217527  0.217527  0.000000  1
  Cl  Cl10  1  0.734815  0.265185  0.500000  1
  Cl  Cl11  1  0.220675  0.779325  0.000000  1
  Cl  Cl12  1  0.000000  0.000000  0.211102  1
  Cl  Cl13  1  0.500000  0.500000  0.726164  1
  Cl  Cl14  1  0.268488  0.268488  0.500000  1
  Cl  Cl15  1  0.782473  0.782473  0.000000  1
  Cl  Cl16  1  0.265185  0.734815  0.500000  1
  Cl  Cl17  1  0.779325  0.220675  0.000000  1
