# generated using pymatgen
data_Th3MgGa2PdPt2
_symmetry_space_group_name_H-M   'P 1'
_cell_length_a   7.42286542
_cell_length_b   7.42286509
_cell_length_c   4.14647600
_cell_angle_alpha   90.00000000
_cell_angle_beta   90.00000000
_cell_angle_gamma   120.13170115
_symmetry_Int_Tables_number   1
_chemical_formula_structural   Th3MgGa2PdPt2
_chemical_formula_sum   'Th3 Mg1 Ga2 Pd1 Pt2'
_cell_volume   197.59459239
_cell_formula_units_Z   1
loop_
 _symmetry_equiv_pos_site_id
 _symmetry_equiv_pos_as_xyz
  1  'x, y, z'
loop_
 _atom_site_type_symbol
 _atom_site_label
 _atom_site_symmetry_multiplicity
 _atom_site_fract_x
 _atom_site_fract_y
 _atom_site_fract_z
 _atom_site_occupancy
  Th  Th0  1  0.408753  0.408753  0.500000  1
  Th  Th1  1  0.578912  0.001691  0.500000  1
  Th  Th2  1  0.001691  0.578912  0.500000  1
  Mg  Mg3  1  0.765085  0.765085  0.000000  1
  Ga  Ga4  1  0.239016  0.996257  0.000000  1
  Ga  Ga5  1  0.996257  0.239016  0.000000  1
  Pd  Pd6  1  0.006772  0.006772  0.500000  1
  Pt  Pt7  1  0.667726  0.335787  0.000000  1
  Pt  Pt8  1  0.335787  0.667726  0.000000  1
