# generated using pymatgen
data_Ac3In3Sn2
_symmetry_space_group_name_H-M   'P 1'
_cell_length_a   6.95937420
_cell_length_b   6.95937444
_cell_length_c   10.90875100
_cell_angle_alpha   90.00000000
_cell_angle_beta   90.00000000
_cell_angle_gamma   102.51877904
_symmetry_Int_Tables_number   1
_chemical_formula_structural   Ac3In3Sn2
_chemical_formula_sum   'Ac6 In6 Sn4'
_cell_volume   515.78101600
_cell_formula_units_Z   2
loop_
 _symmetry_equiv_pos_site_id
 _symmetry_equiv_pos_as_xyz
  1  'x, y, z'
loop_
 _atom_site_type_symbol
 _atom_site_label
 _atom_site_symmetry_multiplicity
 _atom_site_fract_x
 _atom_site_fract_y
 _atom_site_fract_z
 _atom_site_occupancy
  Ac  Ac0  1  0.636770  0.636770  0.250000  1
  Ac  Ac1  1  0.363230  0.363230  0.750000  1
  Ac  Ac2  1  0.206357  0.793643  0.500000  1
  Ac  Ac3  1  0.206357  0.793643  0.000000  1
  Ac  Ac4  1  0.793643  0.206357  0.500000  1
  Ac  Ac5  1  0.793643  0.206357  0.000000  1
  In  In6  1  0.030090  0.030090  0.250000  1
  In  In7  1  0.969910  0.969910  0.750000  1
  In  In8  1  0.303498  0.303498  0.054181  1
  In  In9  1  0.696502  0.696502  0.945819  1
  In  In10  1  0.303498  0.303498  0.445819  1
  In  In11  1  0.696502  0.696502  0.554181  1
  Sn  Sn12  1  0.489815  0.081954  0.250000  1
  Sn  Sn13  1  0.918046  0.510185  0.750000  1
  Sn  Sn14  1  0.510185  0.918046  0.750000  1
  Sn  Sn15  1  0.081954  0.489815  0.250000  1
