# generated using pymatgen
data_LiGd4Lu5Si8
_symmetry_space_group_name_H-M   'P 1'
_cell_length_a   7.13985500
_cell_length_b   7.53623800
_cell_length_c   14.27776500
_cell_angle_alpha   90.00000000
_cell_angle_beta   90.00000000
_cell_angle_gamma   90.00000000
_symmetry_Int_Tables_number   1
_chemical_formula_structural   LiGd4Lu5Si8
_chemical_formula_sum   'Li2 Gd8 Lu10 Si16'
_cell_volume   768.25293287
_cell_formula_units_Z   2
loop_
 _symmetry_equiv_pos_site_id
 _symmetry_equiv_pos_as_xyz
  1  'x, y, z'
loop_
 _atom_site_type_symbol
 _atom_site_label
 _atom_site_symmetry_multiplicity
 _atom_site_fract_x
 _atom_site_fract_y
 _atom_site_fract_z
 _atom_site_occupancy
  Li  Li0  1  0.658405  0.991261  0.750000  1
  Li  Li1  1  0.841595  0.491261  0.250000  1
  Gd  Gd2  1  0.011660  0.185908  0.400758  1
  Gd  Gd3  1  0.522440  0.325357  0.400046  1
  Gd  Gd4  1  0.488340  0.685908  0.900758  1
  Gd  Gd5  1  0.488340  0.685908  0.599242  1
  Gd  Gd6  1  0.977560  0.825357  0.599954  1
  Gd  Gd7  1  0.977560  0.825357  0.900046  1
  Gd  Gd8  1  0.522440  0.325357  0.099954  1
  Gd  Gd9  1  0.011660  0.185908  0.099242  1
  Lu  Lu10  1  0.332973  0.173533  0.624619  1
  Lu  Lu11  1  0.676948  0.812370  0.374695  1
  Lu  Lu12  1  0.167027  0.673533  0.375381  1
  Lu  Lu13  1  0.823052  0.312370  0.874695  1
  Lu  Lu14  1  0.823052  0.312370  0.625305  1
  Lu  Lu15  1  0.342280  0.008875  0.250000  1
  Lu  Lu16  1  0.332973  0.173533  0.875381  1
  Lu  Lu17  1  0.167027  0.673533  0.124619  1
  Lu  Lu18  1  0.676948  0.812370  0.125305  1
  Lu  Lu19  1  0.157720  0.508875  0.750000  1
  Si  Si20  1  0.276425  0.874014  0.750000  1
  Si  Si21  1  0.467870  0.603809  0.250000  1
  Si  Si22  1  0.032130  0.103809  0.750000  1
  Si  Si23  1  0.528853  0.399711  0.750000  1
  Si  Si24  1  0.154859  0.469164  0.540776  1
  Si  Si25  1  0.971147  0.899711  0.250000  1
  Si  Si26  1  0.721397  0.121216  0.250000  1
  Si  Si27  1  0.844948  0.534225  0.031174  1
  Si  Si28  1  0.345141  0.969164  0.040776  1
  Si  Si29  1  0.154859  0.469164  0.959224  1
  Si  Si30  1  0.655052  0.034225  0.531174  1
  Si  Si31  1  0.345141  0.969164  0.459224  1
  Si  Si32  1  0.844948  0.534225  0.468826  1
  Si  Si33  1  0.778603  0.621216  0.750000  1
  Si  Si34  1  0.223575  0.374014  0.250000  1
  Si  Si35  1  0.655052  0.034225  0.968826  1
