# generated using pymatgen
data_Pr7Ho9(LuSn4)4
_symmetry_space_group_name_H-M   'P 1'
_cell_length_a   8.08963913
_cell_length_b   8.26832990
_cell_length_c   15.59793000
_cell_angle_alpha   89.99289028
_cell_angle_beta   90.31611985
_cell_angle_gamma   89.64045429
_symmetry_Int_Tables_number   1
_chemical_formula_structural   Pr7Ho9(LuSn4)4
_chemical_formula_sum   'Pr7 Ho9 Lu4 Sn16'
_cell_volume   1043.27486718
_cell_formula_units_Z   1
loop_
 _symmetry_equiv_pos_site_id
 _symmetry_equiv_pos_as_xyz
  1  'x, y, z'
loop_
 _atom_site_type_symbol
 _atom_site_label
 _atom_site_symmetry_multiplicity
 _atom_site_fract_x
 _atom_site_fract_y
 _atom_site_fract_z
 _atom_site_occupancy
  Pr  Pr0  1  0.013955  0.178822  0.597984  1
  Pr  Pr1  1  0.486930  0.677529  0.403818  1
  Pr  Pr2  1  0.986202  0.821543  0.095403  1
  Pr  Pr3  1  0.484813  0.676424  0.095842  1
  Pr  Pr4  1  0.986693  0.822603  0.404015  1
  Pr  Pr5  1  0.511857  0.323213  0.595680  1
  Pr  Pr6  1  0.013959  0.178929  0.903456  1
  Ho  Ho7  1  0.358409  0.835500  0.875995  1
  Ho  Ho8  1  0.856052  0.664329  0.624042  1
  Ho  Ho9  1  0.643105  0.164642  0.375953  1
  Ho  Ho10  1  0.139789  0.336920  0.121792  1
  Ho  Ho11  1  0.640238  0.164465  0.123156  1
  Ho  Ho12  1  0.142707  0.335401  0.376750  1
  Ho  Ho13  1  0.357493  0.836102  0.625581  1
  Ho  Ho14  1  0.859779  0.662634  0.877600  1
  Ho  Ho15  1  0.518673  0.322718  0.902070  1
  Lu  Lu16  1  0.192124  0.502067  0.751159  1
  Lu  Lu17  1  0.690547  0.997053  0.751002  1
  Lu  Lu18  1  0.807713  0.496996  0.249340  1
  Lu  Lu19  1  0.308847  0.003198  0.249549  1
  Sn  Sn20  1  0.307393  0.040623  0.041988  1
  Sn  Sn21  1  0.807665  0.458673  0.457531  1
  Sn  Sn22  1  0.691433  0.960531  0.543031  1
  Sn  Sn23  1  0.202894  0.535536  0.955185  1
  Sn  Sn24  1  0.691586  0.962777  0.956565  1
  Sn  Sn25  1  0.191282  0.543084  0.542817  1
  Sn  Sn26  1  0.308696  0.040098  0.457994  1
  Sn  Sn27  1  0.800101  0.456610  0.040732  1
  Sn  Sn28  1  0.555873  0.621138  0.751108  1
  Sn  Sn29  1  0.054582  0.875691  0.750560  1
  Sn  Sn30  1  0.443226  0.376128  0.249670  1
  Sn  Sn31  1  0.944631  0.125127  0.249183  1
  Sn  Sn32  1  0.326372  0.147576  0.752558  1
  Sn  Sn33  1  0.819149  0.356241  0.750937  1
  Sn  Sn34  1  0.677831  0.855910  0.249818  1
  Sn  Sn35  1  0.177398  0.643166  0.250139  1
