# generated using pymatgen
data_Ho2Er6Cd2IrRu
_symmetry_space_group_name_H-M   'P 1'
_cell_length_a   9.55841099
_cell_length_b   9.55780019
_cell_length_c   9.59935802
_cell_angle_alpha   59.86028647
_cell_angle_beta   59.85396928
_cell_angle_gamma   59.72187725
_symmetry_Int_Tables_number   1
_chemical_formula_structural   Ho2Er6Cd2IrRu
_chemical_formula_sum   'Ho4 Er12 Cd4 Ir2 Ru2'
_cell_volume   617.46502311
_cell_formula_units_Z   2
loop_
 _symmetry_equiv_pos_site_id
 _symmetry_equiv_pos_as_xyz
  1  'x, y, z'
loop_
 _atom_site_type_symbol
 _atom_site_label
 _atom_site_symmetry_multiplicity
 _atom_site_fract_x
 _atom_site_fract_y
 _atom_site_fract_z
 _atom_site_occupancy
  Ho  Ho0  1  0.810116  0.188200  0.813118  1
  Ho  Ho1  1  0.188200  0.810116  0.188567  1
  Ho  Ho2  1  0.811570  0.811570  0.188430  1
  Ho  Ho3  1  0.188657  0.188657  0.811343  1
  Er  Er4  1  0.598028  0.598144  0.597955  1
  Er  Er5  1  0.598144  0.598028  0.205875  1
  Er  Er6  1  0.597165  0.208869  0.596943  1
  Er  Er7  1  0.208869  0.597165  0.597024  1
  Er  Er8  1  0.061816  0.438038  0.440009  1
  Er  Er9  1  0.438038  0.061816  0.060137  1
  Er  Er10  1  0.438062  0.061824  0.440033  1
  Er  Er11  1  0.061824  0.438062  0.060080  1
  Er  Er12  1  0.438161  0.438161  0.061839  1
  Er  Er13  1  0.059532  0.059532  0.440468  1
  Er  Er14  1  0.188252  0.810045  0.813025  1
  Er  Er15  1  0.810045  0.188252  0.188679  1
  Cd  Cd16  1  0.830518  0.830422  0.830684  1
  Cd  Cd17  1  0.830422  0.830518  0.508376  1
  Cd  Cd18  1  0.830541  0.507503  0.831022  1
  Cd  Cd19  1  0.507503  0.830541  0.830932  1
  Ir  Ir20  1  0.393837  0.827101  0.389563  1
  Ir  Ir21  1  0.827101  0.393837  0.389500  1
  Ru  Ru22  1  0.391843  0.391759  0.387838  1
  Ru  Ru23  1  0.391759  0.391843  0.828560  1
