# generated using pymatgen
data_La2Yb7Rh6
_symmetry_space_group_name_H-M   'P 1'
_cell_length_a   7.39513092
_cell_length_b   7.43767710
_cell_length_c   7.42975775
_cell_angle_alpha   71.12453969
_cell_angle_beta   71.45190027
_cell_angle_gamma   71.37451900
_symmetry_Int_Tables_number   1
_chemical_formula_structural   La2Yb7Rh6
_chemical_formula_sum   'La2 Yb7 Rh6'
_cell_volume   355.76132794
_cell_formula_units_Z   1
loop_
 _symmetry_equiv_pos_site_id
 _symmetry_equiv_pos_as_xyz
  1  'x, y, z'
loop_
 _atom_site_type_symbol
 _atom_site_label
 _atom_site_symmetry_multiplicity
 _atom_site_fract_x
 _atom_site_fract_y
 _atom_site_fract_z
 _atom_site_occupancy
  La  La0  1  0.322692  0.851751  0.604034  1
  La  La1  1  0.607375  0.320360  0.855634  1
  Yb  Yb2  1  0.002269  0.996452  0.008799  1
  Yb  Yb3  1  0.800880  0.800459  0.799218  1
  Yb  Yb4  1  0.193087  0.201906  0.199416  1
  Yb  Yb5  1  0.145481  0.398980  0.674977  1
  Yb  Yb6  1  0.675423  0.151822  0.396637  1
  Yb  Yb7  1  0.399794  0.675347  0.151309  1
  Yb  Yb8  1  0.855072  0.603077  0.318764  1
  Rh  Rh9  1  0.952003  0.162926  0.588762  1
  Rh  Rh10  1  0.583279  0.956641  0.165192  1
  Rh  Rh11  1  0.168149  0.586431  0.950220  1
  Rh  Rh12  1  0.048298  0.834463  0.412613  1
  Rh  Rh13  1  0.412942  0.044494  0.831886  1
  Rh  Rh14  1  0.833255  0.414891  0.042538  1
