# generated using pymatgen
data_Cs2Ti7BBr18
_symmetry_space_group_name_H-M   'P 1'
_cell_length_a   10.74529442
_cell_length_b   10.74529456
_cell_length_c   10.74529410
_cell_angle_alpha   55.49243589
_cell_angle_beta   55.49242662
_cell_angle_gamma   55.49243094
_symmetry_Int_Tables_number   1
_chemical_formula_structural   Cs2Ti7BBr18
_chemical_formula_sum   'Cs2 Ti7 B1 Br18'
_cell_volume   785.46606638
_cell_formula_units_Z   1
loop_
 _symmetry_equiv_pos_site_id
 _symmetry_equiv_pos_as_xyz
  1  'x, y, z'
loop_
 _atom_site_type_symbol
 _atom_site_label
 _atom_site_symmetry_multiplicity
 _atom_site_fract_x
 _atom_site_fract_y
 _atom_site_fract_z
 _atom_site_occupancy
  Cs  Cs0  1  0.775484  0.775484  0.775484  1
  Cs  Cs1  1  0.224516  0.224516  0.224516  1
  Ti  Ti2  1  0.151651  0.905802  0.803622  1
  Ti  Ti3  1  0.848349  0.094198  0.196378  1
  Ti  Ti4  1  0.094198  0.196378  0.848349  1
  Ti  Ti5  1  0.196378  0.848349  0.094198  1
  Ti  Ti6  1  0.905802  0.803622  0.151651  1
  Ti  Ti7  1  0.803622  0.151651  0.905802  1
  Ti  Ti8  1  0.500000  0.500000  0.500000  1
  B  B9  1  0.000000  0.000000  0.000000  1
  Br  Br10  1  0.218766  0.468470  0.645900  1
  Br  Br11  1  0.781234  0.531530  0.354100  1
  Br  Br12  1  0.336976  0.052894  0.933457  1
  Br  Br13  1  0.663024  0.947106  0.066543  1
  Br  Br14  1  0.933457  0.336976  0.052894  1
  Br  Br15  1  0.716963  0.880379  0.402752  1
  Br  Br16  1  0.354100  0.781234  0.531530  1
  Br  Br17  1  0.597248  0.283037  0.119621  1
  Br  Br18  1  0.283037  0.119621  0.597248  1
  Br  Br19  1  0.119621  0.597248  0.283037  1
  Br  Br20  1  0.947106  0.066543  0.663024  1
  Br  Br21  1  0.402752  0.716963  0.880379  1
  Br  Br22  1  0.880379  0.402752  0.716963  1
  Br  Br23  1  0.066543  0.663024  0.947106  1
  Br  Br24  1  0.468470  0.645900  0.218766  1
  Br  Br25  1  0.645900  0.218766  0.468470  1
  Br  Br26  1  0.531530  0.354100  0.781234  1
  Br  Br27  1  0.052894  0.933457  0.336976  1
