# generated using pymatgen
data_Er10Si5Te
_symmetry_space_group_name_H-M   'P 1'
_cell_length_a   8.41821300
_cell_length_b   8.46770545
_cell_length_c   6.24549600
_cell_angle_alpha   90.00000000
_cell_angle_beta   90.00000000
_cell_angle_gamma   119.80683769
_symmetry_Int_Tables_number   1
_chemical_formula_structural   Er10Si5Te
_chemical_formula_sum   'Er10 Si5 Te1'
_cell_volume   386.30048849
_cell_formula_units_Z   1
loop_
 _symmetry_equiv_pos_site_id
 _symmetry_equiv_pos_as_xyz
  1  'x, y, z'
loop_
 _atom_site_type_symbol
 _atom_site_label
 _atom_site_symmetry_multiplicity
 _atom_site_fract_x
 _atom_site_fract_y
 _atom_site_fract_z
 _atom_site_occupancy
  Er  Er0  1  0.986057  0.745509  0.750000  1
  Er  Er1  1  0.999768  0.244597  0.250000  1
  Er  Er2  1  0.755172  0.755403  0.250000  1
  Er  Er3  1  0.765490  0.000000  0.750000  1
  Er  Er4  1  0.240548  0.254491  0.750000  1
  Er  Er5  1  0.241111  0.000000  0.250000  1
  Er  Er6  1  0.331043  0.655652  0.496877  1
  Er  Er7  1  0.675391  0.344348  0.003123  1
  Er  Er8  1  0.675391  0.344348  0.496877  1
  Er  Er9  1  0.331043  0.655652  0.003123  1
  Si  Si10  1  0.393863  0.391051  0.250000  1
  Si  Si11  1  0.002812  0.608949  0.250000  1
  Si  Si12  1  0.999283  0.394913  0.750000  1
  Si  Si13  1  0.604370  0.605087  0.750000  1
  Si  Si14  1  0.606725  0.000000  0.250000  1
  Te  Te15  1  0.391933  0.000000  0.750000  1
