# generated using pymatgen
data_Pr6GeBBr6
_symmetry_space_group_name_H-M   'P 1'
_cell_length_a   10.48469272
_cell_length_b   10.48469351
_cell_length_c   10.30732762
_cell_angle_alpha   109.44944934
_cell_angle_beta   109.44944741
_cell_angle_gamma   110.20105451
_symmetry_Int_Tables_number   1
_chemical_formula_structural   Pr6GeBBr6
_chemical_formula_sum   'Pr12 Ge2 B2 Br12'
_cell_volume   864.73559299
_cell_formula_units_Z   2
loop_
 _symmetry_equiv_pos_site_id
 _symmetry_equiv_pos_as_xyz
  1  'x, y, z'
loop_
 _atom_site_type_symbol
 _atom_site_label
 _atom_site_symmetry_multiplicity
 _atom_site_fract_x
 _atom_site_fract_y
 _atom_site_fract_z
 _atom_site_occupancy
  Pr  Pr0  1  0.468862  0.494645  0.224396  1
  Pr  Pr1  1  0.770249  0.244465  0.275604  1
  Pr  Pr2  1  0.768993  0.025685  0.498075  1
  Pr  Pr3  1  0.229081  0.472391  0.498075  1
  Pr  Pr4  1  0.255535  0.729751  0.224396  1
  Pr  Pr5  1  0.027609  0.270919  0.001925  1
  Pr  Pr6  1  0.005355  0.031138  0.275604  1
  Pr  Pr7  1  0.474315  0.731007  0.001925  1
  Pr  Pr8  1  0.492774  0.242774  0.485548  1
  Pr  Pr9  1  0.019730  0.480270  0.750000  1
  Pr  Pr10  1  0.257226  0.007226  0.014452  1
  Pr  Pr11  1  0.230270  0.269730  0.750000  1
  Ge  Ge12  1  0.250053  0.249947  0.250000  1
  Ge  Ge13  1  0.499947  0.000053  0.250000  1
  B  B14  1  0.998803  0.248803  0.497605  1
  B  B15  1  0.251197  0.501197  0.002395  1
  Br  Br16  1  0.249191  0.754855  0.742314  1
  Br  Br17  1  0.512541  0.506877  0.757686  1
  Br  Br18  1  0.990948  0.744114  0.994421  1
  Br  Br19  1  0.745145  0.250809  0.757686  1
  Br  Br20  1  0.993123  0.987459  0.742314  1
  Br  Br21  1  0.249693  0.996528  0.505579  1
  Br  Br22  1  0.755886  0.509052  0.505579  1
  Br  Br23  1  0.503472  0.250307  0.994421  1
  Br  Br24  1  0.755530  0.744470  0.250000  1
  Br  Br25  1  0.746118  0.996118  0.992237  1
  Br  Br26  1  0.994470  0.505530  0.250000  1
  Br  Br27  1  0.503882  0.753882  0.507763  1
