# generated using pymatgen
data_CeY(Al3Pd)6
_symmetry_space_group_name_H-M   'P 1'
_cell_length_a   10.42699318
_cell_length_b   10.42699321
_cell_length_c   10.42699400
_cell_angle_alpha   42.21982958
_cell_angle_beta   42.21983758
_cell_angle_gamma   42.21982734
_symmetry_Int_Tables_number   1
_chemical_formula_structural   CeY(Al3Pd)6
_chemical_formula_sum   'Ce1 Y1 Al18 Pd6'
_cell_volume   463.25493851
_cell_formula_units_Z   1
loop_
 _symmetry_equiv_pos_site_id
 _symmetry_equiv_pos_as_xyz
  1  'x, y, z'
loop_
 _atom_site_type_symbol
 _atom_site_label
 _atom_site_symmetry_multiplicity
 _atom_site_fract_x
 _atom_site_fract_y
 _atom_site_fract_z
 _atom_site_occupancy
  Ce  Ce0  1  0.833174  0.833174  0.833174  1
  Y  Y1  1  0.166849  0.166849  0.166849  1
  Al  Al2  1  0.107741  0.434014  0.763046  1
  Al  Al3  1  0.434014  0.763046  0.107741  1
  Al  Al4  1  0.564358  0.893098  0.237700  1
  Al  Al5  1  0.950057  0.950057  0.950057  1
  Al  Al6  1  0.049896  0.049896  0.049896  1
  Al  Al7  1  0.296690  0.703598  0.499680  1
  Al  Al8  1  0.893098  0.237700  0.564358  1
  Al  Al9  1  0.384540  0.384540  0.384540  1
  Al  Al10  1  0.499680  0.296690  0.703598  1
  Al  Al11  1  0.237700  0.564358  0.893098  1
  Al  Al12  1  0.716288  0.716288  0.716288  1
  Al  Al13  1  0.615464  0.615464  0.615464  1
  Al  Al14  1  0.334527  0.000176  0.665310  1
  Al  Al15  1  0.703598  0.499680  0.296690  1
  Al  Al16  1  0.665310  0.334527  0.000176  1
  Al  Al17  1  0.283787  0.283787  0.283787  1
  Al  Al18  1  0.000176  0.665310  0.334527  1
  Al  Al19  1  0.763046  0.107741  0.434014  1
  Pd  Pd20  1  0.417899  0.078023  0.759778  1
  Pd  Pd21  1  0.580741  0.240897  0.922668  1
  Pd  Pd22  1  0.078023  0.759778  0.417899  1
  Pd  Pd23  1  0.759778  0.417899  0.078023  1
  Pd  Pd24  1  0.922668  0.580741  0.240897  1
  Pd  Pd25  1  0.240897  0.922668  0.580741  1
