# generated using pymatgen
data_Pr3Nd2SiTe4
_symmetry_space_group_name_H-M   'P 1'
_cell_length_a   7.78348548
_cell_length_b   7.78348599
_cell_length_c   7.78525900
_cell_angle_alpha   99.35227026
_cell_angle_beta   99.42539013
_cell_angle_gamma   132.35007074
_symmetry_Int_Tables_number   1
_chemical_formula_structural   Pr3Nd2SiTe4
_chemical_formula_sum   'Pr3 Nd2 Si1 Te4'
_cell_volume   318.88083071
_cell_formula_units_Z   1
loop_
 _symmetry_equiv_pos_site_id
 _symmetry_equiv_pos_as_xyz
  1  'x, y, z'
loop_
 _atom_site_type_symbol
 _atom_site_label
 _atom_site_symmetry_multiplicity
 _atom_site_fract_x
 _atom_site_fract_y
 _atom_site_fract_z
 _atom_site_occupancy
  Pr  Pr0  1  0.406595  0.774745  0.181338  1
  Pr  Pr1  1  0.593624  0.224874  0.818499  1
  Pr  Pr2  1  0.225809  0.407078  0.632887  1
  Nd  Nd3  1  0.000088  0.000580  0.000668  1
  Nd  Nd4  1  0.773855  0.592825  0.366680  1
  Si  Si5  1  0.500832  0.500460  0.001292  1
  Te  Te6  1  0.090505  0.696435  0.786940  1
  Te  Te7  1  0.697758  0.906594  0.604351  1
  Te  Te8  1  0.303033  0.091972  0.395007  1
  Te  Te9  1  0.907899  0.304438  0.212338  1
