# generated using pymatgen
data_Ba4NaY(WO6)2
_symmetry_space_group_name_H-M   'P 1'
_cell_length_a   5.96643600
_cell_length_b   5.96643600
_cell_length_c   8.48870600
_cell_angle_alpha   90.00000000
_cell_angle_beta   90.00000000
_cell_angle_gamma   90.00000000
_symmetry_Int_Tables_number   1
_chemical_formula_structural   Ba4NaY(WO6)2
_chemical_formula_sum   'Ba4 Na1 Y1 W2 O12'
_cell_volume   302.18399975
_cell_formula_units_Z   1
loop_
 _symmetry_equiv_pos_site_id
 _symmetry_equiv_pos_as_xyz
  1  'x, y, z'
loop_
 _atom_site_type_symbol
 _atom_site_label
 _atom_site_symmetry_multiplicity
 _atom_site_fract_x
 _atom_site_fract_y
 _atom_site_fract_z
 _atom_site_occupancy
  Ba  Ba0  1  0.500000  0.000000  0.734055  1
  Ba  Ba1  1  0.000000  0.500000  0.265945  1
  Ba  Ba2  1  0.500000  0.000000  0.265945  1
  Ba  Ba3  1  0.000000  0.500000  0.734055  1
  Na  Na4  1  0.000000  0.000000  0.500000  1
  Y  Y5  1  0.500000  0.500000  0.000000  1
  W  W6  1  0.000000  0.000000  0.000000  1
  W  W7  1  0.500000  0.500000  0.500000  1
  O  O8  1  0.000000  0.000000  0.773843  1
  O  O9  1  0.500000  0.500000  0.264725  1
  O  O10  1  0.729154  0.729154  0.500000  1
  O  O11  1  0.234509  0.234509  0.000000  1
  O  O12  1  0.729154  0.270846  0.500000  1
  O  O13  1  0.234509  0.765491  0.000000  1
  O  O14  1  0.000000  0.000000  0.226157  1
  O  O15  1  0.500000  0.500000  0.735275  1
  O  O16  1  0.270846  0.270846  0.500000  1
  O  O17  1  0.765491  0.765491  0.000000  1
  O  O18  1  0.270846  0.729154  0.500000  1
  O  O19  1  0.765491  0.234509  0.000000  1
