# generated using pymatgen
data_Y12Tm4Cd4Ir3Os
_symmetry_space_group_name_H-M   'P 1'
_cell_length_a   9.67241420
_cell_length_b   9.67260881
_cell_length_c   9.67242635
_cell_angle_alpha   59.51197598
_cell_angle_beta   59.51158501
_cell_angle_gamma   59.51215496
_symmetry_Int_Tables_number   1
_chemical_formula_structural   Y12Tm4Cd4Ir3Os
_chemical_formula_sum   'Y12 Tm4 Cd4 Ir3 Os1'
_cell_volume   632.77806650
_cell_formula_units_Z   1
loop_
 _symmetry_equiv_pos_site_id
 _symmetry_equiv_pos_as_xyz
  1  'x, y, z'
loop_
 _atom_site_type_symbol
 _atom_site_label
 _atom_site_symmetry_multiplicity
 _atom_site_fract_x
 _atom_site_fract_y
 _atom_site_fract_z
 _atom_site_occupancy
  Y  Y0  1  0.810534  0.189611  0.189615  1
  Y  Y1  1  0.188534  0.808971  0.808972  1
  Y  Y2  1  0.189612  0.810539  0.189608  1
  Y  Y3  1  0.808968  0.188537  0.808969  1
  Y  Y4  1  0.189614  0.189608  0.810535  1
  Y  Y5  1  0.808973  0.808973  0.188533  1
  Y  Y6  1  0.939589  0.560426  0.560415  1
  Y  Y7  1  0.557328  0.939597  0.939594  1
  Y  Y8  1  0.560421  0.939589  0.560421  1
  Y  Y9  1  0.939594  0.557338  0.939594  1
  Y  Y10  1  0.560414  0.560425  0.939589  1
  Y  Y11  1  0.939595  0.939599  0.557326  1
  Tm  Tm12  1  0.348567  0.348549  0.348569  1
  Tm  Tm13  1  0.347994  0.347980  0.958995  1
  Tm  Tm14  1  0.347989  0.958996  0.347988  1
  Tm  Tm15  1  0.958992  0.347982  0.347994  1
  Cd  Cd16  1  0.579538  0.579543  0.579537  1
  Cd  Cd17  1  0.580472  0.580474  0.257326  1
  Cd  Cd18  1  0.580473  0.257327  0.580472  1
  Cd  Cd19  1  0.257325  0.580475  0.580471  1
  Ir  Ir20  1  0.144596  0.144595  0.573741  1
  Ir  Ir21  1  0.144599  0.573739  0.144597  1
  Ir  Ir22  1  0.573740  0.144596  0.144598  1
  Os  Os23  1  0.142540  0.142533  0.142539  1
