# generated using pymatgen
data_Ti5AlSb3
_symmetry_space_group_name_H-M   'P 1'
_cell_length_a   8.24945400
_cell_length_b   8.24945473
_cell_length_c   5.54043000
_cell_angle_alpha   90.00000000
_cell_angle_beta   90.00000000
_cell_angle_gamma   120.00000508
_symmetry_Int_Tables_number   1
_chemical_formula_structural   Ti5AlSb3
_chemical_formula_sum   'Ti10 Al2 Sb6'
_cell_volume   326.53108441
_cell_formula_units_Z   2
loop_
 _symmetry_equiv_pos_site_id
 _symmetry_equiv_pos_as_xyz
  1  'x, y, z'
loop_
 _atom_site_type_symbol
 _atom_site_label
 _atom_site_symmetry_multiplicity
 _atom_site_fract_x
 _atom_site_fract_y
 _atom_site_fract_z
 _atom_site_occupancy
  Ti  Ti0  1  0.666667  0.333333  0.500000  1
  Ti  Ti1  1  0.333333  0.666667  0.500000  1
  Ti  Ti2  1  0.333333  0.666667  0.000000  1
  Ti  Ti3  1  0.666667  0.333333  0.000000  1
  Ti  Ti4  1  0.727229  0.727229  0.250000  1
  Ti  Ti5  1  0.272771  0.000000  0.250000  1
  Ti  Ti6  1  0.000000  0.272771  0.250000  1
  Ti  Ti7  1  0.272771  0.272771  0.750000  1
  Ti  Ti8  1  0.727229  0.000000  0.750000  1
  Ti  Ti9  1  0.000000  0.727229  0.750000  1
  Al  Al10  1  0.000000  0.000000  0.000000  1
  Al  Al11  1  0.000000  0.000000  0.500000  1
  Sb  Sb12  1  0.386361  0.386361  0.250000  1
  Sb  Sb13  1  0.613639  0.000000  0.250000  1
  Sb  Sb14  1  0.000000  0.613639  0.250000  1
  Sb  Sb15  1  0.613639  0.613639  0.750000  1
  Sb  Sb16  1  0.386361  0.000000  0.750000  1
  Sb  Sb17  1  0.000000  0.386361  0.750000  1
