# generated using pymatgen
data_HfP6(WO8)3
_symmetry_space_group_name_H-M   'P 1'
_cell_length_a   8.79186842
_cell_length_b   8.79219094
_cell_length_c   9.10576853
_cell_angle_alpha   90.04541277
_cell_angle_beta   119.25830813
_cell_angle_gamma   119.58767208
_symmetry_Int_Tables_number   1
_chemical_formula_structural   HfP6(WO8)3
_chemical_formula_sum   'Hf1 P6 W3 O24'
_cell_volume   506.07934890
_cell_formula_units_Z   1
loop_
 _symmetry_equiv_pos_site_id
 _symmetry_equiv_pos_as_xyz
  1  'x, y, z'
loop_
 _atom_site_type_symbol
 _atom_site_label
 _atom_site_symmetry_multiplicity
 _atom_site_fract_x
 _atom_site_fract_y
 _atom_site_fract_z
 _atom_site_occupancy
  Hf  Hf0  1  0.217657  0.860960  0.074704  1
  P  P1  1  0.995515  0.962707  0.250957  1
  P  P2  1  0.284880  0.531080  0.251657  1
  P  P3  1  0.287502  0.751439  0.747935  1
  P  P4  1  0.717060  0.252909  0.252212  1
  P  P5  1  0.717077  0.464715  0.749051  1
  P  P6  1  0.998190  0.037240  0.749824  1
  W  W7  1  0.790674  0.643235  0.434115  1
  W  W8  1  0.211913  0.357190  0.568185  1
  W  W9  1  0.787851  0.141828  0.932114  1
  O  O10  1  0.288072  0.702823  0.221747  1
  O  O11  1  0.864359  0.999436  0.078861  1
  O  O12  1  0.857497  0.864437  0.588940  1
  O  O13  1  0.834855  0.798618  0.266665  1
  O  O14  1  0.139861  0.932314  0.228078  1
  O  O15  1  0.480399  0.549133  0.281467  1
  O  O16  1  0.102432  0.734959  0.577512  1
  O  O17  1  0.902204  0.635753  0.910194  1
  O  O18  1  0.279821  0.780525  0.908964  1
  O  O19  1  0.493461  0.915323  0.775174  1
  O  O20  1  0.724311  0.471233  0.585968  1
  O  O21  1  0.724993  0.429844  0.270596  1
  O  O22  1  0.287011  0.575973  0.726410  1
  O  O23  1  0.277040  0.507609  0.417912  1
  O  O24  1  0.523508  0.087101  0.233813  1
  O  O25  1  0.718214  0.215755  0.087694  1
  O  O26  1  0.089550  0.361319  0.085334  1
  O  O27  1  0.916545  0.280503  0.421423  1
  O  O28  1  0.507144  0.432297  0.709533  1
  O  O29  1  0.849316  0.068004  0.769582  1
  O  O30  1  0.138643  0.209352  0.716935  1
  O  O31  1  0.137614  0.136649  0.413394  1
  O  O32  1  0.142809  0.016784  0.918689  1
  O  O33  1  0.712030  0.290950  0.794359  1
