# generated using pymatgen
data_Y4CoB14
_symmetry_space_group_name_H-M   'P 1'
_cell_length_a   7.22997400
_cell_length_b   7.22997400
_cell_length_c   7.52687300
_cell_angle_alpha   90.00000000
_cell_angle_beta   90.00000000
_cell_angle_gamma   90.00000000
_symmetry_Int_Tables_number   1
_chemical_formula_structural   Y4CoB14
_chemical_formula_sum   'Y8 Co2 B28'
_cell_volume   393.44864984
_cell_formula_units_Z   2
loop_
 _symmetry_equiv_pos_site_id
 _symmetry_equiv_pos_as_xyz
  1  'x, y, z'
loop_
 _atom_site_type_symbol
 _atom_site_label
 _atom_site_symmetry_multiplicity
 _atom_site_fract_x
 _atom_site_fract_y
 _atom_site_fract_z
 _atom_site_occupancy
  Y  Y0  1  0.192700  0.330046  0.000000  1
  Y  Y1  1  0.669954  0.192700  0.000000  1
  Y  Y2  1  0.330046  0.807300  0.000000  1
  Y  Y3  1  0.692700  0.169954  0.500000  1
  Y  Y4  1  0.307300  0.830046  0.500000  1
  Y  Y5  1  0.807300  0.669954  0.000000  1
  Y  Y6  1  0.830046  0.692700  0.500000  1
  Y  Y7  1  0.169954  0.307300  0.500000  1
  Co  Co8  1  0.000000  0.000000  0.000000  1
  Co  Co9  1  0.500000  0.500000  0.500000  1
  B  B10  1  0.173781  0.038956  0.230887  1
  B  B11  1  0.961044  0.173781  0.230887  1
  B  B12  1  0.038956  0.826219  0.230887  1
  B  B13  1  0.673781  0.461044  0.269113  1
  B  B14  1  0.326219  0.538956  0.269113  1
  B  B15  1  0.826219  0.961044  0.230887  1
  B  B16  1  0.538956  0.673781  0.269113  1
  B  B17  1  0.461044  0.326219  0.269113  1
  B  B18  1  0.826219  0.961044  0.769113  1
  B  B19  1  0.038956  0.826219  0.769113  1
  B  B20  1  0.961044  0.173781  0.769113  1
  B  B21  1  0.326219  0.538956  0.730887  1
  B  B22  1  0.673781  0.461044  0.730887  1
  B  B23  1  0.173781  0.038956  0.769113  1
  B  B24  1  0.461044  0.326219  0.730887  1
  B  B25  1  0.538956  0.673781  0.730887  1
  B  B26  1  0.088368  0.588368  0.250000  1
  B  B27  1  0.411632  0.088368  0.250000  1
  B  B28  1  0.588368  0.911632  0.250000  1
  B  B29  1  0.911632  0.411632  0.250000  1
  B  B30  1  0.911632  0.411632  0.750000  1
  B  B31  1  0.588368  0.911632  0.750000  1
  B  B32  1  0.411632  0.088368  0.750000  1
  B  B33  1  0.088368  0.588368  0.750000  1
  B  B34  1  0.000000  0.000000  0.388185  1
  B  B35  1  0.500000  0.500000  0.111815  1
  B  B36  1  0.000000  0.000000  0.611815  1
  B  B37  1  0.500000  0.500000  0.888185  1
