# generated using pymatgen
data_Ba6Y3Sc(WO9)2
_symmetry_space_group_name_H-M   'P 1'
_cell_length_a   6.05478378
_cell_length_b   8.56518253
_cell_length_c   10.48676277
_cell_angle_alpha   65.89685029
_cell_angle_beta   73.22062688
_cell_angle_gamma   89.99999906
_symmetry_Int_Tables_number   1
_chemical_formula_structural   Ba6Y3Sc(WO9)2
_chemical_formula_sum   'Ba6 Y3 Sc1 W2 O18'
_cell_volume   470.94917038
_cell_formula_units_Z   1
loop_
 _symmetry_equiv_pos_site_id
 _symmetry_equiv_pos_as_xyz
  1  'x, y, z'
loop_
 _atom_site_type_symbol
 _atom_site_label
 _atom_site_symmetry_multiplicity
 _atom_site_fract_x
 _atom_site_fract_y
 _atom_site_fract_z
 _atom_site_occupancy
  Ba  Ba0  1  0.500000  0.269108  0.000000  1
  Ba  Ba1  1  0.841273  0.580046  0.317453  1
  Ba  Ba2  1  0.158727  0.897499  0.682547  1
  Ba  Ba3  1  0.500000  0.730892  0.000000  1
  Ba  Ba4  1  0.841273  0.102501  0.317453  1
  Ba  Ba5  1  0.158727  0.419954  0.682547  1
  Y  Y6  1  0.000000  0.000000  0.000000  1
  Y  Y7  1  0.331088  0.331088  0.337823  1
  Y  Y8  1  0.668912  0.668912  0.662177  1
  Sc  Sc9  1  0.000000  0.500000  0.000000  1
  W  W10  1  0.333898  0.833898  0.332204  1
  W  W11  1  0.666102  0.166102  0.667795  1
  O  O12  1  0.000000  0.254366  0.000000  1
  O  O13  1  0.331485  0.601533  0.337029  1
  O  O14  1  0.668515  0.938564  0.662971  1
  O  O15  1  0.159932  0.415134  0.169732  1
  O  O16  1  0.488743  0.758319  0.483361  1
  O  O17  1  0.818872  0.089731  0.820536  1
  O  O18  1  0.329663  0.584866  0.830268  1
  O  O19  1  0.639409  0.910269  0.179464  1
  O  O20  1  0.972105  0.241681  0.516639  1
  O  O21  1  0.000000  0.745634  0.000000  1
  O  O22  1  0.331485  0.061436  0.337029  1
  O  O23  1  0.668515  0.398467  0.662971  1
  O  O24  1  0.840068  0.584866  0.830268  1
  O  O25  1  0.181128  0.910269  0.179464  1
  O  O26  1  0.511257  0.241681  0.516639  1
  O  O27  1  0.670337  0.415134  0.169732  1
  O  O28  1  0.027895  0.758319  0.483361  1
  O  O29  1  0.360591  0.089731  0.820536  1
