# generated using pymatgen
data_Sr2ErGaO5
_symmetry_space_group_name_H-M   'P 1'
_cell_length_a   5.94030900
_cell_length_b   7.61151014
_cell_length_c   12.42400347
_cell_angle_alpha   91.52160345
_cell_angle_beta   90.00000000
_cell_angle_gamma   90.00000000
_symmetry_Int_Tables_number   1
_chemical_formula_structural   Sr2ErGaO5
_chemical_formula_sum   'Sr8 Er4 Ga4 O20'
_cell_volume   561.54978411
_cell_formula_units_Z   4
loop_
 _symmetry_equiv_pos_site_id
 _symmetry_equiv_pos_as_xyz
  1  'x, y, z'
loop_
 _atom_site_type_symbol
 _atom_site_label
 _atom_site_symmetry_multiplicity
 _atom_site_fract_x
 _atom_site_fract_y
 _atom_site_fract_z
 _atom_site_occupancy
  Sr  Sr0  1  0.772684  0.486662  0.330428  1
  Sr  Sr1  1  0.727316  0.986662  0.830428  1
  Sr  Sr2  1  0.227316  0.513338  0.669572  1
  Sr  Sr3  1  0.272684  0.013338  0.169572  1
  Sr  Sr4  1  0.772119  0.985337  0.367870  1
  Sr  Sr5  1  0.727881  0.485337  0.867870  1
  Sr  Sr6  1  0.227881  0.014663  0.632130  1
  Sr  Sr7  1  0.272119  0.514663  0.132130  1
  Er  Er8  1  0.755722  0.270212  0.620900  1
  Er  Er9  1  0.744278  0.770212  0.120900  1
  Er  Er10  1  0.244278  0.729788  0.379100  1
  Er  Er11  1  0.255722  0.229788  0.879100  1
  Ga  Ga12  1  0.719558  0.742151  0.579658  1
  Ga  Ga13  1  0.780442  0.242151  0.079658  1
  Ga  Ga14  1  0.280442  0.257849  0.420342  1
  Ga  Ga15  1  0.219558  0.757849  0.920342  1
  O  O16  1  0.788694  0.972186  0.628218  1
  O  O17  1  0.711306  0.472186  0.128218  1
  O  O18  1  0.211306  0.027814  0.371782  1
  O  O19  1  0.288694  0.527814  0.871782  1
  O  O20  1  0.717257  0.066505  0.176622  1
  O  O21  1  0.782743  0.566505  0.676622  1
  O  O22  1  0.282743  0.933495  0.823378  1
  O  O23  1  0.217257  0.433495  0.323378  1
  O  O24  1  0.539502  0.747305  0.275377  1
  O  O25  1  0.960498  0.247305  0.775377  1
  O  O26  1  0.460498  0.252695  0.724623  1
  O  O27  1  0.039502  0.752695  0.224623  1
  O  O28  1  0.594078  0.213042  0.959853  1
  O  O29  1  0.905922  0.713042  0.459853  1
  O  O30  1  0.405922  0.786958  0.040147  1
  O  O31  1  0.094078  0.286958  0.540147  1
  O  O32  1  0.090312  0.236706  0.045143  1
  O  O33  1  0.409688  0.736706  0.545143  1
  O  O34  1  0.909688  0.763294  0.954857  1
  O  O35  1  0.590312  0.263294  0.454857  1
