# generated using pymatgen
data_NaPrNb4O8
_symmetry_space_group_name_H-M   'P 1'
_cell_length_a   5.14767500
_cell_length_b   5.95877400
_cell_length_c   12.06734000
_cell_angle_alpha   90.00000000
_cell_angle_beta   90.00000000
_cell_angle_gamma   90.00000000
_symmetry_Int_Tables_number   1
_chemical_formula_structural   NaPrNb4O8
_chemical_formula_sum   'Na2 Pr2 Nb8 O16'
_cell_volume   370.15155925
_cell_formula_units_Z   2
loop_
 _symmetry_equiv_pos_site_id
 _symmetry_equiv_pos_as_xyz
  1  'x, y, z'
loop_
 _atom_site_type_symbol
 _atom_site_label
 _atom_site_symmetry_multiplicity
 _atom_site_fract_x
 _atom_site_fract_y
 _atom_site_fract_z
 _atom_site_occupancy
  Na  Na0  1  0.709436  0.250000  0.504223  1
  Na  Na1  1  0.709436  0.750000  0.995777  1
  Pr  Pr2  1  0.321500  0.250000  0.003147  1
  Pr  Pr3  1  0.321500  0.750000  0.496853  1
  Nb  Nb4  1  0.152526  0.000000  0.250000  1
  Nb  Nb5  1  0.152526  0.500000  0.250000  1
  Nb  Nb6  1  0.337239  0.250000  0.744018  1
  Nb  Nb7  1  0.337239  0.750000  0.755982  1
  Nb  Nb8  1  0.658112  0.250000  0.249276  1
  Nb  Nb9  1  0.658112  0.750000  0.250724  1
  Nb  Nb10  1  0.841103  0.000000  0.750000  1
  Nb  Nb11  1  0.841103  0.500000  0.750000  1
  O  O12  1  0.002575  0.250000  0.642566  1
  O  O13  1  0.002575  0.750000  0.857434  1
  O  O14  1  0.011534  0.250000  0.857113  1
  O  O15  1  0.011534  0.750000  0.642887  1
  O  O16  1  0.490701  0.502585  0.139743  1
  O  O17  1  0.490701  0.997415  0.139743  1
  O  O18  1  0.490701  0.002585  0.360257  1
  O  O19  1  0.490701  0.497415  0.360257  1
  O  O20  1  0.504968  0.506979  0.639486  1
  O  O21  1  0.504968  0.006979  0.860514  1
  O  O22  1  0.504968  0.493021  0.860514  1
  O  O23  1  0.504968  0.993021  0.639486  1
  O  O24  1  0.986941  0.750000  0.145605  1
  O  O25  1  0.986941  0.250000  0.354395  1
  O  O26  1  0.987696  0.250000  0.139340  1
  O  O27  1  0.987696  0.750000  0.360660  1
