# generated using pymatgen
data_Y2Co3Si7Ru9
_symmetry_space_group_name_H-M   'P 1'
_cell_length_a   3.84086700
_cell_length_b   9.50839371
_cell_length_c   9.50839400
_cell_angle_alpha   119.99999404
_cell_angle_beta   90.00000000
_cell_angle_gamma   90.00000000
_symmetry_Int_Tables_number   1
_chemical_formula_structural   Y2Co3Si7Ru9
_chemical_formula_sum   'Y2 Co3 Si7 Ru9'
_cell_volume   300.72826742
_cell_formula_units_Z   1
loop_
 _symmetry_equiv_pos_site_id
 _symmetry_equiv_pos_as_xyz
  1  'x, y, z'
loop_
 _atom_site_type_symbol
 _atom_site_label
 _atom_site_symmetry_multiplicity
 _atom_site_fract_x
 _atom_site_fract_y
 _atom_site_fract_z
 _atom_site_occupancy
  Y  Y0  1  0.000000  0.666667  0.333333  1
  Y  Y1  1  0.500000  0.333333  0.666667  1
  Co  Co2  1  0.000000  0.877033  0.147231  1
  Co  Co3  1  0.000000  0.270198  0.122967  1
  Co  Co4  1  0.000000  0.852769  0.729802  1
  Si  Si5  1  0.000000  0.000000  0.000000  1
  Si  Si6  1  0.500000  0.716757  0.107357  1
  Si  Si7  1  0.500000  0.390600  0.283243  1
  Si  Si8  1  0.500000  0.892643  0.609400  1
  Si  Si9  1  0.000000  0.602458  0.709228  1
  Si  Si10  1  0.000000  0.106770  0.397542  1
  Si  Si11  1  0.000000  0.290772  0.893230  1
  Ru  Ru12  1  0.000000  0.572948  0.943723  1
  Ru  Ru13  1  0.000000  0.370775  0.427052  1
  Ru  Ru14  1  0.000000  0.056277  0.629225  1
  Ru  Ru15  1  0.500000  0.796625  0.902409  1
  Ru  Ru16  1  0.500000  0.105786  0.203375  1
  Ru  Ru17  1  0.500000  0.097591  0.894214  1
  Ru  Ru18  1  0.500000  0.945584  0.379715  1
  Ru  Ru19  1  0.500000  0.434129  0.054416  1
  Ru  Ru20  1  0.500000  0.620285  0.565871  1
