# generated using pymatgen
data_Tm8V12Si15P
_symmetry_space_group_name_H-M   'P 1'
_cell_length_a   6.77260575
_cell_length_b   6.75960164
_cell_length_c   12.52793525
_cell_angle_alpha   89.98242759
_cell_angle_beta   89.98587737
_cell_angle_gamma   90.01926495
_symmetry_Int_Tables_number   1
_chemical_formula_structural   Tm8V12Si15P
_chemical_formula_sum   'Tm8 V12 Si15 P1'
_cell_volume   573.53026352
_cell_formula_units_Z   1
loop_
 _symmetry_equiv_pos_site_id
 _symmetry_equiv_pos_as_xyz
  1  'x, y, z'
loop_
 _atom_site_type_symbol
 _atom_site_label
 _atom_site_symmetry_multiplicity
 _atom_site_fract_x
 _atom_site_fract_y
 _atom_site_fract_z
 _atom_site_occupancy
  Tm  Tm0  1  0.003409  0.665181  0.030153  1
  Tm  Tm1  1  0.837516  0.499596  0.279886  1
  Tm  Tm2  1  0.161489  0.499640  0.780450  1
  Tm  Tm3  1  0.500139  0.837711  0.720176  1
  Tm  Tm4  1  0.497307  0.159870  0.218031  1
  Tm  Tm5  1  0.999888  0.337379  0.530319  1
  Tm  Tm6  1  0.658292  0.000459  0.970730  1
  Tm  Tm7  1  0.337508  0.000166  0.469611  1
  V  V8  1  0.329778  0.328493  0.000726  1
  V  V9  1  0.170782  0.832473  0.247637  1
  V  V10  1  0.830767  0.169038  0.750015  1
  V  V11  1  0.668935  0.668771  0.499971  1
  V  V12  1  0.012045  0.155295  0.124601  1
  V  V13  1  0.341307  0.507704  0.375681  1
  V  V14  1  0.660268  0.491606  0.876274  1
  V  V15  1  0.508316  0.341539  0.624252  1
  V  V16  1  0.488627  0.663072  0.123654  1
  V  V17  1  0.991470  0.841556  0.625958  1
  V  V18  1  0.160425  0.007314  0.877684  1
  V  V19  1  0.841329  0.991739  0.374141  1
  Si  Si20  1  0.540668  0.788943  0.314720  1
  Si  Si21  1  0.459957  0.211913  0.814134  1
  Si  Si22  1  0.789115  0.540483  0.685755  1
  Si  Si23  1  0.210993  0.459495  0.185913  1
  Si  Si24  1  0.710473  0.040023  0.564194  1
  Si  Si25  1  0.958511  0.289398  0.935768  1
  Si  Si26  1  0.040625  0.711106  0.434964  1
  Si  Si27  1  0.700974  0.376973  0.066786  1
  Si  Si28  1  0.124773  0.200983  0.316429  1
  Si  Si29  1  0.874994  0.801049  0.817070  1
  Si  Si30  1  0.200072  0.124428  0.684699  1
  Si  Si31  1  0.799338  0.874993  0.184045  1
  Si  Si32  1  0.299269  0.625347  0.566202  1
  Si  Si33  1  0.376647  0.696760  0.932059  1
  Si  Si34  1  0.625192  0.298924  0.433356  1
  P  P35  1  0.288801  0.960582  0.063959  1
