# generated using pymatgen
data_Pr5U2O12
_symmetry_space_group_name_H-M   'P 1'
_cell_length_a   6.85183326
_cell_length_b   6.87744181
_cell_length_c   6.79611319
_cell_angle_alpha   99.50059437
_cell_angle_beta   98.50124560
_cell_angle_gamma   98.89715670
_symmetry_Int_Tables_number   1
_chemical_formula_structural   Pr5U2O12
_chemical_formula_sum   'Pr5 U2 O12'
_cell_volume   307.08218453
_cell_formula_units_Z   1
loop_
 _symmetry_equiv_pos_site_id
 _symmetry_equiv_pos_as_xyz
  1  'x, y, z'
loop_
 _atom_site_type_symbol
 _atom_site_label
 _atom_site_symmetry_multiplicity
 _atom_site_fract_x
 _atom_site_fract_y
 _atom_site_fract_z
 _atom_site_occupancy
  Pr  Pr0  1  0.860171  0.696966  0.392852  1
  Pr  Pr1  1  0.393338  0.858541  0.693716  1
  Pr  Pr2  1  0.304096  0.609139  0.141237  1
  Pr  Pr3  1  0.143488  0.305894  0.609372  1
  Pr  Pr4  1  0.605260  0.136444  0.307928  1
  U  U5  1  0.692172  0.397812  0.861618  1
  U  U6  1  0.998413  0.001786  0.998027  1
  O  O7  1  0.441170  0.180966  0.597762  1
  O  O8  1  0.596334  0.428047  0.157619  1
  O  O9  1  0.174157  0.583274  0.438795  1
  O  O10  1  0.560672  0.817854  0.406965  1
  O  O11  1  0.432924  0.561840  0.821986  1
  O  O12  1  0.808623  0.415520  0.582696  1
  O  O13  1  0.070205  0.308757  0.949621  1
  O  O14  1  0.696098  0.064434  0.926517  1
  O  O15  1  0.051928  0.932109  0.692744  1
  O  O16  1  0.921583  0.686571  0.042668  1
  O  O17  1  0.303728  0.946469  0.069968  1
  O  O18  1  0.945637  0.067576  0.307909  1
