# generated using pymatgen
data_La3Nd13Cd4CuIr3
_symmetry_space_group_name_H-M   'P 1'
_cell_length_a   9.96399195
_cell_length_b   9.96587112
_cell_length_c   9.96587169
_cell_angle_alpha   60.45990487
_cell_angle_beta   60.40628001
_cell_angle_gamma   60.40627502
_symmetry_Int_Tables_number   1
_chemical_formula_structural   La3Nd13Cd4CuIr3
_chemical_formula_sum   'La3 Nd13 Cd4 Cu1 Ir3'
_cell_volume   706.47037783
_cell_formula_units_Z   1
loop_
 _symmetry_equiv_pos_site_id
 _symmetry_equiv_pos_as_xyz
  1  'x, y, z'
loop_
 _atom_site_type_symbol
 _atom_site_label
 _atom_site_symmetry_multiplicity
 _atom_site_fract_x
 _atom_site_fract_y
 _atom_site_fract_z
 _atom_site_occupancy
  La  La0  1  0.344979  0.346669  0.346669  1
  La  La1  1  0.352168  0.353138  0.948964  1
  La  La2  1  0.352168  0.948964  0.353138  1
  Nd  Nd3  1  0.944906  0.353233  0.353233  1
  Nd  Nd4  1  0.806185  0.190128  0.190128  1
  Nd  Nd5  1  0.190166  0.810606  0.810606  1
  Nd  Nd6  1  0.190006  0.806879  0.189511  1
  Nd  Nd7  1  0.811261  0.189694  0.809720  1
  Nd  Nd8  1  0.190006  0.189511  0.806879  1
  Nd  Nd9  1  0.811261  0.809720  0.189694  1
  Nd  Nd10  1  0.940776  0.562148  0.562148  1
  Nd  Nd11  1  0.564389  0.938299  0.938299  1
  Nd  Nd12  1  0.563019  0.939971  0.563015  1
  Nd  Nd13  1  0.938722  0.564247  0.938248  1
  Nd  Nd14  1  0.563019  0.563015  0.939971  1
  Nd  Nd15  1  0.938722  0.938248  0.564247  1
  Cd  Cd16  1  0.582512  0.580104  0.580104  1
  Cd  Cd17  1  0.581896  0.580187  0.258066  1
  Cd  Cd18  1  0.581896  0.258066  0.580187  1
  Cd  Cd19  1  0.257819  0.581053  0.581053  1
  Cu  Cu20  1  0.140485  0.143424  0.143424  1
  Ir  Ir21  1  0.140877  0.140335  0.571900  1
  Ir  Ir22  1  0.140877  0.571900  0.140335  1
  Ir  Ir23  1  0.571884  0.140460  0.140460  1
