# generated using pymatgen
data_Sr2Li3ThPt3
_symmetry_space_group_name_H-M   'P 1'
_cell_length_a   7.55125423
_cell_length_b   7.58689719
_cell_length_c   4.20918300
_cell_angle_alpha   90.00000000
_cell_angle_beta   90.00000000
_cell_angle_gamma   120.15627919
_symmetry_Int_Tables_number   1
_chemical_formula_structural   Sr2Li3ThPt3
_chemical_formula_sum   'Sr2 Li3 Th1 Pt3'
_cell_volume   208.50940998
_cell_formula_units_Z   1
loop_
 _symmetry_equiv_pos_site_id
 _symmetry_equiv_pos_as_xyz
  1  'x, y, z'
loop_
 _atom_site_type_symbol
 _atom_site_label
 _atom_site_symmetry_multiplicity
 _atom_site_fract_x
 _atom_site_fract_y
 _atom_site_fract_z
 _atom_site_occupancy
  Sr  Sr0  1  0.409033  0.411052  0.500000  1
  Sr  Sr1  1  0.590967  0.002019  0.500000  1
  Li  Li2  1  0.771004  0.768351  0.000000  1
  Li  Li3  1  0.228996  0.997347  0.000000  1
  Li  Li4  1  0.000000  0.229076  0.000000  1
  Th  Th5  1  0.000000  0.598646  0.500000  1
  Pt  Pt6  1  0.709705  0.366111  0.000000  1
  Pt  Pt7  1  0.290295  0.656405  0.000000  1
  Pt  Pt8  1  0.000000  0.970994  0.500000  1
