# generated using pymatgen
data_Er8Ti2Si16Tc9Ru
_symmetry_space_group_name_H-M   'P 1'
_cell_length_a   6.74156318
_cell_length_b   6.74156274
_cell_length_c   12.87705615
_cell_angle_alpha   89.98696274
_cell_angle_beta   90.01303830
_cell_angle_gamma   88.92929998
_symmetry_Int_Tables_number   1
_chemical_formula_structural   Er8Ti2Si16Tc9Ru
_chemical_formula_sum   'Er8 Ti2 Si16 Tc9 Ru1'
_cell_volume   585.14287432
_cell_formula_units_Z   1
loop_
 _symmetry_equiv_pos_site_id
 _symmetry_equiv_pos_as_xyz
  1  'x, y, z'
loop_
 _atom_site_type_symbol
 _atom_site_label
 _atom_site_symmetry_multiplicity
 _atom_site_fract_x
 _atom_site_fract_y
 _atom_site_fract_z
 _atom_site_occupancy
  Er  Er0  1  0.339379  0.001695  0.470240  1
  Er  Er1  1  0.509800  0.825458  0.717110  1
  Er  Er2  1  0.489242  0.175916  0.216696  1
  Er  Er3  1  0.825458  0.509800  0.282890  1
  Er  Er4  1  0.175916  0.489242  0.783304  1
  Er  Er5  1  0.661097  0.998432  0.971491  1
  Er  Er6  1  0.001695  0.339379  0.529760  1
  Er  Er7  1  0.998432  0.661097  0.028509  1
  Ti  Ti8  1  0.159396  0.840957  0.249844  1
  Ti  Ti9  1  0.840957  0.159396  0.750156  1
  Si  Si10  1  0.209590  0.119714  0.680396  1
  Si  Si11  1  0.394933  0.682664  0.940071  1
  Si  Si12  1  0.604600  0.316687  0.440468  1
  Si  Si13  1  0.682664  0.394933  0.059929  1
  Si  Si14  1  0.316687  0.604600  0.559532  1
  Si  Si15  1  0.789393  0.880221  0.181440  1
  Si  Si16  1  0.119714  0.209590  0.319604  1
  Si  Si17  1  0.880221  0.789393  0.818560  1
  Si  Si18  1  0.263448  0.983029  0.055491  1
  Si  Si19  1  0.531337  0.802456  0.316163  1
  Si  Si20  1  0.468445  0.197785  0.816819  1
  Si  Si21  1  0.802456  0.531337  0.683837  1
  Si  Si22  1  0.197785  0.468445  0.183181  1
  Si  Si23  1  0.737264  0.017992  0.555582  1
  Si  Si24  1  0.983029  0.263448  0.944509  1
  Si  Si25  1  0.017992  0.737264  0.444418  1
  Tc  Tc26  1  0.332776  0.332776  0.000000  1
  Tc  Tc27  1  0.181218  0.981029  0.864271  1
  Tc  Tc28  1  0.475521  0.689858  0.133670  1
  Tc  Tc29  1  0.526954  0.310863  0.632929  1
  Tc  Tc30  1  0.689858  0.475521  0.866330  1
  Tc  Tc31  1  0.310863  0.526954  0.367071  1
  Tc  Tc32  1  0.816133  0.018054  0.365484  1
  Tc  Tc33  1  0.981029  0.181218  0.135729  1
  Tc  Tc34  1  0.018054  0.816133  0.634516  1
  Ru  Ru35  1  0.666664  0.666664  0.500000  1
