# generated using pymatgen
data_Dy4Ho3Lu13(CoSb2)4
_symmetry_space_group_name_H-M   'P 1'
_cell_length_a   7.73297512
_cell_length_b   8.73578200
_cell_length_c   11.99841174
_cell_angle_alpha   90.00000000
_cell_angle_beta   90.06168689
_cell_angle_gamma   90.00000000
_symmetry_Int_Tables_number   1
_chemical_formula_structural   Dy4Ho3Lu13(CoSb2)4
_chemical_formula_sum   'Dy4 Ho3 Lu13 Co4 Sb8'
_cell_volume   810.53525584
_cell_formula_units_Z   1
loop_
 _symmetry_equiv_pos_site_id
 _symmetry_equiv_pos_as_xyz
  1  'x, y, z'
loop_
 _atom_site_type_symbol
 _atom_site_label
 _atom_site_symmetry_multiplicity
 _atom_site_fract_x
 _atom_site_fract_y
 _atom_site_fract_z
 _atom_site_occupancy
  Dy  Dy0  1  0.622222  0.750000  0.307753  1
  Dy  Dy1  1  0.877741  0.750000  0.807829  1
  Dy  Dy2  1  0.377513  0.250000  0.692305  1
  Dy  Dy3  1  0.121729  0.250000  0.192211  1
  Ho  Ho4  1  0.155365  0.750000  0.204268  1
  Ho  Ho5  1  0.344889  0.750000  0.704054  1
  Ho  Ho6  1  0.844705  0.250000  0.795806  1
  Lu  Lu7  1  0.654921  0.250000  0.296620  1
  Lu  Lu8  1  0.448028  0.750000  0.997794  1
  Lu  Lu9  1  0.051948  0.750000  0.497486  1
  Lu  Lu10  1  0.552254  0.250000  0.002714  1
  Lu  Lu11  1  0.947193  0.250000  0.502005  1
  Lu  Lu12  1  0.823636  0.537073  0.065180  1
  Lu  Lu13  1  0.676303  0.963041  0.564805  1
  Lu  Lu14  1  0.176336  0.037162  0.934959  1
  Lu  Lu15  1  0.324156  0.462227  0.434665  1
  Lu  Lu16  1  0.176336  0.462838  0.934959  1
  Lu  Lu17  1  0.324156  0.037773  0.434665  1
  Lu  Lu18  1  0.823636  0.962927  0.065180  1
  Lu  Lu19  1  0.676303  0.536959  0.564805  1
  Co  Co20  1  0.432099  0.750000  0.491347  1
  Co  Co21  1  0.068052  0.750000  0.991380  1
  Co  Co22  1  0.568157  0.250000  0.508179  1
  Co  Co23  1  0.932185  0.250000  0.008569  1
  Sb  Sb24  1  0.930206  0.507745  0.329374  1
  Sb  Sb25  1  0.568911  0.991601  0.829727  1
  Sb  Sb26  1  0.068936  0.008420  0.670317  1
  Sb  Sb27  1  0.432015  0.490731  0.170814  1
  Sb  Sb28  1  0.068936  0.491580  0.670317  1
  Sb  Sb29  1  0.432015  0.009269  0.170814  1
  Sb  Sb30  1  0.930206  0.992255  0.329374  1
  Sb  Sb31  1  0.568911  0.508399  0.829727  1
