# generated using pymatgen
data_Tb2Be2AlIr5
_symmetry_space_group_name_H-M   'P 1'
_cell_length_a   9.65334400
_cell_length_b   9.65334400
_cell_length_c   3.23073900
_cell_angle_alpha   90.00000000
_cell_angle_beta   90.00000000
_cell_angle_gamma   90.00000000
_symmetry_Int_Tables_number   1
_chemical_formula_structural   Tb2Be2AlIr5
_chemical_formula_sum   'Tb4 Be4 Al2 Ir10'
_cell_volume   301.06303797
_cell_formula_units_Z   2
loop_
 _symmetry_equiv_pos_site_id
 _symmetry_equiv_pos_as_xyz
  1  'x, y, z'
loop_
 _atom_site_type_symbol
 _atom_site_label
 _atom_site_symmetry_multiplicity
 _atom_site_fract_x
 _atom_site_fract_y
 _atom_site_fract_z
 _atom_site_occupancy
  Tb  Tb0  1  0.676450  0.176450  0.000000  1
  Tb  Tb1  1  0.323550  0.823550  0.000000  1
  Tb  Tb2  1  0.176450  0.323550  0.000000  1
  Tb  Tb3  1  0.823550  0.676450  0.000000  1
  Be  Be4  1  0.122751  0.622751  0.000000  1
  Be  Be5  1  0.877249  0.377249  0.000000  1
  Be  Be6  1  0.622751  0.877249  0.000000  1
  Be  Be7  1  0.377249  0.122751  0.000000  1
  Al  Al8  1  0.000000  0.000000  0.000000  1
  Al  Al9  1  0.500000  0.500000  0.000000  1
  Ir  Ir10  1  0.211461  0.066064  0.500000  1
  Ir  Ir11  1  0.788539  0.933936  0.500000  1
  Ir  Ir12  1  0.066064  0.788539  0.500000  1
  Ir  Ir13  1  0.711461  0.433936  0.500000  1
  Ir  Ir14  1  0.933936  0.211461  0.500000  1
  Ir  Ir15  1  0.288539  0.566064  0.500000  1
  Ir  Ir16  1  0.566064  0.711461  0.500000  1
  Ir  Ir17  1  0.433936  0.288539  0.500000  1
  Ir  Ir18  1  0.500000  0.000000  0.500000  1
  Ir  Ir19  1  0.000000  0.500000  0.500000  1
