# generated using pymatgen
data_Sr5Pd5Au
_symmetry_space_group_name_H-M   'P 1'
_cell_length_a   15.01072262
_cell_length_b   15.01072180
_cell_length_c   4.36078700
_cell_angle_alpha   90.00000000
_cell_angle_beta   90.00000000
_cell_angle_gamma   162.21481328
_symmetry_Int_Tables_number   1
_chemical_formula_structural   Sr5Pd5Au
_chemical_formula_sum   'Sr5 Pd5 Au1'
_cell_volume   300.12829671
_cell_formula_units_Z   1
loop_
 _symmetry_equiv_pos_site_id
 _symmetry_equiv_pos_as_xyz
  1  'x, y, z'
loop_
 _atom_site_type_symbol
 _atom_site_label
 _atom_site_symmetry_multiplicity
 _atom_site_fract_x
 _atom_site_fract_y
 _atom_site_fract_z
 _atom_site_occupancy
  Sr  Sr0  1  0.003382  0.996618  0.000000  1
  Sr  Sr1  1  0.615480  0.384518  0.000000  1
  Sr  Sr2  1  0.383870  0.616128  0.000000  1
  Sr  Sr3  1  0.800582  0.199416  0.500001  1
  Sr  Sr4  1  0.196418  0.803580  0.500001  1
  Pd  Pd5  1  0.724762  0.275236  0.000000  1
  Pd  Pd6  1  0.275456  0.724542  0.000000  1
  Pd  Pd7  1  0.544815  0.455183  0.500001  1
  Pd  Pd8  1  0.456614  0.543384  0.500001  1
  Pd  Pd9  1  0.089304  0.910695  0.500001  1
  Au  Au10  1  0.909309  0.090690  0.500001  1
