# generated using pymatgen
data_Ta5Ti7Al8(IrC)4
_symmetry_space_group_name_H-M   'P 1'
_cell_length_a   8.25578422
_cell_length_b   8.25867162
_cell_length_c   8.24159702
_cell_angle_alpha   60.01154834
_cell_angle_beta   60.03632020
_cell_angle_gamma   59.94821059
_symmetry_Int_Tables_number   1
_chemical_formula_structural   Ta5Ti7Al8(IrC)4
_chemical_formula_sum   'Ta5 Ti7 Al8 Ir4 C4'
_cell_volume   397.33012465
_cell_formula_units_Z   1
loop_
 _symmetry_equiv_pos_site_id
 _symmetry_equiv_pos_as_xyz
  1  'x, y, z'
loop_
 _atom_site_type_symbol
 _atom_site_label
 _atom_site_symmetry_multiplicity
 _atom_site_fract_x
 _atom_site_fract_y
 _atom_site_fract_z
 _atom_site_occupancy
  Ta  Ta0  1  0.938574  0.561485  0.560552  1
  Ta  Ta1  1  0.562130  0.937440  0.939885  1
  Ta  Ta2  1  0.938528  0.938117  0.561934  1
  Ta  Ta3  1  0.686922  0.313652  0.687689  1
  Ta  Ta4  1  0.936870  0.563297  0.937916  1
  Ti  Ti5  1  0.562543  0.937625  0.561115  1
  Ti  Ti6  1  0.313689  0.687347  0.688726  1
  Ti  Ti7  1  0.688078  0.312529  0.311563  1
  Ti  Ti8  1  0.312546  0.688216  0.310314  1
  Ti  Ti9  1  0.688049  0.687355  0.312809  1
  Ti  Ti10  1  0.312369  0.311048  0.688723  1
  Ti  Ti11  1  0.562002  0.561653  0.938737  1
  Al  Al12  1  0.917562  0.914962  0.916644  1
  Al  Al13  1  0.995856  0.335699  0.332060  1
  Al  Al14  1  0.336004  0.994401  0.336401  1
  Al  Al15  1  0.331998  0.336898  0.996603  1
  Al  Al16  1  0.913454  0.253865  0.917578  1
  Al  Al17  1  0.912987  0.917493  0.252984  1
  Al  Al18  1  0.255563  0.913264  0.913666  1
  Al  Al19  1  0.336934  0.333526  0.334539  1
  Ir  Ir20  1  0.126008  0.123619  0.124944  1
  Ir  Ir21  1  0.624577  0.125161  0.122717  1
  Ir  Ir22  1  0.123874  0.625058  0.126940  1
  Ir  Ir23  1  0.123108  0.126392  0.625060  1
  C  C24  1  0.622656  0.628708  0.625764  1
  C  C25  1  0.131630  0.622838  0.622655  1
  C  C26  1  0.622469  0.125676  0.622909  1
  C  C27  1  0.623021  0.622675  0.128571  1
