# generated using pymatgen
data_Li3Y3Si4Ag
_symmetry_space_group_name_H-M   'P 1'
_cell_length_a   8.15459705
_cell_length_b   8.11713484
_cell_length_c   8.11713480
_cell_angle_alpha   149.41082175
_cell_angle_beta   131.18066804
_cell_angle_gamma   58.67358076
_symmetry_Int_Tables_number   1
_chemical_formula_structural   Li3Y3Si4Ag
_chemical_formula_sum   'Li3 Y3 Si4 Ag1'
_cell_volume   204.23407169
_cell_formula_units_Z   1
loop_
 _symmetry_equiv_pos_site_id
 _symmetry_equiv_pos_as_xyz
  1  'x, y, z'
loop_
 _atom_site_type_symbol
 _atom_site_label
 _atom_site_symmetry_multiplicity
 _atom_site_fract_x
 _atom_site_fract_y
 _atom_site_fract_z
 _atom_site_occupancy
  Li  Li0  1  0.517931  0.826095  0.691837  1
  Li  Li1  1  0.862713  0.169541  0.693172  1
  Li  Li2  1  0.141969  0.830037  0.311932  1
  Y  Y3  1  0.875698  0.371879  0.503818  1
  Y  Y4  1  0.117772  0.628823  0.488948  1
  Y  Y5  1  0.499594  0.501497  0.998097  1
  Si  Si6  1  0.816882  0.998271  0.818612  1
  Si  Si7  1  0.178589  0.000755  0.177834  1
  Si  Si8  1  0.279998  0.286732  0.993265  1
  Si  Si9  1  0.726586  0.714115  0.012470  1
  Ag  Ag10  1  0.482270  0.172254  0.310015  1
