# generated using pymatgen
data_DyHo7Re2(B12Rh)2
_symmetry_space_group_name_H-M   'P 1'
_cell_length_a   3.67185900
_cell_length_b   9.13618980
_cell_length_c   11.52528300
_cell_angle_alpha   90.44138995
_cell_angle_beta   90.00000000
_cell_angle_gamma   90.00000000
_symmetry_Int_Tables_number   1
_chemical_formula_structural   DyHo7Re2(B12Rh)2
_chemical_formula_sum   'Dy1 Ho7 Re2 B24 Rh2'
_cell_volume   386.62489967
_cell_formula_units_Z   1
loop_
 _symmetry_equiv_pos_site_id
 _symmetry_equiv_pos_as_xyz
  1  'x, y, z'
loop_
 _atom_site_type_symbol
 _atom_site_label
 _atom_site_symmetry_multiplicity
 _atom_site_fract_x
 _atom_site_fract_y
 _atom_site_fract_z
 _atom_site_occupancy
  Dy  Dy0  1  0.000000  0.318518  0.410733  1
  Ho  Ho1  1  0.000000  0.681709  0.589325  1
  Ho  Ho2  1  0.000000  0.826233  0.082629  1
  Ho  Ho3  1  0.000000  0.173757  0.917361  1
  Ho  Ho4  1  0.000000  0.945138  0.371870  1
  Ho  Ho5  1  0.000000  0.054740  0.628151  1
  Ho  Ho6  1  0.000000  0.442522  0.126620  1
  Ho  Ho7  1  0.000000  0.557494  0.873347  1
  Re  Re8  1  0.000000  0.138755  0.179691  1
  Re  Re9  1  0.000000  0.861124  0.820208  1
  B  B10  1  0.500000  0.554420  0.434037  1
  B  B11  1  0.500000  0.445801  0.566070  1
  B  B12  1  0.500000  0.052980  0.067397  1
  B  B13  1  0.500000  0.947008  0.932589  1
  B  B14  1  0.500000  0.748815  0.421334  1
  B  B15  1  0.500000  0.251136  0.578855  1
  B  B16  1  0.500000  0.248094  0.081126  1
  B  B17  1  0.500000  0.751899  0.918850  1
  B  B18  1  0.500000  0.790977  0.265433  1
  B  B19  1  0.500000  0.209016  0.734584  1
  B  B20  1  0.500000  0.292546  0.234427  1
  B  B21  1  0.500000  0.707373  0.765430  1
  B  B22  1  0.500000  0.632521  0.183593  1
  B  B23  1  0.500000  0.367491  0.816415  1
  B  B24  1  0.500000  0.131773  0.314620  1
  B  B25  1  0.500000  0.868092  0.685280  1
  B  B26  1  0.500000  0.982984  0.212912  1
  B  B27  1  0.500000  0.016979  0.787073  1
  B  B28  1  0.500000  0.483652  0.287642  1
  B  B29  1  0.500000  0.516553  0.712285  1
  B  B30  1  0.500000  0.607008  0.029692  1
  B  B31  1  0.500000  0.393003  0.970297  1
  B  B32  1  0.500000  0.107880  0.470831  1
  B  B33  1  0.500000  0.891877  0.529234  1
  Rh  Rh34  1  0.000000  0.637910  0.321467  1
  Rh  Rh35  1  0.000000  0.362224  0.678592  1
