# generated using pymatgen
data_SmTcH5
_symmetry_space_group_name_H-M   'P 1'
_cell_length_a   4.67680000
_cell_length_b   4.46894000
_cell_length_c   11.81492300
_cell_angle_alpha   90.00000000
_cell_angle_beta   90.00000000
_cell_angle_gamma   90.00000000
_symmetry_Int_Tables_number   1
_chemical_formula_structural   SmTcH5
_chemical_formula_sum   'Sm4 Tc4 H20'
_cell_volume   246.93589114
_cell_formula_units_Z   4
loop_
 _symmetry_equiv_pos_site_id
 _symmetry_equiv_pos_as_xyz
  1  'x, y, z'
loop_
 _atom_site_type_symbol
 _atom_site_label
 _atom_site_symmetry_multiplicity
 _atom_site_fract_x
 _atom_site_fract_y
 _atom_site_fract_z
 _atom_site_occupancy
  Sm  Sm0  1  0.249991  0.249389  0.645253  1
  Sm  Sm1  1  0.749991  0.250611  0.354747  1
  Sm  Sm2  1  0.250009  0.750611  0.145253  1
  Sm  Sm3  1  0.750009  0.749389  0.854747  1
  Tc  Tc4  1  0.249200  0.211235  0.915192  1
  Tc  Tc5  1  0.749200  0.288765  0.084808  1
  Tc  Tc6  1  0.250800  0.788765  0.415192  1
  Tc  Tc7  1  0.750800  0.711235  0.584808  1
  H  H8  1  0.483864  0.517390  0.497771  1
  H  H9  1  0.983864  0.982610  0.502229  1
  H  H10  1  0.016136  0.482610  0.997771  1
  H  H11  1  0.516136  0.017390  0.002229  1
  H  H12  1  0.250252  0.897271  0.834429  1
  H  H13  1  0.750252  0.602729  0.165571  1
  H  H14  1  0.249748  0.102729  0.334429  1
  H  H15  1  0.749748  0.397271  0.665571  1
  H  H16  1  0.986476  0.284181  0.816864  1
  H  H17  1  0.486476  0.215819  0.183136  1
  H  H18  1  0.513524  0.715819  0.316864  1
  H  H19  1  0.013524  0.784181  0.683136  1
  H  H20  1  0.510755  0.287023  0.816683  1
  H  H21  1  0.010755  0.212977  0.183317  1
  H  H22  1  0.989245  0.712977  0.316683  1
  H  H23  1  0.489245  0.787023  0.683317  1
  H  H24  1  0.982709  0.016997  0.002431  1
  H  H25  1  0.482709  0.483003  0.997569  1
  H  H26  1  0.517291  0.983003  0.502431  1
  H  H27  1  0.017291  0.516997  0.497569  1
