# generated using pymatgen
data_Ho16ZnIn6Cu
_symmetry_space_group_name_H-M   'P 1'
_cell_length_a   10.55340800
_cell_length_b   10.55340763
_cell_length_c   6.78929500
_cell_angle_alpha   90.00000000
_cell_angle_beta   90.00000000
_cell_angle_gamma   120.00000115
_symmetry_Int_Tables_number   1
_chemical_formula_structural   Ho16ZnIn6Cu
_chemical_formula_sum   'Ho16 Zn1 In6 Cu1'
_cell_volume   654.84836578
_cell_formula_units_Z   1
loop_
 _symmetry_equiv_pos_site_id
 _symmetry_equiv_pos_as_xyz
  1  'x, y, z'
loop_
 _atom_site_type_symbol
 _atom_site_label
 _atom_site_symmetry_multiplicity
 _atom_site_fract_x
 _atom_site_fract_y
 _atom_site_fract_z
 _atom_site_occupancy
  Ho  Ho0  1  0.524798  0.049594  0.509692  1
  Ho  Ho1  1  0.950406  0.475202  0.509692  1
  Ho  Ho2  1  0.524798  0.475202  0.509692  1
  Ho  Ho3  1  0.477468  0.954937  0.010292  1
  Ho  Ho4  1  0.045063  0.522532  0.010292  1
  Ho  Ho5  1  0.477468  0.522532  0.010292  1
  Ho  Ho6  1  0.172460  0.344919  0.724509  1
  Ho  Ho7  1  0.655081  0.827540  0.724509  1
  Ho  Ho8  1  0.172460  0.827540  0.724509  1
  Ho  Ho9  1  0.824334  0.648670  0.222413  1
  Ho  Ho10  1  0.351330  0.175666  0.222413  1
  Ho  Ho11  1  0.824334  0.175666  0.222413  1
  Ho  Ho12  1  0.666667  0.333333  0.876763  1
  Ho  Ho13  1  0.333333  0.666667  0.365462  1
  Ho  Ho14  1  0.000000  0.000000  0.490141  1
  Ho  Ho15  1  0.000000  0.000000  0.990144  1
  Zn  Zn16  1  0.333333  0.666667  0.793526  1
  In  In17  1  0.835546  0.671092  0.743070  1
  In  In18  1  0.328908  0.164454  0.743070  1
  In  In19  1  0.835546  0.164454  0.743070  1
  In  In20  1  0.164033  0.328066  0.243353  1
  In  In21  1  0.671934  0.835967  0.243353  1
  In  In22  1  0.164033  0.835967  0.243353  1
  Cu  Cu23  1  0.666667  0.333333  0.282019  1
