# generated using pymatgen
data_Er2GaB2RuRh4
_symmetry_space_group_name_H-M   'P 1'
_cell_length_a   9.56388200
_cell_length_b   9.56388200
_cell_length_c   3.10693800
_cell_angle_alpha   90.00000000
_cell_angle_beta   90.00000000
_cell_angle_gamma   90.00000000
_symmetry_Int_Tables_number   1
_chemical_formula_structural   Er2GaB2RuRh4
_chemical_formula_sum   'Er4 Ga2 B4 Ru2 Rh8'
_cell_volume   284.18490449
_cell_formula_units_Z   2
loop_
 _symmetry_equiv_pos_site_id
 _symmetry_equiv_pos_as_xyz
  1  'x, y, z'
loop_
 _atom_site_type_symbol
 _atom_site_label
 _atom_site_symmetry_multiplicity
 _atom_site_fract_x
 _atom_site_fract_y
 _atom_site_fract_z
 _atom_site_occupancy
  Er  Er0  1  0.825336  0.325336  0.000000  1
  Er  Er1  1  0.325336  0.174664  0.000000  1
  Er  Er2  1  0.674664  0.825336  0.000000  1
  Er  Er3  1  0.174664  0.674664  0.000000  1
  Ga  Ga4  1  0.000000  0.000000  0.000000  1
  Ga  Ga5  1  0.500000  0.500000  0.000000  1
  B  B6  1  0.621431  0.121431  0.000000  1
  B  B7  1  0.121431  0.378569  0.000000  1
  B  B8  1  0.878569  0.621431  0.000000  1
  B  B9  1  0.378569  0.878569  0.000000  1
  Ru  Ru10  1  0.500000  0.000000  0.500000  1
  Ru  Ru11  1  0.000000  0.500000  0.500000  1
  Rh  Rh12  1  0.070658  0.217452  0.500000  1
  Rh  Rh13  1  0.217452  0.929342  0.500000  1
  Rh  Rh14  1  0.782548  0.070658  0.500000  1
  Rh  Rh15  1  0.929342  0.782548  0.500000  1
  Rh  Rh16  1  0.429342  0.717452  0.500000  1
  Rh  Rh17  1  0.570658  0.282548  0.500000  1
  Rh  Rh18  1  0.717452  0.570658  0.500000  1
  Rh  Rh19  1  0.282548  0.429342  0.500000  1
