# generated using pymatgen
data_MgScAlPt5
_symmetry_space_group_name_H-M   'P 1'
_cell_length_a   4.09163000
_cell_length_b   5.58385453
_cell_length_c   10.99954889
_cell_angle_alpha   89.67354462
_cell_angle_beta   90.00000000
_cell_angle_gamma   90.00000000
_symmetry_Int_Tables_number   1
_chemical_formula_structural   MgScAlPt5
_chemical_formula_sum   'Mg2 Sc2 Al2 Pt10'
_cell_volume   251.30334810
_cell_formula_units_Z   2
loop_
 _symmetry_equiv_pos_site_id
 _symmetry_equiv_pos_as_xyz
  1  'x, y, z'
loop_
 _atom_site_type_symbol
 _atom_site_label
 _atom_site_symmetry_multiplicity
 _atom_site_fract_x
 _atom_site_fract_y
 _atom_site_fract_z
 _atom_site_occupancy
  Mg  Mg0  1  0.500000  0.684917  0.862728  1
  Mg  Mg1  1  0.500000  0.315083  0.137272  1
  Sc  Sc2  1  0.500000  0.187727  0.642708  1
  Sc  Sc3  1  0.500000  0.812273  0.357292  1
  Al  Al4  1  0.000000  0.500000  0.500000  1
  Al  Al5  1  0.000000  0.000000  0.000000  1
  Pt  Pt6  1  0.500000  0.304212  0.392956  1
  Pt  Pt7  1  0.500000  0.695788  0.607044  1
  Pt  Pt8  1  0.500000  0.806233  0.106186  1
  Pt  Pt9  1  0.500000  0.193767  0.893814  1
  Pt  Pt10  1  0.000000  0.441474  0.742985  1
  Pt  Pt11  1  0.000000  0.558526  0.257015  1
  Pt  Pt12  1  0.000000  0.940689  0.758888  1
  Pt  Pt13  1  0.000000  0.059311  0.241112  1
  Pt  Pt14  1  0.000000  0.500000  0.000000  1
  Pt  Pt15  1  0.000000  0.000000  0.500000  1
