# generated using pymatgen
data_Y8Sb(Pd7Pt)3
_symmetry_space_group_name_H-M   'P 1'
_cell_length_a   8.41848400
_cell_length_b   8.41196400
_cell_length_c   8.42984500
_cell_angle_alpha   90.00000000
_cell_angle_beta   90.00000000
_cell_angle_gamma   90.00000000
_symmetry_Int_Tables_number   1
_chemical_formula_structural   Y8Sb(Pd7Pt)3
_chemical_formula_sum   'Y8 Sb1 Pd21 Pt3'
_cell_volume   596.96777153
_cell_formula_units_Z   1
loop_
 _symmetry_equiv_pos_site_id
 _symmetry_equiv_pos_as_xyz
  1  'x, y, z'
loop_
 _atom_site_type_symbol
 _atom_site_label
 _atom_site_symmetry_multiplicity
 _atom_site_fract_x
 _atom_site_fract_y
 _atom_site_fract_z
 _atom_site_occupancy
  Y  Y0  1  0.746270  0.746278  0.253379  1
  Y  Y1  1  0.746270  0.253722  0.746621  1
  Y  Y2  1  0.253712  0.746041  0.746324  1
  Y  Y3  1  0.746270  0.746278  0.746621  1
  Y  Y4  1  0.746270  0.253722  0.253379  1
  Y  Y5  1  0.253712  0.253959  0.746324  1
  Y  Y6  1  0.253712  0.746041  0.253676  1
  Y  Y7  1  0.253712  0.253959  0.253676  1
  Sb  Sb8  1  0.000055  0.000000  0.000000  1
  Pd  Pd9  1  0.999930  0.000000  0.306597  1
  Pd  Pd10  1  0.735217  0.000000  0.500000  1
  Pd  Pd11  1  0.735012  0.500000  0.000000  1
  Pd  Pd12  1  0.500067  0.000000  0.735107  1
  Pd  Pd13  1  0.000046  0.735261  0.500000  1
  Pd  Pd14  1  0.500067  0.000000  0.264893  1
  Pd  Pd15  1  0.000046  0.264739  0.500000  1
  Pd  Pd16  1  0.500069  0.735226  0.000000  1
  Pd  Pd17  1  0.500055  0.254520  0.500000  1
  Pd  Pd18  1  0.500055  0.745480  0.500000  1
  Pd  Pd19  1  0.745364  0.500000  0.500000  1
  Pd  Pd20  1  0.306611  0.000000  0.000000  1
  Pd  Pd21  1  0.999930  0.000000  0.693403  1
  Pd  Pd22  1  0.000080  0.500000  0.265023  1
  Pd  Pd23  1  0.999938  0.306549  0.000000  1
  Pd  Pd24  1  0.999938  0.693451  0.000000  1
  Pd  Pd25  1  0.693500  0.000000  0.000000  1
  Pd  Pd26  1  0.264879  0.500000  0.000000  1
  Pd  Pd27  1  0.264771  0.000000  0.500000  1
  Pd  Pd28  1  0.000080  0.500000  0.734977  1
  Pd  Pd29  1  0.500069  0.264774  0.000000  1
  Pt  Pt30  1  0.254373  0.500000  0.500000  1
  Pt  Pt31  1  0.499962  0.500000  0.745599  1
  Pt  Pt32  1  0.499962  0.500000  0.254401  1
