# generated using pymatgen
data_Tb12Th4Mg4Ir3Rh
_symmetry_space_group_name_H-M   'P 1'
_cell_length_a   9.83415747
_cell_length_b   9.85001285
_cell_length_c   9.85001200
_cell_angle_alpha   60.00000286
_cell_angle_beta   59.94665484
_cell_angle_gamma   59.94665610
_symmetry_Int_Tables_number   1
_chemical_formula_structural   Tb12Th4Mg4Ir3Rh
_chemical_formula_sum   'Tb12 Th4 Mg4 Ir3 Rh1'
_cell_volume   674.13221708
_cell_formula_units_Z   1
loop_
 _symmetry_equiv_pos_site_id
 _symmetry_equiv_pos_as_xyz
  1  'x, y, z'
loop_
 _atom_site_type_symbol
 _atom_site_label
 _atom_site_symmetry_multiplicity
 _atom_site_fract_x
 _atom_site_fract_y
 _atom_site_fract_z
 _atom_site_occupancy
  Tb  Tb0  1  0.812991  0.187495  0.187495  1
  Tb  Tb1  1  0.187402  0.812466  0.812466  1
  Tb  Tb2  1  0.187402  0.812466  0.187667  1
  Tb  Tb3  1  0.812991  0.187495  0.812019  1
  Tb  Tb4  1  0.187402  0.187667  0.812466  1
  Tb  Tb5  1  0.812991  0.812019  0.187495  1
  Tb  Tb6  1  0.934361  0.565611  0.565611  1
  Tb  Tb7  1  0.565544  0.934044  0.934044  1
  Tb  Tb8  1  0.565544  0.934044  0.566368  1
  Tb  Tb9  1  0.934361  0.565611  0.934416  1
  Tb  Tb10  1  0.565544  0.566368  0.934044  1
  Tb  Tb11  1  0.934361  0.934416  0.565611  1
  Th  Th12  1  0.347369  0.347257  0.347257  1
  Th  Th13  1  0.347369  0.347257  0.958117  1
  Th  Th14  1  0.347369  0.958117  0.347257  1
  Th  Th15  1  0.958078  0.347308  0.347308  1
  Mg  Mg16  1  0.580668  0.580740  0.580740  1
  Mg  Mg17  1  0.580668  0.580740  0.257853  1
  Mg  Mg18  1  0.580668  0.257853  0.580740  1
  Mg  Mg19  1  0.257852  0.580716  0.580716  1
  Ir  Ir20  1  0.143320  0.142968  0.142968  1
  Ir  Ir21  1  0.143320  0.142968  0.570741  1
  Ir  Ir22  1  0.143320  0.570741  0.142968  1
  Rh  Rh23  1  0.569102  0.143632  0.143632  1
