# generated using pymatgen
data_Ho19Tm(Ir2Os)4
_symmetry_space_group_name_H-M   'P 1'
_cell_length_a   10.81262200
_cell_length_b   10.81262200
_cell_length_c   6.38834700
_cell_angle_alpha   90.00000000
_cell_angle_beta   90.00000000
_cell_angle_gamma   90.00000000
_symmetry_Int_Tables_number   1
_chemical_formula_structural   Ho19Tm(Ir2Os)4
_chemical_formula_sum   'Ho19 Tm1 Ir8 Os4'
_cell_volume   746.87950010
_cell_formula_units_Z   1
loop_
 _symmetry_equiv_pos_site_id
 _symmetry_equiv_pos_as_xyz
  1  'x, y, z'
loop_
 _atom_site_type_symbol
 _atom_site_label
 _atom_site_symmetry_multiplicity
 _atom_site_fract_x
 _atom_site_fract_y
 _atom_site_fract_z
 _atom_site_occupancy
  Ho  Ho0  1  0.293458  0.086098  0.376821  1
  Ho  Ho1  1  0.293618  0.913845  0.876682  1
  Ho  Ho2  1  0.706382  0.086155  0.876682  1
  Ho  Ho3  1  0.706542  0.913902  0.376821  1
  Ho  Ho4  1  0.586130  0.793687  0.876804  1
  Ho  Ho5  1  0.586129  0.206309  0.376840  1
  Ho  Ho6  1  0.413871  0.793691  0.376840  1
  Ho  Ho7  1  0.413870  0.206313  0.876804  1
  Ho  Ho8  1  0.206309  0.413871  0.623160  1
  Ho  Ho9  1  0.206313  0.586130  0.123196  1
  Ho  Ho10  1  0.793687  0.413870  0.123196  1
  Ho  Ho11  1  0.793691  0.586129  0.623160  1
  Ho  Ho12  1  0.913845  0.706382  0.123318  1
  Ho  Ho13  1  0.913902  0.293458  0.623179  1
  Ho  Ho14  1  0.086098  0.706542  0.623179  1
  Ho  Ho15  1  0.086155  0.293618  0.123318  1
  Ho  Ho16  1  0.000000  0.000000  0.000000  1
  Ho  Ho17  1  0.500000  0.500000  0.000000  1
  Ho  Ho18  1  0.500000  0.500000  0.500000  1
  Tm  Tm19  1  0.000000  0.000000  0.500000  1
  Ir  Ir20  1  0.848060  0.151934  0.250584  1
  Ir  Ir21  1  0.848066  0.848060  0.749416  1
  Ir  Ir22  1  0.151934  0.151940  0.749416  1
  Ir  Ir23  1  0.151940  0.848066  0.250584  1
  Ir  Ir24  1  0.652241  0.347762  0.749934  1
  Ir  Ir25  1  0.652238  0.652241  0.250066  1
  Ir  Ir26  1  0.347762  0.347759  0.250066  1
  Ir  Ir27  1  0.347759  0.652238  0.749934  1
  Os  Os28  1  0.500000  0.000000  0.122655  1
  Os  Os29  1  0.500000  0.000000  0.622627  1
  Os  Os30  1  0.000000  0.500000  0.877345  1
  Os  Os31  1  0.000000  0.500000  0.377373  1
