# generated using pymatgen
data_Hf4MnCu(Si2Ir)2
_symmetry_space_group_name_H-M   'P 1'
_cell_length_a   3.85916100
_cell_length_b   6.50713194
_cell_length_c   7.48568571
_cell_angle_alpha   89.51064497
_cell_angle_beta   90.00000000
_cell_angle_gamma   90.00000000
_symmetry_Int_Tables_number   1
_chemical_formula_structural   Hf4MnCu(Si2Ir)2
_chemical_formula_sum   'Hf4 Mn1 Cu1 Si4 Ir2'
_cell_volume   187.97420590
_cell_formula_units_Z   1
loop_
 _symmetry_equiv_pos_site_id
 _symmetry_equiv_pos_as_xyz
  1  'x, y, z'
loop_
 _atom_site_type_symbol
 _atom_site_label
 _atom_site_symmetry_multiplicity
 _atom_site_fract_x
 _atom_site_fract_y
 _atom_site_fract_z
 _atom_site_occupancy
  Hf  Hf0  1  0.250000  0.977909  0.318535  1
  Hf  Hf1  1  0.250000  0.468807  0.179411  1
  Hf  Hf2  1  0.750000  0.026978  0.678730  1
  Hf  Hf3  1  0.750000  0.519299  0.824769  1
  Mn  Mn4  1  0.750000  0.149347  0.063794  1
  Cu  Cu5  1  0.750000  0.651599  0.437799  1
  Si  Si6  1  0.250000  0.730729  0.624929  1
  Si  Si7  1  0.250000  0.226367  0.878147  1
  Si  Si8  1  0.750000  0.264968  0.374542  1
  Si  Si9  1  0.750000  0.771050  0.120495  1
  Ir  Ir10  1  0.250000  0.358546  0.560339  1
  Ir  Ir11  1  0.250000  0.854400  0.938511  1
