# generated using pymatgen
data_Nd3PuO7
_symmetry_space_group_name_H-M   'P 1'
_cell_length_a   6.77248768
_cell_length_b   6.77248294
_cell_length_c   7.95040957
_cell_angle_alpha   89.92440395
_cell_angle_beta   89.92442063
_cell_angle_gamma   70.00614303
_symmetry_Int_Tables_number   1
_chemical_formula_structural   Nd3PuO7
_chemical_formula_sum   'Nd6 Pu2 O14'
_cell_volume   342.67927819
_cell_formula_units_Z   2
loop_
 _symmetry_equiv_pos_site_id
 _symmetry_equiv_pos_as_xyz
  1  'x, y, z'
loop_
 _atom_site_type_symbol
 _atom_site_label
 _atom_site_symmetry_multiplicity
 _atom_site_fract_x
 _atom_site_fract_y
 _atom_site_fract_z
 _atom_site_occupancy
  Nd  Nd0  1  0.534299  0.998730  0.999829  1
  Nd  Nd1  1  0.500568  0.499431  0.250000  1
  Nd  Nd2  1  0.001270  0.465701  0.500171  1
  Nd  Nd3  1  0.465704  0.001272  0.499977  1
  Nd  Nd4  1  0.499431  0.500569  0.750000  1
  Nd  Nd5  1  0.998728  0.534296  0.000023  1
  Pu  Pu6  1  0.000049  0.999951  0.250000  1
  Pu  Pu7  1  0.999958  0.000042  0.750000  1
  O  O8  1  0.369906  0.369907  0.000086  1
  O  O9  1  0.633859  0.633860  0.999922  1
  O  O10  1  0.915498  0.915497  0.000132  1
  O  O11  1  0.919441  0.327392  0.221724  1
  O  O12  1  0.327088  0.920014  0.221597  1
  O  O13  1  0.079986  0.672911  0.278402  1
  O  O14  1  0.672608  0.080559  0.278276  1
  O  O15  1  0.084503  0.084502  0.499868  1
  O  O16  1  0.366139  0.366141  0.500078  1
  O  O17  1  0.630093  0.630094  0.499915  1
  O  O18  1  0.080535  0.672660  0.721562  1
  O  O19  1  0.672963  0.079964  0.721437  1
  O  O20  1  0.920035  0.327037  0.778563  1
  O  O21  1  0.327339  0.919465  0.778438  1
