# generated using pymatgen
data_Ti5Mn2Co8SiB4
_symmetry_space_group_name_H-M   'P 1'
_cell_length_a   8.51372524
_cell_length_b   8.50535912
_cell_length_c   2.94727000
_cell_angle_alpha   90.00000000
_cell_angle_beta   90.00000000
_cell_angle_gamma   89.90090910
_symmetry_Int_Tables_number   1
_chemical_formula_structural   Ti5Mn2Co8SiB4
_chemical_formula_sum   'Ti5 Mn2 Co8 Si1 B4'
_cell_volume   213.41825268
_cell_formula_units_Z   1
loop_
 _symmetry_equiv_pos_site_id
 _symmetry_equiv_pos_as_xyz
  1  'x, y, z'
loop_
 _atom_site_type_symbol
 _atom_site_label
 _atom_site_symmetry_multiplicity
 _atom_site_fract_x
 _atom_site_fract_y
 _atom_site_fract_z
 _atom_site_occupancy
  Ti  Ti0  1  0.500234  0.496905  0.000000  1
  Ti  Ti1  1  0.834661  0.318024  0.000000  1
  Ti  Ti2  1  0.309944  0.166148  0.000000  1
  Ti  Ti3  1  0.675756  0.826210  0.000000  1
  Ti  Ti4  1  0.173415  0.684634  0.000000  1
  Mn  Mn5  1  0.063902  0.219557  0.500000  1
  Mn  Mn6  1  0.215828  0.926750  0.500000  1
  Co  Co7  1  0.502393  0.998727  0.500000  1
  Co  Co8  1  0.001434  0.507082  0.500000  1
  Co  Co9  1  0.783450  0.065453  0.500000  1
  Co  Co10  1  0.925461  0.787235  0.500000  1
  Co  Co11  1  0.435721  0.719046  0.500000  1
  Co  Co12  1  0.572538  0.276994  0.500000  1
  Co  Co13  1  0.721739  0.570681  0.500000  1
  Co  Co14  1  0.280255  0.432454  0.500000  1
  Si  Si15  1  0.001403  0.002276  0.000000  1
  B  B16  1  0.622519  0.118634  0.000000  1
  B  B17  1  0.120789  0.380524  0.000000  1
  B  B18  1  0.880042  0.623823  0.000000  1
  B  B19  1  0.378516  0.878842  0.000000  1
