# generated using pymatgen
data_Dy3Tm2ZnIn3
_symmetry_space_group_name_H-M   'P 1'
_cell_length_a   9.12712900
_cell_length_b   9.12730429
_cell_length_c   6.65284700
_cell_angle_alpha   90.00000000
_cell_angle_beta   90.00000000
_cell_angle_gamma   120.00071414
_symmetry_Int_Tables_number   1
_chemical_formula_structural   Dy3Tm2ZnIn3
_chemical_formula_sum   'Dy6 Tm4 Zn2 In6'
_cell_volume   479.96742186
_cell_formula_units_Z   2
loop_
 _symmetry_equiv_pos_site_id
 _symmetry_equiv_pos_as_xyz
  1  'x, y, z'
loop_
 _atom_site_type_symbol
 _atom_site_label
 _atom_site_symmetry_multiplicity
 _atom_site_fract_x
 _atom_site_fract_y
 _atom_site_fract_z
 _atom_site_occupancy
  Dy  Dy0  1  0.276808  0.000000  0.750000  1
  Dy  Dy1  1  0.723192  0.000000  0.250000  1
  Dy  Dy2  1  0.000001  0.276810  0.750000  1
  Dy  Dy3  1  0.999999  0.723190  0.250000  1
  Dy  Dy4  1  0.723189  0.723190  0.750000  1
  Dy  Dy5  1  0.276811  0.276810  0.250000  1
  Tm  Tm6  1  0.333331  0.666667  0.500002  1
  Tm  Tm7  1  0.666669  0.333333  0.499998  1
  Tm  Tm8  1  0.666669  0.333333  0.000002  1
  Tm  Tm9  1  0.333331  0.666667  0.999998  1
  Zn  Zn10  1  0.000000  0.000000  0.500000  1
  Zn  Zn11  1  0.000000  0.000000  0.000000  1
  In  In12  1  0.621464  0.000001  0.750000  1
  In  In13  1  0.378536  0.999999  0.250000  1
  In  In14  1  0.000000  0.621462  0.750000  1
  In  In15  1  0.000000  0.378538  0.250000  1
  In  In16  1  0.378536  0.378536  0.750000  1
  In  In17  1  0.621464  0.621464  0.250000  1
