# generated using pymatgen
data_La4Fe(NiSb4)2
_symmetry_space_group_name_H-M   'P 1'
_cell_length_a   11.00330939
_cell_length_b   11.00331007
_cell_length_c   11.00331002
_cell_angle_alpha   146.92204107
_cell_angle_beta   146.92204846
_cell_angle_gamma   47.47922203
_symmetry_Int_Tables_number   1
_chemical_formula_structural   La4Fe(NiSb4)2
_chemical_formula_sum   'La4 Fe1 Ni2 Sb8'
_cell_volume   395.28424130
_cell_formula_units_Z   1
loop_
 _symmetry_equiv_pos_site_id
 _symmetry_equiv_pos_as_xyz
  1  'x, y, z'
loop_
 _atom_site_type_symbol
 _atom_site_label
 _atom_site_symmetry_multiplicity
 _atom_site_fract_x
 _atom_site_fract_y
 _atom_site_fract_z
 _atom_site_occupancy
  La  La0  1  0.632553  0.130813  0.000000  1
  La  La1  1  0.130813  0.632553  0.000000  1
  La  La2  1  0.869187  0.869187  0.501740  1
  La  La3  1  0.367447  0.367447  0.498260  1
  Fe  Fe4  1  0.000000  0.000000  0.000000  1
  Ni  Ni5  1  0.500000  0.000000  0.500000  1
  Ni  Ni6  1  0.000000  0.500000  0.500000  1
  Sb  Sb7  1  0.249823  0.249823  0.000000  1
  Sb  Sb8  1  0.750177  0.750177  0.000000  1
  Sb  Sb9  1  0.250000  0.750000  0.500000  1
  Sb  Sb10  1  0.750000  0.250000  0.500000  1
  Sb  Sb11  1  0.319074  0.807049  0.000000  1
  Sb  Sb12  1  0.807049  0.319074  0.000000  1
  Sb  Sb13  1  0.192951  0.192951  0.512025  1
  Sb  Sb14  1  0.680926  0.680926  0.487975  1
