# generated using pymatgen
data_La3Pr3TeO12
_symmetry_space_group_name_H-M   'P 1'
_cell_length_a   6.83308393
_cell_length_b   6.83279464
_cell_length_c   6.83147413
_cell_angle_alpha   98.58092205
_cell_angle_beta   98.54362649
_cell_angle_gamma   98.54706806
_symmetry_Int_Tables_number   1
_chemical_formula_structural   La3Pr3TeO12
_chemical_formula_sum   'La3 Pr3 Te1 O12'
_cell_volume   307.09090252
_cell_formula_units_Z   1
loop_
 _symmetry_equiv_pos_site_id
 _symmetry_equiv_pos_as_xyz
  1  'x, y, z'
loop_
 _atom_site_type_symbol
 _atom_site_label
 _atom_site_symmetry_multiplicity
 _atom_site_fract_x
 _atom_site_fract_y
 _atom_site_fract_z
 _atom_site_occupancy
  La  La0  1  0.307872  0.604211  0.145079  1
  La  La1  1  0.605459  0.144083  0.309947  1
  La  La2  1  0.855536  0.690946  0.396576  1
  Pr  Pr3  1  0.144914  0.307537  0.610252  1
  Pr  Pr4  1  0.391373  0.855238  0.693835  1
  Pr  Pr5  1  0.691695  0.390198  0.855861  1
  Te  Te6  1  0.999476  0.000515  0.998025  1
  O  O7  1  0.064585  0.287046  0.964199  1
  O  O8  1  0.035358  0.936358  0.711897  1
  O  O9  1  0.405699  0.558802  0.825016  1
  O  O10  1  0.177824  0.594650  0.441943  1
  O  O11  1  0.713777  0.031507  0.927905  1
  O  O12  1  0.440519  0.176856  0.597734  1
  O  O13  1  0.560175  0.821849  0.407824  1
  O  O14  1  0.285217  0.968993  0.064174  1
  O  O15  1  0.822973  0.404132  0.561242  1
  O  O16  1  0.596054  0.438767  0.179583  1
  O  O17  1  0.973960  0.072893  0.283614  1
  O  O18  1  0.927532  0.715420  0.025293  1
