# generated using pymatgen
data_Rb2AlSO4F3
_symmetry_space_group_name_H-M   'P 1'
_cell_length_a   6.96194000
_cell_length_b   8.47483800
_cell_length_c   11.12115000
_cell_angle_alpha   90.00000000
_cell_angle_beta   90.00000000
_cell_angle_gamma   90.00000000
_symmetry_Int_Tables_number   1
_chemical_formula_structural   Rb2AlSO4F3
_chemical_formula_sum   'Rb8 Al4 S4 O16 F12'
_cell_volume   656.16245947
_cell_formula_units_Z   4
loop_
 _symmetry_equiv_pos_site_id
 _symmetry_equiv_pos_as_xyz
  1  'x, y, z'
loop_
 _atom_site_type_symbol
 _atom_site_label
 _atom_site_symmetry_multiplicity
 _atom_site_fract_x
 _atom_site_fract_y
 _atom_site_fract_z
 _atom_site_occupancy
  Rb  Rb0  1  0.703647  0.182060  0.194035  1
  Rb  Rb1  1  0.203647  0.317940  0.305965  1
  Rb  Rb2  1  0.296353  0.317940  0.694035  1
  Rb  Rb3  1  0.796353  0.182060  0.805965  1
  Rb  Rb4  1  0.296353  0.817940  0.805965  1
  Rb  Rb5  1  0.796353  0.682060  0.694035  1
  Rb  Rb6  1  0.703647  0.682060  0.305965  1
  Rb  Rb7  1  0.203647  0.817940  0.194035  1
  Al  Al8  1  0.500000  0.500000  0.000000  1
  Al  Al9  1  0.000000  0.000000  0.500000  1
  Al  Al10  1  0.500000  0.000000  0.500000  1
  Al  Al11  1  0.000000  0.500000  0.000000  1
  S  S12  1  0.750000  0.306671  0.500000  1
  S  S13  1  0.250000  0.193329  0.000000  1
  S  S14  1  0.250000  0.693329  0.500000  1
  S  S15  1  0.750000  0.806671  0.000000  1
  O  O16  1  0.826955  0.400349  0.400693  1
  O  O17  1  0.326955  0.099651  0.099307  1
  O  O18  1  0.173045  0.099651  0.900693  1
  O  O19  1  0.673045  0.400349  0.599307  1
  O  O20  1  0.173045  0.599651  0.599307  1
  O  O21  1  0.673045  0.900349  0.900693  1
  O  O22  1  0.826955  0.900349  0.099307  1
  O  O23  1  0.326955  0.599651  0.400693  1
  O  O24  1  0.592959  0.201677  0.449527  1
  O  O25  1  0.092959  0.298323  0.050473  1
  O  O26  1  0.407041  0.298323  0.949527  1
  O  O27  1  0.907041  0.201677  0.550473  1
  O  O28  1  0.407041  0.798323  0.550473  1
  O  O29  1  0.907041  0.701677  0.949527  1
  O  O30  1  0.592959  0.701677  0.050473  1
  O  O31  1  0.092959  0.798323  0.449527  1
  F  F32  1  0.976457  0.047536  0.345227  1
  F  F33  1  0.476457  0.452464  0.154773  1
  F  F34  1  0.023543  0.452464  0.845227  1
  F  F35  1  0.523543  0.047536  0.654773  1
  F  F36  1  0.023543  0.952464  0.654773  1
  F  F37  1  0.523543  0.547536  0.845227  1
  F  F38  1  0.976457  0.547536  0.154773  1
  F  F39  1  0.476457  0.952464  0.345227  1
  F  F40  1  0.750000  0.416214  0.000000  1
  F  F41  1  0.250000  0.083786  0.500000  1
  F  F42  1  0.250000  0.583786  0.000000  1
  F  F43  1  0.750000  0.916214  0.500000  1
