# generated using pymatgen
data_Sc22Co2(OsPt)3
_symmetry_space_group_name_H-M   'P 1'
_cell_length_a   9.45497354
_cell_length_b   9.48232689
_cell_length_c   9.52821412
_cell_angle_alpha   59.64912419
_cell_angle_beta   59.93356693
_cell_angle_gamma   59.66749554
_symmetry_Int_Tables_number   1
_chemical_formula_structural   Sc22Co2(OsPt)3
_chemical_formula_sum   'Sc22 Co2 Os3 Pt3'
_cell_volume   600.61074605
_cell_formula_units_Z   1
loop_
 _symmetry_equiv_pos_site_id
 _symmetry_equiv_pos_as_xyz
  1  'x, y, z'
loop_
 _atom_site_type_symbol
 _atom_site_label
 _atom_site_symmetry_multiplicity
 _atom_site_fract_x
 _atom_site_fract_y
 _atom_site_fract_z
 _atom_site_occupancy
  Sc  Sc0  1  0.844958  0.839289  0.841714  1
  Sc  Sc1  1  0.522716  0.157902  0.162401  1
  Sc  Sc2  1  0.160714  0.155047  0.525954  1
  Sc  Sc3  1  0.157903  0.522715  0.156980  1
  Sc  Sc4  1  0.839286  0.844953  0.474046  1
  Sc  Sc5  1  0.842097  0.477285  0.843020  1
  Sc  Sc6  1  0.477284  0.842098  0.837599  1
  Sc  Sc7  1  0.155042  0.160711  0.158286  1
  Sc  Sc8  1  0.191445  0.808554  0.193228  1
  Sc  Sc9  1  0.191445  0.808560  0.806999  1
  Sc  Sc10  1  0.808555  0.191440  0.193001  1
  Sc  Sc11  1  0.807740  0.807735  0.192264  1
  Sc  Sc12  1  0.192260  0.192265  0.807736  1
  Sc  Sc13  1  0.808555  0.191446  0.806772  1
  Sc  Sc14  1  0.386675  0.379208  0.390818  1
  Sc  Sc15  1  0.152549  0.621081  0.615904  1
  Sc  Sc16  1  0.621081  0.152549  0.610462  1
  Sc  Sc17  1  0.620797  0.613322  0.156702  1
  Sc  Sc18  1  0.378919  0.847451  0.389538  1
  Sc  Sc19  1  0.379203  0.386678  0.843298  1
  Sc  Sc20  1  0.847451  0.378919  0.384096  1
  Sc  Sc21  1  0.613325  0.620792  0.609182  1
  Co  Co22  1  0.500000  0.500000  0.500000  1
  Co  Co23  1  0.000000  0.000000  0.000000  1
  Os  Os24  1  0.000000  0.000000  0.500000  1
  Os  Os25  1  0.500000  0.000000  0.500000  1
  Os  Os26  1  0.000000  0.500000  0.000000  1
  Pt  Pt27  1  0.500000  0.500000  0.000000  1
  Pt  Pt28  1  0.000000  0.500000  0.500000  1
  Pt  Pt29  1  0.500000  0.000000  0.000000  1
