# generated using pymatgen
data_Sr8Os3N8
_symmetry_space_group_name_H-M   'P 1'
_cell_length_a   9.93356319
_cell_length_b   5.36929104
_cell_length_c   7.63272309
_cell_angle_alpha   89.99999886
_cell_angle_beta   74.69317742
_cell_angle_gamma   74.32025956
_symmetry_Int_Tables_number   1
_chemical_formula_structural   Sr8Os3N8
_chemical_formula_sum   'Sr8 Os3 N8'
_cell_volume   376.92964941
_cell_formula_units_Z   1
loop_
 _symmetry_equiv_pos_site_id
 _symmetry_equiv_pos_as_xyz
  1  'x, y, z'
loop_
 _atom_site_type_symbol
 _atom_site_label
 _atom_site_symmetry_multiplicity
 _atom_site_fract_x
 _atom_site_fract_y
 _atom_site_fract_z
 _atom_site_occupancy
  Sr  Sr0  1  0.049978  0.975010  0.739280  1
  Sr  Sr1  1  0.950022  0.024990  0.260720  1
  Sr  Sr2  1  0.666299  0.666850  0.470138  1
  Sr  Sr3  1  0.333701  0.333150  0.529862  1
  Sr  Sr4  1  0.796929  0.601536  0.951438  1
  Sr  Sr5  1  0.203071  0.398464  0.048562  1
  Sr  Sr6  1  0.402703  0.798650  0.200012  1
  Sr  Sr7  1  0.597297  0.201350  0.799988  1
  Os  Os8  1  0.000000  0.500000  0.500000  1
  Os  Os9  1  0.370620  0.814691  0.797810  1
  Os  Os10  1  0.629380  0.185309  0.202190  1
  N  N11  1  0.200339  0.899831  0.997633  1
  N  N12  1  0.799661  0.100169  0.002367  1
  N  N13  1  0.355372  0.822314  0.560260  1
  N  N14  1  0.644628  0.177686  0.439740  1
  N  N15  1  0.559251  0.720375  0.831465  1
  N  N16  1  0.440749  0.279625  0.168535  1
  N  N17  1  0.948864  0.525568  0.285186  1
  N  N18  1  0.051136  0.474432  0.714814  1
