# generated using pymatgen
data_Ce6Zn4Pd12Rh
_symmetry_space_group_name_H-M   'P 1'
_cell_length_a   8.33833884
_cell_length_b   8.33834042
_cell_length_c   8.33834000
_cell_angle_alpha   109.47122205
_cell_angle_beta   109.47122587
_cell_angle_gamma   109.47122188
_symmetry_Int_Tables_number   1
_chemical_formula_structural   Ce6Zn4Pd12Rh
_chemical_formula_sum   'Ce6 Zn4 Pd12 Rh1'
_cell_volume   446.28966298
_cell_formula_units_Z   1
loop_
 _symmetry_equiv_pos_site_id
 _symmetry_equiv_pos_as_xyz
  1  'x, y, z'
loop_
 _atom_site_type_symbol
 _atom_site_label
 _atom_site_symmetry_multiplicity
 _atom_site_fract_x
 _atom_site_fract_y
 _atom_site_fract_z
 _atom_site_occupancy
  Ce  Ce0  1  0.703442  0.703442  0.000000  1
  Ce  Ce1  1  0.296558  0.000000  0.296558  1
  Ce  Ce2  1  0.000000  0.296558  0.296558  1
  Ce  Ce3  1  0.296558  0.296558  0.000000  1
  Ce  Ce4  1  0.703442  0.000000  0.703442  1
  Ce  Ce5  1  0.000000  0.703442  0.703442  1
  Zn  Zn6  1  0.000000  0.000000  0.500000  1
  Zn  Zn7  1  0.000000  0.500000  0.000000  1
  Zn  Zn8  1  0.500000  0.000000  0.000000  1
  Zn  Zn9  1  0.500000  0.500000  0.500000  1
  Pd  Pd10  1  0.333018  0.333018  0.666037  1
  Pd  Pd11  1  0.666982  0.000000  0.333018  1
  Pd  Pd12  1  0.000000  0.666982  0.333018  1
  Pd  Pd13  1  0.666982  0.333018  0.000000  1
  Pd  Pd14  1  0.333018  0.666037  0.333018  1
  Pd  Pd15  1  0.000000  0.333018  0.666982  1
  Pd  Pd16  1  0.333018  0.666982  0.000000  1
  Pd  Pd17  1  0.333018  0.000000  0.666982  1
  Pd  Pd18  1  0.666037  0.333018  0.333018  1
  Pd  Pd19  1  0.666982  0.666982  0.333963  1
  Pd  Pd20  1  0.666982  0.333963  0.666982  1
  Pd  Pd21  1  0.333963  0.666982  0.666982  1
  Rh  Rh22  1  0.000000  0.000000  0.000000  1
