# generated using pymatgen
data_Ca11Cd3C8
_symmetry_space_group_name_H-M   'P 1'
_cell_length_a   10.77573300
_cell_length_b   13.31538991
_cell_length_c   14.34877900
_cell_angle_alpha   74.31482757
_cell_angle_beta   90.00000000
_cell_angle_gamma   90.00000000
_symmetry_Int_Tables_number   1
_chemical_formula_structural   Ca11Cd3C8
_chemical_formula_sum   'Ca44 Cd12 C32'
_cell_volume   1982.14071028
_cell_formula_units_Z   4
loop_
 _symmetry_equiv_pos_site_id
 _symmetry_equiv_pos_as_xyz
  1  'x, y, z'
loop_
 _atom_site_type_symbol
 _atom_site_label
 _atom_site_symmetry_multiplicity
 _atom_site_fract_x
 _atom_site_fract_y
 _atom_site_fract_z
 _atom_site_occupancy
  Ca  Ca0  1  0.755777  0.983246  0.273230  1
  Ca  Ca1  1  0.255777  0.016754  0.226770  1
  Ca  Ca2  1  0.244223  0.016754  0.726770  1
  Ca  Ca3  1  0.744223  0.983246  0.773230  1
  Ca  Ca4  1  0.265859  0.975464  0.486286  1
  Ca  Ca5  1  0.765859  0.024536  0.013714  1
  Ca  Ca6  1  0.734141  0.024536  0.513714  1
  Ca  Ca7  1  0.234141  0.975464  0.986286  1
  Ca  Ca8  1  0.503486  0.891041  0.145495  1
  Ca  Ca9  1  0.003486  0.108959  0.354505  1
  Ca  Ca10  1  0.496514  0.108959  0.854505  1
  Ca  Ca11  1  0.996514  0.891041  0.645495  1
  Ca  Ca12  1  0.003770  0.851297  0.166118  1
  Ca  Ca13  1  0.503770  0.148703  0.333882  1
  Ca  Ca14  1  0.996230  0.148703  0.833882  1
  Ca  Ca15  1  0.496230  0.851297  0.666118  1
  Ca  Ca16  1  0.696877  0.738144  0.043046  1
  Ca  Ca17  1  0.196877  0.261856  0.456954  1
  Ca  Ca18  1  0.303123  0.261856  0.956954  1
  Ca  Ca19  1  0.803123  0.738144  0.543046  1
  Ca  Ca20  1  0.304813  0.732072  0.341563  1
  Ca  Ca21  1  0.804813  0.267928  0.158437  1
  Ca  Ca22  1  0.695187  0.267928  0.658437  1
  Ca  Ca23  1  0.195187  0.732072  0.841563  1
  Ca  Ca24  1  0.341227  0.694456  0.072089  1
  Ca  Ca25  1  0.841227  0.305544  0.427911  1
  Ca  Ca26  1  0.658773  0.305544  0.927911  1
  Ca  Ca27  1  0.158773  0.694456  0.572089  1
  Ca  Ca28  1  0.007025  0.606353  0.098478  1
  Ca  Ca29  1  0.507025  0.393647  0.401522  1
  Ca  Ca30  1  0.992975  0.393647  0.901522  1
  Ca  Ca31  1  0.492975  0.606353  0.598478  1
  Ca  Ca32  1  0.247724  0.494815  0.268400  1
  Ca  Ca33  1  0.747724  0.505185  0.231600  1
  Ca  Ca34  1  0.752276  0.505185  0.731600  1
  Ca  Ca35  1  0.252276  0.494815  0.768400  1
  Ca  Ca36  1  0.490526  0.394727  0.152326  1
  Ca  Ca37  1  0.990526  0.605273  0.347674  1
  Ca  Ca38  1  0.509474  0.605273  0.847674  1
  Ca  Ca39  1  0.009474  0.394727  0.652326  1
  Ca  Ca40  1  0.162869  0.298119  0.170381  1
  Ca  Ca41  1  0.662869  0.701881  0.329619  1
  Ca  Ca42  1  0.837131  0.701881  0.829619  1
  Ca  Ca43  1  0.337131  0.298119  0.670381  1
  Cd  Cd44  1  0.518361  0.872024  0.417536  1
  Cd  Cd45  1  0.018361  0.127976  0.082464  1
  Cd  Cd46  1  0.481639  0.127976  0.582464  1
  Cd  Cd47  1  0.981639  0.872024  0.917536  1
  Cd  Cd48  1  0.020520  0.859493  0.395814  1
  Cd  Cd49  1  0.520520  0.140507  0.104186  1
  Cd  Cd50  1  0.979480  0.140507  0.604186  1
  Cd  Cd51  1  0.479480  0.859493  0.895814  1
  Cd  Cd52  1  0.247205  0.497315  0.002018  1
  Cd  Cd53  1  0.747205  0.502685  0.497982  1
  Cd  Cd54  1  0.752795  0.502685  0.997982  1
  Cd  Cd55  1  0.252795  0.497315  0.502018  1
  C  C56  1  0.345775  0.318347  0.297507  1
  C  C57  1  0.845775  0.681653  0.202493  1
  C  C58  1  0.654225  0.681653  0.702493  1
  C  C59  1  0.154225  0.318347  0.797507  1
  C  C60  1  0.793653  0.775321  0.183686  1
  C  C61  1  0.293653  0.224679  0.316314  1
  C  C62  1  0.206347  0.224679  0.816314  1
  C  C63  1  0.706347  0.775321  0.683686  1
  C  C64  1  0.737840  0.867488  0.160260  1
  C  C65  1  0.237840  0.132512  0.339740  1
  C  C66  1  0.262160  0.132512  0.839740  1
  C  C67  1  0.762160  0.867488  0.660260  1
  C  C68  1  0.271020  0.858673  0.158108  1
  C  C69  1  0.771020  0.141327  0.341892  1
  C  C70  1  0.728980  0.141327  0.841892  1
  C  C71  1  0.228980  0.858673  0.658108  1
  C  C72  1  0.211422  0.767791  0.180517  1
  C  C73  1  0.711422  0.232209  0.319483  1
  C  C74  1  0.788578  0.232209  0.819483  1
  C  C75  1  0.288578  0.767791  0.680517  1
  C  C76  1  0.157186  0.675082  0.210196  1
  C  C77  1  0.657186  0.324918  0.289804  1
  C  C78  1  0.842814  0.324918  0.789804  1
  C  C79  1  0.342814  0.675082  0.710196  1
  C  C80  1  0.491576  0.568875  0.237296  1
  C  C81  1  0.991576  0.431125  0.262704  1
  C  C82  1  0.508424  0.431125  0.762704  1
  C  C83  1  0.008424  0.568875  0.737296  1
  C  C84  1  0.516717  0.665019  0.200216  1
  C  C85  1  0.016717  0.334981  0.299784  1
  C  C86  1  0.483283  0.334981  0.799784  1
  C  C87  1  0.983283  0.665019  0.700216  1
