# generated using pymatgen
data_Cs4Hf2Zr4CBr18
_symmetry_space_group_name_H-M   'P 1'
_cell_length_a   10.82181165
_cell_length_b   11.15639432
_cell_length_c   11.27476785
_cell_angle_alpha   118.28853308
_cell_angle_beta   100.57375932
_cell_angle_gamma   104.25844868
_symmetry_Int_Tables_number   1
_chemical_formula_structural   Cs4Hf2Zr4CBr18
_chemical_formula_sum   'Cs4 Hf2 Zr4 C1 Br18'
_cell_volume   1087.48152114
_cell_formula_units_Z   1
loop_
 _symmetry_equiv_pos_site_id
 _symmetry_equiv_pos_as_xyz
  1  'x, y, z'
loop_
 _atom_site_type_symbol
 _atom_site_label
 _atom_site_symmetry_multiplicity
 _atom_site_fract_x
 _atom_site_fract_y
 _atom_site_fract_z
 _atom_site_occupancy
  Cs  Cs0  1  0.192911  0.727427  0.562647  1
  Cs  Cs1  1  0.838401  0.963606  0.770056  1
  Cs  Cs2  1  0.160169  0.036115  0.228944  1
  Cs  Cs3  1  0.805385  0.273427  0.437103  1
  Hf  Hf4  1  0.358936  0.446030  0.785312  1
  Hf  Hf5  1  0.370251  0.614964  0.121949  1
  Zr  Zr6  1  0.639375  0.722416  0.043569  1
  Zr  Zr7  1  0.642543  0.552339  0.212624  1
  Zr  Zr8  1  0.364460  0.276855  0.957757  1
  Zr  Zr9  1  0.631231  0.386111  0.881388  1
  C  C10  1  0.495210  0.501126  0.998402  1
  Br  Br11  1  0.813481  0.429983  0.109077  1
  Br  Br12  1  0.512384  0.693041  0.384339  1
  Br  Br13  1  0.188714  0.001093  0.902009  1
  Br  Br14  1  0.191982  0.568140  0.892616  1
  Br  Br15  1  0.821073  0.820883  0.299712  1
  Br  Br16  1  0.504432  0.305659  0.200065  1
  Br  Br17  1  0.787633  0.245508  0.731250  1
  Br  Br18  1  0.181417  0.184229  0.702595  1
  Br  Br19  1  0.504606  0.884829  0.184827  1
  Br  Br20  1  0.807995  0.624759  0.910314  1
  Br  Br21  1  0.212774  0.751680  0.263501  1
  Br  Br22  1  0.180849  0.382574  0.526232  1
  Br  Br23  1  0.493099  0.690643  0.800121  1
  Br  Br24  1  0.808344  0.999787  0.097010  1
  Br  Br25  1  0.483602  0.307883  0.614289  1
  Br  Br26  1  0.194276  0.378458  0.089203  1
  Br  Br27  1  0.821276  0.619876  0.480132  1
  Br  Br28  1  0.493193  0.110558  0.812957  1
