# generated using pymatgen
data_DyTm2Th11Os6
_symmetry_space_group_name_H-M   'P 1'
_cell_length_a   9.89015739
_cell_length_b   9.96070532
_cell_length_c   6.36825077
_cell_angle_alpha   90.08265510
_cell_angle_beta   90.05567978
_cell_angle_gamma   120.19247052
_symmetry_Int_Tables_number   1
_chemical_formula_structural   DyTm2Th11Os6
_chemical_formula_sum   'Dy1 Tm2 Th11 Os6'
_cell_volume   542.24708456
_cell_formula_units_Z   1
loop_
 _symmetry_equiv_pos_site_id
 _symmetry_equiv_pos_as_xyz
  1  'x, y, z'
loop_
 _atom_site_type_symbol
 _atom_site_label
 _atom_site_symmetry_multiplicity
 _atom_site_fract_x
 _atom_site_fract_y
 _atom_site_fract_z
 _atom_site_occupancy
  Dy  Dy0  1  0.928764  0.464002  0.799902  1
  Tm  Tm1  1  0.459784  0.536585  0.299913  1
  Tm  Tm2  1  0.074415  0.536059  0.301972  1
  Th  Th3  1  0.252331  0.128366  0.509351  1
  Th  Th4  1  0.540523  0.079933  0.796320  1
  Th  Th5  1  0.745763  0.872285  0.014310  1
  Th  Th6  1  0.667492  0.334249  0.274465  1
  Th  Th7  1  0.127014  0.869835  0.010043  1
  Th  Th8  1  0.460338  0.916933  0.294920  1
  Th  Th9  1  0.537052  0.466537  0.801192  1
  Th  Th10  1  0.874584  0.130379  0.511884  1
  Th  Th11  1  0.125515  0.255995  0.015750  1
  Th  Th12  1  0.873318  0.745402  0.509407  1
  Th  Th13  1  0.331899  0.664808  0.769994  1
  Os  Os14  1  0.812613  0.628624  0.047938  1
  Os  Os15  1  0.813459  0.183246  0.046356  1
  Os  Os16  1  0.629661  0.812550  0.545278  1
  Os  Os17  1  0.371407  0.187465  0.041804  1
  Os  Os18  1  0.186744  0.370401  0.551153  1
  Os  Os19  1  0.187323  0.816346  0.542045  1
