# generated using pymatgen
data_Dy10Lu2In2Tc2Os
_symmetry_space_group_name_H-M   'P 1'
_cell_length_a   8.42863916
_cell_length_b   8.40323996
_cell_length_c   8.40323868
_cell_angle_alpha   109.37401340
_cell_angle_beta   109.47010719
_cell_angle_gamma   109.44717603
_symmetry_Int_Tables_number   1
_chemical_formula_structural   Dy10Lu2In2Tc2Os
_chemical_formula_sum   'Dy10 Lu2 In2 Tc2 Os1'
_cell_volume   458.86285902
_cell_formula_units_Z   1
loop_
 _symmetry_equiv_pos_site_id
 _symmetry_equiv_pos_as_xyz
  1  'x, y, z'
loop_
 _atom_site_type_symbol
 _atom_site_label
 _atom_site_symmetry_multiplicity
 _atom_site_fract_x
 _atom_site_fract_y
 _atom_site_fract_z
 _atom_site_occupancy
  Dy  Dy0  1  0.314911  0.317130  0.630294  1
  Dy  Dy1  1  0.684247  0.682233  0.369396  1
  Dy  Dy2  1  0.684247  0.314851  0.002015  1
  Dy  Dy3  1  0.314911  0.684616  0.997780  1
  Dy  Dy4  1  0.190490  0.432210  0.244228  1
  Dy  Dy5  1  0.810051  0.568031  0.755732  1
  Dy  Dy6  1  0.190490  0.946261  0.758280  1
  Dy  Dy7  1  0.944302  0.186161  0.758142  1
  Dy  Dy8  1  0.810051  0.054321  0.242020  1
  Dy  Dy9  1  0.056316  0.814116  0.242199  1
  Lu  Lu10  1  0.426359  0.185887  0.240472  1
  Lu  Lu11  1  0.574242  0.814391  0.759851  1
  In  In12  1  0.000490  0.500614  0.499876  1
  In  In13  1  0.500443  0.000438  0.500005  1
  Tc  Tc14  1  0.344195  0.344151  0.000044  1
  Tc  Tc15  1  0.000178  0.999886  0.000292  1
  Os  Os16  1  0.654075  0.654701  0.999374  1
