# generated using pymatgen
data_TbTh7(WC2)4
_symmetry_space_group_name_H-M   'P 1'
_cell_length_a   5.35823800
_cell_length_b   6.78471927
_cell_length_c   10.20101076
_cell_angle_alpha   89.85035345
_cell_angle_beta   90.00000000
_cell_angle_gamma   90.00000000
_symmetry_Int_Tables_number   1
_chemical_formula_structural   TbTh7(WC2)4
_chemical_formula_sum   'Tb1 Th7 W4 C8'
_cell_volume   370.84771478
_cell_formula_units_Z   1
loop_
 _symmetry_equiv_pos_site_id
 _symmetry_equiv_pos_as_xyz
  1  'x, y, z'
loop_
 _atom_site_type_symbol
 _atom_site_label
 _atom_site_symmetry_multiplicity
 _atom_site_fract_x
 _atom_site_fract_y
 _atom_site_fract_z
 _atom_site_occupancy
  Tb  Tb0  1  0.750000  0.180434  0.946059  1
  Th  Th1  1  0.250000  0.464718  0.783378  1
  Th  Th2  1  0.750000  0.032911  0.275751  1
  Th  Th3  1  0.250000  0.968300  0.722949  1
  Th  Th4  1  0.750000  0.531562  0.219326  1
  Th  Th5  1  0.250000  0.817727  0.049649  1
  Th  Th6  1  0.750000  0.686348  0.550759  1
  Th  Th7  1  0.250000  0.312638  0.449293  1
  W  W8  1  0.250000  0.276697  0.132164  1
  W  W9  1  0.750000  0.224960  0.636877  1
  W  W10  1  0.250000  0.775960  0.364996  1
  W  W11  1  0.750000  0.725122  0.866433  1
  C  C12  1  0.250000  0.668201  0.554074  1
  C  C13  1  0.750000  0.830961  0.053911  1
  C  C14  1  0.250000  0.170671  0.945668  1
  C  C15  1  0.750000  0.332875  0.446738  1
  C  C16  1  0.250000  0.040030  0.257196  1
  C  C17  1  0.750000  0.458632  0.761414  1
  C  C18  1  0.250000  0.539331  0.240533  1
  C  C19  1  0.750000  0.961921  0.742831  1
