# generated using pymatgen
data_Tb8Ho4Tc3Ru
_symmetry_space_group_name_H-M   'P 1'
_cell_length_a   6.28977208
_cell_length_b   7.39369233
_cell_length_c   9.17943337
_cell_angle_alpha   89.96875757
_cell_angle_beta   89.99132092
_cell_angle_gamma   89.94940655
_symmetry_Int_Tables_number   1
_chemical_formula_structural   Tb8Ho4Tc3Ru
_chemical_formula_sum   'Tb8 Ho4 Tc3 Ru1'
_cell_volume   426.88600542
_cell_formula_units_Z   1
loop_
 _symmetry_equiv_pos_site_id
 _symmetry_equiv_pos_as_xyz
  1  'x, y, z'
loop_
 _atom_site_type_symbol
 _atom_site_label
 _atom_site_symmetry_multiplicity
 _atom_site_fract_x
 _atom_site_fract_y
 _atom_site_fract_z
 _atom_site_occupancy
  Tb  Tb0  1  0.335538  0.675999  0.063688  1
  Tb  Tb1  1  0.162404  0.175343  0.437261  1
  Tb  Tb2  1  0.662118  0.324479  0.563047  1
  Tb  Tb3  1  0.836737  0.824597  0.937091  1
  Tb  Tb4  1  0.874066  0.541206  0.250191  1
  Tb  Tb5  1  0.625538  0.039789  0.249884  1
  Tb  Tb6  1  0.130566  0.458135  0.750051  1
  Tb  Tb7  1  0.373583  0.957435  0.749909  1
  Ho  Ho8  1  0.661937  0.324374  0.936938  1
  Ho  Ho9  1  0.836843  0.824197  0.562744  1
  Ho  Ho10  1  0.335601  0.676474  0.436383  1
  Ho  Ho11  1  0.162265  0.175784  0.062658  1
  Tc  Tc12  1  0.039549  0.884645  0.250751  1
  Tc  Tc13  1  0.461744  0.386540  0.249161  1
  Tc  Tc14  1  0.961755  0.115308  0.750924  1
  Ru  Ru15  1  0.539757  0.615696  0.749318  1
