# generated using pymatgen
data_LaHoFe4(CoB2)4
_symmetry_space_group_name_H-M   'P 1'
_cell_length_a   7.01357860
_cell_length_b   7.04069464
_cell_length_c   3.81428900
_cell_angle_alpha   90.00000000
_cell_angle_beta   90.00000000
_cell_angle_gamma   89.90104962
_symmetry_Int_Tables_number   1
_chemical_formula_structural   LaHoFe4(CoB2)4
_chemical_formula_sum   'La1 Ho1 Fe4 Co4 B8'
_cell_volume   188.35108455
_cell_formula_units_Z   1
loop_
 _symmetry_equiv_pos_site_id
 _symmetry_equiv_pos_as_xyz
  1  'x, y, z'
loop_
 _atom_site_type_symbol
 _atom_site_label
 _atom_site_symmetry_multiplicity
 _atom_site_fract_x
 _atom_site_fract_y
 _atom_site_fract_z
 _atom_site_occupancy
  La  La0  1  0.500000  0.500000  0.505733  1
  Ho  Ho1  1  0.000000  0.000000  0.007613  1
  Fe  Fe2  1  0.383822  0.129779  0.892539  1
  Fe  Fe3  1  0.616178  0.870221  0.892539  1
  Fe  Fe4  1  0.365118  0.886540  0.393245  1
  Fe  Fe5  1  0.634882  0.113460  0.393245  1
  Co  Co6  1  0.113606  0.357160  0.607441  1
  Co  Co7  1  0.886394  0.642840  0.607441  1
  Co  Co8  1  0.134639  0.617942  0.108257  1
  Co  Co9  1  0.865361  0.382058  0.108257  1
  B  B10  1  0.803435  0.666676  0.102004  1
  B  B11  1  0.196565  0.333324  0.102004  1
  B  B12  1  0.839835  0.288061  0.605045  1
  B  B13  1  0.160165  0.711939  0.605045  1
  B  B14  1  0.704079  0.837811  0.390021  1
  B  B15  1  0.295921  0.162189  0.390021  1
  B  B16  1  0.667931  0.192300  0.894775  1
  B  B17  1  0.332069  0.807700  0.894775  1
