# generated using pymatgen
data_Tb4Zn2MoOs5
_symmetry_space_group_name_H-M   'P 1'
_cell_length_a   5.34817887
_cell_length_b   5.32544434
_cell_length_c   8.89926200
_cell_angle_alpha   90.00000000
_cell_angle_beta   90.00000000
_cell_angle_gamma   118.33153116
_symmetry_Int_Tables_number   1
_chemical_formula_structural   Tb4Zn2MoOs5
_chemical_formula_sum   'Tb4 Zn2 Mo1 Os5'
_cell_volume   223.10288311
_cell_formula_units_Z   1
loop_
 _symmetry_equiv_pos_site_id
 _symmetry_equiv_pos_as_xyz
  1  'x, y, z'
loop_
 _atom_site_type_symbol
 _atom_site_label
 _atom_site_symmetry_multiplicity
 _atom_site_fract_x
 _atom_site_fract_y
 _atom_site_fract_z
 _atom_site_occupancy
  Tb  Tb0  1  0.323834  0.667436  0.436163  1
  Tb  Tb1  1  0.656318  0.327672  0.558181  1
  Tb  Tb2  1  0.656318  0.327672  0.941819  1
  Tb  Tb3  1  0.323834  0.667436  0.063837  1
  Zn  Zn4  1  0.194950  0.839809  0.750000  1
  Zn  Zn5  1  0.187575  0.348397  0.750000  1
  Mo  Mo6  1  0.836858  0.162573  0.250000  1
  Os  Os7  1  0.973288  0.992489  0.503593  1
  Os  Os8  1  0.973288  0.992489  0.996407  1
  Os  Os9  1  0.825823  0.656215  0.250000  1
  Os  Os10  1  0.351444  0.174183  0.250000  1
  Os  Os11  1  0.696468  0.843628  0.750000  1
