# generated using pymatgen
data_Pr3Dy5(CdOs)2
_symmetry_space_group_name_H-M   'P 1'
_cell_length_a   9.78011298
_cell_length_b   9.78011274
_cell_length_c   9.78011300
_cell_angle_alpha   59.99999573
_cell_angle_beta   59.99999656
_cell_angle_gamma   59.99999298
_symmetry_Int_Tables_number   1
_chemical_formula_structural   Pr3Dy5(CdOs)2
_chemical_formula_sum   'Pr6 Dy10 Cd4 Os4'
_cell_volume   661.47975888
_cell_formula_units_Z   2
loop_
 _symmetry_equiv_pos_site_id
 _symmetry_equiv_pos_as_xyz
  1  'x, y, z'
loop_
 _atom_site_type_symbol
 _atom_site_label
 _atom_site_symmetry_multiplicity
 _atom_site_fract_x
 _atom_site_fract_y
 _atom_site_fract_z
 _atom_site_occupancy
  Pr  Pr0  1  0.943041  0.556959  0.556959  1
  Pr  Pr1  1  0.556959  0.943041  0.943041  1
  Pr  Pr2  1  0.556959  0.943041  0.556959  1
  Pr  Pr3  1  0.943041  0.556959  0.943041  1
  Pr  Pr4  1  0.556959  0.556959  0.943041  1
  Pr  Pr5  1  0.943041  0.943041  0.556959  1
  Dy  Dy6  1  0.344416  0.344416  0.344416  1
  Dy  Dy7  1  0.344416  0.344416  0.966752  1
  Dy  Dy8  1  0.344416  0.966752  0.344416  1
  Dy  Dy9  1  0.966752  0.344416  0.344416  1
  Dy  Dy10  1  0.811896  0.188104  0.188104  1
  Dy  Dy11  1  0.188104  0.811896  0.811896  1
  Dy  Dy12  1  0.188104  0.811896  0.188104  1
  Dy  Dy13  1  0.811896  0.188104  0.811896  1
  Dy  Dy14  1  0.188104  0.188104  0.811896  1
  Dy  Dy15  1  0.811896  0.811896  0.188104  1
  Cd  Cd16  1  0.578474  0.578474  0.578474  1
  Cd  Cd17  1  0.578474  0.578474  0.264577  1
  Cd  Cd18  1  0.578474  0.264577  0.578474  1
  Cd  Cd19  1  0.264577  0.578474  0.578474  1
  Os  Os20  1  0.138959  0.138959  0.138959  1
  Os  Os21  1  0.138959  0.138959  0.583123  1
  Os  Os22  1  0.138959  0.583123  0.138959  1
  Os  Os23  1  0.583123  0.138959  0.138959  1
