# generated using pymatgen
data_LiY11Ho5Cd3Pt4
_symmetry_space_group_name_H-M   'P 1'
_cell_length_a   9.68883211
_cell_length_b   9.70287798
_cell_length_c   9.70287867
_cell_angle_alpha   59.93278841
_cell_angle_beta   59.96393088
_cell_angle_gamma   59.96392673
_symmetry_Int_Tables_number   1
_chemical_formula_structural   LiY11Ho5Cd3Pt4
_chemical_formula_sum   'Li1 Y11 Ho5 Cd3 Pt4'
_cell_volume   644.31724938
_cell_formula_units_Z   1
loop_
 _symmetry_equiv_pos_site_id
 _symmetry_equiv_pos_as_xyz
  1  'x, y, z'
loop_
 _atom_site_type_symbol
 _atom_site_label
 _atom_site_symmetry_multiplicity
 _atom_site_fract_x
 _atom_site_fract_y
 _atom_site_fract_z
 _atom_site_occupancy
  Li  Li0  1  0.572112  0.572092  0.572092  1
  Y  Y1  1  0.188520  0.812011  0.812011  1
  Y  Y2  1  0.192105  0.809410  0.192435  1
  Y  Y3  1  0.812131  0.188518  0.812156  1
  Y  Y4  1  0.192105  0.192435  0.809410  1
  Y  Y5  1  0.812131  0.812156  0.188518  1
  Y  Y6  1  0.936773  0.564644  0.564644  1
  Y  Y7  1  0.563130  0.936466  0.936466  1
  Y  Y8  1  0.564863  0.936998  0.564360  1
  Y  Y9  1  0.936458  0.562770  0.936693  1
  Y  Y10  1  0.564863  0.564360  0.936998  1
  Y  Y11  1  0.936458  0.936693  0.562770  1
  Ho  Ho12  1  0.350990  0.350698  0.350698  1
  Ho  Ho13  1  0.352194  0.352206  0.944638  1
  Ho  Ho14  1  0.352194  0.944638  0.352206  1
  Ho  Ho15  1  0.944418  0.352170  0.352170  1
  Ho  Ho16  1  0.809603  0.192155  0.192155  1
  Cd  Cd17  1  0.582095  0.582035  0.254400  1
  Cd  Cd18  1  0.582095  0.254400  0.582035  1
  Cd  Cd19  1  0.254398  0.582068  0.582068  1
  Pt  Pt20  1  0.143482  0.144941  0.144941  1
  Pt  Pt21  1  0.143498  0.143380  0.569080  1
  Pt  Pt22  1  0.143498  0.569080  0.143380  1
  Pt  Pt23  1  0.569889  0.143678  0.143678  1
