# generated using pymatgen
data_Ho2Tm2Al18ZnRh5
_symmetry_space_group_name_H-M   'P 1'
_cell_length_a   7.57303221
_cell_length_b   7.57484999
_cell_length_c   9.42658253
_cell_angle_alpha   89.98175316
_cell_angle_beta   90.04618323
_cell_angle_gamma   119.50210948
_symmetry_Int_Tables_number   1
_chemical_formula_structural   Ho2Tm2Al18ZnRh5
_chemical_formula_sum   'Ho2 Tm2 Al18 Zn1 Rh5'
_cell_volume   470.63660354
_cell_formula_units_Z   1
loop_
 _symmetry_equiv_pos_site_id
 _symmetry_equiv_pos_as_xyz
  1  'x, y, z'
loop_
 _atom_site_type_symbol
 _atom_site_label
 _atom_site_symmetry_multiplicity
 _atom_site_fract_x
 _atom_site_fract_y
 _atom_site_fract_z
 _atom_site_occupancy
  Ho  Ho0  1  0.995121  0.675472  0.249072  1
  Ho  Ho1  1  0.004879  0.324528  0.750928  1
  Tm  Tm2  1  0.675113  0.995196  0.249438  1
  Tm  Tm3  1  0.324887  0.004804  0.750562  1
  Al  Al4  1  0.134233  0.134424  0.256603  1
  Al  Al5  1  0.865767  0.865576  0.743397  1
  Al  Al6  1  0.001267  0.343554  0.079884  1
  Al  Al7  1  0.998733  0.656446  0.920116  1
  Al  Al8  1  0.001597  0.664933  0.573378  1
  Al  Al9  1  0.336153  0.999035  0.427206  1
  Al  Al10  1  0.998403  0.335067  0.426622  1
  Al  Al11  1  0.663847  0.000965  0.572794  1
  Al  Al12  1  0.655390  0.998262  0.920563  1
  Al  Al13  1  0.344610  0.001738  0.079437  1
  Al  Al14  1  0.332724  0.332281  0.551981  1
  Al  Al15  1  0.667276  0.667719  0.448019  1
  Al  Al16  1  0.658501  0.658991  0.058219  1
  Al  Al17  1  0.341499  0.341009  0.941781  1
  Al  Al18  1  0.339172  0.552080  0.251566  1
  Al  Al19  1  0.660828  0.447920  0.748434  1
  Al  Al20  1  0.551488  0.338211  0.251519  1
  Al  Al21  1  0.448512  0.661789  0.748481  1
  Zn  Zn22  1  0.000000  0.000000  0.000000  1
  Rh  Rh23  1  0.671882  0.327708  0.000007  1
  Rh  Rh24  1  0.328118  0.672292  0.999993  1
  Rh  Rh25  1  0.328280  0.671720  0.499882  1
  Rh  Rh26  1  0.671720  0.328280  0.500118  1
  Rh  Rh27  1  0.000000  0.000000  0.500000  1
