# generated using pymatgen
data_Rb2Pr3Sm(CuSe4)2
_symmetry_space_group_name_H-M   'P 1'
_cell_length_a   4.32471900
_cell_length_b   7.64724994
_cell_length_c   14.66993884
_cell_angle_alpha   89.86714032
_cell_angle_beta   90.00000000
_cell_angle_gamma   73.57482400
_symmetry_Int_Tables_number   1
_chemical_formula_structural   Rb2Pr3Sm(CuSe4)2
_chemical_formula_sum   'Rb2 Pr3 Sm1 Cu2 Se8'
_cell_volume   465.36613300
_cell_formula_units_Z   1
loop_
 _symmetry_equiv_pos_site_id
 _symmetry_equiv_pos_as_xyz
  1  'x, y, z'
loop_
 _atom_site_type_symbol
 _atom_site_label
 _atom_site_symmetry_multiplicity
 _atom_site_fract_x
 _atom_site_fract_y
 _atom_site_fract_z
 _atom_site_occupancy
  Rb  Rb0  1  0.892171  0.215659  0.249516  1
  Rb  Rb1  1  0.107848  0.784306  0.750764  1
  Pr  Pr2  1  0.633745  0.732512  0.061961  1
  Pr  Pr3  1  0.634876  0.730250  0.436652  1
  Pr  Pr4  1  0.365479  0.269041  0.564541  1
  Sm  Sm5  1  0.364402  0.271196  0.936487  1
  Cu  Cu6  1  0.163255  0.673492  0.249454  1
  Cu  Cu7  1  0.837772  0.324458  0.749894  1
  Se  Se8  1  0.997163  0.005674  0.998317  1
  Se  Se9  1  0.261834  0.476333  0.111817  1
  Se  Se10  1  0.569679  0.860645  0.249374  1
  Se  Se11  1  0.262000  0.475999  0.386330  1
  Se  Se12  1  0.999943  0.000114  0.500247  1
  Se  Se13  1  0.738247  0.523507  0.614334  1
  Se  Se14  1  0.430279  0.139443  0.752925  1
  Se  Se15  1  0.741317  0.517368  0.887387  1
