# generated using pymatgen
data_CeNdMn2C3
_symmetry_space_group_name_H-M   'P 1'
_cell_length_a   5.87100086
_cell_length_b   5.87100095
_cell_length_c   6.37708737
_cell_angle_alpha   128.04714142
_cell_angle_beta   128.04714275
_cell_angle_gamma   34.32604871
_symmetry_Int_Tables_number   1
_chemical_formula_structural   CeNdMn2C3
_chemical_formula_sum   'Ce1 Nd1 Mn2 C3'
_cell_volume   94.71765984
_cell_formula_units_Z   1
loop_
 _symmetry_equiv_pos_site_id
 _symmetry_equiv_pos_as_xyz
  1  'x, y, z'
loop_
 _atom_site_type_symbol
 _atom_site_label
 _atom_site_symmetry_multiplicity
 _atom_site_fract_x
 _atom_site_fract_y
 _atom_site_fract_z
 _atom_site_occupancy
  Ce  Ce0  1  0.431587  0.431587  0.192567  1
  Nd  Nd1  1  0.568679  0.568679  0.801185  1
  Mn  Mn2  1  0.201398  0.201398  0.320691  1
  Mn  Mn3  1  0.798421  0.798421  0.681672  1
  C  C4  1  0.999636  0.999636  0.001925  1
  C  C5  1  0.798339  0.798339  0.368218  1
  C  C6  1  0.201941  0.201941  0.633741  1
