# generated using pymatgen
data_Ba2Ca3(InSb3)2
_symmetry_space_group_name_H-M   'P 1'
_cell_length_a   4.82846600
_cell_length_b   12.62074100
_cell_length_c   14.51354100
_cell_angle_alpha   90.00000000
_cell_angle_beta   90.00000000
_cell_angle_gamma   90.00000000
_symmetry_Int_Tables_number   1
_chemical_formula_structural   Ba2Ca3(InSb3)2
_chemical_formula_sum   'Ba4 Ca6 In4 Sb12'
_cell_volume   884.43804534
_cell_formula_units_Z   2
loop_
 _symmetry_equiv_pos_site_id
 _symmetry_equiv_pos_as_xyz
  1  'x, y, z'
loop_
 _atom_site_type_symbol
 _atom_site_label
 _atom_site_symmetry_multiplicity
 _atom_site_fract_x
 _atom_site_fract_y
 _atom_site_fract_z
 _atom_site_occupancy
  Ba  Ba0  1  0.500000  0.676873  0.474091  1
  Ba  Ba1  1  0.500000  0.323127  0.525909  1
  Ba  Ba2  1  0.500000  0.823127  0.974091  1
  Ba  Ba3  1  0.500000  0.176873  0.025909  1
  Ca  Ca4  1  0.500000  0.000000  0.500000  1
  Ca  Ca5  1  0.500000  0.500000  0.000000  1
  Ca  Ca6  1  0.500000  0.914797  0.247607  1
  Ca  Ca7  1  0.500000  0.085203  0.752393  1
  Ca  Ca8  1  0.500000  0.414797  0.252393  1
  Ca  Ca9  1  0.500000  0.585203  0.747607  1
  In  In10  1  0.000000  0.323552  0.716296  1
  In  In11  1  0.000000  0.676448  0.283704  1
  In  In12  1  0.000000  0.823552  0.783704  1
  In  In13  1  0.000000  0.176448  0.216296  1
  Sb  Sb14  1  0.000000  0.975643  0.099210  1
  Sb  Sb15  1  0.000000  0.024357  0.900790  1
  Sb  Sb16  1  0.000000  0.475643  0.400790  1
  Sb  Sb17  1  0.000000  0.524357  0.599210  1
  Sb  Sb18  1  0.500000  0.161520  0.323279  1
  Sb  Sb19  1  0.500000  0.838480  0.676721  1
  Sb  Sb20  1  0.500000  0.661520  0.176721  1
  Sb  Sb21  1  0.500000  0.338480  0.823279  1
  Sb  Sb22  1  0.000000  0.369204  0.106478  1
  Sb  Sb23  1  0.000000  0.630796  0.893522  1
  Sb  Sb24  1  0.000000  0.869204  0.393522  1
  Sb  Sb25  1  0.000000  0.130796  0.606478  1
