# generated using pymatgen
data_Y2ErNiPd2Pb3
_symmetry_space_group_name_H-M   'P 1'
_cell_length_a   7.80615876
_cell_length_b   7.82753288
_cell_length_c   3.80067600
_cell_angle_alpha   90.00000000
_cell_angle_beta   90.00000000
_cell_angle_gamma   120.09062215
_symmetry_Int_Tables_number   1
_chemical_formula_structural   Y2ErNiPd2Pb3
_chemical_formula_sum   'Y2 Er1 Ni1 Pd2 Pb3'
_cell_volume   200.93539805
_cell_formula_units_Z   1
loop_
 _symmetry_equiv_pos_site_id
 _symmetry_equiv_pos_as_xyz
  1  'x, y, z'
loop_
 _atom_site_type_symbol
 _atom_site_label
 _atom_site_symmetry_multiplicity
 _atom_site_fract_x
 _atom_site_fract_y
 _atom_site_fract_z
 _atom_site_occupancy
  Y  Y0  1  0.398188  0.398132  0.500000  1
  Y  Y1  1  0.601812  0.999944  0.500000  1
  Er  Er2  1  0.000000  0.601495  0.500000  1
  Ni  Ni3  1  0.000000  0.998893  0.500000  1
  Pd  Pd4  1  0.669565  0.335878  0.000000  1
  Pd  Pd5  1  0.330435  0.666314  0.000000  1
  Pb  Pb6  1  0.743260  0.742414  0.000000  1
  Pb  Pb7  1  0.256740  0.999153  0.000000  1
  Pb  Pb8  1  0.000000  0.257775  0.000000  1
