# generated using pymatgen
data_Pr4Tc2O11
_symmetry_space_group_name_H-M   'P 1'
_cell_length_a   5.63774100
_cell_length_b   12.75073300
_cell_length_c   12.75073300
_cell_angle_alpha   90.00000000
_cell_angle_beta   90.00000000
_cell_angle_gamma   90.00000000
_symmetry_Int_Tables_number   1
_chemical_formula_structural   Pr4Tc2O11
_chemical_formula_sum   'Pr16 Tc8 O44'
_cell_volume   916.59065218
_cell_formula_units_Z   4
loop_
 _symmetry_equiv_pos_site_id
 _symmetry_equiv_pos_as_xyz
  1  'x, y, z'
loop_
 _atom_site_type_symbol
 _atom_site_label
 _atom_site_symmetry_multiplicity
 _atom_site_fract_x
 _atom_site_fract_y
 _atom_site_fract_z
 _atom_site_occupancy
  Pr  Pr0  1  0.678528  0.362452  0.055051  1
  Pr  Pr1  1  0.247689  0.866792  0.065448  1
  Pr  Pr2  1  0.752311  0.065448  0.133207  1
  Pr  Pr3  1  0.178528  0.555052  0.137548  1
  Pr  Pr4  1  0.321472  0.944948  0.362452  1
  Pr  Pr5  1  0.747689  0.434551  0.366792  1
  Pr  Pr6  1  0.252311  0.633208  0.434551  1
  Pr  Pr7  1  0.821474  0.137548  0.444948  1
  Pr  Pr8  1  0.821474  0.862452  0.555052  1
  Pr  Pr9  1  0.252311  0.366792  0.565448  1
  Pr  Pr10  1  0.747689  0.565448  0.633208  1
  Pr  Pr11  1  0.321472  0.055051  0.637547  1
  Pr  Pr12  1  0.178528  0.444948  0.862452  1
  Pr  Pr13  1  0.752311  0.934552  0.866792  1
  Pr  Pr14  1  0.247689  0.133207  0.934552  1
  Pr  Pr15  1  0.678528  0.637547  0.944948  1
  Tc  Tc16  1  0.176686  0.271253  0.163436  1
  Tc  Tc17  1  0.676686  0.663436  0.228747  1
  Tc  Tc18  1  0.823314  0.836564  0.271253  1
  Tc  Tc19  1  0.323314  0.228747  0.336563  1
  Tc  Tc20  1  0.323314  0.771252  0.663436  1
  Tc  Tc21  1  0.823314  0.163436  0.728748  1
  Tc  Tc22  1  0.676686  0.336563  0.771252  1
  Tc  Tc23  1  0.176686  0.728748  0.836564  1
  O  O24  1  0.000000  0.000000  0.000000  1
  O  O25  1  0.500000  0.000000  0.000000  1
  O  O26  1  0.254982  0.397124  0.049443  1
  O  O27  1  0.953780  0.218816  0.057535  1
  O  O28  1  0.440221  0.205034  0.093297  1
  O  O29  1  0.754982  0.549443  0.102875  1
  O  O30  1  0.468293  0.706260  0.121207  1
  O  O31  1  0.942182  0.750963  0.159128  1
  O  O32  1  0.559779  0.906703  0.205034  1
  O  O33  1  0.968293  0.378794  0.206260  1
  O  O34  1  0.046219  0.942466  0.218816  1
  O  O35  1  0.057818  0.159128  0.249037  1
  O  O36  1  0.442182  0.340872  0.250964  1
  O  O37  1  0.453780  0.557534  0.281184  1
  O  O38  1  0.531707  0.121207  0.293740  1
  O  O39  1  0.940221  0.593297  0.294967  1
  O  O40  1  0.557818  0.749037  0.340872  1
  O  O41  1  0.031707  0.793740  0.378794  1
  O  O42  1  0.745018  0.950557  0.397124  1
  O  O43  1  0.059779  0.294967  0.406703  1
  O  O44  1  0.546219  0.281184  0.442466  1
  O  O45  1  0.245018  0.102875  0.450557  1
  O  O46  1  0.000000  0.500000  0.500000  1
  O  O47  1  0.500000  0.500000  0.500000  1
  O  O48  1  0.245018  0.897125  0.549443  1
  O  O49  1  0.546219  0.718816  0.557534  1
  O  O50  1  0.059779  0.705033  0.593297  1
  O  O51  1  0.745018  0.049443  0.602875  1
  O  O52  1  0.031707  0.206260  0.621207  1
  O  O53  1  0.557818  0.250964  0.659129  1
  O  O54  1  0.940221  0.406703  0.705033  1
  O  O55  1  0.531707  0.878793  0.706260  1
  O  O56  1  0.453780  0.442466  0.718816  1
  O  O57  1  0.442182  0.659129  0.749037  1
  O  O58  1  0.057818  0.840872  0.750963  1
  O  O59  1  0.046219  0.057535  0.781184  1
  O  O60  1  0.968293  0.621207  0.793740  1
  O  O61  1  0.559779  0.093297  0.794967  1
  O  O62  1  0.942182  0.249037  0.840872  1
  O  O63  1  0.468293  0.293740  0.878793  1
  O  O64  1  0.754982  0.450557  0.897125  1
  O  O65  1  0.440221  0.794967  0.906703  1
  O  O66  1  0.953780  0.781184  0.942466  1
  O  O67  1  0.254982  0.602875  0.950557  1
