# generated using pymatgen
data_Ho16TlCd2InPd4
_symmetry_space_group_name_H-M   'P 1'
_cell_length_a   9.67455025
_cell_length_b   9.67454975
_cell_length_c   9.68444155
_cell_angle_alpha   60.01898176
_cell_angle_beta   60.01898112
_cell_angle_gamma   60.04685842
_symmetry_Int_Tables_number   1
_chemical_formula_structural   Ho16TlCd2InPd4
_chemical_formula_sum   'Ho16 Tl1 Cd2 In1 Pd4'
_cell_volume   641.35623730
_cell_formula_units_Z   1
loop_
 _symmetry_equiv_pos_site_id
 _symmetry_equiv_pos_as_xyz
  1  'x, y, z'
loop_
 _atom_site_type_symbol
 _atom_site_label
 _atom_site_symmetry_multiplicity
 _atom_site_fract_x
 _atom_site_fract_y
 _atom_site_fract_z
 _atom_site_occupancy
  Ho  Ho0  1  0.351235  0.351235  0.352193  1
  Ho  Ho1  1  0.353851  0.353851  0.939386  1
  Ho  Ho2  1  0.354372  0.938385  0.354211  1
  Ho  Ho3  1  0.938385  0.354372  0.354211  1
  Ho  Ho4  1  0.810273  0.190601  0.189530  1
  Ho  Ho5  1  0.189103  0.810172  0.810381  1
  Ho  Ho6  1  0.190601  0.810273  0.189530  1
  Ho  Ho7  1  0.810172  0.189103  0.810381  1
  Ho  Ho8  1  0.188915  0.188915  0.811591  1
  Ho  Ho9  1  0.808990  0.808990  0.190539  1
  Ho  Ho10  1  0.937717  0.566605  0.565231  1
  Ho  Ho11  1  0.564479  0.936898  0.933748  1
  Ho  Ho12  1  0.566605  0.937717  0.565231  1
  Ho  Ho13  1  0.936898  0.564479  0.933748  1
  Ho  Ho14  1  0.565971  0.565971  0.934913  1
  Ho  Ho15  1  0.936567  0.936567  0.562853  1
  Tl  Tl16  1  0.584181  0.584181  0.586207  1
  Cd  Cd17  1  0.581058  0.250816  0.582457  1
  Cd  Cd18  1  0.250816  0.581058  0.582457  1
  In  In19  1  0.581498  0.581498  0.251319  1
  Pd  Pd20  1  0.144519  0.144519  0.144885  1
  Pd  Pd21  1  0.143121  0.143121  0.567902  1
  Pd  Pd22  1  0.142969  0.567704  0.143546  1
  Pd  Pd23  1  0.567704  0.142969  0.143546  1
