# generated using pymatgen
data_AcLa9Pr2(Si7Br3)2
_symmetry_space_group_name_H-M   'P 1'
_cell_length_a   4.15394000
_cell_length_b   11.97598000
_cell_length_c   16.91266000
_cell_angle_alpha   90.00000000
_cell_angle_beta   90.00000000
_cell_angle_gamma   90.00000000
_symmetry_Int_Tables_number   1
_chemical_formula_structural   AcLa9Pr2(Si7Br3)2
_chemical_formula_sum   'Ac1 La9 Pr2 Si14 Br6'
_cell_volume   841.36259328
_cell_formula_units_Z   1
loop_
 _symmetry_equiv_pos_site_id
 _symmetry_equiv_pos_as_xyz
  1  'x, y, z'
loop_
 _atom_site_type_symbol
 _atom_site_label
 _atom_site_symmetry_multiplicity
 _atom_site_fract_x
 _atom_site_fract_y
 _atom_site_fract_z
 _atom_site_occupancy
  Ac  Ac0  1  0.500000  0.337390  0.500000  1
  La  La1  1  0.000000  0.657211  0.000000  1
  La  La2  1  0.500000  0.358737  0.757065  1
  La  La3  1  0.000000  0.642782  0.744781  1
  La  La4  1  0.500000  0.358737  0.242935  1
  La  La5  1  0.000000  0.642782  0.255219  1
  La  La6  1  0.500000  0.066646  0.881148  1
  La  La7  1  0.000000  0.932228  0.619906  1
  La  La8  1  0.500000  0.066646  0.118852  1
  La  La9  1  0.000000  0.932228  0.380094  1
  Pr  Pr10  1  0.500000  0.357564  0.000000  1
  Pr  Pr11  1  0.000000  0.642514  0.500000  1
  Si  Si12  1  0.000000  0.153535  0.000000  1
  Si  Si13  1  0.500000  0.846615  0.500000  1
  Si  Si14  1  0.500000  0.563837  0.877733  1
  Si  Si15  1  0.000000  0.438627  0.625188  1
  Si  Si16  1  0.500000  0.563837  0.122267  1
  Si  Si17  1  0.000000  0.438627  0.374812  1
  Si  Si18  1  0.000000  0.255128  0.875846  1
  Si  Si19  1  0.500000  0.745294  0.624470  1
  Si  Si20  1  0.000000  0.255128  0.124154  1
  Si  Si21  1  0.500000  0.745294  0.375530  1
  Si  Si22  1  0.000000  0.457749  0.876478  1
  Si  Si23  1  0.500000  0.544305  0.625065  1
  Si  Si24  1  0.500000  0.544305  0.374935  1
  Si  Si25  1  0.000000  0.457749  0.123522  1
  Br  Br26  1  0.500000  0.107999  0.692143  1
  Br  Br27  1  0.000000  0.892737  0.807627  1
  Br  Br28  1  0.000000  0.131711  0.500000  1
  Br  Br29  1  0.500000  0.861326  0.000000  1
  Br  Br30  1  0.500000  0.107999  0.307857  1
  Br  Br31  1  0.000000  0.892737  0.192373  1
