# generated using pymatgen
data_La12Nd4Cd4Pd3Ru
_symmetry_space_group_name_H-M   'P 1'
_cell_length_a   10.17027926
_cell_length_b   10.17863404
_cell_length_c   10.17863526
_cell_angle_alpha   59.52030805
_cell_angle_beta   59.63963916
_cell_angle_gamma   59.63963984
_symmetry_Int_Tables_number   1
_chemical_formula_structural   La12Nd4Cd4Pd3Ru
_chemical_formula_sum   'La12 Nd4 Cd4 Pd3 Ru1'
_cell_volume   738.29142860
_cell_formula_units_Z   1
loop_
 _symmetry_equiv_pos_site_id
 _symmetry_equiv_pos_as_xyz
  1  'x, y, z'
loop_
 _atom_site_type_symbol
 _atom_site_label
 _atom_site_symmetry_multiplicity
 _atom_site_fract_x
 _atom_site_fract_y
 _atom_site_fract_z
 _atom_site_occupancy
  La  La0  1  0.352153  0.351423  0.351423  1
  La  La1  1  0.346327  0.346930  0.951864  1
  La  La2  1  0.346327  0.951864  0.346930  1
  La  La3  1  0.951462  0.346298  0.346298  1
  La  La4  1  0.817814  0.189871  0.189871  1
  La  La5  1  0.191919  0.806397  0.806397  1
  La  La6  1  0.189669  0.818134  0.189506  1
  La  La7  1  0.807058  0.191607  0.806852  1
  La  La8  1  0.189669  0.189506  0.818134  1
  La  La9  1  0.807058  0.806852  0.191607  1
  La  La10  1  0.934240  0.566485  0.566485  1
  La  La11  1  0.559983  0.935601  0.935601  1
  Nd  Nd12  1  0.565147  0.935446  0.565214  1
  Nd  Nd13  1  0.936389  0.559838  0.936270  1
  Nd  Nd14  1  0.565147  0.565214  0.935446  1
  Nd  Nd15  1  0.936389  0.936270  0.559838  1
  Cd  Cd16  1  0.579455  0.580168  0.580168  1
  Cd  Cd17  1  0.580717  0.579700  0.258134  1
  Cd  Cd18  1  0.580717  0.258134  0.579700  1
  Cd  Cd19  1  0.258316  0.580603  0.580603  1
  Pd  Pd20  1  0.145056  0.144239  0.571807  1
  Pd  Pd21  1  0.145056  0.571807  0.144239  1
  Pd  Pd22  1  0.571967  0.144926  0.144926  1
  Ru  Ru23  1  0.141965  0.142687  0.142687  1
