# generated using pymatgen
data_Ho3Lu(ScPt)4
_symmetry_space_group_name_H-M   'P 1'
_cell_length_a   4.61398100
_cell_length_b   6.95631693
_cell_length_c   8.36029792
_cell_angle_alpha   89.88571307
_cell_angle_beta   90.00000000
_cell_angle_gamma   90.00000000
_symmetry_Int_Tables_number   1
_chemical_formula_structural   Ho3Lu(ScPt)4
_chemical_formula_sum   'Ho3 Lu1 Sc4 Pt4'
_cell_volume   268.33421471
_cell_formula_units_Z   1
loop_
 _symmetry_equiv_pos_site_id
 _symmetry_equiv_pos_as_xyz
  1  'x, y, z'
loop_
 _atom_site_type_symbol
 _atom_site_label
 _atom_site_symmetry_multiplicity
 _atom_site_fract_x
 _atom_site_fract_y
 _atom_site_fract_z
 _atom_site_occupancy
  Ho  Ho0  1  0.250000  0.520477  0.176369  1
  Ho  Ho1  1  0.750000  0.479864  0.825001  1
  Ho  Ho2  1  0.750000  0.979622  0.674425  1
  Lu  Lu3  1  0.250000  0.021193  0.325128  1
  Sc  Sc4  1  0.250000  0.641891  0.570313  1
  Sc  Sc5  1  0.750000  0.357285  0.428693  1
  Sc  Sc6  1  0.750000  0.859161  0.072920  1
  Sc  Sc7  1  0.250000  0.141522  0.929772  1
  Pt  Pt8  1  0.250000  0.754812  0.897740  1
  Pt  Pt9  1  0.750000  0.244315  0.103233  1
  Pt  Pt10  1  0.750000  0.746416  0.396503  1
  Pt  Pt11  1  0.250000  0.253443  0.599903  1
