# generated using pymatgen
data_Tb2DySi2Ag3Sn
_symmetry_space_group_name_H-M   'P 1'
_cell_length_a   7.20389608
_cell_length_b   7.20578897
_cell_length_c   4.31474400
_cell_angle_alpha   90.00000000
_cell_angle_beta   90.00000000
_cell_angle_gamma   120.00870582
_symmetry_Int_Tables_number   1
_chemical_formula_structural   Tb2DySi2Ag3Sn
_chemical_formula_sum   'Tb2 Dy1 Si2 Ag3 Sn1'
_cell_volume   193.95301635
_cell_formula_units_Z   1
loop_
 _symmetry_equiv_pos_site_id
 _symmetry_equiv_pos_as_xyz
  1  'x, y, z'
loop_
 _atom_site_type_symbol
 _atom_site_label
 _atom_site_symmetry_multiplicity
 _atom_site_fract_x
 _atom_site_fract_y
 _atom_site_fract_z
 _atom_site_occupancy
  Tb  Tb0  1  0.432757  0.432789  0.500000  1
  Tb  Tb1  1  0.567243  0.000032  0.500000  1
  Dy  Dy2  1  0.000000  0.567204  0.500000  1
  Si  Si3  1  0.666885  0.333460  0.000000  1
  Si  Si4  1  0.333115  0.666576  0.000000  1
  Ag  Ag5  1  0.734869  0.734826  0.000000  1
  Ag  Ag6  1  0.265131  0.999956  0.000000  1
  Ag  Ag7  1  0.000000  0.265327  0.000000  1
  Sn  Sn8  1  0.000000  0.999831  0.500000  1
