# generated using pymatgen
data_NdEr3Zr4F28
_symmetry_space_group_name_H-M   'P 1'
_cell_length_a   5.77431782
_cell_length_b   9.14111922
_cell_length_c   12.28973743
_cell_angle_alpha   62.39256369
_cell_angle_beta   89.95129900
_cell_angle_gamma   90.01682580
_symmetry_Int_Tables_number   1
_chemical_formula_structural   NdEr3Zr4F28
_chemical_formula_sum   'Nd1 Er3 Zr4 F28'
_cell_volume   574.83923249
_cell_formula_units_Z   1
loop_
 _symmetry_equiv_pos_site_id
 _symmetry_equiv_pos_as_xyz
  1  'x, y, z'
loop_
 _atom_site_type_symbol
 _atom_site_label
 _atom_site_symmetry_multiplicity
 _atom_site_fract_x
 _atom_site_fract_y
 _atom_site_fract_z
 _atom_site_occupancy
  Nd  Nd0  1  0.756817  0.817319  0.766475  1
  Er  Er1  1  0.743655  0.818379  0.265938  1
  Er  Er2  1  0.243587  0.183755  0.234167  1
  Er  Er3  1  0.257103  0.188895  0.733377  1
  Zr  Zr4  1  0.743717  0.278221  0.452489  1
  Zr  Zr5  1  0.244923  0.725099  0.049871  1
  Zr  Zr6  1  0.255180  0.725431  0.540294  1
  Zr  Zr7  1  0.755303  0.269947  0.957099  1
  F  F8  1  0.460840  0.708412  0.925329  1
  F  F9  1  0.966519  0.288548  0.577585  1
  F  F10  1  0.530983  0.286240  0.079363  1
  F  F11  1  0.029721  0.711579  0.418180  1
  F  F12  1  0.454797  0.281089  0.549930  1
  F  F13  1  0.956233  0.715101  0.957100  1
  F  F14  1  0.548473  0.720321  0.446939  1
  F  F15  1  0.044818  0.277730  0.052572  1
  F  F16  1  0.768801  0.519236  0.860078  1
  F  F17  1  0.267570  0.473987  0.640050  1
  F  F18  1  0.234656  0.473081  0.143851  1
  F  F19  1  0.732792  0.528491  0.356426  1
  F  F20  1  0.759466  0.020025  0.060404  1
  F  F21  1  0.259097  0.976180  0.439453  1
  F  F22  1  0.239751  0.974576  0.942533  1
  F  F23  1  0.739723  0.027875  0.553189  1
  F  F24  1  0.986358  0.731130  0.645166  1
  F  F25  1  0.485142  0.265384  0.850964  1
  F  F26  1  0.012695  0.265066  0.348397  1
  F  F27  1  0.515652  0.735480  0.153033  1
  F  F28  1  0.030647  0.747435  0.175279  1
  F  F29  1  0.529676  0.253732  0.327036  1
  F  F30  1  0.968502  0.251029  0.828923  1
  F  F31  1  0.458942  0.743290  0.669892  1
  F  F32  1  0.432904  0.975834  0.235848  1
  F  F33  1  0.933743  0.025158  0.264214  1
  F  F34  1  0.566231  0.037303  0.765363  1
  F  F35  1  0.084985  0.979637  0.733196  1
