# generated using pymatgen
data_Hf15ZrNbNi4Ir3
_symmetry_space_group_name_H-M   'P 1'
_cell_length_a   8.62739352
_cell_length_b   8.64646878
_cell_length_c   8.68440284
_cell_angle_alpha   60.14532738
_cell_angle_beta   60.18580862
_cell_angle_gamma   59.92762298
_symmetry_Int_Tables_number   1
_chemical_formula_structural   Hf15ZrNbNi4Ir3
_chemical_formula_sum   'Hf15 Zr1 Nb1 Ni4 Ir3'
_cell_volume   458.97208216
_cell_formula_units_Z   1
loop_
 _symmetry_equiv_pos_site_id
 _symmetry_equiv_pos_as_xyz
  1  'x, y, z'
loop_
 _atom_site_type_symbol
 _atom_site_label
 _atom_site_symmetry_multiplicity
 _atom_site_fract_x
 _atom_site_fract_y
 _atom_site_fract_z
 _atom_site_occupancy
  Hf  Hf0  1  0.192253  0.602255  0.603229  1
  Hf  Hf1  1  0.602200  0.191658  0.603407  1
  Hf  Hf2  1  0.602218  0.602751  0.603396  1
  Hf  Hf3  1  0.607849  0.608254  0.175636  1
  Hf  Hf4  1  0.450264  0.452006  0.049532  1
  Hf  Hf5  1  0.051802  0.051286  0.445461  1
  Hf  Hf6  1  0.450266  0.048201  0.049534  1
  Hf  Hf7  1  0.051807  0.451447  0.445462  1
  Hf  Hf8  1  0.048435  0.451312  0.048919  1
  Hf  Hf9  1  0.449754  0.052474  0.445296  1
  Hf  Hf10  1  0.814315  0.813829  0.191724  1
  Hf  Hf11  1  0.185384  0.184494  0.815756  1
  Hf  Hf12  1  0.814303  0.180137  0.191728  1
  Hf  Hf13  1  0.185378  0.814359  0.815763  1
  Hf  Hf14  1  0.179002  0.815144  0.190714  1
  Zr  Zr15  1  0.815626  0.183864  0.816626  1
  Nb  Nb16  1  0.830122  0.830353  0.509172  1
  Ni  Ni17  1  0.821634  0.395063  0.388228  1
  Ni  Ni18  1  0.395197  0.821657  0.388311  1
  Ni  Ni19  1  0.395198  0.394809  0.388330  1
  Ni  Ni20  1  0.390972  0.390864  0.827365  1
  Ir  Ir21  1  0.491205  0.836844  0.835124  1
  Ir  Ir22  1  0.837413  0.492524  0.835640  1
  Ir  Ir23  1  0.837407  0.834418  0.835649  1
