# generated using pymatgen
data_Sc2Ni9P7W3
_symmetry_space_group_name_H-M   'P 1'
_cell_length_a   9.14565100
_cell_length_b   9.14565080
_cell_length_c   3.64603100
_cell_angle_alpha   90.00000000
_cell_angle_beta   90.00000000
_cell_angle_gamma   120.00001158
_symmetry_Int_Tables_number   1
_chemical_formula_structural   Sc2Ni9P7W3
_chemical_formula_sum   'Sc2 Ni9 P7 W3'
_cell_volume   264.10716137
_cell_formula_units_Z   1
loop_
 _symmetry_equiv_pos_site_id
 _symmetry_equiv_pos_as_xyz
  1  'x, y, z'
loop_
 _atom_site_type_symbol
 _atom_site_label
 _atom_site_symmetry_multiplicity
 _atom_site_fract_x
 _atom_site_fract_y
 _atom_site_fract_z
 _atom_site_occupancy
  Sc  Sc0  1  0.333333  0.666667  0.000000  1
  Sc  Sc1  1  0.666667  0.333333  0.500000  1
  Ni  Ni2  1  0.713380  0.874174  0.000000  1
  Ni  Ni3  1  0.160794  0.286620  0.000000  1
  Ni  Ni4  1  0.125826  0.839206  0.000000  1
  Ni  Ni5  1  0.628300  0.563654  0.000000  1
  Ni  Ni6  1  0.935354  0.371700  0.000000  1
  Ni  Ni7  1  0.436346  0.064646  0.000000  1
  Ni  Ni8  1  0.554763  0.940964  0.500000  1
  Ni  Ni9  1  0.386201  0.445237  0.500000  1
  Ni  Ni10  1  0.059036  0.613799  0.500000  1
  P  P11  1  0.586309  0.710218  0.500000  1
  P  P12  1  0.123909  0.413691  0.500000  1
  P  P13  1  0.289782  0.876091  0.500000  1
  P  P14  1  0.000000  0.000000  0.000000  1
  P  P15  1  0.881429  0.582754  0.000000  1
  P  P16  1  0.701325  0.118571  0.000000  1
  P  P17  1  0.417246  0.298675  0.000000  1
  W  W18  1  0.877010  0.777481  0.500000  1
  W  W19  1  0.900470  0.122990  0.500000  1
  W  W20  1  0.222519  0.099530  0.500000  1
