# generated using pymatgen
data_Yb3Dy3Si24OsRu7
_symmetry_space_group_name_H-M   'P 1'
_cell_length_a   10.15352289
_cell_length_b   10.15412920
_cell_length_c   8.13268266
_cell_angle_alpha   89.98180888
_cell_angle_beta   90.03917905
_cell_angle_gamma   132.77676444
_symmetry_Int_Tables_number   1
_chemical_formula_structural   Yb3Dy3Si24OsRu7
_chemical_formula_sum   'Yb3 Dy3 Si24 Os1 Ru7'
_cell_volume   615.44943107
_cell_formula_units_Z   1
loop_
 _symmetry_equiv_pos_site_id
 _symmetry_equiv_pos_as_xyz
  1  'x, y, z'
loop_
 _atom_site_type_symbol
 _atom_site_label
 _atom_site_symmetry_multiplicity
 _atom_site_fract_x
 _atom_site_fract_y
 _atom_site_fract_z
 _atom_site_occupancy
  Yb  Yb0  1  0.500201  0.500262  0.500225  1
  Yb  Yb1  1  0.000300  0.000170  0.999780  1
  Yb  Yb2  1  0.501439  0.001285  0.750008  1
  Dy  Dy3  1  0.999581  0.499571  0.250066  1
  Dy  Dy4  1  0.499026  0.999145  0.250000  1
  Dy  Dy5  1  0.001018  0.501155  0.750027  1
  Si  Si6  1  0.795401  0.202619  0.500883  1
  Si  Si7  1  0.296975  0.705767  0.998560  1
  Si  Si8  1  0.205703  0.796972  0.501448  1
  Si  Si9  1  0.703395  0.294985  0.999280  1
  Si  Si10  1  0.332837  0.334192  0.832276  1
  Si  Si11  1  0.665974  0.668547  0.167458  1
  Si  Si12  1  0.168802  0.165820  0.332442  1
  Si  Si13  1  0.834425  0.832605  0.667813  1
  Si  Si14  1  0.122313  0.889810  0.730798  1
  Si  Si15  1  0.109075  0.877279  0.269850  1
  Si  Si16  1  0.608589  0.377061  0.229105  1
  Si  Si17  1  0.622782  0.390308  0.770120  1
  Si  Si18  1  0.876172  0.108002  0.269272  1
  Si  Si19  1  0.891115  0.123580  0.731281  1
  Si  Si20  1  0.390160  0.622755  0.769375  1
  Si  Si21  1  0.376801  0.608642  0.229966  1
  Si  Si22  1  0.345914  0.113511  0.505795  1
  Si  Si23  1  0.886528  0.654857  0.493573  1
  Si  Si24  1  0.385789  0.152852  0.006044  1
  Si  Si25  1  0.846091  0.614116  0.992905  1
  Si  Si26  1  0.652410  0.885164  0.492762  1
  Si  Si27  1  0.114718  0.346578  0.508315  1
  Si  Si28  1  0.613825  0.846547  0.994242  1
  Si  Si29  1  0.153812  0.386031  0.006613  1
  Os  Os30  1  0.672278  0.329334  0.498585  1
  Ru  Ru31  1  0.169769  0.827569  0.001240  1
  Ru  Ru32  1  0.327571  0.669794  0.498696  1
  Ru  Ru33  1  0.829166  0.172131  0.001308  1
  Ru  Ru34  1  0.125976  0.126598  0.625583  1
  Ru  Ru35  1  0.873499  0.874651  0.374643  1
  Ru  Ru36  1  0.374132  0.373517  0.125242  1
  Ru  Ru37  1  0.626437  0.626222  0.874419  1
