# generated using pymatgen
data_K6Li2Sn3Pb5
_symmetry_space_group_name_H-M   'P 1'
_cell_length_a   8.86707383
_cell_length_b   8.86707349
_cell_length_c   10.43619253
_cell_angle_alpha   89.80521918
_cell_angle_beta   90.19478182
_cell_angle_gamma   134.24411849
_symmetry_Int_Tables_number   1
_chemical_formula_structural   K6Li2Sn3Pb5
_chemical_formula_sum   'K6 Li2 Sn3 Pb5'
_cell_volume   587.81317035
_cell_formula_units_Z   1
loop_
 _symmetry_equiv_pos_site_id
 _symmetry_equiv_pos_as_xyz
  1  'x, y, z'
loop_
 _atom_site_type_symbol
 _atom_site_label
 _atom_site_symmetry_multiplicity
 _atom_site_fract_x
 _atom_site_fract_y
 _atom_site_fract_z
 _atom_site_occupancy
  K  K0  1  0.227275  0.772725  0.248207  1
  K  K1  1  0.770602  0.229398  0.754759  1
  K  K2  1  0.617867  0.382133  0.046878  1
  K  K3  1  0.382821  0.617179  0.953917  1
  K  K4  1  0.383602  0.616398  0.546529  1
  K  K5  1  0.613928  0.386072  0.453683  1
  Li  Li6  1  0.000609  0.999391  0.999436  1
  Li  Li7  1  0.002594  0.997406  0.497912  1
  Sn  Sn8  1  0.832792  0.167208  0.105533  1
  Sn  Sn9  1  0.168366  0.831634  0.892525  1
  Sn  Sn10  1  0.169222  0.830778  0.608143  1
  Pb  Pb11  1  0.204232  0.278892  0.248840  1
  Pb  Pb12  1  0.797242  0.720882  0.749362  1
  Pb  Pb13  1  0.721108  0.795768  0.248840  1
  Pb  Pb14  1  0.279118  0.202758  0.749362  1
  Pb  Pb15  1  0.828622  0.171378  0.396077  1
