# generated using pymatgen
data_Pr8NdY11Sn16
_symmetry_space_group_name_H-M   'P 1'
_cell_length_a   8.16511985
_cell_length_b   8.35092082
_cell_length_c   15.76465980
_cell_angle_alpha   89.86159889
_cell_angle_beta   90.02305381
_cell_angle_gamma   89.92649666
_symmetry_Int_Tables_number   1
_chemical_formula_structural   Pr8NdY11Sn16
_chemical_formula_sum   'Pr8 Nd1 Y11 Sn16'
_cell_volume   1074.92922999
_cell_formula_units_Z   1
loop_
 _symmetry_equiv_pos_site_id
 _symmetry_equiv_pos_as_xyz
  1  'x, y, z'
loop_
 _atom_site_type_symbol
 _atom_site_label
 _atom_site_symmetry_multiplicity
 _atom_site_fract_x
 _atom_site_fract_y
 _atom_site_fract_z
 _atom_site_occupancy
  Pr  Pr0  1  0.514062  0.321305  0.902996  1
  Pr  Pr1  1  0.013387  0.179375  0.596233  1
  Pr  Pr2  1  0.485868  0.678303  0.402769  1
  Pr  Pr3  1  0.986461  0.821958  0.097627  1
  Pr  Pr4  1  0.485963  0.678372  0.098381  1
  Pr  Pr5  1  0.986044  0.821122  0.402930  1
  Pr  Pr6  1  0.514247  0.321353  0.595592  1
  Pr  Pr7  1  0.014143  0.179577  0.903042  1
  Nd  Nd8  1  0.361683  0.834206  0.879507  1
  Y  Y9  1  0.860504  0.663756  0.621324  1
  Y  Y10  1  0.640204  0.164297  0.377080  1
  Y  Y11  1  0.139004  0.336397  0.125077  1
  Y  Y12  1  0.639459  0.163782  0.122839  1
  Y  Y13  1  0.139915  0.336175  0.377188  1
  Y  Y14  1  0.359860  0.835849  0.622365  1
  Y  Y15  1  0.859214  0.664785  0.876567  1
  Y  Y16  1  0.193558  0.501789  0.749005  1
  Y  Y17  1  0.694187  0.998301  0.749565  1
  Y  Y18  1  0.805225  0.497913  0.250065  1
  Y  Y19  1  0.305441  0.002175  0.250858  1
  Sn  Sn20  1  0.302178  0.042554  0.045303  1
  Sn  Sn21  1  0.803259  0.459645  0.457348  1
  Sn  Sn22  1  0.696010  0.959965  0.541569  1
  Sn  Sn23  1  0.191792  0.535133  0.958973  1
  Sn  Sn24  1  0.704414  0.962104  0.958694  1
  Sn  Sn25  1  0.197197  0.540202  0.541578  1
  Sn  Sn26  1  0.303676  0.040177  0.457877  1
  Sn  Sn27  1  0.803797  0.459760  0.041924  1
  Sn  Sn28  1  0.561108  0.620199  0.748490  1
  Sn  Sn29  1  0.058775  0.876808  0.747824  1
  Sn  Sn30  1  0.440500  0.376490  0.250317  1
  Sn  Sn31  1  0.939657  0.123550  0.250504  1
  Sn  Sn32  1  0.322241  0.143475  0.748613  1
  Sn  Sn33  1  0.822993  0.358303  0.749334  1
  Sn  Sn34  1  0.676872  0.858620  0.250292  1
  Sn  Sn35  1  0.177103  0.642227  0.250349  1
