# generated using pymatgen
data_Ho8Ga3Fe
_symmetry_space_group_name_H-M   'P 1'
_cell_length_a   9.94517100
_cell_length_b   9.94517012
_cell_length_c   6.91664800
_cell_angle_alpha   90.00000000
_cell_angle_beta   90.00000000
_cell_angle_gamma   119.99999961
_symmetry_Int_Tables_number   1
_chemical_formula_structural   Ho8Ga3Fe
_chemical_formula_sum   'Ho16 Ga6 Fe2'
_cell_volume   592.44873826
_cell_formula_units_Z   2
loop_
 _symmetry_equiv_pos_site_id
 _symmetry_equiv_pos_as_xyz
  1  'x, y, z'
loop_
 _atom_site_type_symbol
 _atom_site_label
 _atom_site_symmetry_multiplicity
 _atom_site_fract_x
 _atom_site_fract_y
 _atom_site_fract_z
 _atom_site_occupancy
  Ho  Ho0  1  0.173019  0.826981  0.509794  1
  Ho  Ho1  1  0.653961  0.826981  0.509794  1
  Ho  Ho2  1  0.173019  0.346039  0.509794  1
  Ho  Ho3  1  0.826981  0.173019  0.009794  1
  Ho  Ho4  1  0.346039  0.173019  0.009794  1
  Ho  Ho5  1  0.826981  0.653961  0.009794  1
  Ho  Ho6  1  0.333333  0.666667  0.830191  1
  Ho  Ho7  1  0.666667  0.333333  0.330191  1
  Ho  Ho8  1  0.463547  0.536453  0.207075  1
  Ho  Ho9  1  0.072905  0.536453  0.207075  1
  Ho  Ho10  1  0.463547  0.927095  0.207075  1
  Ho  Ho11  1  0.536453  0.463547  0.707075  1
  Ho  Ho12  1  0.927095  0.463547  0.707075  1
  Ho  Ho13  1  0.536453  0.072905  0.707075  1
  Ho  Ho14  1  0.000000  0.000000  0.229879  1
  Ho  Ho15  1  0.000000  0.000000  0.729879  1
  Ga  Ga16  1  0.163596  0.836404  0.960357  1
  Ga  Ga17  1  0.672807  0.836404  0.960357  1
  Ga  Ga18  1  0.163596  0.327193  0.960357  1
  Ga  Ga19  1  0.836404  0.163596  0.460357  1
  Ga  Ga20  1  0.327193  0.163596  0.460357  1
  Ga  Ga21  1  0.836404  0.672807  0.460357  1
  Fe  Fe22  1  0.333333  0.666667  0.445270  1
  Fe  Fe23  1  0.666667  0.333333  0.945270  1
