# generated using pymatgen
data_HoTm7Cr2(OsC4)2
_symmetry_space_group_name_H-M   'P 1'
_cell_length_a   4.99900100
_cell_length_b   6.43059372
_cell_length_c   9.67126804
_cell_angle_alpha   90.19123728
_cell_angle_beta   90.00000000
_cell_angle_gamma   90.00000000
_symmetry_Int_Tables_number   1
_chemical_formula_structural   HoTm7Cr2(OsC4)2
_chemical_formula_sum   'Ho1 Tm7 Cr2 Os2 C8'
_cell_volume   310.89611604
_cell_formula_units_Z   1
loop_
 _symmetry_equiv_pos_site_id
 _symmetry_equiv_pos_as_xyz
  1  'x, y, z'
loop_
 _atom_site_type_symbol
 _atom_site_label
 _atom_site_symmetry_multiplicity
 _atom_site_fract_x
 _atom_site_fract_y
 _atom_site_fract_z
 _atom_site_occupancy
  Ho  Ho0  1  0.250000  0.027782  0.283851  1
  Tm  Tm1  1  0.250000  0.681026  0.559045  1
  Tm  Tm2  1  0.750000  0.319313  0.441384  1
  Tm  Tm3  1  0.750000  0.823303  0.054751  1
  Tm  Tm4  1  0.250000  0.176543  0.944880  1
  Tm  Tm5  1  0.250000  0.532176  0.216339  1
  Tm  Tm6  1  0.750000  0.467584  0.783360  1
  Tm  Tm7  1  0.750000  0.972082  0.716584  1
  Cr  Cr8  1  0.250000  0.723717  0.863204  1
  Cr  Cr9  1  0.750000  0.276236  0.136500  1
  Os  Os10  1  0.750000  0.776565  0.363948  1
  Os  Os11  1  0.250000  0.223118  0.636218  1
  C  C12  1  0.250000  0.461954  0.764531  1
  C  C13  1  0.750000  0.537846  0.235559  1
  C  C14  1  0.750000  0.048113  0.255905  1
  C  C15  1  0.250000  0.951734  0.743793  1
  C  C16  1  0.250000  0.814910  0.042273  1
  C  C17  1  0.750000  0.184457  0.957153  1
  C  C18  1  0.750000  0.676352  0.551372  1
  C  C19  1  0.250000  0.325191  0.449351  1
