# generated using pymatgen
data_Ho3In3NiIrRh
_symmetry_space_group_name_H-M   'P 1'
_cell_length_a   7.59712600
_cell_length_b   7.59712454
_cell_length_c   3.73584600
_cell_angle_alpha   90.00000000
_cell_angle_beta   90.00000000
_cell_angle_gamma   119.99999766
_symmetry_Int_Tables_number   1
_chemical_formula_structural   Ho3In3NiIrRh
_chemical_formula_sum   'Ho3 In3 Ni1 Ir1 Rh1'
_cell_volume   186.73175644
_cell_formula_units_Z   1
loop_
 _symmetry_equiv_pos_site_id
 _symmetry_equiv_pos_as_xyz
  1  'x, y, z'
loop_
 _atom_site_type_symbol
 _atom_site_label
 _atom_site_symmetry_multiplicity
 _atom_site_fract_x
 _atom_site_fract_y
 _atom_site_fract_z
 _atom_site_occupancy
  Ho  Ho0  1  0.997065  0.588797  0.500000  1
  Ho  Ho1  1  0.411203  0.408267  0.500000  1
  Ho  Ho2  1  0.591733  0.002935  0.500000  1
  In  In3  1  0.251621  0.999229  0.000000  1
  In  In4  1  0.747608  0.748379  0.000000  1
  In  In5  1  0.000771  0.252392  0.000000  1
  Ni  Ni6  1  0.000000  0.000000  0.500000  1
  Ir  Ir7  1  0.666667  0.333333  0.000000  1
  Rh  Rh8  1  0.333333  0.666667  0.000000  1
