# generated using pymatgen
data_NaYb11(CuSi)12
_symmetry_space_group_name_H-M   'P 1'
_cell_length_a   4.26057600
_cell_length_b   7.23771650
_cell_length_c   20.90985855
_cell_angle_alpha   90.03449127
_cell_angle_beta   90.00000000
_cell_angle_gamma   90.00000000
_symmetry_Int_Tables_number   1
_chemical_formula_structural   NaYb11(CuSi)12
_chemical_formula_sum   'Na1 Yb11 Cu12 Si12'
_cell_volume   644.79387123
_cell_formula_units_Z   1
loop_
 _symmetry_equiv_pos_site_id
 _symmetry_equiv_pos_as_xyz
  1  'x, y, z'
loop_
 _atom_site_type_symbol
 _atom_site_label
 _atom_site_symmetry_multiplicity
 _atom_site_fract_x
 _atom_site_fract_y
 _atom_site_fract_z
 _atom_site_occupancy
  Na  Na0  1  0.250000  0.802077  0.833672  1
  Yb  Yb1  1  0.250000  0.706521  0.001711  1
  Yb  Yb2  1  0.750000  0.292648  0.997300  1
  Yb  Yb3  1  0.750000  0.209103  0.497422  1
  Yb  Yb4  1  0.250000  0.789785  0.502542  1
  Yb  Yb5  1  0.250000  0.797365  0.166657  1
  Yb  Yb6  1  0.750000  0.194000  0.833423  1
  Yb  Yb7  1  0.750000  0.298796  0.333410  1
  Yb  Yb8  1  0.250000  0.700707  0.667137  1
  Yb  Yb9  1  0.250000  0.702338  0.333012  1
  Yb  Yb10  1  0.750000  0.299937  0.667373  1
  Yb  Yb11  1  0.750000  0.202792  0.167325  1
  Cu  Cu12  1  0.250000  0.413159  0.095994  1
  Cu  Cu13  1  0.750000  0.585733  0.904547  1
  Cu  Cu14  1  0.750000  0.913635  0.403603  1
  Cu  Cu15  1  0.250000  0.086047  0.596406  1
  Cu  Cu16  1  0.250000  0.412872  0.235994  1
  Cu  Cu17  1  0.750000  0.588555  0.763274  1
  Cu  Cu18  1  0.750000  0.912428  0.263978  1
  Cu  Cu19  1  0.250000  0.088232  0.734757  1
  Cu  Cu20  1  0.250000  0.417251  0.437378  1
  Cu  Cu21  1  0.750000  0.582037  0.562477  1
  Cu  Cu22  1  0.750000  0.916400  0.063124  1
  Cu  Cu23  1  0.250000  0.082161  0.938290  1
  Si  Si24  1  0.250000  0.087943  0.065956  1
  Si  Si25  1  0.750000  0.911690  0.936560  1
  Si  Si26  1  0.750000  0.590496  0.432890  1
  Si  Si27  1  0.250000  0.409767  0.566371  1
  Si  Si28  1  0.250000  0.081105  0.273291  1
  Si  Si29  1  0.750000  0.920649  0.724669  1
  Si  Si30  1  0.750000  0.581558  0.226771  1
  Si  Si31  1  0.250000  0.420203  0.774486  1
  Si  Si32  1  0.250000  0.084414  0.394236  1
  Si  Si33  1  0.750000  0.916174  0.604789  1
  Si  Si34  1  0.750000  0.583019  0.105610  1
  Si  Si35  1  0.250000  0.418401  0.893563  1
