# generated using pymatgen
data_Ta6Be3P
_symmetry_space_group_name_H-M   'P 1'
_cell_length_a   6.51492735
_cell_length_b   6.51492735
_cell_length_c   3.38016200
_cell_angle_alpha   90.00000000
_cell_angle_beta   90.00000000
_cell_angle_gamma   89.88375377
_symmetry_Int_Tables_number   1
_chemical_formula_structural   Ta6Be3P
_chemical_formula_sum   'Ta6 Be3 P1'
_cell_volume   143.46824170
_cell_formula_units_Z   1
loop_
 _symmetry_equiv_pos_site_id
 _symmetry_equiv_pos_as_xyz
  1  'x, y, z'
loop_
 _atom_site_type_symbol
 _atom_site_label
 _atom_site_symmetry_multiplicity
 _atom_site_fract_x
 _atom_site_fract_y
 _atom_site_fract_z
 _atom_site_occupancy
  Ta  Ta0  1  0.502796  0.498864  0.000000  1
  Ta  Ta1  1  0.998864  0.002796  0.000000  1
  Ta  Ta2  1  0.678390  0.178390  0.500000  1
  Ta  Ta3  1  0.325717  0.825717  0.500000  1
  Ta  Ta4  1  0.177753  0.319352  0.500000  1
  Ta  Ta5  1  0.819352  0.677753  0.500000  1
  Be  Be6  1  0.880368  0.380368  0.000000  1
  Be  Be7  1  0.615002  0.885592  0.000000  1
  Be  Be8  1  0.385592  0.115002  0.000000  1
  P  P9  1  0.116167  0.616167  0.000000  1
