# generated using pymatgen
data_Dy3TlIn2Ag2Ir
_symmetry_space_group_name_H-M   'P 1'
_cell_length_a   8.01585541
_cell_length_b   8.03244446
_cell_length_c   3.76367400
_cell_angle_alpha   90.00000000
_cell_angle_beta   90.00000000
_cell_angle_gamma   120.37603582
_symmetry_Int_Tables_number   1
_chemical_formula_structural   Dy3TlIn2Ag2Ir
_chemical_formula_sum   'Dy3 Tl1 In2 Ag2 Ir1'
_cell_volume   209.06537483
_cell_formula_units_Z   1
loop_
 _symmetry_equiv_pos_site_id
 _symmetry_equiv_pos_as_xyz
  1  'x, y, z'
loop_
 _atom_site_type_symbol
 _atom_site_label
 _atom_site_symmetry_multiplicity
 _atom_site_fract_x
 _atom_site_fract_y
 _atom_site_fract_z
 _atom_site_occupancy
  Dy  Dy0  1  0.580247  0.611565  0.000000  1
  Dy  Dy1  1  0.388995  0.965704  0.000000  1
  Dy  Dy2  1  0.033870  0.423388  0.000000  1
  Tl  Tl3  1  0.989602  0.722854  0.500000  1
  In  In4  1  0.274583  0.268160  0.500000  1
  In  In5  1  0.733316  0.010005  0.500000  1
  Ag  Ag6  1  0.999980  0.007693  0.000000  1
  Ag  Ag7  1  0.660142  0.325546  0.500000  1
  Ir  Ir8  1  0.339263  0.665084  0.500000  1
