# generated using pymatgen
data_Ta2FeF12
_symmetry_space_group_name_H-M   'P 1'
_cell_length_a   5.31060271
_cell_length_b   5.70517628
_cell_length_c   9.34047116
_cell_angle_alpha   105.33137689
_cell_angle_beta   90.03264398
_cell_angle_gamma   118.78959191
_symmetry_Int_Tables_number   1
_chemical_formula_structural   Ta2FeF12
_chemical_formula_sum   'Ta2 Fe1 F12'
_cell_volume   236.43595494
_cell_formula_units_Z   1
loop_
 _symmetry_equiv_pos_site_id
 _symmetry_equiv_pos_as_xyz
  1  'x, y, z'
loop_
 _atom_site_type_symbol
 _atom_site_label
 _atom_site_symmetry_multiplicity
 _atom_site_fract_x
 _atom_site_fract_y
 _atom_site_fract_z
 _atom_site_occupancy
  Ta  Ta0  1  0.776874  0.505802  0.261262  1
  Ta  Ta1  1  0.223126  0.494198  0.738738  1
  Fe  Fe2  1  0.000000  0.000000  0.000000  1
  F  F3  1  0.817778  0.265629  0.706226  1
  F  F4  1  0.182222  0.734371  0.293774  1
  F  F5  1  0.176655  0.747829  0.922406  1
  F  F6  1  0.703068  0.721650  0.424857  1
  F  F7  1  0.296932  0.278350  0.575143  1
  F  F8  1  0.779479  0.264974  0.363368  1
  F  F9  1  0.220521  0.735026  0.636632  1
  F  F10  1  0.358076  0.259757  0.179829  1
  F  F11  1  0.641924  0.740243  0.820171  1
  F  F12  1  0.771396  0.722197  0.126535  1
  F  F13  1  0.228604  0.277803  0.873465  1
  F  F14  1  0.823345  0.252171  0.077594  1
