# generated using pymatgen
data_Ba3HoLu3O9
_symmetry_space_group_name_H-M   'P 1'
_cell_length_a   9.07405061
_cell_length_b   9.07405053
_cell_length_c   9.07405197
_cell_angle_alpha   38.98019529
_cell_angle_beta   38.98018576
_cell_angle_gamma   38.98019592
_symmetry_Int_Tables_number   1
_chemical_formula_structural   Ba3HoLu3O9
_chemical_formula_sum   'Ba3 Ho1 Lu3 O9'
_cell_volume   265.87182015
_cell_formula_units_Z   1
loop_
 _symmetry_equiv_pos_site_id
 _symmetry_equiv_pos_as_xyz
  1  'x, y, z'
loop_
 _atom_site_type_symbol
 _atom_site_label
 _atom_site_symmetry_multiplicity
 _atom_site_fract_x
 _atom_site_fract_y
 _atom_site_fract_z
 _atom_site_occupancy
  Ba  Ba0  1  0.997773  0.997773  0.997773  1
  Ba  Ba1  1  0.162300  0.162300  0.162300  1
  Ba  Ba2  1  0.590509  0.590509  0.590509  1
  Ho  Ho3  1  0.422525  0.422525  0.422525  1
  Lu  Lu4  1  0.861141  0.861141  0.861141  1
  Lu  Lu5  1  0.736583  0.736583  0.736583  1
  Lu  Lu6  1  0.296824  0.296824  0.296824  1
  O  O7  1  0.035981  0.119977  0.582853  1
  O  O8  1  0.119977  0.582853  0.035981  1
  O  O9  1  0.582853  0.035981  0.119977  1
  O  O10  1  0.579116  0.112326  0.708832  1
  O  O11  1  0.112326  0.708832  0.579116  1
  O  O12  1  0.708832  0.579116  0.112326  1
  O  O13  1  0.496065  0.028382  0.537515  1
  O  O14  1  0.028382  0.537515  0.496065  1
  O  O15  1  0.537515  0.496065  0.028382  1
