# generated using pymatgen
data_LiDy8InPt2
_symmetry_space_group_name_H-M   'P 1'
_cell_length_a   9.69960909
_cell_length_b   9.74644292
_cell_length_c   9.69960790
_cell_angle_alpha   59.84014549
_cell_angle_beta   60.13660287
_cell_angle_gamma   59.84015163
_symmetry_Int_Tables_number   1
_chemical_formula_structural   LiDy8InPt2
_chemical_formula_sum   'Li2 Dy16 In2 Pt4'
_cell_volume   647.48567017
_cell_formula_units_Z   2
loop_
 _symmetry_equiv_pos_site_id
 _symmetry_equiv_pos_as_xyz
  1  'x, y, z'
loop_
 _atom_site_type_symbol
 _atom_site_label
 _atom_site_symmetry_multiplicity
 _atom_site_fract_x
 _atom_site_fract_y
 _atom_site_fract_z
 _atom_site_occupancy
  Li  Li0  1  0.924706  0.927050  0.221194  1
  Li  Li1  1  0.221194  0.927050  0.924706  1
  Dy  Dy2  1  0.690676  0.310174  0.309881  1
  Dy  Dy3  1  0.690676  0.689268  0.309881  1
  Dy  Dy4  1  0.314785  0.685215  0.314785  1
  Dy  Dy5  1  0.935407  0.934140  0.565066  1
  Dy  Dy6  1  0.144532  0.149203  0.557061  1
  Dy  Dy7  1  0.563281  0.936719  0.563281  1
  Dy  Dy8  1  0.150131  0.152341  0.150131  1
  Dy  Dy9  1  0.309881  0.310174  0.690676  1
  Dy  Dy10  1  0.935407  0.565387  0.565066  1
  Dy  Dy11  1  0.565066  0.565387  0.935407  1
  Dy  Dy12  1  0.565066  0.934140  0.935407  1
  Dy  Dy13  1  0.935048  0.564952  0.935048  1
  Dy  Dy14  1  0.150131  0.547395  0.150131  1
  Dy  Dy15  1  0.309881  0.689268  0.690676  1
  Dy  Dy16  1  0.693551  0.306449  0.693551  1
  Dy  Dy17  1  0.557061  0.149203  0.144532  1
  In  In18  1  0.919387  0.247244  0.919387  1
  In  In19  1  0.919387  0.913983  0.919387  1
  Pt  Pt20  1  0.358529  0.353163  0.358529  1
  Pt  Pt21  1  0.928362  0.356157  0.359326  1
  Pt  Pt22  1  0.359326  0.356157  0.928362  1
  Pt  Pt23  1  0.358529  0.929780  0.358529  1
