# generated using pymatgen
data_Ta6AlGa3(IrC)2
_symmetry_space_group_name_H-M   'P 1'
_cell_length_a   8.31525692
_cell_length_b   8.31702702
_cell_length_c   8.31702611
_cell_angle_alpha   60.01558070
_cell_angle_beta   60.00704437
_cell_angle_gamma   60.00703746
_symmetry_Int_Tables_number   1
_chemical_formula_structural   Ta6AlGa3(IrC)2
_chemical_formula_sum   'Ta12 Al2 Ga6 Ir4 C4'
_cell_volume   406.81240342
_cell_formula_units_Z   2
loop_
 _symmetry_equiv_pos_site_id
 _symmetry_equiv_pos_as_xyz
  1  'x, y, z'
loop_
 _atom_site_type_symbol
 _atom_site_label
 _atom_site_symmetry_multiplicity
 _atom_site_fract_x
 _atom_site_fract_y
 _atom_site_fract_z
 _atom_site_occupancy
  Ta  Ta0  1  0.563637  0.935983  0.565079  1
  Ta  Ta1  1  0.313982  0.686514  0.686514  1
  Ta  Ta2  1  0.684849  0.313897  0.313897  1
  Ta  Ta3  1  0.314699  0.684921  0.314017  1
  Ta  Ta4  1  0.686365  0.687408  0.313261  1
  Ta  Ta5  1  0.314699  0.314017  0.684921  1
  Ta  Ta6  1  0.563637  0.565079  0.935983  1
  Ta  Ta7  1  0.937010  0.563486  0.563486  1
  Ta  Ta8  1  0.562643  0.936103  0.936103  1
  Ta  Ta9  1  0.937034  0.936739  0.562592  1
  Ta  Ta10  1  0.686365  0.313261  0.687408  1
  Ta  Ta11  1  0.937034  0.562592  0.936739  1
  Al  Al12  1  0.248377  0.917351  0.917351  1
  Al  Al13  1  0.333077  0.332649  0.332649  1
  Ga  Ga14  1  0.914103  0.913891  0.913891  1
  Ga  Ga15  1  0.991883  0.336109  0.336109  1
  Ga  Ga16  1  0.335903  0.992589  0.335862  1
  Ga  Ga17  1  0.335903  0.335862  0.992589  1
  Ga  Ga18  1  0.914356  0.257411  0.914138  1
  Ga  Ga19  1  0.914356  0.914138  0.257411  1
  Ir  Ir20  1  0.127172  0.123484  0.123484  1
  Ir  Ir21  1  0.624141  0.126516  0.126516  1
  Ir  Ir22  1  0.128351  0.625000  0.125000  1
  Ir  Ir23  1  0.128351  0.125000  0.625000  1
  C  C24  1  0.625536  0.624707  0.624707  1
  C  C25  1  0.124951  0.625293  0.625293  1
  C  C26  1  0.625793  0.125000  0.625000  1
  C  C27  1  0.625793  0.625000  0.125000  1
