# generated using pymatgen
data_La10Nd6CdHg3Ir4
_symmetry_space_group_name_H-M   'P 1'
_cell_length_a   10.05765679
_cell_length_b   10.07222345
_cell_length_c   10.07222400
_cell_angle_alpha   59.99999818
_cell_angle_beta   59.95207673
_cell_angle_gamma   59.95207947
_symmetry_Int_Tables_number   1
_chemical_formula_structural   La10Nd6CdHg3Ir4
_chemical_formula_sum   'La10 Nd6 Cd1 Hg3 Ir4'
_cell_volume   720.97063903
_cell_formula_units_Z   1
loop_
 _symmetry_equiv_pos_site_id
 _symmetry_equiv_pos_as_xyz
  1  'x, y, z'
loop_
 _atom_site_type_symbol
 _atom_site_label
 _atom_site_symmetry_multiplicity
 _atom_site_fract_x
 _atom_site_fract_y
 _atom_site_fract_z
 _atom_site_occupancy
  La  La0  1  0.347975  0.347471  0.347471  1
  La  La1  1  0.347975  0.347471  0.957084  1
  La  La2  1  0.347975  0.957084  0.347471  1
  La  La3  1  0.955584  0.348139  0.348139  1
  La  La4  1  0.808359  0.191522  0.191522  1
  La  La5  1  0.190257  0.809413  0.809413  1
  La  La6  1  0.190257  0.809413  0.190918  1
  La  La7  1  0.808359  0.191522  0.808597  1
  La  La8  1  0.190257  0.190918  0.809413  1
  La  La9  1  0.808359  0.808597  0.191522  1
  Nd  Nd10  1  0.935445  0.563984  0.563984  1
  Nd  Nd11  1  0.563429  0.936360  0.936360  1
  Nd  Nd12  1  0.563429  0.936360  0.563851  1
  Nd  Nd13  1  0.935445  0.563984  0.936587  1
  Nd  Nd14  1  0.563429  0.563851  0.936360  1
  Nd  Nd15  1  0.935445  0.936587  0.563984  1
  Cd  Cd16  1  0.260754  0.579748  0.579748  1
  Hg  Hg17  1  0.582186  0.584327  0.584327  1
  Hg  Hg18  1  0.582186  0.584327  0.249159  1
  Hg  Hg19  1  0.582186  0.249159  0.584327  1
  Ir  Ir20  1  0.141204  0.140860  0.140860  1
  Ir  Ir21  1  0.141204  0.140860  0.577075  1
  Ir  Ir22  1  0.141204  0.577075  0.140860  1
  Ir  Ir23  1  0.577101  0.140966  0.140966  1
