# generated using pymatgen
data_Au4Br5F3
_symmetry_space_group_name_H-M   'P 1'
_cell_length_a   7.25509098
_cell_length_b   7.33684364
_cell_length_c   7.35713449
_cell_angle_alpha   85.41724601
_cell_angle_beta   63.64086201
_cell_angle_gamma   86.10195616
_symmetry_Int_Tables_number   1
_chemical_formula_structural   Au4Br5F3
_chemical_formula_sum   'Au4 Br5 F3'
_cell_volume   349.54590418
_cell_formula_units_Z   1
loop_
 _symmetry_equiv_pos_site_id
 _symmetry_equiv_pos_as_xyz
  1  'x, y, z'
loop_
 _atom_site_type_symbol
 _atom_site_label
 _atom_site_symmetry_multiplicity
 _atom_site_fract_x
 _atom_site_fract_y
 _atom_site_fract_z
 _atom_site_occupancy
  Au  Au0  1  0.730615  0.519696  0.444391  1
  Au  Au1  1  0.281509  0.475439  0.561050  1
  Au  Au2  1  0.638760  0.246364  0.066096  1
  Au  Au3  1  0.364703  0.752266  0.938768  1
  Br  Br4  1  0.861453  0.248139  0.246619  1
  Br  Br5  1  0.147733  0.746384  0.761622  1
  Br  Br6  1  0.325759  0.195258  0.384240  1
  Br  Br7  1  0.679799  0.800170  0.621493  1
  Br  Br8  1  0.434202  0.256494  0.873998  1
  F  F9  1  0.528621  0.758198  0.094851  1
  F  F10  1  0.894188  0.280243  0.804377  1
  F  F11  1  0.112658  0.721351  0.202495  1
