# generated using pymatgen
data_Ho6Zn4Ni13
_symmetry_space_group_name_H-M   'P 1'
_cell_length_a   7.74105134
_cell_length_b   7.74105175
_cell_length_c   7.74105200
_cell_angle_alpha   109.47122390
_cell_angle_beta   109.47122498
_cell_angle_gamma   109.47121891
_symmetry_Int_Tables_number   1
_chemical_formula_structural   Ho6Zn4Ni13
_chemical_formula_sum   'Ho6 Zn4 Ni13'
_cell_volume   357.09024094
_cell_formula_units_Z   1
loop_
 _symmetry_equiv_pos_site_id
 _symmetry_equiv_pos_as_xyz
  1  'x, y, z'
loop_
 _atom_site_type_symbol
 _atom_site_label
 _atom_site_symmetry_multiplicity
 _atom_site_fract_x
 _atom_site_fract_y
 _atom_site_fract_z
 _atom_site_occupancy
  Ho  Ho0  1  0.701442  0.701442  0.000000  1
  Ho  Ho1  1  0.298558  0.000000  0.298558  1
  Ho  Ho2  1  0.000000  0.298558  0.298558  1
  Ho  Ho3  1  0.298558  0.298558  0.000000  1
  Ho  Ho4  1  0.701442  0.000000  0.701442  1
  Ho  Ho5  1  0.000000  0.701442  0.701442  1
  Zn  Zn6  1  0.000000  0.000000  0.500000  1
  Zn  Zn7  1  0.000000  0.500000  0.000000  1
  Zn  Zn8  1  0.500000  0.000000  0.000000  1
  Zn  Zn9  1  0.500000  0.500000  0.500000  1
  Ni  Ni10  1  0.338324  0.338324  0.676650  1
  Ni  Ni11  1  0.661676  0.000000  0.338324  1
  Ni  Ni12  1  0.000000  0.661676  0.338324  1
  Ni  Ni13  1  0.661676  0.338324  0.000000  1
  Ni  Ni14  1  0.338324  0.676650  0.338324  1
  Ni  Ni15  1  0.000000  0.338324  0.661676  1
  Ni  Ni16  1  0.338324  0.661676  0.000000  1
  Ni  Ni17  1  0.338324  0.000000  0.661676  1
  Ni  Ni18  1  0.676650  0.338324  0.338324  1
  Ni  Ni19  1  0.661676  0.661676  0.323350  1
  Ni  Ni20  1  0.661676  0.323350  0.661676  1
  Ni  Ni21  1  0.323350  0.661676  0.661676  1
  Ni  Ni22  1  0.000000  0.000000  0.000000  1
