# generated using pymatgen
data_Ho3TmAl24IrPt8
_symmetry_space_group_name_H-M   'P 1'
_cell_length_a   7.50885023
_cell_length_b   7.53313606
_cell_length_c   13.13882663
_cell_angle_alpha   84.62298141
_cell_angle_beta   79.10223983
_cell_angle_gamma   59.90893080
_symmetry_Int_Tables_number   1
_chemical_formula_structural   Ho3TmAl24IrPt8
_chemical_formula_sum   'Ho3 Tm1 Al24 Ir1 Pt8'
_cell_volume   631.44181959
_cell_formula_units_Z   1
loop_
 _symmetry_equiv_pos_site_id
 _symmetry_equiv_pos_as_xyz
  1  'x, y, z'
loop_
 _atom_site_type_symbol
 _atom_site_label
 _atom_site_symmetry_multiplicity
 _atom_site_fract_x
 _atom_site_fract_y
 _atom_site_fract_z
 _atom_site_occupancy
  Ho  Ho0  1  0.393676  0.168537  0.808887  1
  Ho  Ho1  1  0.606395  0.831454  0.191095  1
  Ho  Ho2  1  0.733701  0.498512  0.808902  1
  Tm  Tm3  1  0.265940  0.501431  0.191514  1
  Al  Al4  1  0.686732  0.830897  0.945246  1
  Al  Al5  1  0.313239  0.169513  0.054942  1
  Al  Al6  1  0.146576  0.832050  0.561823  1
  Al  Al7  1  0.853430  0.167951  0.438185  1
  Al  Al8  1  0.480058  0.166693  0.559005  1
  Al  Al9  1  0.519928  0.833312  0.441003  1
  Al  Al10  1  0.217392  0.165446  0.327492  1
  Al  Al11  1  0.782701  0.834876  0.672297  1
  Al  Al12  1  0.436173  0.507300  0.672219  1
  Al  Al13  1  0.563537  0.492687  0.327573  1
  Al  Al14  1  0.109329  0.159882  0.670165  1
  Al  Al15  1  0.891100  0.839763  0.329620  1
  Al  Al16  1  0.349856  0.499154  0.945552  1
  Al  Al17  1  0.649653  0.500822  0.054844  1
  Al  Al18  1  0.015322  0.171289  0.954108  1
  Al  Al19  1  0.984992  0.828398  0.046077  1
  Al  Al20  1  0.186513  0.499372  0.441117  1
  Al  Al21  1  0.813535  0.500617  0.558775  1
  Al  Al22  1  0.734121  0.164012  0.182935  1
  Al  Al23  1  0.265435  0.836365  0.817029  1
  Al  Al24  1  0.061012  0.629775  0.817590  1
  Al  Al25  1  0.939379  0.370308  0.182395  1
  Al  Al26  1  0.855687  0.041686  0.816634  1
  Al  Al27  1  0.144407  0.957808  0.183335  1
  Ir  Ir28  1  0.000084  0.500062  0.000136  1
  Pt  Pt29  1  0.119956  0.491920  0.638944  1
  Pt  Pt30  1  0.880420  0.508106  0.360845  1
  Pt  Pt31  1  0.657015  0.171543  0.999942  1
  Pt  Pt32  1  0.342834  0.828485  0.000195  1
  Pt  Pt33  1  0.537059  0.167133  0.361302  1
  Pt  Pt34  1  0.462701  0.833172  0.638497  1
  Pt  Pt35  1  0.778603  0.175256  0.637196  1
  Pt  Pt36  1  0.221510  0.824413  0.362582  1
