# generated using pymatgen
data_Tm5P12Ru19
_symmetry_space_group_name_H-M   'P 1'
_cell_length_a   12.51000300
_cell_length_b   12.51000377
_cell_length_c   3.96765800
_cell_angle_alpha   90.00000000
_cell_angle_beta   90.00000000
_cell_angle_gamma   120.00000061
_symmetry_Int_Tables_number   1
_chemical_formula_structural   Tm5P12Ru19
_chemical_formula_sum   'Tm5 P12 Ru19'
_cell_volume   537.74912660
_cell_formula_units_Z   1
loop_
 _symmetry_equiv_pos_site_id
 _symmetry_equiv_pos_as_xyz
  1  'x, y, z'
loop_
 _atom_site_type_symbol
 _atom_site_label
 _atom_site_symmetry_multiplicity
 _atom_site_fract_x
 _atom_site_fract_y
 _atom_site_fract_z
 _atom_site_occupancy
  Tm  Tm0  1  0.816798  0.000000  0.500000  1
  Tm  Tm1  1  0.000000  0.816798  0.500000  1
  Tm  Tm2  1  0.183202  0.183202  0.500000  1
  Tm  Tm3  1  0.333333  0.666667  0.000000  1
  Tm  Tm4  1  0.666667  0.333333  0.000000  1
  P  P5  1  0.183843  0.000000  0.000000  1
  P  P6  1  0.000000  0.183843  0.000000  1
  P  P7  1  0.816157  0.816157  0.000000  1
  P  P8  1  0.521627  0.693463  0.500000  1
  P  P9  1  0.306537  0.828164  0.500000  1
  P  P10  1  0.171836  0.478373  0.500000  1
  P  P11  1  0.478373  0.171836  0.500000  1
  P  P12  1  0.693463  0.521627  0.500000  1
  P  P13  1  0.828164  0.306537  0.500000  1
  P  P14  1  0.627762  0.000000  0.000000  1
  P  P15  1  0.000000  0.627762  0.000000  1
  P  P16  1  0.372238  0.372238  0.000000  1
  Ru  Ru17  1  0.445360  0.000000  0.000000  1
  Ru  Ru18  1  0.000000  0.445360  0.000000  1
  Ru  Ru19  1  0.554640  0.554640  0.000000  1
  Ru  Ru20  1  0.282580  0.000000  0.500000  1
  Ru  Ru21  1  0.000000  0.282580  0.500000  1
  Ru  Ru22  1  0.717420  0.717420  0.500000  1
  Ru  Ru23  1  0.623130  0.808220  0.000000  1
  Ru  Ru24  1  0.191780  0.814910  0.000000  1
  Ru  Ru25  1  0.185090  0.376870  0.000000  1
  Ru  Ru26  1  0.376870  0.185090  0.000000  1
  Ru  Ru27  1  0.808220  0.623130  0.000000  1
  Ru  Ru28  1  0.814910  0.191780  0.000000  1
  Ru  Ru29  1  0.507668  0.873586  0.500000  1
  Ru  Ru30  1  0.126414  0.634082  0.500000  1
  Ru  Ru31  1  0.365918  0.492332  0.500000  1
  Ru  Ru32  1  0.492332  0.365918  0.500000  1
  Ru  Ru33  1  0.873586  0.507668  0.500000  1
  Ru  Ru34  1  0.634082  0.126414  0.500000  1
  Ru  Ru35  1  0.000000  0.000000  0.000000  1
