# generated using pymatgen
data_La2PrNd13(CdPd)4
_symmetry_space_group_name_H-M   'P 1'
_cell_length_a   10.05056360
_cell_length_b   10.05056381
_cell_length_c   10.05540400
_cell_angle_alpha   59.98406146
_cell_angle_beta   59.98406078
_cell_angle_gamma   59.94335811
_symmetry_Int_Tables_number   1
_chemical_formula_structural   La2PrNd13(CdPd)4
_chemical_formula_sum   'La2 Pr1 Nd13 Cd4 Pd4'
_cell_volume   717.75220079
_cell_formula_units_Z   1
loop_
 _symmetry_equiv_pos_site_id
 _symmetry_equiv_pos_as_xyz
  1  'x, y, z'
loop_
 _atom_site_type_symbol
 _atom_site_label
 _atom_site_symmetry_multiplicity
 _atom_site_fract_x
 _atom_site_fract_y
 _atom_site_fract_z
 _atom_site_occupancy
  La  La0  1  0.350169  0.350169  0.351639  1
  La  La1  1  0.350169  0.350169  0.948025  1
  Pr  Pr2  1  0.934785  0.934785  0.565215  1
  Nd  Nd3  1  0.351979  0.942299  0.352861  1
  Nd  Nd4  1  0.942299  0.351979  0.352861  1
  Nd  Nd5  1  0.809152  0.192066  0.191648  1
  Nd  Nd6  1  0.192066  0.809152  0.807134  1
  Nd  Nd7  1  0.192066  0.809152  0.191648  1
  Nd  Nd8  1  0.809152  0.192066  0.807134  1
  Nd  Nd9  1  0.191856  0.191856  0.808144  1
  Nd  Nd10  1  0.807563  0.807563  0.192437  1
  Nd  Nd11  1  0.936171  0.564186  0.566043  1
  Nd  Nd12  1  0.564186  0.936171  0.933599  1
  Nd  Nd13  1  0.564186  0.936171  0.566043  1
  Nd  Nd14  1  0.936171  0.564186  0.933599  1
  Nd  Nd15  1  0.565253  0.565253  0.934747  1
  Cd  Cd16  1  0.580735  0.580735  0.579363  1
  Cd  Cd17  1  0.580735  0.580735  0.259165  1
  Cd  Cd18  1  0.581004  0.259224  0.579885  1
  Cd  Cd19  1  0.259224  0.581004  0.579885  1
  Pd  Pd20  1  0.143767  0.143767  0.143608  1
  Pd  Pd21  1  0.143767  0.143767  0.568857  1
  Pd  Pd22  1  0.143398  0.570145  0.143228  1
  Pd  Pd23  1  0.570145  0.143398  0.143228  1
