# generated using pymatgen
data_LiSm4ZnSi6
_symmetry_space_group_name_H-M   'P 1'
_cell_length_a   8.21141428
_cell_length_b   8.19374250
_cell_length_c   5.80933217
_cell_angle_alpha   69.42379146
_cell_angle_beta   69.09779231
_cell_angle_gamma   41.47840700
_symmetry_Int_Tables_number   1
_chemical_formula_structural   LiSm4ZnSi6
_chemical_formula_sum   'Li1 Sm4 Zn1 Si6'
_cell_volume   239.60010181
_cell_formula_units_Z   1
loop_
 _symmetry_equiv_pos_site_id
 _symmetry_equiv_pos_as_xyz
  1  'x, y, z'
loop_
 _atom_site_type_symbol
 _atom_site_label
 _atom_site_symmetry_multiplicity
 _atom_site_fract_x
 _atom_site_fract_y
 _atom_site_fract_z
 _atom_site_occupancy
  Li  Li0  1  0.334027  0.334027  0.665973  1
  Sm  Sm1  1  0.243543  0.756837  0.243163  1
  Sm  Sm2  1  0.756837  0.243543  0.756457  1
  Sm  Sm3  1  0.250113  0.250113  0.249887  1
  Sm  Sm4  1  0.750113  0.750113  0.749887  1
  Zn  Zn5  1  0.666064  0.666064  0.333936  1
  Si  Si6  1  0.167858  0.167858  0.832142  1
  Si  Si7  1  0.834839  0.834839  0.165161  1
  Si  Si8  1  0.832353  0.331725  0.167647  1
  Si  Si9  1  0.661770  0.170757  0.338230  1
  Si  Si10  1  0.331725  0.832353  0.668275  1
  Si  Si11  1  0.170757  0.661770  0.829243  1
