# generated using pymatgen
data_Y3Ho17Zn3Cd3Ru2
_symmetry_space_group_name_H-M   'P 1'
_cell_length_a   9.51444700
_cell_length_b   9.51444742
_cell_length_c   9.67497900
_cell_angle_alpha   90.00000000
_cell_angle_beta   90.00000000
_cell_angle_gamma   120.00000202
_symmetry_Int_Tables_number   1
_chemical_formula_structural   Y3Ho17Zn3Cd3Ru2
_chemical_formula_sum   'Y3 Ho17 Zn3 Cd3 Ru2'
_cell_volume   758.48636049
_cell_formula_units_Z   1
loop_
 _symmetry_equiv_pos_site_id
 _symmetry_equiv_pos_as_xyz
  1  'x, y, z'
loop_
 _atom_site_type_symbol
 _atom_site_label
 _atom_site_symmetry_multiplicity
 _atom_site_fract_x
 _atom_site_fract_y
 _atom_site_fract_z
 _atom_site_occupancy
  Y  Y0  1  0.459112  0.540888  0.750000  1
  Y  Y1  1  0.459112  0.918225  0.750000  1
  Y  Y2  1  0.081775  0.540888  0.750000  1
  Ho  Ho3  1  0.000000  0.000000  0.474619  1
  Ho  Ho4  1  0.000000  0.000000  0.025381  1
  Ho  Ho5  1  0.208264  0.791736  0.438340  1
  Ho  Ho6  1  0.208264  0.416528  0.438340  1
  Ho  Ho7  1  0.583472  0.791736  0.438340  1
  Ho  Ho8  1  0.790723  0.209277  0.557199  1
  Ho  Ho9  1  0.790723  0.581445  0.557199  1
  Ho  Ho10  1  0.418555  0.209277  0.557199  1
  Ho  Ho11  1  0.790723  0.209277  0.942801  1
  Ho  Ho12  1  0.790723  0.581445  0.942801  1
  Ho  Ho13  1  0.418555  0.209277  0.942801  1
  Ho  Ho14  1  0.208264  0.791736  0.061660  1
  Ho  Ho15  1  0.208264  0.416528  0.061660  1
  Ho  Ho16  1  0.583472  0.791736  0.061660  1
  Ho  Ho17  1  0.541415  0.458585  0.250000  1
  Ho  Ho18  1  0.541415  0.082830  0.250000  1
  Ho  Ho19  1  0.917170  0.458585  0.250000  1
  Zn  Zn20  1  0.878426  0.121574  0.250000  1
  Zn  Zn21  1  0.878426  0.756854  0.250000  1
  Zn  Zn22  1  0.243146  0.121574  0.250000  1
  Cd  Cd23  1  0.110293  0.889707  0.750000  1
  Cd  Cd24  1  0.110293  0.220586  0.750000  1
  Cd  Cd25  1  0.779414  0.889707  0.750000  1
  Ru  Ru26  1  0.333333  0.666667  0.250000  1
  Ru  Ru27  1  0.666667  0.333333  0.750000  1
