# generated using pymatgen
data_CaRe4Hg6PbO20
_symmetry_space_group_name_H-M   'P 1'
_cell_length_a   8.94464591
_cell_length_b   9.73242156
_cell_length_c   9.64596897
_cell_angle_alpha   120.95901234
_cell_angle_beta   102.26485709
_cell_angle_gamma   84.42778543
_symmetry_Int_Tables_number   1
_chemical_formula_structural   CaRe4Hg6PbO20
_chemical_formula_sum   'Ca1 Re4 Hg6 Pb1 O20'
_cell_volume   703.57270481
_cell_formula_units_Z   1
loop_
 _symmetry_equiv_pos_site_id
 _symmetry_equiv_pos_as_xyz
  1  'x, y, z'
loop_
 _atom_site_type_symbol
 _atom_site_label
 _atom_site_symmetry_multiplicity
 _atom_site_fract_x
 _atom_site_fract_y
 _atom_site_fract_z
 _atom_site_occupancy
  Ca  Ca0  1  0.000000  0.000000  0.000000  1
  Re  Re1  1  0.894623  0.754710  0.491286  1
  Re  Re2  1  0.715308  0.323385  0.982496  1
  Re  Re3  1  0.284692  0.676615  0.017504  1
  Re  Re4  1  0.105377  0.245290  0.508714  1
  Hg  Hg5  1  0.363591  0.607125  0.426612  1
  Hg  Hg6  1  0.696327  0.683933  0.813728  1
  Hg  Hg7  1  0.636409  0.392875  0.573388  1
  Hg  Hg8  1  0.342063  0.958890  0.812375  1
  Hg  Hg9  1  0.303673  0.316067  0.186272  1
  Hg  Hg10  1  0.657937  0.041110  0.187625  1
  Pb  Pb11  1  0.500000  0.000000  0.500000  1
  O  O12  1  0.239540  0.127261  0.563761  1
  O  O13  1  0.450892  0.839395  0.618844  1
  O  O14  1  0.105188  0.757707  0.983206  1
  O  O15  1  0.239212  0.075538  0.009339  1
  O  O16  1  0.042491  0.141269  0.292547  1
  O  O17  1  0.957509  0.858731  0.707453  1
  O  O18  1  0.359639  0.770202  0.231486  1
  O  O19  1  0.760788  0.924462  0.990661  1
  O  O20  1  0.894812  0.242293  0.016794  1
  O  O21  1  0.733982  0.527817  0.060238  1
  O  O22  1  0.051925  0.716207  0.396715  1
  O  O23  1  0.266018  0.472183  0.939762  1
  O  O24  1  0.760460  0.872739  0.436239  1
  O  O25  1  0.807507  0.574922  0.431460  1
  O  O26  1  0.192493  0.425078  0.568540  1
  O  O27  1  0.640361  0.229798  0.768514  1
  O  O28  1  0.549108  0.160605  0.381156  1
  O  O29  1  0.588808  0.288809  0.077622  1
  O  O30  1  0.948075  0.283793  0.603285  1
  O  O31  1  0.411192  0.711191  0.922378  1
