# generated using pymatgen
data_Zn2In9CuIr4
_symmetry_space_group_name_H-M   'P 1'
_cell_length_a   6.87299980
_cell_length_b   6.96155706
_cell_length_c   7.32721400
_cell_angle_alpha   90.00000000
_cell_angle_beta   90.00000000
_cell_angle_gamma   90.43305871
_symmetry_Int_Tables_number   1
_chemical_formula_structural   Zn2In9CuIr4
_chemical_formula_sum   'Zn2 In9 Cu1 Ir4'
_cell_volume   350.57358427
_cell_formula_units_Z   1
loop_
 _symmetry_equiv_pos_site_id
 _symmetry_equiv_pos_as_xyz
  1  'x, y, z'
loop_
 _atom_site_type_symbol
 _atom_site_label
 _atom_site_symmetry_multiplicity
 _atom_site_fract_x
 _atom_site_fract_y
 _atom_site_fract_z
 _atom_site_occupancy
  Zn  Zn0  1  0.500000  0.000000  0.000000  1
  Zn  Zn1  1  0.000000  0.500000  0.500000  1
  In  In2  1  0.327555  0.348871  0.260957  1
  In  In3  1  0.154101  0.821049  0.776048  1
  In  In4  1  0.154101  0.821049  0.223952  1
  In  In5  1  0.845899  0.178951  0.223952  1
  In  In6  1  0.845899  0.178951  0.776048  1
  In  In7  1  0.672445  0.651129  0.260957  1
  In  In8  1  0.672445  0.651129  0.739043  1
  In  In9  1  0.327555  0.348871  0.739043  1
  In  In10  1  0.500000  0.000000  0.500000  1
  Cu  Cu11  1  0.000000  0.500000  0.000000  1
  Ir  Ir12  1  0.163257  0.146928  0.000000  1
  Ir  Ir13  1  0.658359  0.347670  0.500000  1
  Ir  Ir14  1  0.341641  0.652330  0.500000  1
  Ir  Ir15  1  0.836743  0.853072  0.000000  1
