# generated using pymatgen
data_Ce3Pu(B4W)4
_symmetry_space_group_name_H-M   'P 1'
_cell_length_a   3.68335000
_cell_length_b   6.06198645
_cell_length_c   11.71895376
_cell_angle_alpha   89.92102098
_cell_angle_beta   90.00000000
_cell_angle_gamma   90.00000000
_symmetry_Int_Tables_number   1
_chemical_formula_structural   Ce3Pu(B4W)4
_chemical_formula_sum   'Ce3 Pu1 B16 W4'
_cell_volume   261.66544711
_cell_formula_units_Z   1
loop_
 _symmetry_equiv_pos_site_id
 _symmetry_equiv_pos_as_xyz
  1  'x, y, z'
loop_
 _atom_site_type_symbol
 _atom_site_label
 _atom_site_symmetry_multiplicity
 _atom_site_fract_x
 _atom_site_fract_y
 _atom_site_fract_z
 _atom_site_occupancy
  Ce  Ce0  1  0.000000  0.624934  0.349063  1
  Ce  Ce1  1  0.000000  0.374764  0.651657  1
  Ce  Ce2  1  0.000000  0.124852  0.149922  1
  Pu  Pu3  1  0.000000  0.875738  0.849183  1
  B  B4  1  0.500000  0.786182  0.185142  1
  B  B5  1  0.500000  0.211489  0.814262  1
  B  B6  1  0.500000  0.285357  0.314064  1
  B  B7  1  0.500000  0.714524  0.687450  1
  B  B8  1  0.500000  0.865131  0.031239  1
  B  B9  1  0.500000  0.134319  0.967274  1
  B  B10  1  0.500000  0.364041  0.467933  1
  B  B11  1  0.500000  0.636284  0.532738  1
  B  B12  1  0.500000  0.886325  0.453630  1
  B  B13  1  0.500000  0.113627  0.547082  1
  B  B14  1  0.500000  0.386820  0.045631  1
  B  B15  1  0.500000  0.616045  0.952305  1
  B  B16  1  0.500000  0.974287  0.308321  1
  B  B17  1  0.500000  0.024726  0.693300  1
  B  B18  1  0.500000  0.474157  0.191181  1
  B  B19  1  0.500000  0.527188  0.808030  1
  W  W20  1  0.000000  0.631698  0.085481  1
  W  W21  1  0.000000  0.367934  0.913649  1
  W  W22  1  0.000000  0.131002  0.414510  1
  W  W23  1  0.000000  0.868576  0.586954  1
