# generated using pymatgen
data_TbEr3Ga12Fe
_symmetry_space_group_name_H-M   'P 1'
_cell_length_a   7.41138136
_cell_length_b   7.41138153
_cell_length_c   7.41138115
_cell_angle_alpha   109.54493913
_cell_angle_beta   109.54493834
_cell_angle_gamma   109.54492883
_symmetry_Int_Tables_number   1
_chemical_formula_structural   TbEr3Ga12Fe
_chemical_formula_sum   'Tb1 Er3 Ga12 Fe1'
_cell_volume   312.52489589
_cell_formula_units_Z   1
loop_
 _symmetry_equiv_pos_site_id
 _symmetry_equiv_pos_as_xyz
  1  'x, y, z'
loop_
 _atom_site_type_symbol
 _atom_site_label
 _atom_site_symmetry_multiplicity
 _atom_site_fract_x
 _atom_site_fract_y
 _atom_site_fract_z
 _atom_site_occupancy
  Tb  Tb0  1  0.500000  0.500000  0.500000  1
  Er  Er1  1  0.000000  0.000000  0.500000  1
  Er  Er2  1  0.000000  0.500000  0.000000  1
  Er  Er3  1  0.500000  0.000000  0.000000  1
  Ga  Ga4  1  0.750425  0.249575  0.500000  1
  Ga  Ga5  1  0.750425  0.500000  0.249575  1
  Ga  Ga6  1  0.500000  0.249575  0.750425  1
  Ga  Ga7  1  0.249575  0.500000  0.750425  1
  Ga  Ga8  1  0.249575  0.750425  0.500000  1
  Ga  Ga9  1  0.500000  0.750425  0.249575  1
  Ga  Ga10  1  0.717193  0.717193  0.000640  1
  Ga  Ga11  1  0.282807  0.999360  0.282807  1
  Ga  Ga12  1  0.999360  0.282807  0.282807  1
  Ga  Ga13  1  0.282807  0.282807  0.999360  1
  Ga  Ga14  1  0.717193  0.000640  0.717193  1
  Ga  Ga15  1  0.000640  0.717193  0.717193  1
  Fe  Fe16  1  0.000000  0.000000  0.000000  1
