# generated using pymatgen
data_TbY6(HoSn2)3
_symmetry_space_group_name_H-M   'P 1'
_cell_length_a   8.97731900
_cell_length_b   8.97731848
_cell_length_c   6.55544700
_cell_angle_alpha   90.00000000
_cell_angle_beta   90.00000000
_cell_angle_gamma   119.99999823
_symmetry_Int_Tables_number   1
_chemical_formula_structural   TbY6(HoSn2)3
_chemical_formula_sum   'Tb1 Y6 Ho3 Sn6'
_cell_volume   457.53702096
_cell_formula_units_Z   1
loop_
 _symmetry_equiv_pos_site_id
 _symmetry_equiv_pos_as_xyz
  1  'x, y, z'
loop_
 _atom_site_type_symbol
 _atom_site_label
 _atom_site_symmetry_multiplicity
 _atom_site_fract_x
 _atom_site_fract_y
 _atom_site_fract_z
 _atom_site_occupancy
  Tb  Tb0  1  0.333333  0.666667  0.500000  1
  Y  Y1  1  0.999906  0.760271  0.750050  1
  Y  Y2  1  0.999906  0.239635  0.249950  1
  Y  Y3  1  0.760365  0.760271  0.249950  1
  Y  Y4  1  0.760365  0.000094  0.750050  1
  Y  Y5  1  0.239729  0.239635  0.750050  1
  Y  Y6  1  0.239729  0.000094  0.249950  1
  Ho  Ho7  1  0.666667  0.333333  0.000000  1
  Ho  Ho8  1  0.666667  0.333333  0.500000  1
  Ho  Ho9  1  0.333333  0.666667  0.000000  1
  Sn  Sn10  1  0.395681  0.000351  0.750251  1
  Sn  Sn11  1  0.395681  0.395330  0.249749  1
  Sn  Sn12  1  0.999649  0.604319  0.249749  1
  Sn  Sn13  1  0.999649  0.395330  0.750251  1
  Sn  Sn14  1  0.604670  0.604319  0.750251  1
  Sn  Sn15  1  0.604670  0.000351  0.249749  1
