# generated using pymatgen
data_Th3(Al2Ag)4
_symmetry_space_group_name_H-M   'P 1'
_cell_length_a   4.32730111
_cell_length_b   4.32691737
_cell_length_c   16.78615283
_cell_angle_alpha   82.60004460
_cell_angle_beta   82.55610798
_cell_angle_gamma   89.92379859
_symmetry_Int_Tables_number   1
_chemical_formula_structural   Th3(Al2Ag)4
_chemical_formula_sum   'Th3 Al8 Ag4'
_cell_volume   309.01958087
_cell_formula_units_Z   1
loop_
 _symmetry_equiv_pos_site_id
 _symmetry_equiv_pos_as_xyz
  1  'x, y, z'
loop_
 _atom_site_type_symbol
 _atom_site_label
 _atom_site_symmetry_multiplicity
 _atom_site_fract_x
 _atom_site_fract_y
 _atom_site_fract_z
 _atom_site_occupancy
  Th  Th0  1  0.998456  0.999126  0.000508  1
  Th  Th1  1  0.334272  0.334889  0.332990  1
  Th  Th2  1  0.666487  0.666766  0.666587  1
  Al  Al3  1  0.750462  0.251808  0.498490  1
  Al  Al4  1  0.081849  0.582652  0.834848  1
  Al  Al5  1  0.460673  0.460604  0.079795  1
  Al  Al6  1  0.798415  0.799304  0.405841  1
  Al  Al7  1  0.130053  0.129537  0.742750  1
  Al  Al8  1  0.873042  0.872923  0.253619  1
  Al  Al9  1  0.203463  0.202807  0.590462  1
  Al  Al10  1  0.534325  0.534962  0.927459  1
  Ag  Ag11  1  0.916436  0.416943  0.166668  1
  Ag  Ag12  1  0.251275  0.749093  0.499180  1
  Ag  Ag13  1  0.583680  0.082122  0.834102  1
  Ag  Ag14  1  0.417112  0.916463  0.166702  1
