# generated using pymatgen
data_LuTh3(ZnRh2)4
_symmetry_space_group_name_H-M   'P 1'
_cell_length_a   6.16212519
_cell_length_b   6.16186100
_cell_length_c   7.39953700
_cell_angle_alpha   89.99979543
_cell_angle_beta   90.01427251
_cell_angle_gamma   89.99994426
_symmetry_Int_Tables_number   1
_chemical_formula_structural   LuTh3(ZnRh2)4
_chemical_formula_sum   'Lu1 Th3 Zn4 Rh8'
_cell_volume   280.96158691
_cell_formula_units_Z   1
loop_
 _symmetry_equiv_pos_site_id
 _symmetry_equiv_pos_as_xyz
  1  'x, y, z'
loop_
 _atom_site_type_symbol
 _atom_site_label
 _atom_site_symmetry_multiplicity
 _atom_site_fract_x
 _atom_site_fract_y
 _atom_site_fract_z
 _atom_site_occupancy
  Lu  Lu0  1  0.749948  0.250003  0.499985  1
  Th  Th1  1  0.750118  0.250037  0.999846  1
  Th  Th2  1  0.249926  0.749983  0.999870  1
  Th  Th3  1  0.249968  0.749978  0.500128  1
  Zn  Zn4  1  0.250086  0.249976  0.000042  1
  Zn  Zn5  1  0.749932  0.750030  0.000043  1
  Zn  Zn6  1  0.749979  0.750011  0.499945  1
  Zn  Zn7  1  0.250019  0.249982  0.500004  1
  Rh  Rh8  1  0.500845  0.000871  0.253610  1
  Rh  Rh9  1  0.500860  0.499166  0.253591  1
  Rh  Rh10  1  0.999130  0.000865  0.253615  1
  Rh  Rh11  1  0.999082  0.499132  0.253615  1
  Rh  Rh12  1  0.999169  0.000802  0.746408  1
  Rh  Rh13  1  0.999172  0.499177  0.746399  1
  Rh  Rh14  1  0.500894  0.000827  0.746463  1
  Rh  Rh15  1  0.500874  0.499158  0.746431  1
