# generated using pymatgen
data_Pr3Nd(SeO4)6
_symmetry_space_group_name_H-M   'P 1'
_cell_length_a   10.33680115
_cell_length_b   10.33680160
_cell_length_c   10.33680160
_cell_angle_alpha   57.85890773
_cell_angle_beta   57.85889809
_cell_angle_gamma   57.85889427
_symmetry_Int_Tables_number   1
_chemical_formula_structural   Pr3Nd(SeO4)6
_chemical_formula_sum   'Pr3 Nd1 Se6 O24'
_cell_volume   742.59981978
_cell_formula_units_Z   1
loop_
 _symmetry_equiv_pos_site_id
 _symmetry_equiv_pos_as_xyz
  1  'x, y, z'
loop_
 _atom_site_type_symbol
 _atom_site_label
 _atom_site_symmetry_multiplicity
 _atom_site_fract_x
 _atom_site_fract_y
 _atom_site_fract_z
 _atom_site_occupancy
  Pr  Pr0  1  0.143702  0.143702  0.143702  1
  Pr  Pr1  1  0.856479  0.856479  0.856479  1
  Pr  Pr2  1  0.356338  0.356338  0.356338  1
  Nd  Nd3  1  0.643883  0.643883  0.643883  1
  Se  Se4  1  0.251335  0.536243  0.962992  1
  Se  Se5  1  0.464458  0.034875  0.749888  1
  Se  Se6  1  0.034875  0.749888  0.464458  1
  Se  Se7  1  0.962992  0.251335  0.536243  1
  Se  Se8  1  0.536243  0.962992  0.251335  1
  Se  Se9  1  0.749888  0.464458  0.034875  1
  O  O10  1  0.006306  0.774462  0.625591  1
  O  O11  1  0.774462  0.625591  0.006306  1
  O  O12  1  0.414585  0.564302  0.798310  1
  O  O13  1  0.275079  0.506911  0.124945  1
  O  O14  1  0.625591  0.006306  0.774462  1
  O  O15  1  0.494482  0.873293  0.724889  1
  O  O16  1  0.200118  0.587081  0.436636  1
  O  O17  1  0.088183  0.701130  0.935405  1
  O  O18  1  0.299208  0.062377  0.912953  1
  O  O19  1  0.436636  0.200118  0.587081  1
  O  O20  1  0.062377  0.912953  0.299208  1
  O  O21  1  0.873293  0.724889  0.494482  1
  O  O22  1  0.124945  0.275079  0.506911  1
  O  O23  1  0.935405  0.088183  0.701130  1
  O  O24  1  0.564302  0.798310  0.414585  1
  O  O25  1  0.701130  0.935405  0.088183  1
  O  O26  1  0.912953  0.299208  0.062377  1
  O  O27  1  0.798310  0.414585  0.564302  1
  O  O28  1  0.506911  0.124945  0.275079  1
  O  O29  1  0.374755  0.991998  0.226809  1
  O  O30  1  0.724889  0.494482  0.873293  1
  O  O31  1  0.587081  0.436636  0.200118  1
  O  O32  1  0.226809  0.374755  0.991998  1
  O  O33  1  0.991998  0.226809  0.374755  1
