# generated using pymatgen
data_Zr4CoNi3Au2
_symmetry_space_group_name_H-M   'P 1'
_cell_length_a   7.04030801
_cell_length_b   7.04030832
_cell_length_c   6.64334400
_cell_angle_alpha   90.00000000
_cell_angle_beta   90.00000000
_cell_angle_gamma   90.14319263
_symmetry_Int_Tables_number   1
_chemical_formula_structural   Zr4CoNi3Au2
_chemical_formula_sum   'Zr8 Co2 Ni6 Au4'
_cell_volume   329.28255537
_cell_formula_units_Z   2
loop_
 _symmetry_equiv_pos_site_id
 _symmetry_equiv_pos_as_xyz
  1  'x, y, z'
loop_
 _atom_site_type_symbol
 _atom_site_label
 _atom_site_symmetry_multiplicity
 _atom_site_fract_x
 _atom_site_fract_y
 _atom_site_fract_z
 _atom_site_occupancy
  Zr  Zr0  1  0.665815  0.334185  0.003173  1
  Zr  Zr1  1  0.334185  0.665815  0.003173  1
  Zr  Zr2  1  0.829997  0.829997  0.496798  1
  Zr  Zr3  1  0.170003  0.170003  0.496798  1
  Zr  Zr4  1  0.181838  0.181838  0.002874  1
  Zr  Zr5  1  0.818162  0.818162  0.002874  1
  Zr  Zr6  1  0.323415  0.676585  0.496533  1
  Zr  Zr7  1  0.676585  0.323415  0.496533  1
  Co  Co8  1  0.372892  0.372892  0.262929  1
  Co  Co9  1  0.627108  0.627108  0.262929  1
  Ni  Ni10  1  0.123877  0.876123  0.235641  1
  Ni  Ni11  1  0.876123  0.123877  0.235641  1
  Ni  Ni12  1  0.624000  0.624000  0.735773  1
  Ni  Ni13  1  0.376000  0.376000  0.735773  1
  Ni  Ni14  1  0.124802  0.875198  0.764608  1
  Ni  Ni15  1  0.875198  0.124802  0.764608  1
  Au  Au16  1  0.500000  0.000000  0.251207  1
  Au  Au17  1  0.000000  0.500000  0.251207  1
  Au  Au18  1  0.000000  0.500000  0.750462  1
  Au  Au19  1  0.500000  0.000000  0.750462  1
