# generated using pymatgen
data_Ti4P4IrRu3
_symmetry_space_group_name_H-M   'P 1'
_cell_length_a   3.77260300
_cell_length_b   6.22196716
_cell_length_c   7.14358903
_cell_angle_alpha   89.83193598
_cell_angle_beta   90.00000000
_cell_angle_gamma   90.00000000
_symmetry_Int_Tables_number   1
_chemical_formula_structural   Ti4P4IrRu3
_chemical_formula_sum   'Ti4 P4 Ir1 Ru3'
_cell_volume   167.68082948
_cell_formula_units_Z   1
loop_
 _symmetry_equiv_pos_site_id
 _symmetry_equiv_pos_as_xyz
  1  'x, y, z'
loop_
 _atom_site_type_symbol
 _atom_site_label
 _atom_site_symmetry_multiplicity
 _atom_site_fract_x
 _atom_site_fract_y
 _atom_site_fract_z
 _atom_site_occupancy
  Ti  Ti0  1  0.750000  0.526041  0.323557  1
  Ti  Ti1  1  0.250000  0.974709  0.823096  1
  Ti  Ti2  1  0.750000  0.022432  0.175891  1
  Ti  Ti3  1  0.250000  0.478368  0.675899  1
  P  P4  1  0.250000  0.735257  0.123438  1
  P  P5  1  0.250000  0.231032  0.380200  1
  P  P6  1  0.750000  0.267668  0.871844  1
  P  P7  1  0.750000  0.769901  0.624431  1
  Ir  Ir8  1  0.250000  0.344437  0.063205  1
  Ru  Ru9  1  0.250000  0.845599  0.439007  1
  Ru  Ru10  1  0.750000  0.153563  0.559786  1
  Ru  Ru11  1  0.750000  0.650993  0.939647  1
