# generated using pymatgen
data_Sr9(Pt2Au)2
_symmetry_space_group_name_H-M   'P 1'
_cell_length_a   8.16424338
_cell_length_b   8.15211362
_cell_length_c   8.13603695
_cell_angle_alpha   71.52288247
_cell_angle_beta   71.47394933
_cell_angle_gamma   71.29144294
_symmetry_Int_Tables_number   1
_chemical_formula_structural   Sr9(Pt2Au)2
_chemical_formula_sum   'Sr9 Pt4 Au2'
_cell_volume   472.16806597
_cell_formula_units_Z   1
loop_
 _symmetry_equiv_pos_site_id
 _symmetry_equiv_pos_as_xyz
  1  'x, y, z'
loop_
 _atom_site_type_symbol
 _atom_site_label
 _atom_site_symmetry_multiplicity
 _atom_site_fract_x
 _atom_site_fract_y
 _atom_site_fract_z
 _atom_site_occupancy
  Sr  Sr0  1  0.003416  0.998186  0.006551  1
  Sr  Sr1  1  0.794646  0.790447  0.798682  1
  Sr  Sr2  1  0.193461  0.205269  0.197544  1
  Sr  Sr3  1  0.324996  0.607704  0.851752  1
  Sr  Sr4  1  0.845948  0.334849  0.604723  1
  Sr  Sr5  1  0.616047  0.838548  0.327399  1
  Sr  Sr6  1  0.679285  0.393074  0.159649  1
  Sr  Sr7  1  0.155223  0.669244  0.383936  1
  Sr  Sr8  1  0.389202  0.157888  0.672561  1
  Pt  Pt9  1  0.959159  0.590916  0.146829  1
  Pt  Pt10  1  0.848990  0.042712  0.413089  1
  Pt  Pt11  1  0.410054  0.852076  0.041939  1
  Pt  Pt12  1  0.043075  0.409746  0.848849  1
  Au  Au13  1  0.147779  0.957738  0.588104  1
  Au  Au14  1  0.588716  0.151602  0.958392  1
