# generated using pymatgen
data_EuGa2IrPt
_symmetry_space_group_name_H-M   'P 1'
_cell_length_a   4.35638600
_cell_length_b   4.35638600
_cell_length_c   10.26985000
_cell_angle_alpha   90.00000000
_cell_angle_beta   90.00000000
_cell_angle_gamma   90.00000000
_symmetry_Int_Tables_number   1
_chemical_formula_structural   EuGa2IrPt
_chemical_formula_sum   'Eu2 Ga4 Ir2 Pt2'
_cell_volume   194.90222982
_cell_formula_units_Z   2
loop_
 _symmetry_equiv_pos_site_id
 _symmetry_equiv_pos_as_xyz
  1  'x, y, z'
loop_
 _atom_site_type_symbol
 _atom_site_label
 _atom_site_symmetry_multiplicity
 _atom_site_fract_x
 _atom_site_fract_y
 _atom_site_fract_z
 _atom_site_occupancy
  Eu  Eu0  1  0.000000  0.500000  0.237459  1
  Eu  Eu1  1  0.500000  0.000000  0.762542  1
  Ga  Ga2  1  0.500000  0.000000  0.122571  1
  Ga  Ga3  1  0.000000  0.000000  0.500000  1
  Ga  Ga4  1  0.500000  0.500000  0.500000  1
  Ga  Ga5  1  0.000000  0.500000  0.877429  1
  Ir  Ir6  1  0.000000  0.000000  0.000000  1
  Ir  Ir7  1  0.500000  0.500000  0.000000  1
  Pt  Pt8  1  0.500000  0.000000  0.369143  1
  Pt  Pt9  1  0.000000  0.500000  0.630857  1
