# generated using pymatgen
data_Tb4OsBr4
_symmetry_space_group_name_H-M   'P 1'
_cell_length_a   9.06060052
_cell_length_b   9.06060008
_cell_length_c   6.57308753
_cell_angle_alpha   89.69789405
_cell_angle_beta   89.69789099
_cell_angle_gamma   89.47799410
_symmetry_Int_Tables_number   1
_chemical_formula_structural   Tb4OsBr4
_chemical_formula_sum   'Tb8 Os2 Br8'
_cell_volume   539.57692659
_cell_formula_units_Z   2
loop_
 _symmetry_equiv_pos_site_id
 _symmetry_equiv_pos_as_xyz
  1  'x, y, z'
loop_
 _atom_site_type_symbol
 _atom_site_label
 _atom_site_symmetry_multiplicity
 _atom_site_fract_x
 _atom_site_fract_y
 _atom_site_fract_z
 _atom_site_occupancy
  Tb  Tb0  1  0.248471  0.902639  0.010654  1
  Tb  Tb1  1  0.751529  0.097361  0.989346  1
  Tb  Tb2  1  0.097361  0.751529  0.489346  1
  Tb  Tb3  1  0.902639  0.248471  0.510654  1
  Tb  Tb4  1  0.752263  0.903441  0.505108  1
  Tb  Tb5  1  0.247737  0.096559  0.494892  1
  Tb  Tb6  1  0.096559  0.247737  0.994892  1
  Tb  Tb7  1  0.903441  0.752263  0.005108  1
  Os  Os8  1  0.995807  0.004193  0.250000  1
  Os  Os9  1  0.004193  0.995807  0.750000  1
  Br  Br10  1  0.415213  0.818027  0.413256  1
  Br  Br11  1  0.584787  0.181973  0.586744  1
  Br  Br12  1  0.181973  0.584787  0.086744  1
  Br  Br13  1  0.818027  0.415213  0.913256  1
  Br  Br14  1  0.411230  0.188502  0.089496  1
  Br  Br15  1  0.588770  0.811498  0.910504  1
  Br  Br16  1  0.811498  0.588770  0.410504  1
  Br  Br17  1  0.188502  0.411230  0.589496  1
