# generated using pymatgen
data_CaSc2Ni9
_symmetry_space_group_name_H-M   'P 1'
_cell_length_a   8.40210409
_cell_length_b   8.40219915
_cell_length_c   8.40161599
_cell_angle_alpha   33.91181293
_cell_angle_beta   33.91067305
_cell_angle_gamma   33.91723410
_symmetry_Int_Tables_number   1
_chemical_formula_structural   CaSc2Ni9
_chemical_formula_sum   'Ca1 Sc2 Ni9'
_cell_volume   164.55548885
_cell_formula_units_Z   1
loop_
 _symmetry_equiv_pos_site_id
 _symmetry_equiv_pos_as_xyz
  1  'x, y, z'
loop_
 _atom_site_type_symbol
 _atom_site_label
 _atom_site_symmetry_multiplicity
 _atom_site_fract_x
 _atom_site_fract_y
 _atom_site_fract_z
 _atom_site_occupancy
  Ca  Ca0  1  0.000000  0.000000  0.000000  1
  Sc  Sc1  1  0.859544  0.859545  0.859547  1
  Sc  Sc2  1  0.140456  0.140455  0.140453  1
  Ni  Ni3  1  0.081177  0.586619  0.586619  1
  Ni  Ni4  1  0.586617  0.586616  0.081179  1
  Ni  Ni5  1  0.586619  0.081177  0.586616  1
  Ni  Ni6  1  0.413381  0.918823  0.413384  1
  Ni  Ni7  1  0.918823  0.413381  0.413381  1
  Ni  Ni8  1  0.413383  0.413384  0.918821  1
  Ni  Ni9  1  0.500000  0.500000  0.500000  1
  Ni  Ni10  1  0.666930  0.666925  0.666927  1
  Ni  Ni11  1  0.333070  0.333075  0.333073  1
