# generated using pymatgen
data_Dy4Cu2NiRh
_symmetry_space_group_name_H-M   'P 1'
_cell_length_a   4.37741200
_cell_length_b   5.49191947
_cell_length_c   6.99895139
_cell_angle_alpha   89.80618783
_cell_angle_beta   90.00000000
_cell_angle_gamma   90.00000000
_symmetry_Int_Tables_number   1
_chemical_formula_structural   Dy4Cu2NiRh
_chemical_formula_sum   'Dy4 Cu2 Ni1 Rh1'
_cell_volume   168.25658764
_cell_formula_units_Z   1
loop_
 _symmetry_equiv_pos_site_id
 _symmetry_equiv_pos_as_xyz
  1  'x, y, z'
loop_
 _atom_site_type_symbol
 _atom_site_label
 _atom_site_symmetry_multiplicity
 _atom_site_fract_x
 _atom_site_fract_y
 _atom_site_fract_z
 _atom_site_occupancy
  Dy  Dy0  1  0.250000  0.362740  0.677985  1
  Dy  Dy1  1  0.750000  0.635752  0.313685  1
  Dy  Dy2  1  0.750000  0.862389  0.823958  1
  Dy  Dy3  1  0.250000  0.134946  0.184206  1
  Cu  Cu4  1  0.250000  0.864496  0.541699  1
  Cu  Cu5  1  0.750000  0.372758  0.964469  1
  Ni  Ni6  1  0.250000  0.622724  0.030636  1
  Rh  Rh7  1  0.750000  0.144195  0.463361  1
