# generated using pymatgen
data_Ho3Mg3Sn2Ir
_symmetry_space_group_name_H-M   'P 1'
_cell_length_a   7.40514000
_cell_length_b   7.40514019
_cell_length_c   4.49731600
_cell_angle_alpha   90.00000000
_cell_angle_beta   90.00000000
_cell_angle_gamma   120.00000809
_symmetry_Int_Tables_number   1
_chemical_formula_structural   Ho3Mg3Sn2Ir
_chemical_formula_sum   'Ho3 Mg3 Sn2 Ir1'
_cell_volume   213.57507060
_cell_formula_units_Z   1
loop_
 _symmetry_equiv_pos_site_id
 _symmetry_equiv_pos_as_xyz
  1  'x, y, z'
loop_
 _atom_site_type_symbol
 _atom_site_label
 _atom_site_symmetry_multiplicity
 _atom_site_fract_x
 _atom_site_fract_y
 _atom_site_fract_z
 _atom_site_occupancy
  Ho  Ho0  1  0.607118  0.000000  0.000000  1
  Ho  Ho1  1  0.000000  0.607118  0.000000  1
  Ho  Ho2  1  0.392882  0.392882  0.000000  1
  Mg  Mg3  1  0.228835  0.000000  0.500000  1
  Mg  Mg4  1  0.000000  0.228835  0.500000  1
  Mg  Mg5  1  0.771165  0.771165  0.500000  1
  Sn  Sn6  1  0.333333  0.666667  0.500000  1
  Sn  Sn7  1  0.666667  0.333333  0.500000  1
  Ir  Ir8  1  0.000000  0.000000  0.000000  1
