# generated using pymatgen
data_Ca3TmBi3
_symmetry_space_group_name_H-M   'P 1'
_cell_length_a   8.16115271
_cell_length_b   8.37252446
_cell_length_c   8.37252315
_cell_angle_alpha   109.97697436
_cell_angle_beta   108.96061250
_cell_angle_gamma   108.96060608
_symmetry_Int_Tables_number   1
_chemical_formula_structural   Ca3TmBi3
_chemical_formula_sum   'Ca6 Tm2 Bi6'
_cell_volume   443.13944728
_cell_formula_units_Z   2
loop_
 _symmetry_equiv_pos_site_id
 _symmetry_equiv_pos_as_xyz
  1  'x, y, z'
loop_
 _atom_site_type_symbol
 _atom_site_label
 _atom_site_symmetry_multiplicity
 _atom_site_fract_x
 _atom_site_fract_y
 _atom_site_fract_z
 _atom_site_occupancy
  Ca  Ca0  1  0.501163  0.999813  0.646812  1
  Ca  Ca1  1  0.354351  0.353002  0.353188  1
  Ca  Ca2  1  0.501350  0.000187  0.146998  1
  Ca  Ca3  1  0.001350  0.646998  0.500187  1
  Ca  Ca4  1  0.854351  0.853188  0.853002  1
  Ca  Ca5  1  0.001163  0.146812  0.499813  1
  Tm  Tm6  1  0.141840  0.500000  0.000000  1
  Tm  Tm7  1  0.641840  0.500000  0.000000  1
  Bi  Bi8  1  0.377159  0.621892  0.758290  1
  Bi  Bi9  1  0.877159  0.258290  0.121892  1
  Bi  Bi10  1  0.618869  0.741710  0.363602  1
  Bi  Bi11  1  0.118869  0.863602  0.241710  1
  Bi  Bi12  1  0.255267  0.136398  0.878108  1
  Bi  Bi13  1  0.755267  0.378108  0.636398  1
