# generated using pymatgen
data_La3SnGeRh2
_symmetry_space_group_name_H-M   'P 1'
_cell_length_a   5.89476700
_cell_length_b   8.51999700
_cell_length_c   13.73009000
_cell_angle_alpha   90.00000000
_cell_angle_beta   90.00000000
_cell_angle_gamma   90.00000000
_symmetry_Int_Tables_number   1
_chemical_formula_structural   La3SnGeRh2
_chemical_formula_sum   'La12 Sn4 Ge4 Rh8'
_cell_volume   689.57176305
_cell_formula_units_Z   4
loop_
 _symmetry_equiv_pos_site_id
 _symmetry_equiv_pos_as_xyz
  1  'x, y, z'
loop_
 _atom_site_type_symbol
 _atom_site_label
 _atom_site_symmetry_multiplicity
 _atom_site_fract_x
 _atom_site_fract_y
 _atom_site_fract_z
 _atom_site_occupancy
  La  La0  1  0.641539  0.256140  0.250000  1
  La  La1  1  0.358461  0.743860  0.750000  1
  La  La2  1  0.358461  0.756140  0.250000  1
  La  La3  1  0.641539  0.243860  0.750000  1
  La  La4  1  0.161529  0.396185  0.098638  1
  La  La5  1  0.838471  0.603815  0.901362  1
  La  La6  1  0.838471  0.603815  0.598638  1
  La  La7  1  0.838471  0.896185  0.401362  1
  La  La8  1  0.161529  0.396185  0.401362  1
  La  La9  1  0.161529  0.103815  0.598638  1
  La  La10  1  0.161529  0.103815  0.901362  1
  La  La11  1  0.838471  0.896185  0.098638  1
  Sn  Sn12  1  0.660622  0.250000  0.000000  1
  Sn  Sn13  1  0.339378  0.750000  0.000000  1
  Sn  Sn14  1  0.339378  0.750000  0.500000  1
  Sn  Sn15  1  0.660622  0.250000  0.500000  1
  Ge  Ge16  1  0.144309  0.107878  0.250000  1
  Ge  Ge17  1  0.855691  0.892122  0.750000  1
  Ge  Ge18  1  0.855691  0.607878  0.250000  1
  Ge  Ge19  1  0.144309  0.392122  0.750000  1
  Rh  Rh20  1  0.375940  0.042457  0.095379  1
  Rh  Rh21  1  0.624060  0.957543  0.904621  1
  Rh  Rh22  1  0.624060  0.957543  0.595379  1
  Rh  Rh23  1  0.624060  0.542457  0.404621  1
  Rh  Rh24  1  0.375940  0.042457  0.404621  1
  Rh  Rh25  1  0.375940  0.457543  0.595379  1
  Rh  Rh26  1  0.375940  0.457543  0.904621  1
  Rh  Rh27  1  0.624060  0.542457  0.095379  1
