# generated using pymatgen
data_Na3Lu(Al3Pt)6
_symmetry_space_group_name_H-M   'P 1'
_cell_length_a   7.64564800
_cell_length_b   7.65012860
_cell_length_c   9.51814100
_cell_angle_alpha   90.00000000
_cell_angle_beta   90.00000000
_cell_angle_gamma   119.67368389
_symmetry_Int_Tables_number   1
_chemical_formula_structural   Na3Lu(Al3Pt)6
_chemical_formula_sum   'Na3 Lu1 Al18 Pt6'
_cell_volume   483.70933397
_cell_formula_units_Z   1
loop_
 _symmetry_equiv_pos_site_id
 _symmetry_equiv_pos_as_xyz
  1  'x, y, z'
loop_
 _atom_site_type_symbol
 _atom_site_label
 _atom_site_symmetry_multiplicity
 _atom_site_fract_x
 _atom_site_fract_y
 _atom_site_fract_z
 _atom_site_occupancy
  Na  Na0  1  0.006250  0.330888  0.750000  1
  Na  Na1  1  0.995591  0.670184  0.250000  1
  Na  Na2  1  0.327761  0.004037  0.750000  1
  Lu  Lu3  1  0.669039  0.000860  0.250000  1
  Al  Al4  1  0.665695  0.002591  0.919254  1
  Al  Al5  1  0.126929  0.132327  0.250000  1
  Al  Al6  1  0.000409  0.338205  0.425536  1
  Al  Al7  1  0.331509  0.331124  0.556537  1
  Al  Al8  1  0.341366  0.545561  0.250000  1
  Al  Al9  1  0.453526  0.659593  0.750000  1
  Al  Al10  1  0.872282  0.868756  0.750000  1
  Al  Al11  1  0.669867  0.667465  0.058597  1
  Al  Al12  1  0.669867  0.667465  0.441403  1
  Al  Al13  1  0.003129  0.665750  0.575233  1
  Al  Al14  1  0.003129  0.665750  0.924767  1
  Al  Al15  1  0.330396  0.996252  0.425334  1
  Al  Al16  1  0.663420  0.452918  0.750000  1
  Al  Al17  1  0.540765  0.331582  0.250000  1
  Al  Al18  1  0.331509  0.331124  0.943463  1
  Al  Al19  1  0.330396  0.996252  0.074666  1
  Al  Al20  1  0.665695  0.002591  0.580746  1
  Al  Al21  1  0.000409  0.338205  0.074464  1
  Pt  Pt22  1  0.334517  0.673119  0.497345  1
  Pt  Pt23  1  0.334517  0.673119  0.002655  1
  Pt  Pt24  1  0.670090  0.328162  0.497201  1
  Pt  Pt25  1  0.995923  0.998981  0.002992  1
  Pt  Pt26  1  0.995923  0.998981  0.497008  1
  Pt  Pt27  1  0.670090  0.328162  0.002799  1
