# generated using pymatgen
data_Sm3Ga2P4Rh9
_symmetry_space_group_name_H-M   'P 1'
_cell_length_a   4.02224900
_cell_length_b   11.38684600
_cell_length_c   12.98159700
_cell_angle_alpha   90.00000000
_cell_angle_beta   90.00000000
_cell_angle_gamma   90.00000000
_symmetry_Int_Tables_number   1
_chemical_formula_structural   Sm3Ga2P4Rh9
_chemical_formula_sum   'Sm6 Ga4 P8 Rh18'
_cell_volume   594.56661834
_cell_formula_units_Z   2
loop_
 _symmetry_equiv_pos_site_id
 _symmetry_equiv_pos_as_xyz
  1  'x, y, z'
loop_
 _atom_site_type_symbol
 _atom_site_label
 _atom_site_symmetry_multiplicity
 _atom_site_fract_x
 _atom_site_fract_y
 _atom_site_fract_z
 _atom_site_occupancy
  Sm  Sm0  1  0.000000  0.500000  0.522432  1
  Sm  Sm1  1  0.500000  0.000000  0.477568  1
  Sm  Sm2  1  0.500000  0.813922  0.207397  1
  Sm  Sm3  1  0.500000  0.186078  0.207397  1
  Sm  Sm4  1  0.000000  0.686078  0.792603  1
  Sm  Sm5  1  0.000000  0.313922  0.792603  1
  Ga  Ga6  1  0.500000  0.500000  0.877383  1
  Ga  Ga7  1  0.000000  0.000000  0.122617  1
  Ga  Ga8  1  0.500000  0.500000  0.344975  1
  Ga  Ga9  1  0.000000  0.000000  0.655025  1
  P  P10  1  0.500000  0.306965  0.616991  1
  P  P11  1  0.500000  0.693035  0.616991  1
  P  P12  1  0.000000  0.193035  0.383009  1
  P  P13  1  0.000000  0.806965  0.383009  1
  P  P14  1  0.500000  0.844124  0.897102  1
  P  P15  1  0.500000  0.155876  0.897102  1
  P  P16  1  0.000000  0.655876  0.102898  1
  P  P17  1  0.000000  0.344124  0.102898  1
  Rh  Rh18  1  0.500000  0.500000  0.154947  1
  Rh  Rh19  1  0.000000  0.000000  0.845053  1
  Rh  Rh20  1  0.500000  0.500000  0.685570  1
  Rh  Rh21  1  0.000000  0.000000  0.314430  1
  Rh  Rh22  1  0.000000  0.500000  0.993471  1
  Rh  Rh23  1  0.500000  0.000000  0.006529  1
  Rh  Rh24  1  0.500000  0.329659  0.997437  1
  Rh  Rh25  1  0.500000  0.670341  0.997437  1
  Rh  Rh26  1  0.000000  0.170341  0.002563  1
  Rh  Rh27  1  0.000000  0.829659  0.002563  1
  Rh  Rh28  1  0.500000  0.288773  0.431132  1
  Rh  Rh29  1  0.500000  0.711227  0.431132  1
  Rh  Rh30  1  0.000000  0.211227  0.568868  1
  Rh  Rh31  1  0.000000  0.788773  0.568868  1
  Rh  Rh32  1  0.500000  0.869790  0.716296  1
  Rh  Rh33  1  0.500000  0.130210  0.716296  1
  Rh  Rh34  1  0.000000  0.630210  0.283704  1
  Rh  Rh35  1  0.000000  0.369790  0.283704  1
