# generated using pymatgen
data_K3TaS3O
_symmetry_space_group_name_H-M   'P 1'
_cell_length_a   6.72157900
_cell_length_b   10.85129400
_cell_length_c   13.29849500
_cell_angle_alpha   90.00000000
_cell_angle_beta   90.00000000
_cell_angle_gamma   90.00000000
_symmetry_Int_Tables_number   1
_chemical_formula_structural   K3TaS3O
_chemical_formula_sum   'K12 Ta4 S12 O4'
_cell_volume   969.96336588
_cell_formula_units_Z   4
loop_
 _symmetry_equiv_pos_site_id
 _symmetry_equiv_pos_as_xyz
  1  'x, y, z'
loop_
 _atom_site_type_symbol
 _atom_site_label
 _atom_site_symmetry_multiplicity
 _atom_site_fract_x
 _atom_site_fract_y
 _atom_site_fract_z
 _atom_site_occupancy
  K  K0  1  0.252947  0.454688  0.131394  1
  K  K1  1  0.236320  0.750000  0.365958  1
  K  K2  1  0.247053  0.954688  0.631394  1
  K  K3  1  0.752947  0.045312  0.368606  1
  K  K4  1  0.263680  0.250000  0.865958  1
  K  K5  1  0.252947  0.045312  0.131394  1
  K  K6  1  0.247053  0.545312  0.631394  1
  K  K7  1  0.736320  0.750000  0.134042  1
  K  K8  1  0.752947  0.454688  0.368606  1
  K  K9  1  0.747053  0.954688  0.868606  1
  K  K10  1  0.763680  0.250000  0.634042  1
  K  K11  1  0.747053  0.545312  0.868606  1
  Ta  Ta12  1  0.336859  0.250000  0.453453  1
  Ta  Ta13  1  0.163141  0.750000  0.953453  1
  Ta  Ta14  1  0.663141  0.750000  0.546547  1
  Ta  Ta15  1  0.836859  0.250000  0.046547  1
  S  S16  1  0.246852  0.750000  0.123148  1
  S  S17  1  0.235906  0.068283  0.378064  1
  S  S18  1  0.253148  0.250000  0.623149  1
  S  S19  1  0.235906  0.431717  0.378064  1
  S  S20  1  0.753148  0.250000  0.876851  1
  S  S21  1  0.735906  0.431717  0.121936  1
  S  S22  1  0.764094  0.568283  0.621936  1
  S  S23  1  0.735906  0.068283  0.121936  1
  S  S24  1  0.764094  0.931717  0.621936  1
  S  S25  1  0.264094  0.931717  0.878064  1
  S  S26  1  0.264094  0.568283  0.878064  1
  S  S27  1  0.746852  0.750000  0.376852  1
  O  O28  1  0.606168  0.250000  0.449658  1
  O  O29  1  0.393832  0.750000  0.550342  1
  O  O30  1  0.893832  0.750000  0.949658  1
  O  O31  1  0.106168  0.250000  0.050342  1
