# generated using pymatgen
data_BaLuGe4N7
_symmetry_space_group_name_H-M   'P 1'
_cell_length_a   6.29453700
_cell_length_b   6.29453730
_cell_length_c   10.28408000
_cell_angle_alpha   90.00000000
_cell_angle_beta   90.00000000
_cell_angle_gamma   120.00000370
_symmetry_Int_Tables_number   1
_chemical_formula_structural   BaLuGe4N7
_chemical_formula_sum   'Ba2 Lu2 Ge8 N14'
_cell_volume   352.87725279
_cell_formula_units_Z   2
loop_
 _symmetry_equiv_pos_site_id
 _symmetry_equiv_pos_as_xyz
  1  'x, y, z'
loop_
 _atom_site_type_symbol
 _atom_site_label
 _atom_site_symmetry_multiplicity
 _atom_site_fract_x
 _atom_site_fract_y
 _atom_site_fract_z
 _atom_site_occupancy
  Ba  Ba0  1  0.333333  0.666667  0.363729  1
  Ba  Ba1  1  0.666667  0.333333  0.863729  1
  Lu  Lu2  1  0.333333  0.666667  0.736706  1
  Lu  Lu3  1  0.666667  0.333333  0.236706  1
  Ge  Ge4  1  0.826224  0.652447  0.547025  1
  Ge  Ge5  1  0.173776  0.826224  0.047025  1
  Ge  Ge6  1  0.652447  0.826224  0.047025  1
  Ge  Ge7  1  0.347553  0.173776  0.547025  1
  Ge  Ge8  1  0.826224  0.173776  0.547025  1
  Ge  Ge9  1  0.173776  0.347553  0.047025  1
  Ge  Ge10  1  0.000000  0.000000  0.811949  1
  Ge  Ge11  1  0.000000  0.000000  0.311949  1
  N  N12  1  0.000000  0.000000  0.618998  1
  N  N13  1  0.000000  0.000000  0.118998  1
  N  N14  1  0.160710  0.321420  0.867328  1
  N  N15  1  0.839290  0.160710  0.367328  1
  N  N16  1  0.321420  0.160710  0.367328  1
  N  N17  1  0.678580  0.839290  0.867328  1
  N  N18  1  0.160710  0.839290  0.867328  1
  N  N19  1  0.839290  0.678580  0.367328  1
  N  N20  1  0.991153  0.495577  0.606486  1
  N  N21  1  0.495577  0.991153  0.106486  1
  N  N22  1  0.495577  0.504423  0.106486  1
  N  N23  1  0.504423  0.495577  0.606486  1
  N  N24  1  0.008847  0.504423  0.106486  1
  N  N25  1  0.504423  0.008847  0.606486  1
