# generated using pymatgen
data_Dy2HoEr2Re2C7
_symmetry_space_group_name_H-M   'P 1'
_cell_length_a   8.32214792
_cell_length_b   8.29454956
_cell_length_c   3.40847100
_cell_angle_alpha   90.00000000
_cell_angle_beta   90.00000000
_cell_angle_gamma   122.50341091
_symmetry_Int_Tables_number   1
_chemical_formula_structural   Dy2HoEr2Re2C7
_chemical_formula_sum   'Dy2 Ho1 Er2 Re2 C7'
_cell_volume   198.42690587
_cell_formula_units_Z   1
loop_
 _symmetry_equiv_pos_site_id
 _symmetry_equiv_pos_as_xyz
  1  'x, y, z'
loop_
 _atom_site_type_symbol
 _atom_site_label
 _atom_site_symmetry_multiplicity
 _atom_site_fract_x
 _atom_site_fract_y
 _atom_site_fract_z
 _atom_site_occupancy
  Dy  Dy0  1  0.499798  0.499807  0.000000  1
  Dy  Dy1  1  0.924396  0.667225  0.500000  1
  Ho  Ho2  1  0.076342  0.333679  0.500000  1
  Er  Er3  1  0.662592  0.923461  0.500000  1
  Er  Er4  1  0.337451  0.076594  0.500000  1
  Re  Re5  1  0.715702  0.284912  0.000000  1
  Re  Re6  1  0.284561  0.714851  0.000000  1
  C  C7  1  0.627261  0.373268  0.500000  1
  C  C8  1  0.372457  0.626331  0.500000  1
  C  C9  1  0.999862  0.000153  0.000000  1
  C  C10  1  0.171632  0.168069  0.000000  1
  C  C11  1  0.827883  0.832424  0.000000  1
  C  C12  1  0.000158  0.499390  0.000000  1
  C  C13  1  0.499905  0.999836  0.000000  1
