# generated using pymatgen
data_Tb6HoCo6Sn22Au
_symmetry_space_group_name_H-M   'P 1'
_cell_length_a   9.68921423
_cell_length_b   9.68921339
_cell_length_c   9.95809512
_cell_angle_alpha   89.98456056
_cell_angle_beta   90.01543712
_cell_angle_gamma   119.98005763
_symmetry_Int_Tables_number   1
_chemical_formula_structural   Tb6HoCo6Sn22Au
_chemical_formula_sum   'Tb6 Ho1 Co6 Sn22 Au1'
_cell_volume   809.78774077
_cell_formula_units_Z   1
loop_
 _symmetry_equiv_pos_site_id
 _symmetry_equiv_pos_as_xyz
  1  'x, y, z'
loop_
 _atom_site_type_symbol
 _atom_site_label
 _atom_site_symmetry_multiplicity
 _atom_site_fract_x
 _atom_site_fract_y
 _atom_site_fract_z
 _atom_site_occupancy
  Tb  Tb0  1  0.999954  0.000046  0.000044  1
  Tb  Tb1  1  0.521048  0.478952  0.693287  1
  Tb  Tb2  1  0.521013  0.042062  0.693416  1
  Tb  Tb3  1  0.957938  0.478987  0.693416  1
  Tb  Tb4  1  0.042082  0.521052  0.306537  1
  Tb  Tb5  1  0.478948  0.957918  0.306537  1
  Ho  Ho6  1  0.479267  0.520733  0.306566  1
  Co  Co7  1  0.167847  0.832153  0.803728  1
  Co  Co8  1  0.167819  0.335766  0.803663  1
  Co  Co9  1  0.664234  0.832181  0.803663  1
  Co  Co10  1  0.335914  0.168215  0.196452  1
  Co  Co11  1  0.831785  0.664086  0.196452  1
  Co  Co12  1  0.832236  0.167764  0.196388  1
  Sn  Sn13  1  0.666588  0.333412  0.183580  1
  Sn  Sn14  1  0.666646  0.333354  0.881478  1
  Sn  Sn15  1  0.333969  0.666031  0.119149  1
  Sn  Sn16  1  0.346395  0.346460  0.000144  1
  Sn  Sn17  1  0.999876  0.653516  0.999995  1
  Sn  Sn18  1  0.653516  0.999944  0.000060  1
  Sn  Sn19  1  0.653540  0.653605  0.000144  1
  Sn  Sn20  1  0.333286  0.666714  0.816551  1
  Sn  Sn21  1  0.432799  0.217149  0.452708  1
  Sn  Sn22  1  0.216411  0.783589  0.547140  1
  Sn  Sn23  1  0.216840  0.432816  0.546617  1
  Sn  Sn24  1  0.567184  0.783160  0.546617  1
  Sn  Sn25  1  0.113159  0.886841  0.277963  1
  Sn  Sn26  1  0.782851  0.567201  0.452708  1
  Sn  Sn27  1  0.783549  0.216451  0.452820  1
  Sn  Sn28  1  0.346484  0.000124  0.999995  1
  Sn  Sn29  1  0.113746  0.226912  0.278017  1
  Sn  Sn30  1  0.773088  0.886254  0.278017  1
  Sn  Sn31  1  0.226413  0.113274  0.722037  1
  Sn  Sn32  1  0.886726  0.773587  0.722037  1
  Sn  Sn33  1  0.886807  0.113193  0.722042  1
  Sn  Sn34  1  0.000056  0.346484  0.000060  1
  Au  Au35  1  0.999984  0.000016  0.499970  1
