# generated using pymatgen
data_Li8Er7TmSn7Sb
_symmetry_space_group_name_H-M   'P 1'
_cell_length_a   9.34970818
_cell_length_b   9.34970848
_cell_length_c   7.15868601
_cell_angle_alpha   90.06386616
_cell_angle_beta   89.93613397
_cell_angle_gamma   119.98218587
_symmetry_Int_Tables_number   1
_chemical_formula_structural   Li8Er7TmSn7Sb
_chemical_formula_sum   'Li8 Er7 Tm1 Sn7 Sb1'
_cell_volume   542.04787013
_cell_formula_units_Z   1
loop_
 _symmetry_equiv_pos_site_id
 _symmetry_equiv_pos_as_xyz
  1  'x, y, z'
loop_
 _atom_site_type_symbol
 _atom_site_label
 _atom_site_symmetry_multiplicity
 _atom_site_fract_x
 _atom_site_fract_y
 _atom_site_fract_z
 _atom_site_occupancy
  Li  Li0  1  0.832404  0.666069  0.712384  1
  Li  Li1  1  0.833269  0.166731  0.712806  1
  Li  Li2  1  0.333748  0.666252  0.821462  1
  Li  Li3  1  0.666728  0.333272  0.321187  1
  Li  Li4  1  0.666490  0.833406  0.212730  1
  Li  Li5  1  0.166594  0.333510  0.212730  1
  Li  Li6  1  0.166769  0.833231  0.212951  1
  Li  Li7  1  0.333931  0.167596  0.712384  1
  Er  Er8  1  0.999068  0.000932  0.002521  1
  Er  Er9  1  0.999242  0.000758  0.499281  1
  Er  Er10  1  0.511279  0.488721  0.006421  1
  Er  Er11  1  0.021210  0.509525  0.504890  1
  Er  Er12  1  0.490475  0.978790  0.504890  1
  Er  Er13  1  0.513310  0.023155  0.008337  1
  Er  Er14  1  0.976845  0.486690  0.008337  1
  Tm  Tm15  1  0.488727  0.511273  0.506130  1
  Sn  Sn16  1  0.666737  0.333263  0.740361  1
  Sn  Sn17  1  0.333041  0.666959  0.240813  1
  Sn  Sn18  1  0.833328  0.166672  0.269504  1
  Sn  Sn19  1  0.166549  0.333395  0.769761  1
  Sn  Sn20  1  0.333213  0.166208  0.269873  1
  Sn  Sn21  1  0.833792  0.666787  0.269873  1
  Sn  Sn22  1  0.666605  0.833451  0.769761  1
  Sb  Sb23  1  0.166647  0.833353  0.768611  1
