# generated using pymatgen
data_NdEr4Tl2(InPd)2
_symmetry_space_group_name_H-M   'P 1'
_cell_length_a   3.61829400
_cell_length_b   8.22551900
_cell_length_c   18.38713800
_cell_angle_alpha   90.00000000
_cell_angle_beta   90.00000000
_cell_angle_gamma   90.00000000
_symmetry_Int_Tables_number   1
_chemical_formula_structural   NdEr4Tl2(InPd)2
_chemical_formula_sum   'Nd2 Er8 Tl4 In4 Pd4'
_cell_volume   547.24436393
_cell_formula_units_Z   2
loop_
 _symmetry_equiv_pos_site_id
 _symmetry_equiv_pos_as_xyz
  1  'x, y, z'
loop_
 _atom_site_type_symbol
 _atom_site_label
 _atom_site_symmetry_multiplicity
 _atom_site_fract_x
 _atom_site_fract_y
 _atom_site_fract_z
 _atom_site_occupancy
  Nd  Nd0  1  0.000000  0.500000  0.500000  1
  Nd  Nd1  1  0.000000  0.000000  0.000000  1
  Er  Er2  1  0.000000  0.738910  0.282200  1
  Er  Er3  1  0.000000  0.261090  0.717800  1
  Er  Er4  1  0.000000  0.761090  0.782200  1
  Er  Er5  1  0.000000  0.238910  0.217800  1
  Er  Er6  1  0.000000  0.620262  0.086203  1
  Er  Er7  1  0.000000  0.379738  0.913797  1
  Er  Er8  1  0.000000  0.879738  0.586203  1
  Er  Er9  1  0.000000  0.120262  0.413797  1
  Tl  Tl10  1  0.500000  0.700199  0.932631  1
  Tl  Tl11  1  0.500000  0.299801  0.067369  1
  Tl  Tl12  1  0.500000  0.799801  0.432631  1
  Tl  Tl13  1  0.500000  0.200199  0.567369  1
  In  In14  1  0.500000  0.585745  0.653766  1
  In  In15  1  0.500000  0.414255  0.346234  1
  In  In16  1  0.500000  0.914255  0.153766  1
  In  In17  1  0.500000  0.085745  0.846234  1
  Pd  Pd18  1  0.500000  0.527418  0.197472  1
  Pd  Pd19  1  0.500000  0.472582  0.802528  1
  Pd  Pd20  1  0.500000  0.972582  0.697472  1
  Pd  Pd21  1  0.500000  0.027418  0.302528  1
