# generated using pymatgen
data_Er8Ti7Si16Mo5
_symmetry_space_group_name_H-M   'P 1'
_cell_length_a   6.94200998
_cell_length_b   6.94258846
_cell_length_c   12.80383962
_cell_angle_alpha   89.91934798
_cell_angle_beta   89.96882265
_cell_angle_gamma   89.94759806
_symmetry_Int_Tables_number   1
_chemical_formula_structural   Er8Ti7Si16Mo5
_chemical_formula_sum   'Er8 Ti7 Si16 Mo5'
_cell_volume   617.08672732
_cell_formula_units_Z   1
loop_
 _symmetry_equiv_pos_site_id
 _symmetry_equiv_pos_as_xyz
  1  'x, y, z'
loop_
 _atom_site_type_symbol
 _atom_site_label
 _atom_site_symmetry_multiplicity
 _atom_site_fract_x
 _atom_site_fract_y
 _atom_site_fract_z
 _atom_site_occupancy
  Er  Er0  1  0.340212  0.999233  0.467903  1
  Er  Er1  1  0.499628  0.840130  0.719773  1
  Er  Er2  1  0.499567  0.160561  0.217760  1
  Er  Er3  1  0.838767  0.499978  0.281816  1
  Er  Er4  1  0.160284  0.498746  0.781737  1
  Er  Er5  1  0.659618  0.000205  0.968322  1
  Er  Er6  1  0.999394  0.339854  0.532290  1
  Er  Er7  1  0.000535  0.660152  0.030049  1
  Ti  Ti8  1  0.491176  0.654042  0.124616  1
  Ti  Ti9  1  0.505840  0.347447  0.627693  1
  Ti  Ti10  1  0.653824  0.489097  0.873492  1
  Ti  Ti11  1  0.347234  0.508102  0.374116  1
  Ti  Ti12  1  0.846904  0.992293  0.375086  1
  Ti  Ti13  1  0.005899  0.151996  0.125752  1
  Ti  Ti14  1  0.992633  0.847725  0.625297  1
  Si  Si15  1  0.203338  0.130271  0.684073  1
  Si  Si16  1  0.371565  0.703757  0.932756  1
  Si  Si17  1  0.629604  0.298252  0.435108  1
  Si  Si18  1  0.703649  0.369621  0.066358  1
  Si  Si19  1  0.298469  0.631854  0.565859  1
  Si  Si20  1  0.796929  0.868143  0.183532  1
  Si  Si21  1  0.130381  0.204234  0.316673  1
  Si  Si22  1  0.870494  0.798049  0.817201  1
  Si  Si23  1  0.293423  0.955833  0.064003  1
  Si  Si24  1  0.545328  0.793481  0.314553  1
  Si  Si25  1  0.450742  0.207373  0.816477  1
  Si  Si26  1  0.792097  0.547327  0.684162  1
  Si  Si27  1  0.206960  0.454088  0.185172  1
  Si  Si28  1  0.707944  0.045716  0.564813  1
  Si  Si29  1  0.958532  0.289092  0.935243  1
  Si  Si30  1  0.045595  0.706843  0.434508  1
  Mo  Mo31  1  0.329034  0.330279  0.000719  1
  Mo  Mo32  1  0.169891  0.829851  0.249029  1
  Mo  Mo33  1  0.828306  0.171273  0.749807  1
  Mo  Mo34  1  0.673042  0.672336  0.499827  1
  Mo  Mo35  1  0.153160  0.002766  0.874425  1
