# generated using pymatgen
data_Ta3Ti4Mn8W
_symmetry_space_group_name_H-M   'P 1'
_cell_length_a   6.00883000
_cell_length_b   4.25728500
_cell_length_c   8.53204500
_cell_angle_alpha   90.00000000
_cell_angle_beta   90.00072605
_cell_angle_gamma   90.00000000
_symmetry_Int_Tables_number   1
_chemical_formula_structural   Ta3Ti4Mn8W
_chemical_formula_sum   'Ta3 Ti4 Mn8 W1'
_cell_volume   218.26081833
_cell_formula_units_Z   1
loop_
 _symmetry_equiv_pos_site_id
 _symmetry_equiv_pos_as_xyz
  1  'x, y, z'
loop_
 _atom_site_type_symbol
 _atom_site_label
 _atom_site_symmetry_multiplicity
 _atom_site_fract_x
 _atom_site_fract_y
 _atom_site_fract_z
 _atom_site_occupancy
  Ta  Ta0  1  0.250083  0.750001  0.374639  1
  Ta  Ta1  1  0.749964  0.250000  0.625119  1
  Ta  Ta2  1  0.249990  0.750001  0.875313  1
  Ti  Ti3  1  0.250123  0.250000  0.124854  1
  Ti  Ti4  1  0.750062  0.750001  0.373579  1
  Ti  Ti5  1  0.249913  0.250000  0.625072  1
  Ti  Ti6  1  0.749882  0.750001  0.876480  1
  Mn  Mn7  1  0.504928  0.750001  0.124968  1
  Mn  Mn8  1  0.995134  0.750001  0.124981  1
  Mn  Mn9  1  0.502292  0.250000  0.371070  1
  Mn  Mn10  1  0.997825  0.250000  0.371100  1
  Mn  Mn11  1  0.999721  0.750001  0.625010  1
  Mn  Mn12  1  0.500193  0.750001  0.625017  1
  Mn  Mn13  1  0.997735  0.250000  0.878914  1
  Mn  Mn14  1  0.502140  0.250000  0.878919  1
  W  W15  1  0.750013  0.250000  0.124960  1
