# generated using pymatgen
data_UF17
_symmetry_space_group_name_H-M   'P 1'
_cell_length_a   9.00194950
_cell_length_b   8.66338797
_cell_length_c   10.33204438
_cell_angle_alpha   84.13435880
_cell_angle_beta   88.39911706
_cell_angle_gamma   68.34252942
_symmetry_Int_Tables_number   1
_chemical_formula_structural   UF17
_chemical_formula_sum   'U2 F34'
_cell_volume   744.92460151
_cell_formula_units_Z   2
loop_
 _symmetry_equiv_pos_site_id
 _symmetry_equiv_pos_as_xyz
  1  'x, y, z'
loop_
 _atom_site_type_symbol
 _atom_site_label
 _atom_site_symmetry_multiplicity
 _atom_site_fract_x
 _atom_site_fract_y
 _atom_site_fract_z
 _atom_site_occupancy
  U  U0  1  0.868331  0.251044  0.760022  1
  U  U1  1  0.131669  0.748956  0.239978  1
  F  F2  1  0.599009  0.205757  0.479124  1
  F  F3  1  0.400991  0.794243  0.520876  1
  F  F4  1  0.815058  0.701167  0.729280  1
  F  F5  1  0.184942  0.298833  0.270720  1
  F  F6  1  0.081116  0.761473  0.857828  1
  F  F7  1  0.918884  0.238527  0.142172  1
  F  F8  1  0.560648  0.136987  0.370414  1
  F  F9  1  0.439352  0.863013  0.629586  1
  F  F10  1  0.640102  0.326571  0.694097  1
  F  F11  1  0.359898  0.673429  0.305903  1
  F  F12  1  0.941973  0.062555  0.644509  1
  F  F13  1  0.058027  0.937445  0.355491  1
  F  F14  1  0.916303  0.394834  0.611485  1
  F  F15  1  0.083697  0.605166  0.388515  1
  F  F16  1  0.845016  0.801505  0.621286  1
  F  F17  1  0.154984  0.198495  0.378714  1
  F  F18  1  0.800762  0.444753  0.871433  1
  F  F19  1  0.199238  0.555247  0.128567  1
  F  F20  1  0.209728  0.689742  0.772492  1
  F  F21  1  0.790272  0.310258  0.227508  1
  F  F22  1  0.908960  0.821893  0.163952  1
  F  F23  1  0.091040  0.178107  0.836048  1
  F  F24  1  0.818235  0.100750  0.903204  1
  F  F25  1  0.181765  0.899250  0.096796  1
  F  F26  1  0.481848  0.587234  0.985501  1
  F  F27  1  0.518152  0.412766  0.014499  1
  F  F28  1  0.452519  0.085209  0.870326  1
  F  F29  1  0.547481  0.914791  0.129674  1
  F  F30  1  0.293993  0.243009  0.612677  1
  F  F31  1  0.706007  0.756991  0.387323  1
  F  F32  1  0.258852  0.391884  0.674947  1
  F  F33  1  0.741148  0.608116  0.325053  1
  F  F34  1  0.559848  0.927633  0.835662  1
  F  F35  1  0.440152  0.072367  0.164338  1
