# generated using pymatgen
data_La3YbPr5Rh6
_symmetry_space_group_name_H-M   'P 1'
_cell_length_a   7.73456545
_cell_length_b   7.73134107
_cell_length_c   7.73638500
_cell_angle_alpha   70.29942864
_cell_angle_beta   70.33365965
_cell_angle_gamma   70.21203584
_symmetry_Int_Tables_number   1
_chemical_formula_structural   La3YbPr5Rh6
_chemical_formula_sum   'La3 Yb1 Pr5 Rh6'
_cell_volume   396.70037219
_cell_formula_units_Z   1
loop_
 _symmetry_equiv_pos_site_id
 _symmetry_equiv_pos_as_xyz
  1  'x, y, z'
loop_
 _atom_site_type_symbol
 _atom_site_label
 _atom_site_symmetry_multiplicity
 _atom_site_fract_x
 _atom_site_fract_y
 _atom_site_fract_z
 _atom_site_occupancy
  La  La0  1  0.800071  0.802682  0.800508  1
  La  La1  1  0.198825  0.197121  0.199515  1
  La  La2  1  0.156207  0.386139  0.672677  1
  Yb  Yb3  1  0.999384  0.997712  0.000790  1
  Pr  Pr4  1  0.672147  0.155516  0.386987  1
  Pr  Pr5  1  0.387962  0.670772  0.155126  1
  Pr  Pr6  1  0.843412  0.611554  0.329717  1
  Pr  Pr7  1  0.330818  0.843802  0.611823  1
  Pr  Pr8  1  0.611422  0.330294  0.845459  1
  Rh  Rh9  1  0.957134  0.177210  0.578556  1
  Rh  Rh10  1  0.578643  0.955177  0.172948  1
  Rh  Rh11  1  0.175417  0.576649  0.953313  1
  Rh  Rh12  1  0.044587  0.825146  0.422194  1
  Rh  Rh13  1  0.418792  0.047781  0.825272  1
  Rh  Rh14  1  0.825177  0.422448  0.045114  1
