# generated using pymatgen
data_TmPa(WC2)2
_symmetry_space_group_name_H-M   'P 1'
_cell_length_a   3.32788400
_cell_length_b   5.72300300
_cell_length_c   10.88808100
_cell_angle_alpha   90.00000000
_cell_angle_beta   90.00000000
_cell_angle_gamma   90.00000000
_symmetry_Int_Tables_number   1
_chemical_formula_structural   TmPa(WC2)2
_chemical_formula_sum   'Tm2 Pa2 W4 C8'
_cell_volume   207.36883906
_cell_formula_units_Z   2
loop_
 _symmetry_equiv_pos_site_id
 _symmetry_equiv_pos_as_xyz
  1  'x, y, z'
loop_
 _atom_site_type_symbol
 _atom_site_label
 _atom_site_symmetry_multiplicity
 _atom_site_fract_x
 _atom_site_fract_y
 _atom_site_fract_z
 _atom_site_occupancy
  Tm  Tm0  1  0.750000  0.413116  0.639486  1
  Tm  Tm1  1  0.750000  0.913116  0.860514  1
  Pa  Pa2  1  0.250000  0.586421  0.362024  1
  Pa  Pa3  1  0.250000  0.086421  0.137976  1
  W  W4  1  0.250000  0.905369  0.613710  1
  W  W5  1  0.250000  0.405369  0.886290  1
  W  W6  1  0.750000  0.088475  0.397988  1
  W  W7  1  0.750000  0.588475  0.102012  1
  C  C8  1  0.250000  0.661739  0.748007  1
  C  C9  1  0.250000  0.161739  0.751993  1
  C  C10  1  0.750000  0.340997  0.255437  1
  C  C11  1  0.750000  0.840997  0.244563  1
  C  C12  1  0.250000  0.236959  0.488908  1
  C  C13  1  0.250000  0.736959  0.011092  1
  C  C14  1  0.750000  0.766924  0.512197  1
  C  C15  1  0.750000  0.266924  0.987803  1
