# generated using pymatgen
data_Zr2Co8NiSnB6
_symmetry_space_group_name_H-M   'P 1'
_cell_length_a   5.71446388
_cell_length_b   5.71446401
_cell_length_c   5.72650132
_cell_angle_alpha   95.47287666
_cell_angle_beta   95.47288754
_cell_angle_gamma   95.23337223
_symmetry_Int_Tables_number   1
_chemical_formula_structural   Zr2Co8NiSnB6
_chemical_formula_sum   'Zr2 Co8 Ni1 Sn1 B6'
_cell_volume   184.34659145
_cell_formula_units_Z   1
loop_
 _symmetry_equiv_pos_site_id
 _symmetry_equiv_pos_as_xyz
  1  'x, y, z'
loop_
 _atom_site_type_symbol
 _atom_site_label
 _atom_site_symmetry_multiplicity
 _atom_site_fract_x
 _atom_site_fract_y
 _atom_site_fract_z
 _atom_site_occupancy
  Zr  Zr0  1  0.669986  0.669986  0.673212  1
  Zr  Zr1  1  0.330014  0.330014  0.326788  1
  Co  Co2  1  0.500000  0.000000  0.000000  1
  Co  Co3  1  0.000000  0.500000  0.000000  1
  Co  Co4  1  0.701436  0.201191  0.700302  1
  Co  Co5  1  0.700024  0.700024  0.202698  1
  Co  Co6  1  0.201191  0.701436  0.700302  1
  Co  Co7  1  0.298564  0.798809  0.299698  1
  Co  Co8  1  0.299976  0.299976  0.797302  1
  Co  Co9  1  0.798809  0.298564  0.299698  1
  Ni  Ni10  1  0.000000  0.000000  0.500000  1
  Sn  Sn11  1  0.000000  0.000000  0.000000  1
  B  B12  1  0.615377  0.384623  0.000000  1
  B  B13  1  0.000595  0.611170  0.385111  1
  B  B14  1  0.388830  0.999405  0.614889  1
  B  B15  1  0.999405  0.388830  0.614889  1
  B  B16  1  0.611170  0.000595  0.385111  1
  B  B17  1  0.384623  0.615377  0.000000  1
