# generated using pymatgen
data_Ba4Ca4Sb4H2O
_symmetry_space_group_name_H-M   'P 1'
_cell_length_a   4.89114694
_cell_length_b   4.89114711
_cell_length_c   18.78109244
_cell_angle_alpha   97.48199034
_cell_angle_beta   97.48199040
_cell_angle_gamma   90.00000569
_symmetry_Int_Tables_number   1
_chemical_formula_structural   Ba4Ca4Sb4H2O
_chemical_formula_sum   'Ba4 Ca4 Sb4 H2 O1'
_cell_volume   441.62200566
_cell_formula_units_Z   1
loop_
 _symmetry_equiv_pos_site_id
 _symmetry_equiv_pos_as_xyz
  1  'x, y, z'
loop_
 _atom_site_type_symbol
 _atom_site_label
 _atom_site_symmetry_multiplicity
 _atom_site_fract_x
 _atom_site_fract_y
 _atom_site_fract_z
 _atom_site_occupancy
  Ba  Ba0  1  0.081098  0.081098  0.162195  1
  Ba  Ba1  1  0.661311  0.661311  0.322622  1
  Ba  Ba2  1  0.338689  0.338689  0.677378  1
  Ba  Ba3  1  0.918902  0.918902  0.837805  1
  Ca  Ca4  1  0.499999  0.000000  0.000000  1
  Ca  Ca5  1  0.000000  0.499999  0.000000  1
  Ca  Ca6  1  0.749999  0.250000  0.500000  1
  Ca  Ca7  1  0.250000  0.749999  0.500000  1
  Sb  Sb8  1  0.561453  0.561453  0.122908  1
  Sb  Sb9  1  0.184763  0.184763  0.369524  1
  Sb  Sb10  1  0.815236  0.815236  0.630476  1
  Sb  Sb11  1  0.438546  0.438546  0.877092  1
  H  H12  1  0.731439  0.731439  0.462881  1
  H  H13  1  0.268560  0.268560  0.537119  1
  O  O14  1  0.000000  0.000000  0.000000  1
