# generated using pymatgen
data_Sr4AcPt4
_symmetry_space_group_name_H-M   'P 1'
_cell_length_a   7.99266800
_cell_length_b   8.19286400
_cell_length_c   15.85852700
_cell_angle_alpha   90.00000000
_cell_angle_beta   90.00000000
_cell_angle_gamma   90.00000000
_symmetry_Int_Tables_number   1
_chemical_formula_structural   Sr4AcPt4
_chemical_formula_sum   'Sr16 Ac4 Pt16'
_cell_volume   1038.46141664
_cell_formula_units_Z   4
loop_
 _symmetry_equiv_pos_site_id
 _symmetry_equiv_pos_as_xyz
  1  'x, y, z'
loop_
 _atom_site_type_symbol
 _atom_site_label
 _atom_site_symmetry_multiplicity
 _atom_site_fract_x
 _atom_site_fract_y
 _atom_site_fract_z
 _atom_site_occupancy
  Sr  Sr0  1  0.666937  0.173806  0.119144  1
  Sr  Sr1  1  0.166937  0.326194  0.380856  1
  Sr  Sr2  1  0.333063  0.826194  0.619145  1
  Sr  Sr3  1  0.833063  0.673806  0.880855  1
  Sr  Sr4  1  0.489165  0.321785  0.901756  1
  Sr  Sr5  1  0.989165  0.178215  0.598244  1
  Sr  Sr6  1  0.510835  0.678215  0.401756  1
  Sr  Sr7  1  0.010835  0.821785  0.098244  1
  Sr  Sr8  1  0.513227  0.685181  0.096518  1
  Sr  Sr9  1  0.013227  0.814819  0.403482  1
  Sr  Sr10  1  0.486773  0.314819  0.596518  1
  Sr  Sr11  1  0.986773  0.185181  0.903482  1
  Sr  Sr12  1  0.173052  0.483690  0.749851  1
  Sr  Sr13  1  0.673052  0.016310  0.750149  1
  Sr  Sr14  1  0.826948  0.516310  0.249851  1
  Sr  Sr15  1  0.326948  0.983690  0.250149  1
  Ac  Ac16  1  0.330001  0.833680  0.877503  1
  Ac  Ac17  1  0.830001  0.666320  0.622497  1
  Ac  Ac18  1  0.669999  0.166320  0.377504  1
  Ac  Ac19  1  0.169999  0.333680  0.122496  1
  Pt  Pt20  1  0.326555  0.038322  0.038438  1
  Pt  Pt21  1  0.826555  0.461678  0.461562  1
  Pt  Pt22  1  0.673445  0.961678  0.538438  1
  Pt  Pt23  1  0.173445  0.538322  0.961562  1
  Pt  Pt24  1  0.646255  0.974357  0.956078  1
  Pt  Pt25  1  0.146255  0.525643  0.543922  1
  Pt  Pt26  1  0.353745  0.025643  0.456078  1
  Pt  Pt27  1  0.853745  0.474357  0.043922  1
  Pt  Pt28  1  0.540356  0.617317  0.751858  1
  Pt  Pt29  1  0.040356  0.882683  0.748142  1
  Pt  Pt30  1  0.459644  0.382683  0.251858  1
  Pt  Pt31  1  0.959644  0.117317  0.248142  1
  Pt  Pt32  1  0.284318  0.122778  0.751592  1
  Pt  Pt33  1  0.784318  0.377222  0.748408  1
  Pt  Pt34  1  0.715682  0.877222  0.251592  1
  Pt  Pt35  1  0.215682  0.622778  0.248408  1
