# generated using pymatgen
data_Dy5Er15(GaBi2)4
_symmetry_space_group_name_H-M   'P 1'
_cell_length_a   8.04254304
_cell_length_b   9.24198200
_cell_length_c   12.03654705
_cell_angle_alpha   90.00000000
_cell_angle_beta   90.01076242
_cell_angle_gamma   90.00000000
_symmetry_Int_Tables_number   1
_chemical_formula_structural   Dy5Er15(GaBi2)4
_chemical_formula_sum   'Dy5 Er15 Ga4 Bi8'
_cell_volume   894.66494713
_cell_formula_units_Z   1
loop_
 _symmetry_equiv_pos_site_id
 _symmetry_equiv_pos_as_xyz
  1  'x, y, z'
loop_
 _atom_site_type_symbol
 _atom_site_label
 _atom_site_symmetry_multiplicity
 _atom_site_fract_x
 _atom_site_fract_y
 _atom_site_fract_z
 _atom_site_occupancy
  Dy  Dy0  1  0.667908  0.750000  0.715749  1
  Dy  Dy1  1  0.332025  0.250000  0.284216  1
  Dy  Dy2  1  0.167960  0.250000  0.784231  1
  Dy  Dy3  1  0.831909  0.750000  0.215808  1
  Dy  Dy4  1  0.143349  0.750000  0.794953  1
  Er  Er5  1  0.856714  0.250000  0.204965  1
  Er  Er6  1  0.643324  0.250000  0.704934  1
  Er  Er7  1  0.356867  0.750000  0.295019  1
  Er  Er8  1  0.540114  0.750000  0.002675  1
  Er  Er9  1  0.459946  0.250000  0.997361  1
  Er  Er10  1  0.039987  0.250000  0.497386  1
  Er  Er11  1  0.959793  0.750000  0.502521  1
  Er  Er12  1  0.819214  0.446560  0.936059  1
  Er  Er13  1  0.180844  0.553421  0.064044  1
  Er  Er14  1  0.319281  0.553411  0.563864  1
  Er  Er15  1  0.180844  0.946579  0.064044  1
  Er  Er16  1  0.680764  0.446471  0.436063  1
  Er  Er17  1  0.819214  0.053440  0.936059  1
  Er  Er18  1  0.680764  0.053529  0.436063  1
  Er  Er19  1  0.319281  0.946589  0.563864  1
  Ga  Ga20  1  0.908688  0.750000  0.975815  1
  Ga  Ga21  1  0.090876  0.250000  0.024572  1
  Ga  Ga22  1  0.409166  0.250000  0.524544  1
  Ga  Ga23  1  0.590829  0.750000  0.475382  1
  Bi  Bi24  1  0.935045  0.008869  0.673789  1
  Bi  Bi25  1  0.064823  0.991374  0.326090  1
  Bi  Bi26  1  0.435535  0.991580  0.826100  1
  Bi  Bi27  1  0.064823  0.508626  0.326090  1
  Bi  Bi28  1  0.564766  0.008659  0.173925  1
  Bi  Bi29  1  0.935045  0.491131  0.673789  1
  Bi  Bi30  1  0.564766  0.491341  0.173925  1
  Bi  Bi31  1  0.435535  0.508420  0.826100  1
