# generated using pymatgen
data_Tm2MnFe4P6Ir5
_symmetry_space_group_name_H-M   'P 1'
_cell_length_a   3.80245800
_cell_length_b   10.46407200
_cell_length_c   12.32919400
_cell_angle_alpha   90.00000000
_cell_angle_beta   90.00000000
_cell_angle_gamma   90.00000000
_symmetry_Int_Tables_number   1
_chemical_formula_structural   Tm2MnFe4P6Ir5
_chemical_formula_sum   'Tm4 Mn2 Fe8 P12 Ir10'
_cell_volume   490.56869549
_cell_formula_units_Z   2
loop_
 _symmetry_equiv_pos_site_id
 _symmetry_equiv_pos_as_xyz
  1  'x, y, z'
loop_
 _atom_site_type_symbol
 _atom_site_label
 _atom_site_symmetry_multiplicity
 _atom_site_fract_x
 _atom_site_fract_y
 _atom_site_fract_z
 _atom_site_occupancy
  Tm  Tm0  1  0.250000  0.579010  0.713950  1
  Tm  Tm1  1  0.250000  0.920990  0.213950  1
  Tm  Tm2  1  0.750000  0.422862  0.287337  1
  Tm  Tm3  1  0.750000  0.077138  0.787337  1
  Mn  Mn4  1  0.250000  0.709020  0.993109  1
  Mn  Mn5  1  0.250000  0.790980  0.493109  1
  Fe  Fe6  1  0.250000  0.873780  0.694868  1
  Fe  Fe7  1  0.250000  0.626220  0.194868  1
  Fe  Fe8  1  0.750000  0.123196  0.302732  1
  Fe  Fe9  1  0.750000  0.376804  0.802732  1
  Fe  Fe10  1  0.250000  0.455964  0.936401  1
  Fe  Fe11  1  0.250000  0.044036  0.436401  1
  Fe  Fe12  1  0.750000  0.538912  0.063711  1
  Fe  Fe13  1  0.750000  0.961088  0.563711  1
  P  P14  1  0.250000  0.442013  0.112245  1
  P  P15  1  0.250000  0.057987  0.612245  1
  P  P16  1  0.750000  0.563157  0.888880  1
  P  P17  1  0.750000  0.936843  0.388880  1
  P  P18  1  0.250000  0.271224  0.861809  1
  P  P19  1  0.250000  0.228776  0.361809  1
  P  P20  1  0.750000  0.727537  0.136026  1
  P  P21  1  0.750000  0.772463  0.636026  1
  P  P22  1  0.250000  0.600373  0.377195  1
  P  P23  1  0.250000  0.899627  0.877195  1
  P  P24  1  0.750000  0.400994  0.621958  1
  P  P25  1  0.750000  0.099006  0.121958  1
  Ir  Ir26  1  0.750000  0.285886  0.010228  1
  Ir  Ir27  1  0.750000  0.214114  0.510228  1
  Ir  Ir28  1  0.250000  0.407425  0.473315  1
  Ir  Ir29  1  0.250000  0.092575  0.973315  1
  Ir  Ir30  1  0.750000  0.593412  0.526020  1
  Ir  Ir31  1  0.750000  0.906588  0.026020  1
  Ir  Ir32  1  0.250000  0.232395  0.173697  1
  Ir  Ir33  1  0.250000  0.267605  0.673697  1
  Ir  Ir34  1  0.750000  0.772333  0.826518  1
  Ir  Ir35  1  0.750000  0.727667  0.326518  1
