# generated using pymatgen
data_Tb3GeSe2O10F
_symmetry_space_group_name_H-M   'P 1'
_cell_length_a   6.05691700
_cell_length_b   10.57383100
_cell_length_c   15.78159400
_cell_angle_alpha   90.00000000
_cell_angle_beta   90.00000000
_cell_angle_gamma   90.00000000
_symmetry_Int_Tables_number   1
_chemical_formula_structural   Tb3GeSe2O10F
_chemical_formula_sum   'Tb12 Ge4 Se8 O40 F4'
_cell_volume   1010.72929558
_cell_formula_units_Z   4
loop_
 _symmetry_equiv_pos_site_id
 _symmetry_equiv_pos_as_xyz
  1  'x, y, z'
loop_
 _atom_site_type_symbol
 _atom_site_label
 _atom_site_symmetry_multiplicity
 _atom_site_fract_x
 _atom_site_fract_y
 _atom_site_fract_z
 _atom_site_occupancy
  Tb  Tb0  1  0.925461  0.886013  0.655403  1
  Tb  Tb1  1  0.074539  0.113987  0.344597  1
  Tb  Tb2  1  0.250000  0.375497  0.500000  1
  Tb  Tb3  1  0.750000  0.624503  0.500000  1
  Tb  Tb4  1  0.425461  0.113987  0.655403  1
  Tb  Tb5  1  0.425461  0.386013  0.844597  1
  Tb  Tb6  1  0.574539  0.613987  0.155403  1
  Tb  Tb7  1  0.750000  0.875497  0.000000  1
  Tb  Tb8  1  0.925461  0.613987  0.844597  1
  Tb  Tb9  1  0.074539  0.386013  0.155403  1
  Tb  Tb10  1  0.574539  0.886013  0.344597  1
  Tb  Tb11  1  0.250000  0.124503  0.000000  1
  Ge  Ge12  1  0.750000  0.356898  0.000000  1
  Ge  Ge13  1  0.250000  0.856898  0.500000  1
  Ge  Ge14  1  0.750000  0.143102  0.500000  1
  Ge  Ge15  1  0.250000  0.643102  0.000000  1
  Se  Se16  1  0.026347  0.884780  0.174329  1
  Se  Se17  1  0.973653  0.115220  0.825671  1
  Se  Se18  1  0.973653  0.384780  0.674329  1
  Se  Se19  1  0.526347  0.115220  0.174329  1
  Se  Se20  1  0.526347  0.384780  0.325671  1
  Se  Se21  1  0.473653  0.615220  0.674329  1
  Se  Se22  1  0.026347  0.615220  0.325671  1
  Se  Se23  1  0.473653  0.884780  0.825671  1
  O  O24  1  0.482340  0.983852  0.913414  1
  O  O25  1  0.982340  0.016148  0.913414  1
  O  O26  1  0.240103  0.550741  0.094232  1
  O  O27  1  0.010214  0.772527  0.531251  1
  O  O28  1  0.380965  0.033177  0.252540  1
  O  O29  1  0.740103  0.449259  0.094232  1
  O  O30  1  0.017660  0.983852  0.086586  1
  O  O31  1  0.740103  0.050741  0.405768  1
  O  O32  1  0.489786  0.727473  0.031251  1
  O  O33  1  0.989786  0.227473  0.468749  1
  O  O34  1  0.489786  0.772527  0.468749  1
  O  O35  1  0.880965  0.966823  0.252540  1
  O  O36  1  0.517660  0.016148  0.086586  1
  O  O37  1  0.820124  0.783691  0.139281  1
  O  O38  1  0.982340  0.483852  0.586586  1
  O  O39  1  0.179876  0.216309  0.860719  1
  O  O40  1  0.880965  0.533177  0.247460  1
  O  O41  1  0.759897  0.050741  0.594232  1
  O  O42  1  0.240103  0.949259  0.405768  1
  O  O43  1  0.119035  0.466823  0.752540  1
  O  O44  1  0.380965  0.466823  0.247460  1
  O  O45  1  0.510214  0.227473  0.531251  1
  O  O46  1  0.320124  0.283691  0.360719  1
  O  O47  1  0.759897  0.449259  0.905768  1
  O  O48  1  0.259897  0.550741  0.905768  1
  O  O49  1  0.320124  0.216309  0.139281  1
  O  O50  1  0.510214  0.272527  0.968749  1
  O  O51  1  0.179876  0.283691  0.639281  1
  O  O52  1  0.482340  0.516148  0.586586  1
  O  O53  1  0.010214  0.727473  0.968749  1
  O  O54  1  0.820124  0.716309  0.360719  1
  O  O55  1  0.619035  0.533177  0.752540  1
  O  O56  1  0.679876  0.783691  0.860719  1
  O  O57  1  0.517660  0.483852  0.413414  1
  O  O58  1  0.259897  0.949259  0.594232  1
  O  O59  1  0.119035  0.033177  0.747460  1
  O  O60  1  0.679876  0.716309  0.639281  1
  O  O61  1  0.017660  0.516148  0.413414  1
  O  O62  1  0.989786  0.272527  0.031251  1
  O  O63  1  0.619035  0.966823  0.747460  1
  F  F64  1  0.435847  0.750000  0.250000  1
  F  F65  1  0.935847  0.250000  0.250000  1
  F  F66  1  0.564153  0.250000  0.750000  1
  F  F67  1  0.064153  0.750000  0.750000  1
