# generated using pymatgen
data_Lu3Pa(TcB6)2
_symmetry_space_group_name_H-M   'P 1'
_cell_length_a   3.65782300
_cell_length_b   9.06787478
_cell_length_c   11.42939510
_cell_angle_alpha   90.26801983
_cell_angle_beta   90.00000000
_cell_angle_gamma   90.00000000
_symmetry_Int_Tables_number   1
_chemical_formula_structural   Lu3Pa(TcB6)2
_chemical_formula_sum   'Lu6 Pa2 Tc4 B24'
_cell_volume   379.09381148
_cell_formula_units_Z   2
loop_
 _symmetry_equiv_pos_site_id
 _symmetry_equiv_pos_as_xyz
  1  'x, y, z'
loop_
 _atom_site_type_symbol
 _atom_site_label
 _atom_site_symmetry_multiplicity
 _atom_site_fract_x
 _atom_site_fract_y
 _atom_site_fract_z
 _atom_site_occupancy
  Lu  Lu0  1  0.000000  0.823517  0.085176  1
  Lu  Lu1  1  0.000000  0.176483  0.914824  1
  Lu  Lu2  1  0.000000  0.944866  0.371374  1
  Lu  Lu3  1  0.000000  0.055134  0.628626  1
  Lu  Lu4  1  0.000000  0.443766  0.126488  1
  Lu  Lu5  1  0.000000  0.556234  0.873512  1
  Pa  Pa6  1  0.000000  0.321123  0.413168  1
  Pa  Pa7  1  0.000000  0.678877  0.586832  1
  Tc  Tc8  1  0.000000  0.636952  0.322973  1
  Tc  Tc9  1  0.000000  0.363048  0.677027  1
  Tc  Tc10  1  0.000000  0.140400  0.181022  1
  Tc  Tc11  1  0.000000  0.859600  0.818978  1
  B  B12  1  0.500000  0.554164  0.432779  1
  B  B13  1  0.500000  0.445836  0.567221  1
  B  B14  1  0.500000  0.053564  0.066229  1
  B  B15  1  0.500000  0.946436  0.933771  1
  B  B16  1  0.500000  0.750690  0.418917  1
  B  B17  1  0.500000  0.249310  0.581083  1
  B  B18  1  0.500000  0.249326  0.079122  1
  B  B19  1  0.500000  0.750674  0.920878  1
  B  B20  1  0.500000  0.793001  0.264073  1
  B  B21  1  0.500000  0.206999  0.735927  1
  B  B22  1  0.500000  0.292762  0.233561  1
  B  B23  1  0.500000  0.707238  0.766439  1
  B  B24  1  0.500000  0.631450  0.183832  1
  B  B25  1  0.500000  0.368550  0.816168  1
  B  B26  1  0.500000  0.130973  0.314459  1
  B  B27  1  0.500000  0.869027  0.685541  1
  B  B28  1  0.500000  0.981294  0.211443  1
  B  B29  1  0.500000  0.018706  0.788557  1
  B  B30  1  0.500000  0.482887  0.285906  1
  B  B31  1  0.500000  0.517113  0.714094  1
  B  B32  1  0.500000  0.603336  0.028740  1
  B  B33  1  0.500000  0.396664  0.971260  1
  B  B34  1  0.500000  0.104969  0.470914  1
  B  B35  1  0.500000  0.895031  0.529086  1
