# generated using pymatgen
data_SrBiSbPt2
_symmetry_space_group_name_H-M   'P 1'
_cell_length_a   4.69578900
_cell_length_b   4.83106055
_cell_length_c   10.56467403
_cell_angle_alpha   88.25660199
_cell_angle_beta   90.00000000
_cell_angle_gamma   90.00000000
_symmetry_Int_Tables_number   1
_chemical_formula_structural   SrBiSbPt2
_chemical_formula_sum   'Sr2 Bi2 Sb2 Pt4'
_cell_volume   239.55546153
_cell_formula_units_Z   2
loop_
 _symmetry_equiv_pos_site_id
 _symmetry_equiv_pos_as_xyz
  1  'x, y, z'
loop_
 _atom_site_type_symbol
 _atom_site_label
 _atom_site_symmetry_multiplicity
 _atom_site_fract_x
 _atom_site_fract_y
 _atom_site_fract_z
 _atom_site_occupancy
  Sr  Sr0  1  0.250000  0.744572  0.763789  1
  Sr  Sr1  1  0.750000  0.255428  0.236211  1
  Bi  Bi2  1  0.750000  0.749804  0.503461  1
  Bi  Bi3  1  0.250000  0.250196  0.496539  1
  Sb  Sb4  1  0.250000  0.802147  0.114201  1
  Sb  Sb5  1  0.750000  0.197853  0.885799  1
  Pt  Pt6  1  0.750000  0.688337  0.000412  1
  Pt  Pt7  1  0.750000  0.244655  0.642346  1
  Pt  Pt8  1  0.250000  0.755345  0.357654  1
  Pt  Pt9  1  0.250000  0.311663  0.999588  1
