# generated using pymatgen
data_HoLu4(In2Ir)2
_symmetry_space_group_name_H-M   'P 1'
_cell_length_a   3.54008500
_cell_length_b   7.98013600
_cell_length_c   18.12352600
_cell_angle_alpha   90.00000000
_cell_angle_beta   90.00000000
_cell_angle_gamma   90.00000000
_symmetry_Int_Tables_number   1
_chemical_formula_structural   HoLu4(In2Ir)2
_chemical_formula_sum   'Ho2 Lu8 In8 Ir4'
_cell_volume   511.99612947
_cell_formula_units_Z   2
loop_
 _symmetry_equiv_pos_site_id
 _symmetry_equiv_pos_as_xyz
  1  'x, y, z'
loop_
 _atom_site_type_symbol
 _atom_site_label
 _atom_site_symmetry_multiplicity
 _atom_site_fract_x
 _atom_site_fract_y
 _atom_site_fract_z
 _atom_site_occupancy
  Ho  Ho0  1  0.000000  0.000000  0.000000  1
  Ho  Ho1  1  0.000000  0.500000  0.500000  1
  Lu  Lu2  1  0.000000  0.116427  0.412677  1
  Lu  Lu3  1  0.000000  0.883573  0.587323  1
  Lu  Lu4  1  0.000000  0.383573  0.912677  1
  Lu  Lu5  1  0.000000  0.616427  0.087323  1
  Lu  Lu6  1  0.000000  0.244412  0.221364  1
  Lu  Lu7  1  0.000000  0.755588  0.778636  1
  Lu  Lu8  1  0.000000  0.255588  0.721364  1
  Lu  Lu9  1  0.000000  0.744412  0.278636  1
  In  In10  1  0.500000  0.425475  0.350628  1
  In  In11  1  0.500000  0.574525  0.649372  1
  In  In12  1  0.500000  0.074525  0.850628  1
  In  In13  1  0.500000  0.925475  0.149372  1
  In  In14  1  0.500000  0.295219  0.066839  1
  In  In15  1  0.500000  0.704781  0.933161  1
  In  In16  1  0.500000  0.204781  0.566839  1
  In  In17  1  0.500000  0.795219  0.433161  1
  Ir  Ir18  1  0.500000  0.023566  0.303692  1
  Ir  Ir19  1  0.500000  0.976434  0.696308  1
  Ir  Ir20  1  0.500000  0.476434  0.803692  1
  Ir  Ir21  1  0.500000  0.523566  0.196308  1
