# generated using pymatgen
data_Y3Ho(Si4Tc3)2
_symmetry_space_group_name_H-M   'P 1'
_cell_length_a   6.79477567
_cell_length_b   6.79007678
_cell_length_c   6.77912244
_cell_angle_alpha   69.75633817
_cell_angle_beta   89.98988603
_cell_angle_gamma   89.92186890
_symmetry_Int_Tables_number   1
_chemical_formula_structural   Y3Ho(Si4Tc3)2
_chemical_formula_sum   'Y3 Ho1 Si8 Tc6'
_cell_volume   293.44857144
_cell_formula_units_Z   1
loop_
 _symmetry_equiv_pos_site_id
 _symmetry_equiv_pos_as_xyz
  1  'x, y, z'
loop_
 _atom_site_type_symbol
 _atom_site_label
 _atom_site_symmetry_multiplicity
 _atom_site_fract_x
 _atom_site_fract_y
 _atom_site_fract_z
 _atom_site_occupancy
  Y  Y0  1  0.667972  0.442049  0.191493  1
  Y  Y1  1  0.167717  0.057892  0.808691  1
  Y  Y2  1  0.332079  0.558238  0.808236  1
  Ho  Ho3  1  0.831824  0.942677  0.191841  1
  Si  Si4  1  0.448337  0.121011  0.104064  1
  Si  Si5  1  0.947661  0.378499  0.896629  1
  Si  Si6  1  0.552604  0.878730  0.896971  1
  Si  Si7  1  0.051876  0.621710  0.104277  1
  Si  Si8  1  0.857870  0.130866  0.513235  1
  Si  Si9  1  0.357595  0.368772  0.485584  1
  Si  Si10  1  0.141541  0.868671  0.485601  1
  Si  Si11  1  0.642668  0.631758  0.513408  1
  Tc  Tc12  1  0.500847  0.000047  0.499418  1
  Tc  Tc13  1  0.999617  0.500782  0.499487  1
  Tc  Tc14  1  0.148748  0.241292  0.240470  1
  Tc  Tc15  1  0.650361  0.256931  0.759903  1
  Tc  Tc16  1  0.850307  0.757601  0.760164  1
  Tc  Tc17  1  0.350377  0.742473  0.240527  1
