# generated using pymatgen
data_HfSc4Re19Tc5
_symmetry_space_group_name_H-M   'P 1'
_cell_length_a   8.45091145
_cell_length_b   8.45698913
_cell_length_c   8.45049531
_cell_angle_alpha   109.58306358
_cell_angle_beta   109.48026291
_cell_angle_gamma   109.39041388
_symmetry_Int_Tables_number   1
_chemical_formula_structural   HfSc4Re19Tc5
_chemical_formula_sum   'Hf1 Sc4 Re19 Tc5'
_cell_volume   464.69037615
_cell_formula_units_Z   1
loop_
 _symmetry_equiv_pos_site_id
 _symmetry_equiv_pos_as_xyz
  1  'x, y, z'
loop_
 _atom_site_type_symbol
 _atom_site_label
 _atom_site_symmetry_multiplicity
 _atom_site_fract_x
 _atom_site_fract_y
 _atom_site_fract_z
 _atom_site_occupancy
  Hf  Hf0  1  0.367392  0.368738  0.368489  1
  Sc  Sc1  1  0.002196  0.632080  0.999851  1
  Sc  Sc2  1  0.632919  0.000949  0.001947  1
  Sc  Sc3  1  0.997941  0.000038  0.631237  1
  Sc  Sc4  1  0.998365  0.997686  0.998027  1
  Re  Re5  1  0.000087  0.677614  0.397761  1
  Re  Re6  1  0.601653  0.602415  0.278764  1
  Re  Re7  1  0.808771  0.808715  0.185124  1
  Re  Re8  1  0.377154  0.191732  0.999427  1
  Re  Re9  1  0.192627  0.376478  0.999587  1
  Re  Re10  1  0.621340  0.814398  0.621797  1
  Re  Re11  1  0.378497  0.999749  0.192969  1
  Re  Re12  1  0.999492  0.377233  0.192522  1
  Re  Re13  1  0.814987  0.622226  0.620755  1
  Re  Re14  1  0.185907  0.807816  0.807526  1
  Re  Re15  1  0.807209  0.184591  0.809045  1
  Re  Re16  1  0.193241  0.001327  0.378264  1
  Re  Re17  1  0.000063  0.193131  0.379157  1
  Re  Re18  1  0.623658  0.622837  0.815178  1
  Re  Re19  1  0.397628  0.999329  0.676455  1
  Re  Re20  1  0.602530  0.279192  0.601548  1
  Re  Re21  1  0.676804  0.398175  0.999961  1
  Re  Re22  1  0.397249  0.676117  0.999291  1
  Re  Re23  1  0.323545  0.324630  0.722788  1
  Tc  Tc24  1  0.998556  0.397693  0.678118  1
  Tc  Tc25  1  0.279442  0.601601  0.601278  1
  Tc  Tc26  1  0.721467  0.322471  0.322431  1
  Tc  Tc27  1  0.321611  0.720873  0.322414  1
  Tc  Tc28  1  0.677667  0.000171  0.398290  1
