# generated using pymatgen
data_Sr9Zn2Co2(CuO7)2
_symmetry_space_group_name_H-M   'P 1'
_cell_length_a   3.67014400
_cell_length_b   11.30026185
_cell_length_c   11.38045873
_cell_angle_alpha   98.48710533
_cell_angle_beta   90.00000000
_cell_angle_gamma   99.34575805
_symmetry_Int_Tables_number   1
_chemical_formula_structural   Sr9Zn2Co2(CuO7)2
_chemical_formula_sum   'Sr9 Zn2 Co2 Cu2 O14'
_cell_volume   460.48443222
_cell_formula_units_Z   1
loop_
 _symmetry_equiv_pos_site_id
 _symmetry_equiv_pos_as_xyz
  1  'x, y, z'
loop_
 _atom_site_type_symbol
 _atom_site_label
 _atom_site_symmetry_multiplicity
 _atom_site_fract_x
 _atom_site_fract_y
 _atom_site_fract_z
 _atom_site_occupancy
  Sr  Sr0  1  0.313056  0.626112  0.102292  1
  Sr  Sr1  1  0.490838  0.981677  0.191960  1
  Sr  Sr2  1  0.686486  0.372970  0.223930  1
  Sr  Sr3  1  0.306596  0.613192  0.428408  1
  Sr  Sr4  1  0.499624  0.999246  0.499930  1
  Sr  Sr5  1  0.693319  0.386635  0.570052  1
  Sr  Sr6  1  0.313722  0.627444  0.774521  1
  Sr  Sr7  1  0.509267  0.018531  0.808821  1
  Sr  Sr8  1  0.687510  0.375018  0.897824  1
  Zn  Zn9  1  0.110077  0.220154  0.703849  1
  Zn  Zn10  1  0.897512  0.795021  0.961913  1
  Co  Co11  1  0.102157  0.204314  0.039758  1
  Co  Co12  1  0.890805  0.781607  0.298850  1
  Cu  Cu13  1  0.106697  0.213392  0.375651  1
  Cu  Cu14  1  0.893145  0.786287  0.622832  1
  O  O15  1  0.196725  0.393450  0.070499  1
  O  O16  1  0.581066  0.162129  0.090192  1
  O  O17  1  0.912547  0.825092  0.136744  1
  O  O18  1  0.798060  0.596118  0.268999  1
  O  O19  1  0.024879  0.049759  0.350900  1
  O  O20  1  0.406352  0.812706  0.355152  1
  O  O21  1  0.190749  0.381497  0.401297  1
  O  O22  1  0.809096  0.618189  0.598018  1
  O  O23  1  0.593627  0.187250  0.643197  1
  O  O24  1  0.974877  0.949751  0.649501  1
  O  O25  1  0.202908  0.405817  0.731555  1
  O  O26  1  0.087181  0.174362  0.866174  1
  O  O27  1  0.418434  0.836869  0.907585  1
  O  O28  1  0.802707  0.605412  0.929598  1
