# generated using pymatgen
data_Mn3FeBr7F
_symmetry_space_group_name_H-M   'P 1'
_cell_length_a   7.86011152
_cell_length_b   7.89608615
_cell_length_c   7.89608713
_cell_angle_alpha   58.30198423
_cell_angle_beta   57.50141623
_cell_angle_gamma   57.50142136
_symmetry_Int_Tables_number   1
_chemical_formula_structural   Mn3FeBr7F
_chemical_formula_sum   'Mn3 Fe1 Br7 F1'
_cell_volume   328.71943153
_cell_formula_units_Z   1
loop_
 _symmetry_equiv_pos_site_id
 _symmetry_equiv_pos_as_xyz
  1  'x, y, z'
loop_
 _atom_site_type_symbol
 _atom_site_label
 _atom_site_symmetry_multiplicity
 _atom_site_fract_x
 _atom_site_fract_y
 _atom_site_fract_z
 _atom_site_occupancy
  Mn  Mn0  1  0.127506  0.127414  0.127414  1
  Mn  Mn1  1  0.136239  0.135939  0.614997  1
  Mn  Mn2  1  0.136239  0.614997  0.135939  1
  Fe  Fe3  1  0.611215  0.137646  0.137646  1
  Br  Br4  1  0.378085  0.373588  0.883022  1
  Br  Br5  1  0.880978  0.892064  0.892064  1
  Br  Br6  1  0.875679  0.883374  0.369564  1
  Br  Br7  1  0.373463  0.878162  0.878162  1
  Br  Br8  1  0.378085  0.883022  0.373588  1
  Br  Br9  1  0.875679  0.369564  0.883374  1
  Br  Br10  1  0.880527  0.377748  0.377748  1
  F  F11  1  0.346301  0.326481  0.326481  1
