# generated using pymatgen
data_Cr3Ag2P6WO24
_symmetry_space_group_name_H-M   'P 1'
_cell_length_a   8.92804012
_cell_length_b   8.63718620
_cell_length_c   8.63718601
_cell_angle_alpha   59.99999701
_cell_angle_beta   61.07192178
_cell_angle_gamma   61.07192415
_symmetry_Int_Tables_number   1
_chemical_formula_structural   Cr3Ag2P6WO24
_chemical_formula_sum   'Cr3 Ag2 P6 W1 O24'
_cell_volume   478.44867085
_cell_formula_units_Z   1
loop_
 _symmetry_equiv_pos_site_id
 _symmetry_equiv_pos_as_xyz
  1  'x, y, z'
loop_
 _atom_site_type_symbol
 _atom_site_label
 _atom_site_symmetry_multiplicity
 _atom_site_fract_x
 _atom_site_fract_y
 _atom_site_fract_z
 _atom_site_occupancy
  Cr  Cr0  1  0.066561  0.644479  0.644479  1
  Cr  Cr1  1  0.437049  0.854318  0.854318  1
  Cr  Cr2  1  0.936819  0.354394  0.354394  1
  Ag  Ag3  1  0.014078  0.995307  0.995307  1
  Ag  Ag4  1  0.503777  0.498741  0.498741  1
  P  P5  1  0.244303  0.253335  0.542186  1
  P  P6  1  0.244303  0.960177  0.253335  1
  P  P7  1  0.244303  0.542186  0.960177  1
  P  P8  1  0.750463  0.470838  0.035647  1
  P  P9  1  0.750463  0.035647  0.743052  1
  P  P10  1  0.750463  0.743052  0.470838  1
  W  W11  1  0.567821  0.144060  0.144060  1
  O  O12  1  0.077345  0.126384  0.286778  1
  O  O13  1  0.077345  0.509494  0.126384  1
  O  O14  1  0.077345  0.286778  0.509494  1
  O  O15  1  0.265231  0.082812  0.721067  1
  O  O16  1  0.419359  0.207750  0.368881  1
  O  O17  1  0.246370  0.430040  0.543292  1
  O  O18  1  0.265231  0.930891  0.082812  1
  O  O19  1  0.246370  0.780298  0.430040  1
  O  O20  1  0.577419  0.629100  0.010393  1
  O  O21  1  0.246370  0.543292  0.780298  1
  O  O22  1  0.725777  0.280932  0.070085  1
  O  O23  1  0.577419  0.010393  0.783087  1
  O  O24  1  0.419359  0.004011  0.207750  1
  O  O25  1  0.265231  0.721067  0.930891  1
  O  O26  1  0.762677  0.435678  0.222964  1
  O  O27  1  0.419359  0.368881  0.004011  1
  O  O28  1  0.762677  0.222964  0.578682  1
  O  O29  1  0.725777  0.070085  0.923205  1
  O  O30  1  0.762677  0.578682  0.435678  1
  O  O31  1  0.577419  0.783087  0.629100  1
  O  O32  1  0.725777  0.923205  0.280932  1
  O  O33  1  0.922359  0.725824  0.483237  1
  O  O34  1  0.922359  0.483237  0.868579  1
  O  O35  1  0.922359  0.868579  0.725824  1
