# generated using pymatgen
data_Yb10InNi4Sn
_symmetry_space_group_name_H-M   'P 1'
_cell_length_a   8.84249989
_cell_length_b   8.84250030
_cell_length_c   8.84250050
_cell_angle_alpha   129.16842675
_cell_angle_beta   129.16843114
_cell_angle_gamma   74.73971533
_symmetry_Int_Tables_number   1
_chemical_formula_structural   Yb10InNi4Sn
_chemical_formula_sum   'Yb10 In1 Ni4 Sn1'
_cell_volume   404.84994169
_cell_formula_units_Z   1
loop_
 _symmetry_equiv_pos_site_id
 _symmetry_equiv_pos_as_xyz
  1  'x, y, z'
loop_
 _atom_site_type_symbol
 _atom_site_label
 _atom_site_symmetry_multiplicity
 _atom_site_fract_x
 _atom_site_fract_y
 _atom_site_fract_z
 _atom_site_occupancy
  Yb  Yb0  1  0.000734  0.000734  0.000000  1
  Yb  Yb1  1  0.499266  0.499266  0.000000  1
  Yb  Yb2  1  0.801789  0.300153  0.838525  1
  Yb  Yb3  1  0.199847  0.698211  0.161475  1
  Yb  Yb4  1  0.461627  0.963263  0.161475  1
  Yb  Yb5  1  0.300153  0.461627  0.498364  1
  Yb  Yb6  1  0.038373  0.199847  0.501636  1
  Yb  Yb7  1  0.536737  0.038373  0.838525  1
  Yb  Yb8  1  0.698211  0.536737  0.498364  1
  Yb  Yb9  1  0.963263  0.801789  0.501636  1
  In  In10  1  0.750000  0.750000  0.000000  1
  Ni  Ni11  1  0.113181  0.613181  0.726363  1
  Ni  Ni12  1  0.886819  0.386819  0.273637  1
  Ni  Ni13  1  0.613181  0.886819  0.500000  1
  Ni  Ni14  1  0.386819  0.113181  0.500000  1
  Sn  Sn15  1  0.250000  0.250000  0.000000  1
