# generated using pymatgen
data_Pm2SO2
_symmetry_space_group_name_H-M   'P 1'
_cell_length_a   3.94171300
_cell_length_b   3.94171310
_cell_length_c   6.80389200
_cell_angle_alpha   90.00000000
_cell_angle_beta   90.00000000
_cell_angle_gamma   119.99999074
_symmetry_Int_Tables_number   1
_chemical_formula_structural   Pm2SO2
_chemical_formula_sum   'Pm2 S1 O2'
_cell_volume   91.54994637
_cell_formula_units_Z   1
loop_
 _symmetry_equiv_pos_site_id
 _symmetry_equiv_pos_as_xyz
  1  'x, y, z'
loop_
 _atom_site_type_symbol
 _atom_site_label
 _atom_site_symmetry_multiplicity
 _atom_site_fract_x
 _atom_site_fract_y
 _atom_site_fract_z
 _atom_site_occupancy
  Pm  Pm0  1  0.666667  0.333333  0.219280  1
  Pm  Pm1  1  0.333333  0.666667  0.780720  1
  S  S2  1  0.000000  0.000000  0.500000  1
  O  O3  1  0.333333  0.666667  0.128778  1
  O  O4  1  0.666667  0.333333  0.871222  1
