# generated using pymatgen
data_GdBi3(SeO5)2
_symmetry_space_group_name_H-M   'P 1'
_cell_length_a   8.78597300
_cell_length_b   8.78597243
_cell_length_c   11.48849800
_cell_angle_alpha   90.00000000
_cell_angle_beta   90.00000000
_cell_angle_gamma   143.21313392
_symmetry_Int_Tables_number   1
_chemical_formula_structural   GdBi3(SeO5)2
_chemical_formula_sum   'Gd2 Bi6 Se4 O20'
_cell_volume   531.07245602
_cell_formula_units_Z   2
loop_
 _symmetry_equiv_pos_site_id
 _symmetry_equiv_pos_as_xyz
  1  'x, y, z'
loop_
 _atom_site_type_symbol
 _atom_site_label
 _atom_site_symmetry_multiplicity
 _atom_site_fract_x
 _atom_site_fract_y
 _atom_site_fract_z
 _atom_site_occupancy
  Gd  Gd0  1  0.736673  0.236673  0.608673  1
  Gd  Gd1  1  0.236673  0.736673  0.391327  1
  Bi  Bi2  1  0.233951  0.733951  0.865324  1
  Bi  Bi3  1  0.733951  0.233951  0.134676  1
  Bi  Bi4  1  0.891710  0.063704  0.393117  1
  Bi  Bi5  1  0.063704  0.891710  0.606883  1
  Bi  Bi6  1  0.391710  0.563704  0.606883  1
  Bi  Bi7  1  0.563704  0.391710  0.393117  1
  Se  Se8  1  0.387518  0.575761  0.148012  1
  Se  Se9  1  0.575761  0.387518  0.851988  1
  Se  Se10  1  0.887518  0.075761  0.851988  1
  Se  Se11  1  0.075761  0.887518  0.148012  1
  O  O12  1  0.148750  0.479037  0.227963  1
  O  O13  1  0.479037  0.148750  0.772037  1
  O  O14  1  0.648750  0.979037  0.772037  1
  O  O15  1  0.979037  0.648750  0.227963  1
  O  O16  1  0.568109  0.895986  0.501510  1
  O  O17  1  0.895986  0.568109  0.498490  1
  O  O18  1  0.068109  0.395986  0.498490  1
  O  O19  1  0.395986  0.068109  0.501510  1
  O  O20  1  0.109003  0.609003  0.697362  1
  O  O21  1  0.609003  0.109003  0.302638  1
  O  O22  1  0.552945  0.855963  0.080288  1
  O  O23  1  0.855963  0.552945  0.919712  1
  O  O24  1  0.175635  0.081558  0.259143  1
  O  O25  1  0.081558  0.175635  0.740857  1
  O  O26  1  0.675635  0.581558  0.740857  1
  O  O27  1  0.581558  0.675635  0.259143  1
  O  O28  1  0.246220  0.246220  0.500000  1
  O  O29  1  0.746220  0.746220  0.500000  1
  O  O30  1  0.355963  0.052945  0.080288  1
  O  O31  1  0.052945  0.355963  0.919712  1
