# generated using pymatgen
data_Tb13Dy3(TlRh)4
_symmetry_space_group_name_H-M   'P 1'
_cell_length_a   9.73346591
_cell_length_b   9.73589831
_cell_length_c   9.74031400
_cell_angle_alpha   59.96446826
_cell_angle_beta   59.96936039
_cell_angle_gamma   59.98222845
_symmetry_Int_Tables_number   1
_chemical_formula_structural   Tb13Dy3(TlRh)4
_chemical_formula_sum   'Tb13 Dy3 Tl4 Rh4'
_cell_volume   652.26763140
_cell_formula_units_Z   1
loop_
 _symmetry_equiv_pos_site_id
 _symmetry_equiv_pos_as_xyz
  1  'x, y, z'
loop_
 _atom_site_type_symbol
 _atom_site_label
 _atom_site_symmetry_multiplicity
 _atom_site_fract_x
 _atom_site_fract_y
 _atom_site_fract_z
 _atom_site_occupancy
  Tb  Tb0  1  0.597811  0.598062  0.598425  1
  Tb  Tb1  1  0.600592  0.600704  0.200158  1
  Tb  Tb2  1  0.600748  0.200610  0.600567  1
  Tb  Tb3  1  0.200228  0.600972  0.600713  1
  Tb  Tb4  1  0.061970  0.437969  0.437705  1
  Tb  Tb5  1  0.437618  0.061933  0.062112  1
  Tb  Tb6  1  0.437506  0.062270  0.437597  1
  Tb  Tb7  1  0.061801  0.437939  0.062012  1
  Tb  Tb8  1  0.437249  0.437640  0.062406  1
  Tb  Tb9  1  0.062022  0.062086  0.437693  1
  Tb  Tb10  1  0.188550  0.812539  0.813102  1
  Tb  Tb11  1  0.811491  0.189295  0.189600  1
  Tb  Tb12  1  0.812331  0.188429  0.812663  1
  Dy  Dy13  1  0.190042  0.810993  0.189663  1
  Dy  Dy14  1  0.811759  0.811463  0.189419  1
  Dy  Dy15  1  0.190477  0.189788  0.811028  1
  Tl  Tl16  1  0.835818  0.835941  0.836056  1
  Tl  Tl17  1  0.835232  0.834659  0.492616  1
  Tl  Tl18  1  0.835224  0.493153  0.834440  1
  Tl  Tl19  1  0.494013  0.834724  0.834421  1
  Rh  Rh20  1  0.392496  0.393251  0.393083  1
  Rh  Rh21  1  0.390992  0.391160  0.822527  1
  Rh  Rh22  1  0.391748  0.822248  0.390905  1
  Rh  Rh23  1  0.822283  0.392176  0.391091  1
