# generated using pymatgen
data_LaTb4Ce(Ni3Bi4)2
_symmetry_space_group_name_H-M   'P 1'
_cell_length_a   8.48522690
_cell_length_b   8.48522684
_cell_length_c   8.48522691
_cell_angle_alpha   110.09187915
_cell_angle_beta   109.16178499
_cell_angle_gamma   109.16178844
_symmetry_Int_Tables_number   1
_chemical_formula_structural   LaTb4Ce(Ni3Bi4)2
_chemical_formula_sum   'La1 Tb4 Ce1 Ni6 Bi8'
_cell_volume   470.25151617
_cell_formula_units_Z   1
loop_
 _symmetry_equiv_pos_site_id
 _symmetry_equiv_pos_as_xyz
  1  'x, y, z'
loop_
 _atom_site_type_symbol
 _atom_site_label
 _atom_site_symmetry_multiplicity
 _atom_site_fract_x
 _atom_site_fract_y
 _atom_site_fract_z
 _atom_site_occupancy
  La  La0  1  0.750000  0.375000  0.625000  1
  Tb  Tb1  1  0.126946  0.875083  0.250785  1
  Tb  Tb2  1  0.373054  0.623840  0.748137  1
  Tb  Tb3  1  0.875703  0.251863  0.124917  1
  Tb  Tb4  1  0.624297  0.749215  0.376160  1
  Ce  Ce5  1  0.250000  0.125000  0.875000  1
  Ni  Ni6  1  0.615981  0.370868  0.237857  1
  Ni  Ni7  1  0.884019  0.121875  0.754886  1
  Ni  Ni8  1  0.366989  0.245114  0.629132  1
  Ni  Ni9  1  0.133011  0.762143  0.878125  1
  Ni  Ni10  1  0.250000  0.625000  0.375000  1
  Ni  Ni11  1  0.750000  0.875000  0.125000  1
  Bi  Bi12  1  0.341595  0.345721  0.345259  1
  Bi  Bi13  1  0.158405  0.503664  0.004126  1
  Bi  Bi14  1  0.997466  0.149225  0.495152  1
  Bi  Bi15  1  0.845927  0.848241  0.850775  1
  Bi  Bi16  1  0.502534  0.997686  0.151759  1
  Bi  Bi17  1  0.654073  0.504848  0.002314  1
  Bi  Bi18  1  0.499538  0.995874  0.654279  1
  Bi  Bi19  1  0.000462  0.654741  0.496336  1
