# generated using pymatgen
data_Nd4Sm6B2Br15
_symmetry_space_group_name_H-M   'P 1'
_cell_length_a   9.34672835
_cell_length_b   10.11110459
_cell_length_c   10.95030103
_cell_angle_alpha   91.24561552
_cell_angle_beta   114.40464527
_cell_angle_gamma   110.84450474
_symmetry_Int_Tables_number   1
_chemical_formula_structural   Nd4Sm6B2Br15
_chemical_formula_sum   'Nd4 Sm6 B2 Br15'
_cell_volume   863.23117474
_cell_formula_units_Z   1
loop_
 _symmetry_equiv_pos_site_id
 _symmetry_equiv_pos_as_xyz
  1  'x, y, z'
loop_
 _atom_site_type_symbol
 _atom_site_label
 _atom_site_symmetry_multiplicity
 _atom_site_fract_x
 _atom_site_fract_y
 _atom_site_fract_z
 _atom_site_occupancy
  Nd  Nd0  1  0.801961  0.410411  0.277904  1
  Nd  Nd1  1  0.198039  0.589589  0.722096  1
  Nd  Nd2  1  0.674423  0.746007  0.818876  1
  Nd  Nd3  1  0.325577  0.253993  0.181124  1
  Sm  Sm4  1  0.525354  0.705212  0.095221  1
  Sm  Sm5  1  0.474646  0.294788  0.904779  1
  Sm  Sm6  1  0.585339  0.039237  0.323296  1
  Sm  Sm7  1  0.414661  0.960763  0.676704  1
  Sm  Sm8  1  0.723518  0.074823  0.048131  1
  Sm  Sm9  1  0.276482  0.925177  0.951869  1
  B  B10  1  0.467280  0.820500  0.877656  1
  B  B11  1  0.532720  0.179500  0.122344  1
  Br  Br12  1  0.000000  0.000000  0.000000  1
  Br  Br13  1  0.635075  0.885671  0.581703  1
  Br  Br14  1  0.364925  0.114329  0.418297  1
  Br  Br15  1  0.880980  0.294631  0.528639  1
  Br  Br16  1  0.119020  0.705369  0.471361  1
  Br  Br17  1  0.291271  0.762767  0.178896  1
  Br  Br18  1  0.708729  0.237233  0.821104  1
  Br  Br19  1  0.053526  0.340395  0.224849  1
  Br  Br20  1  0.166731  0.057593  0.704433  1
  Br  Br21  1  0.833269  0.942407  0.295567  1
  Br  Br22  1  0.234415  0.410885  0.944630  1
  Br  Br23  1  0.765585  0.589115  0.055370  1
  Br  Br24  1  0.408064  0.458627  0.659745  1
  Br  Br25  1  0.591936  0.541373  0.340255  1
  Br  Br26  1  0.946474  0.659605  0.775151  1
