# generated using pymatgen
data_Er20Bi8Ir3Ru
_symmetry_space_group_name_H-M   'P 1'
_cell_length_a   7.93303442
_cell_length_b   8.97176300
_cell_length_c   12.41913589
_cell_angle_alpha   90.00000000
_cell_angle_beta   89.97078494
_cell_angle_gamma   90.00000000
_symmetry_Int_Tables_number   1
_chemical_formula_structural   Er20Bi8Ir3Ru
_chemical_formula_sum   'Er20 Bi8 Ir3 Ru1'
_cell_volume   883.91082707
_cell_formula_units_Z   1
loop_
 _symmetry_equiv_pos_site_id
 _symmetry_equiv_pos_as_xyz
  1  'x, y, z'
loop_
 _atom_site_type_symbol
 _atom_site_label
 _atom_site_symmetry_multiplicity
 _atom_site_fract_x
 _atom_site_fract_y
 _atom_site_fract_z
 _atom_site_occupancy
  Er  Er0  1  0.658893  0.750000  0.704731  1
  Er  Er1  1  0.338506  0.250000  0.292466  1
  Er  Er2  1  0.161385  0.250000  0.793398  1
  Er  Er3  1  0.838251  0.750000  0.207520  1
  Er  Er4  1  0.122763  0.750000  0.808712  1
  Er  Er5  1  0.875594  0.250000  0.191058  1
  Er  Er6  1  0.623601  0.250000  0.691695  1
  Er  Er7  1  0.377497  0.750000  0.310772  1
  Er  Er8  1  0.557078  0.750000  0.997525  1
  Er  Er9  1  0.446610  0.250000  0.001632  1
  Er  Er10  1  0.056634  0.250000  0.501784  1
  Er  Er11  1  0.948208  0.750000  0.497622  1
  Er  Er12  1  0.825555  0.456120  0.933344  1
  Er  Er13  1  0.175077  0.541877  0.066399  1
  Er  Er14  1  0.323899  0.542895  0.566283  1
  Er  Er15  1  0.175077  0.958123  0.066399  1
  Er  Er16  1  0.673554  0.459788  0.434985  1
  Er  Er17  1  0.825555  0.043880  0.933344  1
  Er  Er18  1  0.673554  0.040212  0.434985  1
  Er  Er19  1  0.323899  0.957105  0.566283  1
  Bi  Bi20  1  0.932766  0.008937  0.671993  1
  Bi  Bi21  1  0.066580  0.991207  0.327551  1
  Bi  Bi22  1  0.433606  0.990733  0.826841  1
  Bi  Bi23  1  0.066580  0.508793  0.327551  1
  Bi  Bi24  1  0.565816  0.007955  0.173144  1
  Bi  Bi25  1  0.932766  0.491063  0.671993  1
  Bi  Bi26  1  0.565816  0.492045  0.173144  1
  Bi  Bi27  1  0.433606  0.509267  0.826841  1
  Ir  Ir28  1  0.928716  0.750000  0.991840  1
  Ir  Ir29  1  0.072688  0.250000  0.009056  1
  Ir  Ir30  1  0.427728  0.250000  0.508657  1
  Ru  Ru31  1  0.572145  0.750000  0.490450  1
