# generated using pymatgen
data_Gd4C2SI
_symmetry_space_group_name_H-M   'P 1'
_cell_length_a   3.78525800
_cell_length_b   3.78525749
_cell_length_c   14.10323500
_cell_angle_alpha   90.00000000
_cell_angle_beta   90.00000000
_cell_angle_gamma   120.00000445
_symmetry_Int_Tables_number   1
_chemical_formula_structural   Gd4C2SI
_chemical_formula_sum   'Gd4 C2 S1 I1'
_cell_volume   175.00089442
_cell_formula_units_Z   1
loop_
 _symmetry_equiv_pos_site_id
 _symmetry_equiv_pos_as_xyz
  1  'x, y, z'
loop_
 _atom_site_type_symbol
 _atom_site_label
 _atom_site_symmetry_multiplicity
 _atom_site_fract_x
 _atom_site_fract_y
 _atom_site_fract_z
 _atom_site_occupancy
  Gd  Gd0  1  0.333333  0.666667  0.571122  1
  Gd  Gd1  1  0.666667  0.333333  0.383248  1
  Gd  Gd2  1  0.666667  0.333333  0.116752  1
  Gd  Gd3  1  0.333333  0.666667  0.928878  1
  C  C4  1  0.000000  0.000000  0.014132  1
  C  C5  1  0.000000  0.000000  0.485868  1
  S  S6  1  0.333333  0.666667  0.250000  1
  I  I7  1  0.666667  0.333333  0.750000  1
