# generated using pymatgen
data_Y3Er7(In2Ni)4
_symmetry_space_group_name_H-M   'P 1'
_cell_length_a   3.56047000
_cell_length_b   8.04929890
_cell_length_c   17.92612815
_cell_angle_alpha   89.94491006
_cell_angle_beta   90.00000000
_cell_angle_gamma   90.00000000
_symmetry_Int_Tables_number   1
_chemical_formula_structural   Y3Er7(In2Ni)4
_chemical_formula_sum   'Y3 Er7 In8 Ni4'
_cell_volume   513.74981825
_cell_formula_units_Z   1
loop_
 _symmetry_equiv_pos_site_id
 _symmetry_equiv_pos_as_xyz
  1  'x, y, z'
loop_
 _atom_site_type_symbol
 _atom_site_label
 _atom_site_symmetry_multiplicity
 _atom_site_fract_x
 _atom_site_fract_y
 _atom_site_fract_z
 _atom_site_occupancy
  Y  Y0  1  0.000000  0.500158  0.500007  1
  Y  Y1  1  0.000000  0.999865  0.999606  1
  Y  Y2  1  0.000000  0.747640  0.280414  1
  Er  Er3  1  0.000000  0.251654  0.720322  1
  Er  Er4  1  0.000000  0.751243  0.779590  1
  Er  Er5  1  0.000000  0.248015  0.220014  1
  Er  Er6  1  0.000000  0.619558  0.088807  1
  Er  Er7  1  0.000000  0.380201  0.910573  1
  Er  Er8  1  0.000000  0.880678  0.589403  1
  Er  Er9  1  0.000000  0.120206  0.411697  1
  In  In10  1  0.500000  0.700889  0.932076  1
  In  In11  1  0.500000  0.299083  0.067526  1
  In  In12  1  0.500000  0.800633  0.433600  1
  In  In13  1  0.500000  0.201351  0.568489  1
  In  In14  1  0.500000  0.571500  0.652935  1
  In  In15  1  0.500000  0.425896  0.346975  1
  In  In16  1  0.500000  0.929359  0.152700  1
  In  In17  1  0.500000  0.070965  0.846624  1
  Ni  Ni18  1  0.500000  0.525634  0.195458  1
  Ni  Ni19  1  0.500000  0.471027  0.803340  1
  Ni  Ni20  1  0.500000  0.971231  0.696480  1
  Ni  Ni21  1  0.500000  0.033214  0.303364  1
