# generated using pymatgen
data_Tb5Ho5(TlSb)3
_symmetry_space_group_name_H-M   'P 1'
_cell_length_a   9.00338400
_cell_length_b   8.97338407
_cell_length_c   6.55311500
_cell_angle_alpha   90.00000000
_cell_angle_beta   90.00000000
_cell_angle_gamma   120.11065436
_symmetry_Int_Tables_number   1
_chemical_formula_structural   Tb5Ho5(TlSb)3
_chemical_formula_sum   'Tb5 Ho5 Tl3 Sb3'
_cell_volume   457.98907688
_cell_formula_units_Z   1
loop_
 _symmetry_equiv_pos_site_id
 _symmetry_equiv_pos_as_xyz
  1  'x, y, z'
loop_
 _atom_site_type_symbol
 _atom_site_label
 _atom_site_symmetry_multiplicity
 _atom_site_fract_x
 _atom_site_fract_y
 _atom_site_fract_z
 _atom_site_occupancy
  Tb  Tb0  1  0.760420  0.000000  0.750000  1
  Tb  Tb1  1  0.762972  0.759640  0.250000  1
  Tb  Tb2  1  0.003331  0.240360  0.250000  1
  Tb  Tb3  1  0.002326  0.762670  0.750000  1
  Tb  Tb4  1  0.239657  0.237330  0.750000  1
  Ho  Ho5  1  0.330974  0.666128  0.000749  1
  Ho  Ho6  1  0.664848  0.333872  0.499251  1
  Ho  Ho7  1  0.664848  0.333872  0.000749  1
  Ho  Ho8  1  0.330974  0.666128  0.499251  1
  Ho  Ho9  1  0.238513  0.000000  0.250000  1
  Tl  Tl10  1  0.396958  0.000000  0.750000  1
  Tl  Tl11  1  0.395322  0.396251  0.250000  1
  Tl  Tl12  1  0.999069  0.603749  0.250000  1
  Sb  Sb13  1  0.997664  0.392327  0.750000  1
  Sb  Sb14  1  0.605336  0.607673  0.750000  1
  Sb  Sb15  1  0.606788  0.000000  0.250000  1
