# generated using pymatgen
data_CeTcSb3
_symmetry_space_group_name_H-M   'P 1'
_cell_length_a   6.14039900
_cell_length_b   6.25230400
_cell_length_c   12.65596900
_cell_angle_alpha   90.00000000
_cell_angle_beta   90.00000000
_cell_angle_gamma   90.00000000
_symmetry_Int_Tables_number   1
_chemical_formula_structural   CeTcSb3
_chemical_formula_sum   'Ce4 Tc4 Sb12'
_cell_volume   485.88342126
_cell_formula_units_Z   4
loop_
 _symmetry_equiv_pos_site_id
 _symmetry_equiv_pos_as_xyz
  1  'x, y, z'
loop_
 _atom_site_type_symbol
 _atom_site_label
 _atom_site_symmetry_multiplicity
 _atom_site_fract_x
 _atom_site_fract_y
 _atom_site_fract_z
 _atom_site_occupancy
  Ce  Ce0  1  0.250000  0.492369  0.302710  1
  Ce  Ce1  1  0.750000  0.507631  0.697290  1
  Ce  Ce2  1  0.250000  0.992369  0.697290  1
  Ce  Ce3  1  0.750000  0.007631  0.302710  1
  Tc  Tc4  1  0.000000  0.750000  0.895821  1
  Tc  Tc5  1  0.000000  0.250000  0.104179  1
  Tc  Tc6  1  0.500000  0.250000  0.104179  1
  Tc  Tc7  1  0.500000  0.750000  0.895821  1
  Sb  Sb8  1  0.000000  0.750000  0.501258  1
  Sb  Sb9  1  0.000000  0.250000  0.498742  1
  Sb  Sb10  1  0.500000  0.250000  0.498742  1
  Sb  Sb11  1  0.500000  0.750000  0.501258  1
  Sb  Sb12  1  0.250000  0.600085  0.059253  1
  Sb  Sb13  1  0.750000  0.399915  0.940747  1
  Sb  Sb14  1  0.250000  0.100085  0.940747  1
  Sb  Sb15  1  0.750000  0.899915  0.059253  1
  Sb  Sb16  1  0.250000  0.986365  0.224676  1
  Sb  Sb17  1  0.750000  0.013635  0.775324  1
  Sb  Sb18  1  0.250000  0.486365  0.775324  1
  Sb  Sb19  1  0.750000  0.513635  0.224676  1
