# generated using pymatgen
data_Dy15Lu5(Bi2Sb)4
_symmetry_space_group_name_H-M   'P 1'
_cell_length_a   8.16921542
_cell_length_b   9.38001703
_cell_length_c   11.97905049
_cell_angle_alpha   90.00410756
_cell_angle_beta   90.08760738
_cell_angle_gamma   90.00871766
_symmetry_Int_Tables_number   1
_chemical_formula_structural   Dy15Lu5(Bi2Sb)4
_chemical_formula_sum   'Dy15 Lu5 Bi8 Sb4'
_cell_volume   917.92216578
_cell_formula_units_Z   1
loop_
 _symmetry_equiv_pos_site_id
 _symmetry_equiv_pos_as_xyz
  1  'x, y, z'
loop_
 _atom_site_type_symbol
 _atom_site_label
 _atom_site_symmetry_multiplicity
 _atom_site_fract_x
 _atom_site_fract_y
 _atom_site_fract_z
 _atom_site_occupancy
  Dy  Dy0  1  0.188665  0.563019  0.442263  1
  Dy  Dy1  1  0.687930  0.936587  0.057482  1
  Dy  Dy2  1  0.811727  0.063116  0.557768  1
  Dy  Dy3  1  0.027516  0.749976  0.988397  1
  Dy  Dy4  1  0.526974  0.750517  0.511894  1
  Dy  Dy5  1  0.973574  0.250299  0.011439  1
  Dy  Dy6  1  0.472720  0.250029  0.488452  1
  Dy  Dy7  1  0.182432  0.750502  0.717000  1
  Dy  Dy8  1  0.682639  0.749577  0.783175  1
  Dy  Dy9  1  0.817630  0.250517  0.282859  1
  Dy  Dy10  1  0.317625  0.250125  0.216380  1
  Dy  Dy11  1  0.853544  0.750297  0.285944  1
  Dy  Dy12  1  0.353511  0.750100  0.214002  1
  Dy  Dy13  1  0.147517  0.251098  0.714172  1
  Dy  Dy14  1  0.645926  0.250668  0.786505  1
  Lu  Lu15  1  0.312022  0.434413  0.942520  1
  Lu  Lu16  1  0.813011  0.434144  0.557681  1
  Lu  Lu17  1  0.312754  0.066010  0.942519  1
  Lu  Lu18  1  0.187065  0.934193  0.442280  1
  Lu  Lu19  1  0.687637  0.565594  0.057649  1
  Bi  Bi20  1  0.934108  0.495905  0.825568  1
  Bi  Bi21  1  0.433669  0.004373  0.675020  1
  Bi  Bi22  1  0.066373  0.996035  0.174681  1
  Bi  Bi23  1  0.565876  0.504318  0.324961  1
  Bi  Bi24  1  0.065658  0.504229  0.174694  1
  Bi  Bi25  1  0.565771  0.996368  0.324995  1
  Bi  Bi26  1  0.934124  0.004198  0.825302  1
  Bi  Bi27  1  0.433668  0.496377  0.675215  1
  Sb  Sb28  1  0.905839  0.747652  0.541852  1
  Sb  Sb29  1  0.404764  0.749015  0.957519  1
  Sb  Sb30  1  0.094100  0.247583  0.458294  1
  Sb  Sb31  1  0.593630  0.253165  0.041517  1
