# generated using pymatgen
data_MnCo(PO3)4
_symmetry_space_group_name_H-M   'P 1'
_cell_length_a   7.38506598
_cell_length_b   7.38506540
_cell_length_c   10.13911907
_cell_angle_alpha   67.15613178
_cell_angle_beta   67.15613168
_cell_angle_gamma   70.43103123
_symmetry_Int_Tables_number   1
_chemical_formula_structural   MnCo(PO3)4
_chemical_formula_sum   'Mn2 Co2 P8 O24'
_cell_volume   458.45448685
_cell_formula_units_Z   2
loop_
 _symmetry_equiv_pos_site_id
 _symmetry_equiv_pos_as_xyz
  1  'x, y, z'
loop_
 _atom_site_type_symbol
 _atom_site_label
 _atom_site_symmetry_multiplicity
 _atom_site_fract_x
 _atom_site_fract_y
 _atom_site_fract_z
 _atom_site_occupancy
  Mn  Mn0  1  0.450979  0.549021  0.250000  1
  Mn  Mn1  1  0.549021  0.450979  0.750000  1
  Co  Co2  1  0.000000  0.500000  0.500000  1
  Co  Co3  1  0.500000  0.000000  0.000000  1
  P  P4  1  0.759937  0.225242  0.476252  1
  P  P5  1  0.774758  0.240063  0.023748  1
  P  P6  1  0.240063  0.774758  0.523748  1
  P  P7  1  0.225242  0.759937  0.976252  1
  P  P8  1  0.200272  0.185229  0.304491  1
  P  P9  1  0.814771  0.799728  0.195509  1
  P  P10  1  0.799728  0.814771  0.695509  1
  P  P11  1  0.185229  0.200272  0.804491  1
  O  O12  1  0.593504  0.338242  0.409324  1
  O  O13  1  0.661758  0.406496  0.090676  1
  O  O14  1  0.406496  0.661758  0.590676  1
  O  O15  1  0.338242  0.593504  0.909324  1
  O  O16  1  0.797021  0.307787  0.577835  1
  O  O17  1  0.692213  0.202979  0.922165  1
  O  O18  1  0.202979  0.692213  0.422165  1
  O  O19  1  0.307787  0.797021  0.077835  1
  O  O20  1  0.966395  0.186100  0.344612  1
  O  O21  1  0.813900  0.033605  0.155388  1
  O  O22  1  0.033605  0.813900  0.655388  1
  O  O23  1  0.186100  0.966395  0.844612  1
  O  O24  1  0.307141  0.151385  0.155526  1
  O  O25  1  0.848615  0.692859  0.344474  1
  O  O26  1  0.692859  0.848615  0.844474  1
  O  O27  1  0.151385  0.307141  0.655526  1
  O  O28  1  0.213091  0.372461  0.326471  1
  O  O29  1  0.627539  0.786909  0.173529  1
  O  O30  1  0.786909  0.627539  0.673529  1
  O  O31  1  0.372461  0.213091  0.826471  1
  O  O32  1  0.275997  0.999362  0.435186  1
  O  O33  1  0.000638  0.724003  0.064814  1
  O  O34  1  0.724003  0.000638  0.564814  1
  O  O35  1  0.999362  0.275997  0.935186  1
