# generated using pymatgen
data_ZrTa(CoH3)2
_symmetry_space_group_name_H-M   'P 1'
_cell_length_a   5.36970133
_cell_length_b   5.36970136
_cell_length_c   4.27681700
_cell_angle_alpha   90.00000000
_cell_angle_beta   90.00000000
_cell_angle_gamma   142.39258817
_symmetry_Int_Tables_number   1
_chemical_formula_structural   ZrTa(CoH3)2
_chemical_formula_sum   'Zr1 Ta1 Co2 H6'
_cell_volume   75.25355941
_cell_formula_units_Z   1
loop_
 _symmetry_equiv_pos_site_id
 _symmetry_equiv_pos_as_xyz
  1  'x, y, z'
loop_
 _atom_site_type_symbol
 _atom_site_label
 _atom_site_symmetry_multiplicity
 _atom_site_fract_x
 _atom_site_fract_y
 _atom_site_fract_z
 _atom_site_occupancy
  Zr  Zr0  1  0.364534  0.635466  0.750000  1
  Ta  Ta1  1  0.635061  0.364939  0.250000  1
  Co  Co2  1  0.073655  0.926345  0.750000  1
  Co  Co3  1  0.931754  0.068246  0.250000  1
  H  H4  1  0.580320  0.419680  0.750000  1
  H  H5  1  0.184762  0.815238  0.478731  1
  H  H6  1  0.184762  0.815238  0.021269  1
  H  H7  1  0.806270  0.193730  0.010334  1
  H  H8  1  0.806270  0.193730  0.489666  1
  H  H9  1  0.432613  0.567387  0.250000  1
