# generated using pymatgen
data_Li4Ni9As5P2Ru
_symmetry_space_group_name_H-M   'P 1'
_cell_length_a   9.34250610
_cell_length_b   9.37318787
_cell_length_c   3.68578900
_cell_angle_alpha   90.00000000
_cell_angle_beta   90.00000000
_cell_angle_gamma   120.45665722
_symmetry_Int_Tables_number   1
_chemical_formula_structural   Li4Ni9As5P2Ru
_chemical_formula_sum   'Li4 Ni9 As5 P2 Ru1'
_cell_volume   278.22421342
_cell_formula_units_Z   1
loop_
 _symmetry_equiv_pos_site_id
 _symmetry_equiv_pos_as_xyz
  1  'x, y, z'
loop_
 _atom_site_type_symbol
 _atom_site_label
 _atom_site_symmetry_multiplicity
 _atom_site_fract_x
 _atom_site_fract_y
 _atom_site_fract_z
 _atom_site_occupancy
  Li  Li0  1  0.440149  0.212807  0.500000  1
  Li  Li1  1  0.791479  0.232486  0.500000  1
  Li  Li2  1  0.351732  0.669368  0.000000  1
  Li  Li3  1  0.993599  0.983152  0.500000  1
  Ni  Ni4  1  0.290070  0.390615  0.500000  1
  Ni  Ni5  1  0.615345  0.885439  0.500000  1
  Ni  Ni6  1  0.090430  0.725769  0.500000  1
  Ni  Ni7  1  0.500187  0.458998  0.000000  1
  Ni  Ni8  1  0.547111  0.050125  0.000000  1
  Ni  Ni9  1  0.955141  0.506598  0.000000  1
  Ni  Ni10  1  0.727334  0.759556  0.000000  1
  Ni  Ni11  1  0.223900  0.949292  0.000000  1
  Ni  Ni12  1  0.044892  0.288775  0.000000  1
  As  As13  1  0.237806  0.205752  0.000000  1
  As  As14  1  0.793722  0.034292  0.000000  1
  As  As15  1  0.668803  0.340172  0.000000  1
  As  As16  1  0.372318  0.911102  0.500000  1
  As  As17  1  0.093943  0.473071  0.500000  1
  P  P18  1  0.957095  0.747641  0.000000  1
  P  P19  1  0.548523  0.623014  0.500000  1
  Ru  Ru20  1  0.756424  0.551977  0.500000  1
