# generated using pymatgen
data_Y3In3CuHgRu
_symmetry_space_group_name_H-M   'P 1'
_cell_length_a   7.71685300
_cell_length_b   7.71685385
_cell_length_c   3.93375300
_cell_angle_alpha   90.00000000
_cell_angle_beta   90.00000000
_cell_angle_gamma   119.99999209
_symmetry_Int_Tables_number   1
_chemical_formula_structural   Y3In3CuHgRu
_chemical_formula_sum   'Y3 In3 Cu1 Hg1 Ru1'
_cell_volume   202.87019924
_cell_formula_units_Z   1
loop_
 _symmetry_equiv_pos_site_id
 _symmetry_equiv_pos_as_xyz
  1  'x, y, z'
loop_
 _atom_site_type_symbol
 _atom_site_label
 _atom_site_symmetry_multiplicity
 _atom_site_fract_x
 _atom_site_fract_y
 _atom_site_fract_z
 _atom_site_occupancy
  Y  Y0  1  0.393893  0.971025  0.500000  1
  Y  Y1  1  0.028975  0.422869  0.500000  1
  Y  Y2  1  0.577131  0.606107  0.500000  1
  In  In3  1  0.747772  0.991939  0.000000  1
  In  In4  1  0.008061  0.755833  0.000000  1
  In  In5  1  0.244167  0.252228  0.000000  1
  Cu  Cu6  1  0.000000  0.000000  0.500000  1
  Hg  Hg7  1  0.666667  0.333333  0.000000  1
  Ru  Ru8  1  0.333333  0.666667  0.000000  1
