# generated using pymatgen
data_Ho3Tm2(In2Rh)2
_symmetry_space_group_name_H-M   'P 1'
_cell_length_a   3.61295100
_cell_length_b   7.97546900
_cell_length_c   18.24688000
_cell_angle_alpha   90.00000000
_cell_angle_beta   90.00000000
_cell_angle_gamma   90.00000000
_symmetry_Int_Tables_number   1
_chemical_formula_structural   Ho3Tm2(In2Rh)2
_chemical_formula_sum   'Ho6 Tm4 In8 Rh4'
_cell_volume   525.78345852
_cell_formula_units_Z   2
loop_
 _symmetry_equiv_pos_site_id
 _symmetry_equiv_pos_as_xyz
  1  'x, y, z'
loop_
 _atom_site_type_symbol
 _atom_site_label
 _atom_site_symmetry_multiplicity
 _atom_site_fract_x
 _atom_site_fract_y
 _atom_site_fract_z
 _atom_site_occupancy
  Ho  Ho0  1  0.000000  0.000000  0.000000  1
  Ho  Ho1  1  0.000000  0.500000  0.500000  1
  Ho  Ho2  1  0.000000  0.746843  0.779941  1
  Ho  Ho3  1  0.000000  0.253157  0.220059  1
  Ho  Ho4  1  0.000000  0.246843  0.720059  1
  Ho  Ho5  1  0.000000  0.753157  0.279941  1
  Tm  Tm6  1  0.000000  0.878520  0.589850  1
  Tm  Tm7  1  0.000000  0.121480  0.410150  1
  Tm  Tm8  1  0.000000  0.378520  0.910150  1
  Tm  Tm9  1  0.000000  0.621480  0.089850  1
  In  In10  1  0.500000  0.799490  0.434210  1
  In  In11  1  0.500000  0.200510  0.565790  1
  In  In12  1  0.500000  0.299490  0.065790  1
  In  In13  1  0.500000  0.700510  0.934210  1
  In  In14  1  0.500000  0.932247  0.150443  1
  In  In15  1  0.500000  0.067753  0.849557  1
  In  In16  1  0.500000  0.432247  0.349557  1
  In  In17  1  0.500000  0.567753  0.650443  1
  Rh  Rh18  1  0.500000  0.968396  0.694895  1
  Rh  Rh19  1  0.500000  0.031604  0.305105  1
  Rh  Rh20  1  0.500000  0.468396  0.805105  1
  Rh  Rh21  1  0.500000  0.531604  0.194895  1
