# generated using pymatgen
data_Rb3Al4(CuP3)2
_symmetry_space_group_name_H-M   'P 1'
_cell_length_a   9.39932768
_cell_length_b   9.39932652
_cell_length_c   9.39932730
_cell_angle_alpha   155.98211876
_cell_angle_beta   82.85114359
_cell_angle_gamma   102.18267073
_symmetry_Int_Tables_number   1
_chemical_formula_structural   Rb3Al4(CuP3)2
_chemical_formula_sum   'Rb3 Al4 Cu2 P6'
_cell_volume   325.47526973
_cell_formula_units_Z   1
loop_
 _symmetry_equiv_pos_site_id
 _symmetry_equiv_pos_as_xyz
  1  'x, y, z'
loop_
 _atom_site_type_symbol
 _atom_site_label
 _atom_site_symmetry_multiplicity
 _atom_site_fract_x
 _atom_site_fract_y
 _atom_site_fract_z
 _atom_site_occupancy
  Rb  Rb0  1  0.336054  0.336043  0.999992  1
  Rb  Rb1  1  0.666414  0.666391  0.000006  1
  Rb  Rb2  1  0.997670  0.997655  0.000000  1
  Al  Al3  1  0.569279  0.824434  0.744826  1
  Al  Al4  1  0.253172  0.508804  0.744350  1
  Al  Al5  1  0.764521  0.508832  0.255668  1
  Al  Al6  1  0.079610  0.824411  0.255179  1
  Cu  Cu7  1  0.411078  0.166724  0.244754  1
  Cu  Cu8  1  0.921993  0.166554  0.755288  1
  P  P9  1  0.307739  0.666861  0.640860  1
  P  P10  1  0.681832  0.335482  0.346330  1
  P  P11  1  0.989209  0.335484  0.653706  1
  P  P12  1  0.343670  0.997734  0.345913  1
  P  P13  1  0.025893  0.666863  0.359007  1
  P  P14  1  0.651868  0.997728  0.654119  1
