# generated using pymatgen
data_Yb6Al16Os7
_symmetry_space_group_name_H-M   'P 1'
_cell_length_a   8.94611351
_cell_length_b   8.94611319
_cell_length_c   8.94611400
_cell_angle_alpha   60.00000442
_cell_angle_beta   60.00000558
_cell_angle_gamma   60.00000042
_symmetry_Int_Tables_number   1
_chemical_formula_structural   Yb6Al16Os7
_chemical_formula_sum   'Yb6 Al16 Os7'
_cell_volume   506.27706955
_cell_formula_units_Z   1
loop_
 _symmetry_equiv_pos_site_id
 _symmetry_equiv_pos_as_xyz
  1  'x, y, z'
loop_
 _atom_site_type_symbol
 _atom_site_label
 _atom_site_symmetry_multiplicity
 _atom_site_fract_x
 _atom_site_fract_y
 _atom_site_fract_z
 _atom_site_occupancy
  Yb  Yb0  1  0.708628  0.708628  0.291372  1
  Yb  Yb1  1  0.291372  0.708628  0.291372  1
  Yb  Yb2  1  0.708628  0.291372  0.291372  1
  Yb  Yb3  1  0.291372  0.291372  0.708628  1
  Yb  Yb4  1  0.708628  0.291372  0.708628  1
  Yb  Yb5  1  0.291372  0.708628  0.708628  1
  Al  Al6  1  0.880783  0.880783  0.357651  1
  Al  Al7  1  0.880783  0.357651  0.880783  1
  Al  Al8  1  0.357651  0.880783  0.880783  1
  Al  Al9  1  0.880783  0.880783  0.880783  1
  Al  Al10  1  0.119217  0.119217  0.642349  1
  Al  Al11  1  0.119217  0.642349  0.119217  1
  Al  Al12  1  0.642349  0.119217  0.119217  1
  Al  Al13  1  0.119217  0.119217  0.119217  1
  Al  Al14  1  0.670972  0.670972  0.987086  1
  Al  Al15  1  0.670972  0.987086  0.670972  1
  Al  Al16  1  0.987086  0.670972  0.670972  1
  Al  Al17  1  0.670972  0.670972  0.670972  1
  Al  Al18  1  0.329028  0.329028  0.012914  1
  Al  Al19  1  0.329028  0.012914  0.329028  1
  Al  Al20  1  0.012914  0.329028  0.329028  1
  Al  Al21  1  0.329028  0.329028  0.329028  1
  Os  Os22  1  0.000000  0.000000  0.000000  1
  Os  Os23  1  0.000000  0.000000  0.500000  1
  Os  Os24  1  0.500000  0.000000  0.500000  1
  Os  Os25  1  0.000000  0.500000  0.500000  1
  Os  Os26  1  0.500000  0.500000  0.000000  1
  Os  Os27  1  0.000000  0.500000  0.000000  1
  Os  Os28  1  0.500000  0.000000  0.000000  1
