# generated using pymatgen
data_La2Ga5Ir3
_symmetry_space_group_name_H-M   'P 1'
_cell_length_a   8.71951586
_cell_length_b   8.71951592
_cell_length_c   8.71951505
_cell_angle_alpha   140.64559619
_cell_angle_beta   107.66699100
_cell_angle_gamma   85.59979479
_symmetry_Int_Tables_number   1
_chemical_formula_structural   La2Ga5Ir3
_chemical_formula_sum   'La4 Ga10 Ir6'
_cell_volume   386.62879525
_cell_formula_units_Z   2
loop_
 _symmetry_equiv_pos_site_id
 _symmetry_equiv_pos_as_xyz
  1  'x, y, z'
loop_
 _atom_site_type_symbol
 _atom_site_label
 _atom_site_symmetry_multiplicity
 _atom_site_fract_x
 _atom_site_fract_y
 _atom_site_fract_z
 _atom_site_occupancy
  La  La0  1  0.095030  0.865179  0.229850  1
  La  La1  1  0.635330  0.365179  0.270150  1
  La  La2  1  0.904970  0.134821  0.770150  1
  La  La3  1  0.364670  0.634821  0.729850  1
  Ga  Ga4  1  0.289334  0.039334  0.750000  1
  Ga  Ga5  1  0.289334  0.539334  0.250000  1
  Ga  Ga6  1  0.000000  0.250000  0.250000  1
  Ga  Ga7  1  0.240877  0.405843  0.835034  1
  Ga  Ga8  1  0.759123  0.594157  0.164966  1
  Ga  Ga9  1  0.710666  0.460666  0.750000  1
  Ga  Ga10  1  0.570810  0.905843  0.664966  1
  Ga  Ga11  1  0.710666  0.960666  0.250000  1
  Ga  Ga12  1  0.429190  0.094157  0.335034  1
  Ga  Ga13  1  0.000000  0.750000  0.750000  1
  Ir  Ir14  1  0.045925  0.646144  0.399781  1
  Ir  Ir15  1  0.753637  0.853856  0.899781  1
  Ir  Ir16  1  0.954075  0.353856  0.600219  1
  Ir  Ir17  1  0.246363  0.146144  0.100219  1
  Ir  Ir18  1  0.500000  0.750000  0.250000  1
  Ir  Ir19  1  0.500000  0.250000  0.750000  1
