# generated using pymatgen
data_Hf2Fe5B2W
_symmetry_space_group_name_H-M   'P 1'
_cell_length_a   8.92888700
_cell_length_b   8.92888700
_cell_length_c   2.96893300
_cell_angle_alpha   90.00000000
_cell_angle_beta   90.00000000
_cell_angle_gamma   90.00000000
_symmetry_Int_Tables_number   1
_chemical_formula_structural   Hf2Fe5B2W
_chemical_formula_sum   'Hf4 Fe10 B4 W2'
_cell_volume   236.69825188
_cell_formula_units_Z   2
loop_
 _symmetry_equiv_pos_site_id
 _symmetry_equiv_pos_as_xyz
  1  'x, y, z'
loop_
 _atom_site_type_symbol
 _atom_site_label
 _atom_site_symmetry_multiplicity
 _atom_site_fract_x
 _atom_site_fract_y
 _atom_site_fract_z
 _atom_site_occupancy
  Hf  Hf0  1  0.825572  0.325572  0.000000  1
  Hf  Hf1  1  0.325572  0.174428  0.000000  1
  Hf  Hf2  1  0.674428  0.825572  0.000000  1
  Hf  Hf3  1  0.174428  0.674428  0.000000  1
  Fe  Fe4  1  0.500000  0.000000  0.500000  1
  Fe  Fe5  1  0.000000  0.500000  0.500000  1
  Fe  Fe6  1  0.069181  0.219407  0.500000  1
  Fe  Fe7  1  0.219407  0.930819  0.500000  1
  Fe  Fe8  1  0.780593  0.069181  0.500000  1
  Fe  Fe9  1  0.930819  0.780593  0.500000  1
  Fe  Fe10  1  0.430819  0.719407  0.500000  1
  Fe  Fe11  1  0.569181  0.280593  0.500000  1
  Fe  Fe12  1  0.719407  0.569181  0.500000  1
  Fe  Fe13  1  0.280593  0.430819  0.500000  1
  B  B14  1  0.618910  0.118910  0.000000  1
  B  B15  1  0.118910  0.381090  0.000000  1
  B  B16  1  0.881090  0.618910  0.000000  1
  B  B17  1  0.381090  0.881090  0.000000  1
  W  W18  1  0.000000  0.000000  0.000000  1
  W  W19  1  0.500000  0.500000  0.000000  1
