# generated using pymatgen
data_TbHo2Ta(Co4P3)2
_symmetry_space_group_name_H-M   'P 1'
_cell_length_a   3.70521300
_cell_length_b   10.63885600
_cell_length_c   12.33560200
_cell_angle_alpha   90.00000000
_cell_angle_beta   90.00000000
_cell_angle_gamma   90.00000000
_symmetry_Int_Tables_number   1
_chemical_formula_structural   TbHo2Ta(Co4P3)2
_chemical_formula_sum   'Tb2 Ho4 Ta2 Co16 P12'
_cell_volume   486.25990228
_cell_formula_units_Z   2
loop_
 _symmetry_equiv_pos_site_id
 _symmetry_equiv_pos_as_xyz
  1  'x, y, z'
loop_
 _atom_site_type_symbol
 _atom_site_label
 _atom_site_symmetry_multiplicity
 _atom_site_fract_x
 _atom_site_fract_y
 _atom_site_fract_z
 _atom_site_occupancy
  Tb  Tb0  1  0.000000  0.500000  0.527122  1
  Tb  Tb1  1  0.500000  0.000000  0.472878  1
  Ho  Ho2  1  0.500000  0.820706  0.204945  1
  Ho  Ho3  1  0.500000  0.179294  0.204945  1
  Ho  Ho4  1  0.000000  0.679294  0.795055  1
  Ho  Ho5  1  0.000000  0.320706  0.795055  1
  Ta  Ta6  1  0.500000  0.500000  0.156863  1
  Ta  Ta7  1  0.000000  0.000000  0.843137  1
  Co  Co8  1  0.000000  0.500000  0.987081  1
  Co  Co9  1  0.500000  0.000000  0.012919  1
  Co  Co10  1  0.500000  0.295212  0.432129  1
  Co  Co11  1  0.500000  0.704788  0.432129  1
  Co  Co12  1  0.000000  0.204788  0.567871  1
  Co  Co13  1  0.000000  0.795212  0.567871  1
  Co  Co14  1  0.500000  0.877648  0.705701  1
  Co  Co15  1  0.500000  0.122352  0.705701  1
  Co  Co16  1  0.000000  0.622352  0.294299  1
  Co  Co17  1  0.000000  0.377648  0.294299  1
  Co  Co18  1  0.500000  0.332745  0.992286  1
  Co  Co19  1  0.500000  0.667255  0.992286  1
  Co  Co20  1  0.000000  0.167255  0.007714  1
  Co  Co21  1  0.000000  0.832745  0.007714  1
  Co  Co22  1  0.500000  0.500000  0.702800  1
  Co  Co23  1  0.000000  0.000000  0.297200  1
  P  P24  1  0.500000  0.310807  0.615969  1
  P  P25  1  0.500000  0.689193  0.615969  1
  P  P26  1  0.000000  0.189193  0.384031  1
  P  P27  1  0.000000  0.810807  0.384031  1
  P  P28  1  0.500000  0.500000  0.881830  1
  P  P29  1  0.000000  0.000000  0.118170  1
  P  P30  1  0.500000  0.840703  0.892687  1
  P  P31  1  0.500000  0.159297  0.892687  1
  P  P32  1  0.000000  0.659297  0.107313  1
  P  P33  1  0.000000  0.340703  0.107313  1
  P  P34  1  0.500000  0.500000  0.356463  1
  P  P35  1  0.000000  0.000000  0.643537  1
