# generated using pymatgen
data_RbCeCdF7
_symmetry_space_group_name_H-M   'P 1'
_cell_length_a   6.84482795
_cell_length_b   6.84482833
_cell_length_c   8.89225300
_cell_angle_alpha   90.00000000
_cell_angle_beta   90.00000000
_cell_angle_gamma   116.89027725
_symmetry_Int_Tables_number   1
_chemical_formula_structural   RbCeCdF7
_chemical_formula_sum   'Rb2 Ce2 Cd2 F14'
_cell_volume   371.56992341
_cell_formula_units_Z   2
loop_
 _symmetry_equiv_pos_site_id
 _symmetry_equiv_pos_as_xyz
  1  'x, y, z'
loop_
 _atom_site_type_symbol
 _atom_site_label
 _atom_site_symmetry_multiplicity
 _atom_site_fract_x
 _atom_site_fract_y
 _atom_site_fract_z
 _atom_site_occupancy
  Rb  Rb0  1  0.500000  0.500000  0.500000  1
  Rb  Rb1  1  0.500000  0.500000  0.000000  1
  Ce  Ce2  1  0.808236  0.191764  0.250000  1
  Ce  Ce3  1  0.191764  0.808236  0.750000  1
  Cd  Cd4  1  0.807898  0.192102  0.750000  1
  Cd  Cd5  1  0.192102  0.807898  0.250000  1
  F  F6  1  0.796158  0.203842  0.003895  1
  F  F7  1  0.162153  0.447475  0.250000  1
  F  F8  1  0.552525  0.837847  0.250000  1
  F  F9  1  0.535094  0.831500  0.750000  1
  F  F10  1  0.168500  0.464906  0.750000  1
  F  F11  1  0.796158  0.203842  0.496105  1
  F  F12  1  0.447475  0.162153  0.750000  1
  F  F13  1  0.831500  0.535094  0.250000  1
  F  F14  1  0.464906  0.168500  0.250000  1
  F  F15  1  0.996166  0.003834  0.250000  1
  F  F16  1  0.203842  0.796158  0.503895  1
  F  F17  1  0.203842  0.796158  0.996105  1
  F  F18  1  0.003834  0.996166  0.750000  1
  F  F19  1  0.837847  0.552525  0.750000  1
