# generated using pymatgen
data_Dy3Y9ZnCdCo4
_symmetry_space_group_name_H-M   'P 1'
_cell_length_a   8.36873909
_cell_length_b   8.37429025
_cell_length_c   8.36874071
_cell_angle_alpha   112.32923493
_cell_angle_beta   109.36250313
_cell_angle_gamma   106.74333172
_symmetry_Int_Tables_number   1
_chemical_formula_structural   Dy3Y9ZnCdCo4
_chemical_formula_sum   'Dy3 Y9 Zn1 Cd1 Co4'
_cell_volume   450.56212370
_cell_formula_units_Z   1
loop_
 _symmetry_equiv_pos_site_id
 _symmetry_equiv_pos_as_xyz
  1  'x, y, z'
loop_
 _atom_site_type_symbol
 _atom_site_label
 _atom_site_symmetry_multiplicity
 _atom_site_fract_x
 _atom_site_fract_y
 _atom_site_fract_z
 _atom_site_occupancy
  Dy  Dy0  1  0.675695  0.361045  0.685350  1
  Dy  Dy1  1  0.324658  0.009147  0.684489  1
  Dy  Dy2  1  0.675504  0.990475  0.314971  1
  Y  Y3  1  0.429558  0.231483  0.196455  1
  Y  Y4  1  0.571393  0.768468  0.803625  1
  Y  Y5  1  0.035027  0.231483  0.801925  1
  Y  Y6  1  0.964843  0.768468  0.197074  1
  Y  Y7  1  0.180311  0.282617  0.462898  1
  Y  Y8  1  0.819853  0.717195  0.537259  1
  Y  Y9  1  0.179937  0.717195  0.897342  1
  Y  Y10  1  0.819719  0.282617  0.102305  1
  Y  Y11  1  0.323965  0.636628  0.312662  1
  Zn  Zn12  1  0.000441  0.001105  0.000664  1
  Cd  Cd13  1  0.500033  0.500215  0.000181  1
  Co  Co14  1  0.344733  0.001645  0.345418  1
  Co  Co15  1  0.656227  0.001645  0.656912  1
  Co  Co16  1  0.112072  0.612718  0.500646  1
  Co  Co17  1  0.886030  0.385852  0.499822  1
