# generated using pymatgen
data_Dy10Tl8PdAu3
_symmetry_space_group_name_H-M   'P 1'
_cell_length_a   3.66636700
_cell_length_b   8.21024202
_cell_length_c   18.46200900
_cell_angle_alpha   89.99640603
_cell_angle_beta   90.00000000
_cell_angle_gamma   90.00000000
_symmetry_Int_Tables_number   1
_chemical_formula_structural   Dy10Tl8PdAu3
_chemical_formula_sum   'Dy10 Tl8 Pd1 Au3'
_cell_volume   555.73897014
_cell_formula_units_Z   1
loop_
 _symmetry_equiv_pos_site_id
 _symmetry_equiv_pos_as_xyz
  1  'x, y, z'
loop_
 _atom_site_type_symbol
 _atom_site_label
 _atom_site_symmetry_multiplicity
 _atom_site_fract_x
 _atom_site_fract_y
 _atom_site_fract_z
 _atom_site_occupancy
  Dy  Dy0  1  0.000000  0.500524  0.499028  1
  Dy  Dy1  1  0.000000  0.999855  0.000790  1
  Dy  Dy2  1  0.000000  0.749645  0.283022  1
  Dy  Dy3  1  0.000000  0.260643  0.716859  1
  Dy  Dy4  1  0.000000  0.760654  0.782889  1
  Dy  Dy5  1  0.000000  0.234024  0.219711  1
  Dy  Dy6  1  0.000000  0.618920  0.081719  1
  Dy  Dy7  1  0.000000  0.380955  0.919867  1
  Dy  Dy8  1  0.000000  0.880725  0.579618  1
  Dy  Dy9  1  0.000000  0.115016  0.415325  1
  Tl  Tl10  1  0.500000  0.710114  0.935188  1
  Tl  Tl11  1  0.500000  0.290097  0.066191  1
  Tl  Tl12  1  0.500000  0.792219  0.432835  1
  Tl  Tl13  1  0.500000  0.209747  0.563867  1
  Tl  Tl14  1  0.500000  0.581270  0.645051  1
  Tl  Tl15  1  0.500000  0.415236  0.353822  1
  Tl  Tl16  1  0.500000  0.920820  0.147834  1
  Tl  Tl17  1  0.500000  0.081754  0.854938  1
  Pd  Pd18  1  0.500000  0.028308  0.303888  1
  Au  Au19  1  0.500000  0.528961  0.198022  1
  Au  Au20  1  0.500000  0.470290  0.803129  1
  Au  Au21  1  0.500000  0.970222  0.696409  1
