# generated using pymatgen
data_Dy7TmC10
_symmetry_space_group_name_H-M   'P 1'
_cell_length_a   3.66958300
_cell_length_b   6.57841395
_cell_length_c   11.89704919
_cell_angle_alpha   89.88800189
_cell_angle_beta   90.00000000
_cell_angle_gamma   90.00000000
_symmetry_Int_Tables_number   1
_chemical_formula_structural   Dy7TmC10
_chemical_formula_sum   'Dy7 Tm1 C10'
_cell_volume   287.19464677
_cell_formula_units_Z   1
loop_
 _symmetry_equiv_pos_site_id
 _symmetry_equiv_pos_as_xyz
  1  'x, y, z'
loop_
 _atom_site_type_symbol
 _atom_site_label
 _atom_site_symmetry_multiplicity
 _atom_site_fract_x
 _atom_site_fract_y
 _atom_site_fract_z
 _atom_site_occupancy
  Dy  Dy0  1  0.000000  0.750346  0.457134  1
  Dy  Dy1  1  0.000000  0.748998  0.955357  1
  Dy  Dy2  1  0.000000  0.237230  0.042013  1
  Dy  Dy3  1  0.500000  0.108785  0.802437  1
  Dy  Dy4  1  0.500000  0.893076  0.196962  1
  Dy  Dy5  1  0.500000  0.605185  0.697430  1
  Dy  Dy6  1  0.500000  0.390787  0.304222  1
  Tm  Tm7  1  0.000000  0.265185  0.541984  1
  C  C8  1  0.500000  0.508941  0.501656  1
  C  C9  1  0.500000  0.987895  0.000411  1
  C  C10  1  0.000000  0.363515  0.733076  1
  C  C11  1  0.000000  0.643790  0.262724  1
  C  C12  1  0.000000  0.857366  0.759867  1
  C  C13  1  0.000000  0.134159  0.237428  1
  C  C14  1  0.000000  0.385902  0.844830  1
  C  C15  1  0.000000  0.574103  0.157797  1
  C  C16  1  0.000000  0.114372  0.349347  1
  C  C17  1  0.000000  0.930363  0.655324  1
