# generated using pymatgen
data_Zr6V7MoOs4
_symmetry_space_group_name_H-M   'P 1'
_cell_length_a   5.22507230
_cell_length_b   5.28457530
_cell_length_c   12.77079628
_cell_angle_alpha   89.80893643
_cell_angle_beta   90.05333975
_cell_angle_gamma   120.46608040
_symmetry_Int_Tables_number   1
_chemical_formula_structural   Zr6V7MoOs4
_chemical_formula_sum   'Zr6 V7 Mo1 Os4'
_cell_volume   303.94116320
_cell_formula_units_Z   1
loop_
 _symmetry_equiv_pos_site_id
 _symmetry_equiv_pos_as_xyz
  1  'x, y, z'
loop_
 _atom_site_type_symbol
 _atom_site_label
 _atom_site_symmetry_multiplicity
 _atom_site_fract_x
 _atom_site_fract_y
 _atom_site_fract_z
 _atom_site_occupancy
  Zr  Zr0  1  0.334359  0.664842  0.918224  1
  Zr  Zr1  1  0.002725  0.002264  0.247876  1
  Zr  Zr2  1  0.667595  0.332561  0.582504  1
  Zr  Zr3  1  0.332405  0.667439  0.667496  1
  Zr  Zr4  1  0.997275  0.997736  0.002123  1
  Zr  Zr5  1  0.665641  0.335158  0.331776  1
  V  V6  1  0.168146  0.334690  0.455549  1
  V  V7  1  0.831854  0.665310  0.794451  1
  V  V8  1  0.334237  0.666928  0.290942  1
  V  V9  1  0.665763  0.333072  0.959058  1
  V  V10  1  0.000000  0.500000  0.125000  1
  V  V11  1  0.665900  0.832316  0.456221  1
  V  V12  1  0.334100  0.167684  0.793779  1
  Mo  Mo13  1  0.000000  0.000000  0.625000  1
  Os  Os14  1  0.500000  0.500000  0.125000  1
  Os  Os15  1  0.168175  0.831890  0.454498  1
  Os  Os16  1  0.831825  0.168110  0.795502  1
  Os  Os17  1  0.500000  0.000000  0.125000  1
