# generated using pymatgen
data_La12Rh(AuBr4)3
_symmetry_space_group_name_H-M   'P 1'
_cell_length_a   10.72683077
_cell_length_b   10.72682964
_cell_length_c   10.72682882
_cell_angle_alpha   108.96670685
_cell_angle_beta   108.96671323
_cell_angle_gamma   108.96671458
_symmetry_Int_Tables_number   1
_chemical_formula_structural   La12Rh(AuBr4)3
_chemical_formula_sum   'La12 Rh1 Au3 Br12'
_cell_volume   967.49099713
_cell_formula_units_Z   1
loop_
 _symmetry_equiv_pos_site_id
 _symmetry_equiv_pos_as_xyz
  1  'x, y, z'
loop_
 _atom_site_type_symbol
 _atom_site_label
 _atom_site_symmetry_multiplicity
 _atom_site_fract_x
 _atom_site_fract_y
 _atom_site_fract_z
 _atom_site_occupancy
  La  La0  1  0.258164  0.750000  0.241836  1
  La  La1  1  0.488655  0.750000  0.011345  1
  La  La2  1  0.240305  0.472201  0.479099  1
  La  La3  1  0.020901  0.027799  0.259695  1
  La  La4  1  0.241836  0.258164  0.750000  1
  La  La5  1  0.011345  0.488655  0.750000  1
  La  La6  1  0.479099  0.240305  0.472201  1
  La  La7  1  0.259695  0.020901  0.027799  1
  La  La8  1  0.750000  0.241836  0.258164  1
  La  La9  1  0.750000  0.011345  0.488655  1
  La  La10  1  0.472201  0.479099  0.240305  1
  La  La11  1  0.027799  0.259695  0.020901  1
  Rh  Rh12  1  0.250000  0.250000  0.250000  1
  Au  Au13  1  0.498482  0.001518  0.250000  1
  Au  Au14  1  0.250000  0.498482  0.001518  1
  Au  Au15  1  0.001518  0.250000  0.498482  1
  Br  Br16  1  0.250000  0.995921  0.504079  1
  Br  Br17  1  0.503779  0.504083  0.753317  1
  Br  Br18  1  0.250000  0.750235  0.749765  1
  Br  Br19  1  0.996221  0.746683  0.995917  1
  Br  Br20  1  0.995921  0.504079  0.250000  1
  Br  Br21  1  0.746683  0.995917  0.996221  1
  Br  Br22  1  0.750235  0.749765  0.250000  1
  Br  Br23  1  0.504083  0.753317  0.503779  1
  Br  Br24  1  0.504079  0.250000  0.995921  1
  Br  Br25  1  0.753317  0.503779  0.504083  1
  Br  Br26  1  0.749765  0.250000  0.750235  1
  Br  Br27  1  0.995917  0.996221  0.746683  1
