# generated using pymatgen
data_Lu4Sc16(Bi3Te)3
_symmetry_space_group_name_H-M   'P 1'
_cell_length_a   7.78448012
_cell_length_b   8.98947600
_cell_length_c   11.41480201
_cell_angle_alpha   90.00000000
_cell_angle_beta   90.03977263
_cell_angle_gamma   90.00000000
_symmetry_Int_Tables_number   1
_chemical_formula_structural   Lu4Sc16(Bi3Te)3
_chemical_formula_sum   'Lu4 Sc16 Bi9 Te3'
_cell_volume   798.78935667
_cell_formula_units_Z   1
loop_
 _symmetry_equiv_pos_site_id
 _symmetry_equiv_pos_as_xyz
  1  'x, y, z'
loop_
 _atom_site_type_symbol
 _atom_site_label
 _atom_site_symmetry_multiplicity
 _atom_site_fract_x
 _atom_site_fract_y
 _atom_site_fract_z
 _atom_site_occupancy
  Lu  Lu0  1  0.183548  0.250000  0.780035  1
  Lu  Lu1  1  0.821049  0.750000  0.216847  1
  Lu  Lu2  1  0.321291  0.750000  0.284384  1
  Lu  Lu3  1  0.678841  0.250000  0.715107  1
  Sc  Sc4  1  0.017404  0.250000  0.509789  1
  Sc  Sc5  1  0.981117  0.750000  0.489092  1
  Sc  Sc6  1  0.479942  0.750000  0.011351  1
  Sc  Sc7  1  0.517519  0.250000  0.990626  1
  Sc  Sc8  1  0.354973  0.250000  0.284402  1
  Sc  Sc9  1  0.645706  0.750000  0.715527  1
  Sc  Sc10  1  0.146485  0.750000  0.782694  1
  Sc  Sc11  1  0.850728  0.250000  0.220196  1
  Sc  Sc12  1  0.191994  0.064479  0.059323  1
  Sc  Sc13  1  0.809154  0.929773  0.941035  1
  Sc  Sc14  1  0.310920  0.933414  0.558179  1
  Sc  Sc15  1  0.809154  0.570227  0.941035  1
  Sc  Sc16  1  0.688617  0.066003  0.441991  1
  Sc  Sc17  1  0.191994  0.435521  0.059323  1
  Sc  Sc18  1  0.688617  0.433997  0.441991  1
  Sc  Sc19  1  0.310920  0.566586  0.558179  1
  Bi  Bi20  1  0.901982  0.250000  0.962817  1
  Bi  Bi21  1  0.067220  0.007974  0.326425  1
  Bi  Bi22  1  0.932947  0.991812  0.672509  1
  Bi  Bi23  1  0.433454  0.991663  0.827094  1
  Bi  Bi24  1  0.932947  0.508188  0.672509  1
  Bi  Bi25  1  0.566782  0.007526  0.174217  1
  Bi  Bi26  1  0.067220  0.492026  0.326425  1
  Bi  Bi27  1  0.566782  0.492474  0.174217  1
  Bi  Bi28  1  0.433454  0.508337  0.827094  1
  Te  Te29  1  0.399653  0.250000  0.536265  1
  Te  Te30  1  0.599780  0.750000  0.463502  1
  Te  Te31  1  0.097811  0.750000  0.035822  1
