# generated using pymatgen
data_CaHf3(Al3Rh)6
_symmetry_space_group_name_H-M   'P 1'
_cell_length_a   7.48043447
_cell_length_b   7.47440616
_cell_length_c   9.31350600
_cell_angle_alpha   90.00000000
_cell_angle_beta   90.00000000
_cell_angle_gamma   119.64497827
_symmetry_Int_Tables_number   1
_chemical_formula_structural   CaHf3(Al3Rh)6
_chemical_formula_sum   'Ca1 Hf3 Al18 Rh6'
_cell_volume   452.57433039
_cell_formula_units_Z   1
loop_
 _symmetry_equiv_pos_site_id
 _symmetry_equiv_pos_as_xyz
  1  'x, y, z'
loop_
 _atom_site_type_symbol
 _atom_site_label
 _atom_site_symmetry_multiplicity
 _atom_site_fract_x
 _atom_site_fract_y
 _atom_site_fract_z
 _atom_site_occupancy
  Ca  Ca0  1  0.328487  0.006619  0.250000  1
  Hf  Hf1  1  0.994756  0.672725  0.750000  1
  Hf  Hf2  1  0.006421  0.328940  0.250000  1
  Hf  Hf3  1  0.671022  0.993897  0.750000  1
  Al  Al4  1  0.121342  0.122417  0.750000  1
  Al  Al5  1  0.871093  0.876008  0.250000  1
  Al  Al6  1  0.996580  0.334772  0.579631  1
  Al  Al7  1  0.000358  0.662639  0.426732  1
  Al  Al8  1  0.000358  0.662639  0.073268  1
  Al  Al9  1  0.335247  0.997592  0.918231  1
  Al  Al10  1  0.996580  0.334772  0.920369  1
  Al  Al11  1  0.667618  0.002438  0.073537  1
  Al  Al12  1  0.667618  0.002438  0.426463  1
  Al  Al13  1  0.335247  0.997592  0.581769  1
  Al  Al14  1  0.331208  0.333636  0.053696  1
  Al  Al15  1  0.669318  0.669055  0.938286  1
  Al  Al16  1  0.669318  0.669055  0.561714  1
  Al  Al17  1  0.331208  0.333636  0.446304  1
  Al  Al18  1  0.338058  0.553834  0.750000  1
  Al  Al19  1  0.668122  0.451844  0.250000  1
  Al  Al20  1  0.556052  0.339059  0.750000  1
  Al  Al21  1  0.444368  0.654334  0.250000  1
  Rh  Rh22  1  0.674101  0.328473  0.502160  1
  Rh  Rh23  1  0.327838  0.672655  0.502969  1
  Rh  Rh24  1  0.327838  0.672655  0.997031  1
  Rh  Rh25  1  0.674101  0.328473  0.997840  1
  Rh  Rh26  1  0.997870  0.998900  0.502230  1
  Rh  Rh27  1  0.997870  0.998900  0.997770  1
