# generated using pymatgen
data_Np3TiP5
_symmetry_space_group_name_H-M   'P 1'
_cell_length_a   8.24714700
_cell_length_b   8.24714741
_cell_length_c   5.50447900
_cell_angle_alpha   90.00000000
_cell_angle_beta   90.00000000
_cell_angle_gamma   120.00000235
_symmetry_Int_Tables_number   1
_chemical_formula_structural   Np3TiP5
_chemical_formula_sum   'Np6 Ti2 P10'
_cell_volume   324.23084914
_cell_formula_units_Z   2
loop_
 _symmetry_equiv_pos_site_id
 _symmetry_equiv_pos_as_xyz
  1  'x, y, z'
loop_
 _atom_site_type_symbol
 _atom_site_label
 _atom_site_symmetry_multiplicity
 _atom_site_fract_x
 _atom_site_fract_y
 _atom_site_fract_z
 _atom_site_occupancy
  Np  Np0  1  0.386016  0.000000  0.750000  1
  Np  Np1  1  0.386016  0.386016  0.250000  1
  Np  Np2  1  0.000000  0.613984  0.250000  1
  Np  Np3  1  0.000000  0.386016  0.750000  1
  Np  Np4  1  0.613984  0.613984  0.750000  1
  Np  Np5  1  0.613984  0.000000  0.250000  1
  Ti  Ti6  1  0.000000  0.000000  0.000000  1
  Ti  Ti7  1  0.000000  0.000000  0.500000  1
  P  P8  1  0.666667  0.333333  0.500000  1
  P  P9  1  0.333333  0.666667  0.000000  1
  P  P10  1  0.741204  0.000000  0.750000  1
  P  P11  1  0.741204  0.741204  0.250000  1
  P  P12  1  0.333333  0.666667  0.500000  1
  P  P13  1  0.666667  0.333333  0.000000  1
  P  P14  1  0.258796  0.000000  0.250000  1
  P  P15  1  0.258796  0.258796  0.750000  1
  P  P16  1  0.000000  0.741204  0.750000  1
  P  P17  1  0.000000  0.258796  0.250000  1
