# generated using pymatgen
data_Hf15Sc3Re6(BW)2
_symmetry_space_group_name_H-M   'P 1'
_cell_length_a   8.53313200
_cell_length_b   8.53313243
_cell_length_c   8.47371800
_cell_angle_alpha   90.00000000
_cell_angle_beta   90.00000000
_cell_angle_gamma   120.00000610
_symmetry_Int_Tables_number   1
_chemical_formula_structural   Hf15Sc3Re6(BW)2
_chemical_formula_sum   'Hf15 Sc3 Re6 B2 W2'
_cell_volume   534.34476775
_cell_formula_units_Z   1
loop_
 _symmetry_equiv_pos_site_id
 _symmetry_equiv_pos_as_xyz
  1  'x, y, z'
loop_
 _atom_site_type_symbol
 _atom_site_label
 _atom_site_symmetry_multiplicity
 _atom_site_fract_x
 _atom_site_fract_y
 _atom_site_fract_z
 _atom_site_occupancy
  Hf  Hf0  1  0.202361  0.797639  0.444676  1
  Hf  Hf1  1  0.202361  0.404723  0.444676  1
  Hf  Hf2  1  0.595277  0.797639  0.444676  1
  Hf  Hf3  1  0.798334  0.201666  0.555288  1
  Hf  Hf4  1  0.798334  0.596668  0.555288  1
  Hf  Hf5  1  0.403332  0.201666  0.555288  1
  Hf  Hf6  1  0.798334  0.201666  0.944712  1
  Hf  Hf7  1  0.798334  0.596668  0.944712  1
  Hf  Hf8  1  0.403332  0.201666  0.944712  1
  Hf  Hf9  1  0.202361  0.797639  0.055324  1
  Hf  Hf10  1  0.202361  0.404723  0.055324  1
  Hf  Hf11  1  0.595277  0.797639  0.055324  1
  Hf  Hf12  1  0.459305  0.540695  0.750000  1
  Hf  Hf13  1  0.459305  0.918609  0.750000  1
  Hf  Hf14  1  0.081391  0.540695  0.750000  1
  Sc  Sc15  1  0.540489  0.459511  0.250000  1
  Sc  Sc16  1  0.540489  0.080979  0.250000  1
  Sc  Sc17  1  0.919021  0.459511  0.250000  1
  Re  Re18  1  0.888540  0.111460  0.250000  1
  Re  Re19  1  0.888540  0.777080  0.250000  1
  Re  Re20  1  0.222920  0.111460  0.250000  1
  Re  Re21  1  0.111040  0.888960  0.750000  1
  Re  Re22  1  0.111040  0.222079  0.750000  1
  Re  Re23  1  0.777921  0.888960  0.750000  1
  B  B24  1  0.333333  0.666667  0.250000  1
  B  B25  1  0.666667  0.333333  0.750000  1
  W  W26  1  0.000000  0.000000  0.496950  1
  W  W27  1  0.000000  0.000000  0.003050  1
