# generated using pymatgen
data_Rb2YbIrO6
_symmetry_space_group_name_H-M   'P 1'
_cell_length_a   5.97079302
_cell_length_b   5.97106502
_cell_length_c   8.44645400
_cell_angle_alpha   90.00000000
_cell_angle_beta   90.00000000
_cell_angle_gamma   89.99111430
_symmetry_Int_Tables_number   1
_chemical_formula_structural   Rb2YbIrO6
_chemical_formula_sum   'Rb4 Yb2 Ir2 O12'
_cell_volume   301.13291796
_cell_formula_units_Z   2
loop_
 _symmetry_equiv_pos_site_id
 _symmetry_equiv_pos_as_xyz
  1  'x, y, z'
loop_
 _atom_site_type_symbol
 _atom_site_label
 _atom_site_symmetry_multiplicity
 _atom_site_fract_x
 _atom_site_fract_y
 _atom_site_fract_z
 _atom_site_occupancy
  Rb  Rb0  1  0.499999  0.000000  0.249851  1
  Rb  Rb1  1  0.000000  0.499999  0.249868  1
  Rb  Rb2  1  0.499999  0.000000  0.750148  1
  Rb  Rb3  1  0.000000  0.499999  0.750131  1
  Yb  Yb4  1  0.499999  0.499999  0.000000  1
  Yb  Yb5  1  0.000000  0.000000  0.500000  1
  Ir  Ir6  1  0.000000  0.000000  0.000000  1
  Ir  Ir7  1  0.499999  0.499999  0.500000  1
  O  O8  1  0.223255  0.226615  0.000000  1
  O  O9  1  0.773334  0.223275  0.000000  1
  O  O10  1  0.226666  0.776725  0.000000  1
  O  O11  1  0.776745  0.773385  0.000000  1
  O  O12  1  0.000000  0.000000  0.224737  1
  O  O13  1  0.499999  0.499999  0.274867  1
  O  O14  1  0.273403  0.276761  0.500000  1
  O  O15  1  0.723290  0.273389  0.500000  1
  O  O16  1  0.276711  0.726612  0.500000  1
  O  O17  1  0.726598  0.723240  0.500000  1
  O  O18  1  0.499999  0.499999  0.725132  1
  O  O19  1  0.000000  0.000000  0.775263  1
