# generated using pymatgen
data_DyTm7Ti3Si16Tc9
_symmetry_space_group_name_H-M   'P 1'
_cell_length_a   6.75743664
_cell_length_b   6.75817382
_cell_length_c   12.87375518
_cell_angle_alpha   90.08886394
_cell_angle_beta   89.87991347
_cell_angle_gamma   89.28487819
_symmetry_Int_Tables_number   1
_chemical_formula_structural   DyTm7Ti3Si16Tc9
_chemical_formula_sum   'Dy1 Tm7 Ti3 Si16 Tc9'
_cell_volume   587.86995324
_cell_formula_units_Z   1
loop_
 _symmetry_equiv_pos_site_id
 _symmetry_equiv_pos_as_xyz
  1  'x, y, z'
loop_
 _atom_site_type_symbol
 _atom_site_label
 _atom_site_symmetry_multiplicity
 _atom_site_fract_x
 _atom_site_fract_y
 _atom_site_fract_z
 _atom_site_occupancy
  Dy  Dy0  1  0.337452  0.001794  0.471387  1
  Tm  Tm1  1  0.998962  0.661751  0.028679  1
  Tm  Tm2  1  0.999644  0.339509  0.528402  1
  Tm  Tm3  1  0.661733  0.998990  0.971274  1
  Tm  Tm4  1  0.173754  0.490273  0.783011  1
  Tm  Tm5  1  0.823652  0.512110  0.282880  1
  Tm  Tm6  1  0.490356  0.173886  0.216933  1
  Tm  Tm7  1  0.512217  0.823539  0.717059  1
  Ti  Ti8  1  0.843883  0.155642  0.749192  1
  Ti  Ti9  1  0.155601  0.843939  0.250488  1
  Ti  Ti10  1  0.334846  0.334819  0.999950  1
  Si  Si11  1  0.014751  0.734835  0.444383  1
  Si  Si12  1  0.976828  0.271091  0.942494  1
  Si  Si13  1  0.736874  0.015317  0.555737  1
  Si  Si14  1  0.197718  0.474524  0.185613  1
  Si  Si15  1  0.800714  0.528169  0.685117  1
  Si  Si16  1  0.474591  0.197706  0.814388  1
  Si  Si17  1  0.528741  0.799888  0.314567  1
  Si  Si18  1  0.271045  0.976884  0.057490  1
  Si  Si19  1  0.789364  0.880181  0.179615  1
  Si  Si20  1  0.316236  0.604160  0.561780  1
  Si  Si21  1  0.693348  0.385546  0.063823  1
  Si  Si22  1  0.606131  0.316872  0.438430  1
  Si  Si23  1  0.385544  0.693386  0.936102  1
  Si  Si24  1  0.117343  0.213108  0.318211  1
  Si  Si25  1  0.212090  0.118400  0.681790  1
  Si  Si26  1  0.880115  0.789268  0.820379  1
  Tc  Tc27  1  0.306745  0.522191  0.369000  1
  Tc  Tc28  1  0.817623  0.019129  0.364197  1
  Tc  Tc29  1  0.987877  0.180936  0.136024  1
  Tc  Tc30  1  0.018882  0.816897  0.636119  1
  Tc  Tc31  1  0.523723  0.307581  0.631503  1
  Tc  Tc32  1  0.180902  0.988118  0.863949  1
  Tc  Tc33  1  0.665856  0.664815  0.500119  1
  Tc  Tc34  1  0.480792  0.683937  0.130656  1
  Tc  Tc35  1  0.684065  0.480812  0.869257  1
