# generated using pymatgen
data_TbYb2Dy3(MnC3)4
_symmetry_space_group_name_H-M   'P 1'
_cell_length_a   8.09139898
_cell_length_b   8.05498067
_cell_length_c   4.97372800
_cell_angle_alpha   90.00000000
_cell_angle_beta   90.00000000
_cell_angle_gamma   120.10083041
_symmetry_Int_Tables_number   1
_chemical_formula_structural   TbYb2Dy3(MnC3)4
_chemical_formula_sum   'Tb1 Yb2 Dy3 Mn4 C12'
_cell_volume   280.45205495
_cell_formula_units_Z   1
loop_
 _symmetry_equiv_pos_site_id
 _symmetry_equiv_pos_as_xyz
  1  'x, y, z'
loop_
 _atom_site_type_symbol
 _atom_site_label
 _atom_site_symmetry_multiplicity
 _atom_site_fract_x
 _atom_site_fract_y
 _atom_site_fract_z
 _atom_site_occupancy
  Tb  Tb0  1  0.381188  0.315720  0.250000  1
  Yb  Yb1  1  0.613171  0.682804  0.750000  1
  Yb  Yb2  1  0.928607  0.614065  0.250000  1
  Dy  Dy3  1  0.686037  0.067746  0.250000  1
  Dy  Dy4  1  0.309487  0.931580  0.750000  1
  Dy  Dy5  1  0.066428  0.382102  0.750000  1
  Mn  Mn6  1  0.996816  0.996264  0.499862  1
  Mn  Mn7  1  0.996816  0.996264  0.000138  1
  Mn  Mn8  1  0.667096  0.329039  0.750000  1
  Mn  Mn9  1  0.337570  0.668977  0.250000  1
  C  C10  1  0.957808  0.771563  0.750000  1
  C  C11  1  0.188870  0.961541  0.250000  1
  C  C12  1  0.777243  0.819899  0.250000  1
  C  C13  1  0.229943  0.195102  0.750000  1
  C  C14  1  0.818539  0.039264  0.750000  1
  C  C15  1  0.034912  0.229725  0.250000  1
  C  C16  1  0.858253  0.576902  0.750000  1
  C  C17  1  0.282913  0.861264  0.250000  1
  C  C18  1  0.583404  0.719891  0.250000  1
  C  C19  1  0.424579  0.282032  0.750000  1
  C  C20  1  0.142254  0.425213  0.250000  1
  C  C21  1  0.718065  0.133043  0.750000  1
