# generated using pymatgen
data_Dy2Y2Co19P12Ru
_symmetry_space_group_name_H-M   'P 1'
_cell_length_a   3.66508600
_cell_length_b   10.30989271
_cell_length_c   11.75676003
_cell_angle_alpha   89.88699295
_cell_angle_beta   90.00000000
_cell_angle_gamma   90.00000000
_symmetry_Int_Tables_number   1
_chemical_formula_structural   Dy2Y2Co19P12Ru
_chemical_formula_sum   'Dy2 Y2 Co19 P12 Ru1'
_cell_volume   444.24763490
_cell_formula_units_Z   1
loop_
 _symmetry_equiv_pos_site_id
 _symmetry_equiv_pos_as_xyz
  1  'x, y, z'
loop_
 _atom_site_type_symbol
 _atom_site_label
 _atom_site_symmetry_multiplicity
 _atom_site_fract_x
 _atom_site_fract_y
 _atom_site_fract_z
 _atom_site_occupancy
  Dy  Dy0  1  0.750000  0.083469  0.797447  1
  Dy  Dy1  1  0.750000  0.414628  0.295787  1
  Y  Y2  1  0.250000  0.916613  0.202646  1
  Y  Y3  1  0.250000  0.581892  0.702299  1
  Co  Co4  1  0.750000  0.216009  0.508780  1
  Co  Co5  1  0.750000  0.283766  0.008522  1
  Co  Co6  1  0.250000  0.716448  0.991713  1
  Co  Co7  1  0.250000  0.093507  0.988410  1
  Co  Co8  1  0.750000  0.906833  0.011357  1
  Co  Co9  1  0.750000  0.591296  0.510406  1
  Co  Co10  1  0.250000  0.406529  0.487746  1
  Co  Co11  1  0.250000  0.279081  0.677181  1
  Co  Co12  1  0.750000  0.720905  0.322796  1
  Co  Co13  1  0.750000  0.777574  0.823830  1
  Co  Co14  1  0.250000  0.221683  0.176188  1
  Co  Co15  1  0.250000  0.616809  0.198516  1
  Co  Co16  1  0.750000  0.383246  0.801949  1
  Co  Co17  1  0.750000  0.117621  0.300634  1
  Co  Co18  1  0.250000  0.885450  0.701489  1
  Co  Co19  1  0.250000  0.035748  0.432435  1
  Co  Co20  1  0.750000  0.967342  0.568569  1
  Co  Co21  1  0.750000  0.532164  0.068400  1
  Co  Co22  1  0.250000  0.467687  0.932196  1
  P  P23  1  0.250000  0.082326  0.612593  1
  P  P24  1  0.750000  0.921198  0.386718  1
  P  P25  1  0.750000  0.580633  0.888408  1
  P  P26  1  0.250000  0.418520  0.111791  1
  P  P27  1  0.250000  0.230080  0.369144  1
  P  P28  1  0.750000  0.771247  0.633334  1
  P  P29  1  0.750000  0.728935  0.129159  1
  P  P30  1  0.250000  0.271235  0.870115  1
  P  P31  1  0.250000  0.898577  0.892787  1
  P  P32  1  0.750000  0.102275  0.108125  1
  P  P33  1  0.750000  0.396863  0.608861  1
  P  P34  1  0.250000  0.596117  0.388928  1
  Ru  Ru35  1  0.250000  0.785694  0.490746  1
