# generated using pymatgen
data_Cs3K5ZrSnSe8
_symmetry_space_group_name_H-M   'P 1'
_cell_length_a   8.42331345
_cell_length_b   10.75954500
_cell_length_c   16.11221404
_cell_angle_alpha   90.00000000
_cell_angle_beta   90.40510652
_cell_angle_gamma   90.00000000
_symmetry_Int_Tables_number   1
_chemical_formula_structural   Cs3K5ZrSnSe8
_chemical_formula_sum   'Cs6 K10 Zr2 Sn2 Se16'
_cell_volume   1460.22989474
_cell_formula_units_Z   2
loop_
 _symmetry_equiv_pos_site_id
 _symmetry_equiv_pos_as_xyz
  1  'x, y, z'
loop_
 _atom_site_type_symbol
 _atom_site_label
 _atom_site_symmetry_multiplicity
 _atom_site_fract_x
 _atom_site_fract_y
 _atom_site_fract_z
 _atom_site_occupancy
  Cs  Cs0  1  0.000727  0.998431  0.998724  1
  Cs  Cs1  1  0.501048  0.002078  0.501320  1
  Cs  Cs2  1  0.000727  0.501569  0.998724  1
  Cs  Cs3  1  0.501048  0.497922  0.501320  1
  Cs  Cs4  1  0.993211  0.750000  0.430542  1
  Cs  Cs5  1  0.491736  0.250000  0.072381  1
  K  K6  1  0.026685  0.250000  0.567394  1
  K  K7  1  0.534092  0.750000  0.930192  1
  K  K8  1  0.829082  0.051270  0.264948  1
  K  K9  1  0.332704  0.945159  0.233451  1
  K  K10  1  0.169646  0.553050  0.735279  1
  K  K11  1  0.665706  0.441714  0.765368  1
  K  K12  1  0.169646  0.946950  0.735279  1
  K  K13  1  0.665706  0.058286  0.765368  1
  K  K14  1  0.829082  0.448730  0.264948  1
  K  K15  1  0.332704  0.554841  0.233451  1
  Zr  Zr16  1  0.770990  0.750000  0.677248  1
  Zr  Zr17  1  0.225479  0.250000  0.325350  1
  Sn  Sn18  1  0.724394  0.750000  0.172265  1
  Sn  Sn19  1  0.272809  0.250000  0.825782  1
  Se  Se20  1  0.967866  0.250000  0.821850  1
  Se  Se21  1  0.529118  0.250000  0.319499  1
  Se  Se22  1  0.467894  0.750000  0.679294  1
  Se  Se23  1  0.029410  0.750000  0.179314  1
  Se  Se24  1  0.622478  0.559004  0.095404  1
  Se  Se25  1  0.129068  0.441438  0.400811  1
  Se  Se26  1  0.375433  0.054404  0.898985  1
  Se  Se27  1  0.868961  0.945903  0.605115  1
  Se  Se28  1  0.375433  0.445596  0.898985  1
  Se  Se29  1  0.868961  0.554097  0.605115  1
  Se  Se30  1  0.622478  0.940996  0.095404  1
  Se  Se31  1  0.129068  0.058562  0.400811  1
  Se  Se32  1  0.607147  0.750000  0.320759  1
  Se  Se33  1  0.105579  0.250000  0.178444  1
  Se  Se34  1  0.380835  0.250000  0.675059  1
  Se  Se35  1  0.883047  0.750000  0.825815  1
