# generated using pymatgen
data_Dy3Ho9Co4CuSn
_symmetry_space_group_name_H-M   'P 1'
_cell_length_a   8.29284014
_cell_length_b   8.29283946
_cell_length_c   8.28806319
_cell_angle_alpha   106.97773341
_cell_angle_beta   110.27510551
_cell_angle_gamma   111.21321857
_symmetry_Int_Tables_number   1
_chemical_formula_structural   Dy3Ho9Co4CuSn
_chemical_formula_sum   'Dy3 Ho9 Co4 Cu1 Sn1'
_cell_volume   437.99538159
_cell_formula_units_Z   1
loop_
 _symmetry_equiv_pos_site_id
 _symmetry_equiv_pos_as_xyz
  1  'x, y, z'
loop_
 _atom_site_type_symbol
 _atom_site_label
 _atom_site_symmetry_multiplicity
 _atom_site_fract_x
 _atom_site_fract_y
 _atom_site_fract_z
 _atom_site_occupancy
  Dy  Dy0  1  0.799577  0.784532  0.584111  1
  Dy  Dy1  1  0.200486  0.784833  0.985318  1
  Dy  Dy2  1  0.799926  0.215364  0.015291  1
  Ho  Ho3  1  0.476601  0.291440  0.185453  1
  Ho  Ho4  1  0.106345  0.291541  0.814382  1
  Ho  Ho5  1  0.894013  0.708853  0.185453  1
  Ho  Ho6  1  0.522841  0.708037  0.814382  1
  Ho  Ho7  1  0.305638  0.620411  0.315149  1
  Ho  Ho8  1  0.305537  0.990959  0.684646  1
  Ho  Ho9  1  0.693687  0.379109  0.684646  1
  Ho  Ho10  1  0.694738  0.009511  0.315149  1
  Ho  Ho11  1  0.200496  0.215267  0.415762  1
  Co  Co12  1  0.500016  0.612803  0.112819  1
  Co  Co13  1  0.499771  0.387045  0.886815  1
  Co  Co14  1  0.377204  0.000310  0.377514  1
  Co  Co15  1  0.622546  0.999809  0.622355  1
  Cu  Cu16  1  0.000428  0.000394  0.000822  1
  Sn  Sn17  1  0.000150  0.499784  0.499934  1
