# generated using pymatgen
data_Sr3ScCoO6
_symmetry_space_group_name_H-M   'P 1'
_cell_length_a   6.67118791
_cell_length_b   6.67121181
_cell_length_c   6.67116004
_cell_angle_alpha   93.42053884
_cell_angle_beta   93.42045630
_cell_angle_gamma   93.42093807
_symmetry_Int_Tables_number   1
_chemical_formula_structural   Sr3ScCoO6
_chemical_formula_sum   'Sr6 Sc2 Co2 O12'
_cell_volume   295.24623401
_cell_formula_units_Z   2
loop_
 _symmetry_equiv_pos_site_id
 _symmetry_equiv_pos_as_xyz
  1  'x, y, z'
loop_
 _atom_site_type_symbol
 _atom_site_label
 _atom_site_symmetry_multiplicity
 _atom_site_fract_x
 _atom_site_fract_y
 _atom_site_fract_z
 _atom_site_occupancy
  Sr  Sr0  1  0.618761  0.881242  0.249999  1
  Sr  Sr1  1  0.881240  0.249999  0.618755  1
  Sr  Sr2  1  0.249993  0.618760  0.881238  1
  Sr  Sr3  1  0.118759  0.750002  0.381237  1
  Sr  Sr4  1  0.750004  0.381241  0.118755  1
  Sr  Sr5  1  0.381240  0.118762  0.750000  1
  Sc  Sc6  1  0.249999  0.250001  0.250019  1
  Sc  Sc7  1  0.750008  0.749999  0.750020  1
  Co  Co8  1  0.499999  0.499999  0.499996  1
  Co  Co9  1  0.999998  0.000000  0.999995  1
  O  O10  1  0.535350  0.217275  0.407198  1
  O  O11  1  0.217277  0.407200  0.535348  1
  O  O12  1  0.407202  0.535349  0.217273  1
  O  O13  1  0.035345  0.907197  0.717275  1
  O  O14  1  0.907198  0.717277  0.035347  1
  O  O15  1  0.717275  0.035344  0.907200  1
  O  O16  1  0.464650  0.782725  0.592799  1
  O  O17  1  0.782723  0.592798  0.464649  1
  O  O18  1  0.592797  0.464648  0.782723  1
  O  O19  1  0.964654  0.092803  0.282723  1
  O  O20  1  0.092800  0.282726  0.964649  1
  O  O21  1  0.282725  0.964654  0.092798  1
