# generated using pymatgen
data_La10Nd6Cd4Co3Ir
_symmetry_space_group_name_H-M   'P 1'
_cell_length_a   9.98579257
_cell_length_b   9.95039548
_cell_length_c   9.95039600
_cell_angle_alpha   59.99999828
_cell_angle_beta   60.11718841
_cell_angle_gamma   60.11719294
_symmetry_Int_Tables_number   1
_chemical_formula_structural   La10Nd6Cd4Co3Ir
_chemical_formula_sum   'La10 Nd6 Cd4 Co3 Ir1'
_cell_volume   700.35020343
_cell_formula_units_Z   1
loop_
 _symmetry_equiv_pos_site_id
 _symmetry_equiv_pos_as_xyz
  1  'x, y, z'
loop_
 _atom_site_type_symbol
 _atom_site_label
 _atom_site_symmetry_multiplicity
 _atom_site_fract_x
 _atom_site_fract_y
 _atom_site_fract_z
 _atom_site_occupancy
  La  La0  1  0.339716  0.348491  0.348491  1
  La  La1  1  0.339716  0.348491  0.963303  1
  La  La2  1  0.339716  0.963303  0.348491  1
  La  La3  1  0.965795  0.344735  0.344735  1
  La  La4  1  0.816587  0.189933  0.189933  1
  La  La5  1  0.190824  0.810436  0.810436  1
  La  La6  1  0.190824  0.810436  0.188304  1
  La  La7  1  0.816587  0.189933  0.803547  1
  La  La8  1  0.190824  0.188304  0.810436  1
  La  La9  1  0.816587  0.803547  0.189933  1
  Nd  Nd10  1  0.935088  0.564707  0.564707  1
  Nd  Nd11  1  0.564756  0.936631  0.936631  1
  Nd  Nd12  1  0.564756  0.936631  0.561983  1
  Nd  Nd13  1  0.935088  0.564707  0.935499  1
  Nd  Nd14  1  0.564756  0.561983  0.936631  1
  Nd  Nd15  1  0.935088  0.935499  0.564707  1
  Cd  Cd16  1  0.580891  0.579111  0.579111  1
  Cd  Cd17  1  0.580891  0.579111  0.260886  1
  Cd  Cd18  1  0.580891  0.260886  0.579111  1
  Cd  Cd19  1  0.259426  0.580191  0.580191  1
  Co  Co20  1  0.137350  0.140327  0.140327  1
  Co  Co21  1  0.137350  0.140327  0.581994  1
  Co  Co22  1  0.137350  0.581994  0.140327  1
  Ir  Ir23  1  0.579140  0.140286  0.140286  1
