# generated using pymatgen
data_HfSc3(Al3Rh)6
_symmetry_space_group_name_H-M   'P 1'
_cell_length_a   7.46738560
_cell_length_b   7.46333027
_cell_length_c   9.28444800
_cell_angle_alpha   90.00000000
_cell_angle_beta   90.00000000
_cell_angle_gamma   119.62302974
_symmetry_Int_Tables_number   1
_chemical_formula_structural   HfSc3(Al3Rh)6
_chemical_formula_sum   'Hf1 Sc3 Al18 Rh6'
_cell_volume   449.80592168
_cell_formula_units_Z   1
loop_
 _symmetry_equiv_pos_site_id
 _symmetry_equiv_pos_as_xyz
  1  'x, y, z'
loop_
 _atom_site_type_symbol
 _atom_site_label
 _atom_site_symmetry_multiplicity
 _atom_site_fract_x
 _atom_site_fract_y
 _atom_site_fract_z
 _atom_site_occupancy
  Hf  Hf0  1  0.995712  0.672486  0.250000  1
  Sc  Sc1  1  0.005931  0.326413  0.750000  1
  Sc  Sc2  1  0.672911  0.995700  0.250000  1
  Sc  Sc3  1  0.328213  0.006593  0.750000  1
  Al  Al4  1  0.122847  0.121565  0.250000  1
  Al  Al5  1  0.876193  0.876295  0.750000  1
  Al  Al6  1  0.996838  0.335095  0.079910  1
  Al  Al7  1  0.002827  0.664526  0.920462  1
  Al  Al8  1  0.002827  0.664526  0.579538  1
  Al  Al9  1  0.335805  0.997754  0.419895  1
  Al  Al10  1  0.996838  0.335095  0.420090  1
  Al  Al11  1  0.664571  0.002300  0.579168  1
  Al  Al12  1  0.664571  0.002300  0.920832  1
  Al  Al13  1  0.335805  0.997754  0.080105  1
  Al  Al14  1  0.330645  0.330766  0.555407  1
  Al  Al15  1  0.669643  0.669898  0.441484  1
  Al  Al16  1  0.669643  0.669898  0.058516  1
  Al  Al17  1  0.330645  0.330766  0.944593  1
  Al  Al18  1  0.338556  0.555693  0.250000  1
  Al  Al19  1  0.658761  0.444134  0.750000  1
  Al  Al20  1  0.557367  0.342776  0.250000  1
  Al  Al21  1  0.443338  0.658099  0.750000  1
  Rh  Rh22  1  0.673428  0.328413  0.000738  1
  Rh  Rh23  1  0.326639  0.672793  0.001459  1
  Rh  Rh24  1  0.326639  0.672793  0.498541  1
  Rh  Rh25  1  0.673428  0.328413  0.499262  1
  Rh  Rh26  1  0.999687  0.998580  0.000977  1
  Rh  Rh27  1  0.999687  0.998580  0.499023  1
