# generated using pymatgen
data_U2Mn5(CoP)7
_symmetry_space_group_name_H-M   'P 1'
_cell_length_a   9.06329814
_cell_length_b   9.08225027
_cell_length_c   3.61453100
_cell_angle_alpha   90.00000000
_cell_angle_beta   90.00000000
_cell_angle_gamma   120.29659267
_symmetry_Int_Tables_number   1
_chemical_formula_structural   U2Mn5(CoP)7
_chemical_formula_sum   'U2 Mn5 Co7 P7'
_cell_volume   256.89555082
_cell_formula_units_Z   1
loop_
 _symmetry_equiv_pos_site_id
 _symmetry_equiv_pos_as_xyz
  1  'x, y, z'
loop_
 _atom_site_type_symbol
 _atom_site_label
 _atom_site_symmetry_multiplicity
 _atom_site_fract_x
 _atom_site_fract_y
 _atom_site_fract_z
 _atom_site_occupancy
  U  U0  1  0.666490  0.331367  0.500000  1
  U  U1  1  0.331244  0.670197  0.000000  1
  Mn  Mn2  1  0.559747  0.941877  0.500000  1
  Mn  Mn3  1  0.221328  0.100458  0.500000  1
  Mn  Mn4  1  0.880386  0.780844  0.500000  1
  Mn  Mn5  1  0.901052  0.119534  0.500000  1
  Mn  Mn6  1  0.055180  0.616149  0.500000  1
  Co  Co7  1  0.119311  0.845612  0.000000  1
  Co  Co8  1  0.386283  0.439144  0.500000  1
  Co  Co9  1  0.723957  0.878124  0.000000  1
  Co  Co10  1  0.932073  0.366561  0.000000  1
  Co  Co11  1  0.629406  0.561987  0.000000  1
  Co  Co12  1  0.437877  0.070977  0.000000  1
  Co  Co13  1  0.157253  0.278673  0.000000  1
  P  P14  1  0.000802  0.002012  0.000000  1
  P  P15  1  0.597670  0.708671  0.500000  1
  P  P16  1  0.702336  0.106880  0.000000  1
  P  P17  1  0.890637  0.591527  0.000000  1
  P  P18  1  0.406238  0.299026  0.000000  1
  P  P19  1  0.288770  0.889541  0.500000  1
  P  P20  1  0.111960  0.400841  0.500000  1
