# generated using pymatgen
data_PrSi4RuRh5
_symmetry_space_group_name_H-M   'P 1'
_cell_length_a   7.03514700
_cell_length_b   7.07359753
_cell_length_c   3.83235300
_cell_angle_alpha   90.00000000
_cell_angle_beta   90.00000000
_cell_angle_gamma   119.82034346
_symmetry_Int_Tables_number   1
_chemical_formula_structural   PrSi4RuRh5
_chemical_formula_sum   'Pr1 Si4 Ru1 Rh5'
_cell_volume   165.46000608
_cell_formula_units_Z   1
loop_
 _symmetry_equiv_pos_site_id
 _symmetry_equiv_pos_as_xyz
  1  'x, y, z'
loop_
 _atom_site_type_symbol
 _atom_site_label
 _atom_site_symmetry_multiplicity
 _atom_site_fract_x
 _atom_site_fract_y
 _atom_site_fract_z
 _atom_site_occupancy
  Pr  Pr0  1  0.001585  0.003169  0.000000  1
  Si  Si1  1  0.334139  0.668278  0.000000  1
  Si  Si2  1  0.408261  0.201815  0.499999  1
  Si  Si3  1  0.793554  0.201815  0.499999  1
  Si  Si4  1  0.797288  0.594574  0.499999  1
  Ru  Ru5  1  0.532541  0.065083  0.000000  1
  Rh  Rh6  1  0.934617  0.467110  0.000000  1
  Rh  Rh7  1  0.532493  0.467110  0.000000  1
  Rh  Rh8  1  0.199159  0.398319  0.499999  1
  Rh  Rh9  1  0.198827  0.799698  0.499999  1
  Rh  Rh10  1  0.600871  0.799698  0.499999  1
