# generated using pymatgen
data_Ba2Cd8PtAu3
_symmetry_space_group_name_H-M   'P 1'
_cell_length_a   8.74241767
_cell_length_b   8.74241767
_cell_length_c   4.55580800
_cell_angle_alpha   90.00000000
_cell_angle_beta   90.00000000
_cell_angle_gamma   90.50728954
_symmetry_Int_Tables_number   1
_chemical_formula_structural   Ba2Cd8PtAu3
_chemical_formula_sum   'Ba2 Cd8 Pt1 Au3'
_cell_volume   348.18615010
_cell_formula_units_Z   1
loop_
 _symmetry_equiv_pos_site_id
 _symmetry_equiv_pos_as_xyz
  1  'x, y, z'
loop_
 _atom_site_type_symbol
 _atom_site_label
 _atom_site_symmetry_multiplicity
 _atom_site_fract_x
 _atom_site_fract_y
 _atom_site_fract_z
 _atom_site_occupancy
  Ba  Ba0  1  0.506330  0.506330  0.500000  1
  Ba  Ba1  1  0.994239  0.994239  0.000000  1
  Cd  Cd2  1  0.341118  0.087376  0.500000  1
  Cd  Cd3  1  0.659961  0.907450  0.500000  1
  Cd  Cd4  1  0.835718  0.419179  0.000000  1
  Cd  Cd5  1  0.156597  0.588655  0.000000  1
  Cd  Cd6  1  0.087376  0.341118  0.500000  1
  Cd  Cd7  1  0.907450  0.659961  0.500000  1
  Cd  Cd8  1  0.419179  0.835718  0.000000  1
  Cd  Cd9  1  0.588655  0.156597  0.000000  1
  Pt  Pt10  1  0.720356  0.720356  0.000000  1
  Au  Au11  1  0.782571  0.216048  0.500000  1
  Au  Au12  1  0.216048  0.782571  0.500000  1
  Au  Au13  1  0.284401  0.284401  0.000000  1
