# generated using pymatgen
data_KLi3RuO5
_symmetry_space_group_name_H-M   'P 1'
_cell_length_a   5.37682784
_cell_length_b   5.37686478
_cell_length_c   8.82633195
_cell_angle_alpha   99.52893744
_cell_angle_beta   80.46976923
_cell_angle_gamma   97.01770976
_symmetry_Int_Tables_number   1
_chemical_formula_structural   KLi3RuO5
_chemical_formula_sum   'K2 Li6 Ru2 O10'
_cell_volume   246.99846246
_cell_formula_units_Z   2
loop_
 _symmetry_equiv_pos_site_id
 _symmetry_equiv_pos_as_xyz
  1  'x, y, z'
loop_
 _atom_site_type_symbol
 _atom_site_label
 _atom_site_symmetry_multiplicity
 _atom_site_fract_x
 _atom_site_fract_y
 _atom_site_fract_z
 _atom_site_occupancy
  K  K0  1  0.252057  0.252052  0.500002  1
  K  K1  1  0.747943  0.747949  0.499998  1
  Li  Li2  1  0.350465  0.157612  0.114880  1
  Li  Li3  1  0.842385  0.649533  0.114880  1
  Li  Li4  1  0.826604  0.173391  0.198457  1
  Li  Li5  1  0.173394  0.826609  0.801543  1
  Li  Li6  1  0.157613  0.350467  0.885120  1
  Li  Li7  1  0.649534  0.842388  0.885120  1
  Ru  Ru8  1  0.317553  0.682502  0.226609  1
  Ru  Ru9  1  0.682446  0.317498  0.773390  1
  O  O10  1  0.114352  0.427574  0.126566  1
  O  O11  1  0.572392  0.885618  0.126576  1
  O  O12  1  0.076212  0.923781  0.213848  1
  O  O13  1  0.563281  0.436714  0.224990  1
  O  O14  1  0.262582  0.737409  0.435883  1
  O  O15  1  0.737417  0.262591  0.564118  1
  O  O16  1  0.436718  0.563285  0.775010  1
  O  O17  1  0.923786  0.076219  0.786152  1
  O  O18  1  0.427608  0.114383  0.873424  1
  O  O19  1  0.885648  0.572427  0.873434  1
