# generated using pymatgen
data_TbYbPa2(NiP)4
_symmetry_space_group_name_H-M   'P 1'
_cell_length_a   3.90867400
_cell_length_b   3.90867488
_cell_length_c   15.47855000
_cell_angle_alpha   90.00000000
_cell_angle_beta   90.00000000
_cell_angle_gamma   119.99999252
_symmetry_Int_Tables_number   1
_chemical_formula_structural   TbYbPa2(NiP)4
_chemical_formula_sum   'Tb1 Yb1 Pa2 Ni4 P4'
_cell_volume   204.79527712
_cell_formula_units_Z   1
loop_
 _symmetry_equiv_pos_site_id
 _symmetry_equiv_pos_as_xyz
  1  'x, y, z'
loop_
 _atom_site_type_symbol
 _atom_site_label
 _atom_site_symmetry_multiplicity
 _atom_site_fract_x
 _atom_site_fract_y
 _atom_site_fract_z
 _atom_site_occupancy
  Tb  Tb0  1  0.000000  0.000000  0.250000  1
  Yb  Yb1  1  0.000000  0.000000  0.750000  1
  Pa  Pa2  1  0.000000  0.000000  0.500941  1
  Pa  Pa3  1  0.000000  0.000000  0.999059  1
  Ni  Ni4  1  0.333333  0.666667  0.383809  1
  Ni  Ni5  1  0.666667  0.333333  0.615896  1
  Ni  Ni6  1  0.666667  0.333333  0.884104  1
  Ni  Ni7  1  0.333333  0.666667  0.116191  1
  P  P8  1  0.333333  0.666667  0.877705  1
  P  P9  1  0.666667  0.333333  0.124422  1
  P  P10  1  0.666667  0.333333  0.375578  1
  P  P11  1  0.333333  0.666667  0.622295  1
