# generated using pymatgen
data_Ca4Si10RuPt5
_symmetry_space_group_name_H-M   'P 1'
_cell_length_a   8.28121816
_cell_length_b   8.28121829
_cell_length_c   8.28121803
_cell_angle_alpha   138.66249036
_cell_angle_beta   104.31758342
_cell_angle_gamma   90.10723630
_symmetry_Int_Tables_number   1
_chemical_formula_structural   Ca4Si10RuPt5
_chemical_formula_sum   'Ca4 Si10 Ru1 Pt5'
_cell_volume   347.49543696
_cell_formula_units_Z   1
loop_
 _symmetry_equiv_pos_site_id
 _symmetry_equiv_pos_as_xyz
  1  'x, y, z'
loop_
 _atom_site_type_symbol
 _atom_site_label
 _atom_site_symmetry_multiplicity
 _atom_site_fract_x
 _atom_site_fract_y
 _atom_site_fract_z
 _atom_site_occupancy
  Ca  Ca0  1  0.637297  0.370822  0.267601  1
  Ca  Ca1  1  0.362703  0.630303  0.733525  1
  Ca  Ca2  1  0.103222  0.869697  0.232399  1
  Ca  Ca3  1  0.896778  0.129178  0.766475  1
  Si  Si4  1  0.457962  0.114939  0.356648  1
  Si  Si5  1  0.542038  0.898686  0.656977  1
  Si  Si6  1  0.758291  0.601314  0.143352  1
  Si  Si7  1  0.241709  0.385061  0.843023  1
  Si  Si8  1  0.272083  0.522083  0.250000  1
  Si  Si9  1  0.725191  0.475191  0.750000  1
  Si  Si10  1  0.727917  0.977917  0.250000  1
  Si  Si11  1  0.274809  0.024809  0.750000  1
  Si  Si12  1  0.000000  0.250000  0.250000  1
  Si  Si13  1  0.000000  0.750000  0.750000  1
  Ru  Ru14  1  0.500000  0.250000  0.750000  1
  Pt  Pt15  1  0.500000  0.750000  0.250000  1
  Pt  Pt16  1  0.253009  0.136216  0.113840  1
  Pt  Pt17  1  0.746991  0.860831  0.883206  1
  Pt  Pt18  1  0.022376  0.639169  0.386160  1
  Pt  Pt19  1  0.977624  0.363784  0.616794  1
