# generated using pymatgen
data_Np(Co3Si2)2
_symmetry_space_group_name_H-M   'P 1'
_cell_length_a   6.63235000
_cell_length_b   6.63235086
_cell_length_c   3.59405200
_cell_angle_alpha   90.00000000
_cell_angle_beta   90.00000000
_cell_angle_gamma   120.00000570
_symmetry_Int_Tables_number   1
_chemical_formula_structural   Np(Co3Si2)2
_chemical_formula_sum   'Np1 Co6 Si4'
_cell_volume   136.91464114
_cell_formula_units_Z   1
loop_
 _symmetry_equiv_pos_site_id
 _symmetry_equiv_pos_as_xyz
  1  'x, y, z'
loop_
 _atom_site_type_symbol
 _atom_site_label
 _atom_site_symmetry_multiplicity
 _atom_site_fract_x
 _atom_site_fract_y
 _atom_site_fract_z
 _atom_site_occupancy
  Np  Np0  1  0.000000  0.000000  0.000000  1
  Co  Co1  1  0.533459  0.066917  0.000000  1
  Co  Co2  1  0.533458  0.466541  0.000000  1
  Co  Co3  1  0.933083  0.466541  0.000000  1
  Co  Co4  1  0.203015  0.406031  0.500001  1
  Co  Co5  1  0.203016  0.796986  0.500001  1
  Co  Co6  1  0.593969  0.796986  0.500001  1
  Si  Si7  1  0.333334  0.666667  0.000000  1
  Si  Si8  1  0.400958  0.200479  0.500001  1
  Si  Si9  1  0.799522  0.200479  0.500001  1
  Si  Si10  1  0.799521  0.599042  0.500001  1
