# generated using pymatgen
data_Li8Ac7TmGe8
_symmetry_space_group_name_H-M   'P 1'
_cell_length_a   9.24748000
_cell_length_b   9.24747948
_cell_length_c   7.87624200
_cell_angle_alpha   90.00000000
_cell_angle_beta   90.00000000
_cell_angle_gamma   120.00000186
_symmetry_Int_Tables_number   1
_chemical_formula_structural   Li8Ac7TmGe8
_chemical_formula_sum   'Li8 Ac7 Tm1 Ge8'
_cell_volume   583.30601122
_cell_formula_units_Z   1
loop_
 _symmetry_equiv_pos_site_id
 _symmetry_equiv_pos_as_xyz
  1  'x, y, z'
loop_
 _atom_site_type_symbol
 _atom_site_label
 _atom_site_symmetry_multiplicity
 _atom_site_fract_x
 _atom_site_fract_y
 _atom_site_fract_z
 _atom_site_occupancy
  Li  Li0  1  0.164771  0.329544  0.276664  1
  Li  Li1  1  0.164771  0.835229  0.276664  1
  Li  Li2  1  0.670456  0.835229  0.276664  1
  Li  Li3  1  0.837008  0.674014  0.798467  1
  Li  Li4  1  0.837008  0.162992  0.798467  1
  Li  Li5  1  0.325986  0.162992  0.798467  1
  Li  Li6  1  0.333333  0.666667  0.671884  1
  Li  Li7  1  0.666667  0.333333  0.161799  1
  Ac  Ac8  1  0.512840  0.025680  0.496406  1
  Ac  Ac9  1  0.512840  0.487160  0.496406  1
  Ac  Ac10  1  0.974320  0.487160  0.496406  1
  Ac  Ac11  1  0.486528  0.973058  0.995618  1
  Ac  Ac12  1  0.486528  0.513472  0.995618  1
  Ac  Ac13  1  0.026942  0.513472  0.995618  1
  Ac  Ac14  1  0.000000  0.000000  0.505522  1
  Tm  Tm15  1  0.000000  0.000000  0.012421  1
  Ge  Ge16  1  0.164794  0.329588  0.730205  1
  Ge  Ge17  1  0.164794  0.835206  0.730205  1
  Ge  Ge18  1  0.670412  0.835206  0.730205  1
  Ge  Ge19  1  0.838406  0.676812  0.211563  1
  Ge  Ge20  1  0.838406  0.161594  0.211563  1
  Ge  Ge21  1  0.323188  0.161594  0.211563  1
  Ge  Ge22  1  0.333333  0.666667  0.286173  1
  Ge  Ge23  1  0.666667  0.333333  0.777405  1
