# generated using pymatgen
data_Hf2Sc2Si4MoW3
_symmetry_space_group_name_H-M   'P 1'
_cell_length_a   3.50718600
_cell_length_b   6.99819710
_cell_length_c   8.21219106
_cell_angle_alpha   90.00307142
_cell_angle_beta   90.00000000
_cell_angle_gamma   90.00000000
_symmetry_Int_Tables_number   1
_chemical_formula_structural   Hf2Sc2Si4MoW3
_chemical_formula_sum   'Hf2 Sc2 Si4 Mo1 W3'
_cell_volume   201.55984376
_cell_formula_units_Z   1
loop_
 _symmetry_equiv_pos_site_id
 _symmetry_equiv_pos_as_xyz
  1  'x, y, z'
loop_
 _atom_site_type_symbol
 _atom_site_label
 _atom_site_symmetry_multiplicity
 _atom_site_fract_x
 _atom_site_fract_y
 _atom_site_fract_z
 _atom_site_occupancy
  Hf  Hf0  1  0.250000  0.541718  0.166384  1
  Hf  Hf1  1  0.750000  0.458554  0.834354  1
  Sc  Sc2  1  0.250000  0.042244  0.334250  1
  Sc  Sc3  1  0.750000  0.957669  0.665571  1
  Si  Si4  1  0.250000  0.257602  0.639021  1
  Si  Si5  1  0.750000  0.742921  0.360933  1
  Si  Si6  1  0.250000  0.758252  0.860245  1
  Si  Si7  1  0.750000  0.241304  0.139169  1
  Mo  Mo8  1  0.250000  0.132300  0.939244  1
  W  W9  1  0.750000  0.370581  0.438679  1
  W  W10  1  0.250000  0.629360  0.560973  1
  W  W11  1  0.750000  0.867494  0.061179  1
