# generated using pymatgen
data_Gd4DyRu3
_symmetry_space_group_name_H-M   'P 1'
_cell_length_a   10.90820000
_cell_length_b   10.90820000
_cell_length_c   6.40023100
_cell_angle_alpha   90.00000000
_cell_angle_beta   90.00000000
_cell_angle_gamma   90.00000000
_symmetry_Int_Tables_number   1
_chemical_formula_structural   Gd4DyRu3
_chemical_formula_sum   'Gd16 Dy4 Ru12'
_cell_volume   761.55598076
_cell_formula_units_Z   4
loop_
 _symmetry_equiv_pos_site_id
 _symmetry_equiv_pos_as_xyz
  1  'x, y, z'
loop_
 _atom_site_type_symbol
 _atom_site_label
 _atom_site_symmetry_multiplicity
 _atom_site_fract_x
 _atom_site_fract_y
 _atom_site_fract_z
 _atom_site_occupancy
  Gd  Gd0  1  0.291578  0.087103  0.377431  1
  Gd  Gd1  1  0.291578  0.912897  0.877431  1
  Gd  Gd2  1  0.708422  0.087103  0.877431  1
  Gd  Gd3  1  0.708422  0.912897  0.377431  1
  Gd  Gd4  1  0.587103  0.791578  0.877431  1
  Gd  Gd5  1  0.587103  0.208422  0.377431  1
  Gd  Gd6  1  0.412897  0.791578  0.377431  1
  Gd  Gd7  1  0.412897  0.208422  0.877431  1
  Gd  Gd8  1  0.208422  0.412897  0.622569  1
  Gd  Gd9  1  0.208422  0.587103  0.122569  1
  Gd  Gd10  1  0.791578  0.412897  0.122569  1
  Gd  Gd11  1  0.791578  0.587103  0.622569  1
  Gd  Gd12  1  0.912897  0.708422  0.122569  1
  Gd  Gd13  1  0.912897  0.291578  0.622569  1
  Gd  Gd14  1  0.087103  0.708422  0.622569  1
  Gd  Gd15  1  0.087103  0.291578  0.122569  1
  Dy  Dy16  1  0.000000  0.000000  0.500000  1
  Dy  Dy17  1  0.000000  0.000000  0.000000  1
  Dy  Dy18  1  0.500000  0.500000  0.000000  1
  Dy  Dy19  1  0.500000  0.500000  0.500000  1
  Ru  Ru20  1  0.847439  0.152561  0.250000  1
  Ru  Ru21  1  0.847439  0.847439  0.750000  1
  Ru  Ru22  1  0.152561  0.152561  0.750000  1
  Ru  Ru23  1  0.152561  0.847439  0.250000  1
  Ru  Ru24  1  0.652561  0.347439  0.750000  1
  Ru  Ru25  1  0.652561  0.652561  0.250000  1
  Ru  Ru26  1  0.347439  0.347439  0.250000  1
  Ru  Ru27  1  0.347439  0.652561  0.750000  1
  Ru  Ru28  1  0.500000  0.000000  0.125043  1
  Ru  Ru29  1  0.500000  0.000000  0.625043  1
  Ru  Ru30  1  0.000000  0.500000  0.874957  1
  Ru  Ru31  1  0.000000  0.500000  0.374957  1
