# generated using pymatgen
data_Zr2Co3Si5P2Ru9
_symmetry_space_group_name_H-M   'P 1'
_cell_length_a   9.37806654
_cell_length_b   9.37203739
_cell_length_c   3.80316100
_cell_angle_alpha   90.00000000
_cell_angle_beta   90.00000000
_cell_angle_gamma   120.27819990
_symmetry_Int_Tables_number   1
_chemical_formula_structural   Zr2Co3Si5P2Ru9
_chemical_formula_sum   'Zr2 Co3 Si5 P2 Ru9'
_cell_volume   288.66780966
_cell_formula_units_Z   1
loop_
 _symmetry_equiv_pos_site_id
 _symmetry_equiv_pos_as_xyz
  1  'x, y, z'
loop_
 _atom_site_type_symbol
 _atom_site_label
 _atom_site_symmetry_multiplicity
 _atom_site_fract_x
 _atom_site_fract_y
 _atom_site_fract_z
 _atom_site_occupancy
  Zr  Zr0  1  0.334594  0.664499  0.000000  1
  Zr  Zr1  1  0.663805  0.331844  0.500000  1
  Co  Co2  1  0.154320  0.277174  0.000000  1
  Co  Co3  1  0.725007  0.882975  0.000000  1
  Co  Co4  1  0.117426  0.841373  0.000000  1
  Si  Si5  1  0.113448  0.399254  0.500000  1
  Si  Si6  1  0.604109  0.718027  0.500000  1
  Si  Si7  1  0.283029  0.884599  0.500000  1
  Si  Si8  1  0.001890  0.001213  0.000000  1
  Si  Si9  1  0.408186  0.297023  0.000000  1
  P  P10  1  0.698094  0.107349  0.000000  1
  P  P11  1  0.890834  0.588539  0.000000  1
  Ru  Ru12  1  0.429565  0.060274  0.000000  1
  Ru  Ru13  1  0.930133  0.359987  0.000000  1
  Ru  Ru14  1  0.642178  0.573093  0.000000  1
  Ru  Ru15  1  0.384209  0.441883  0.500000  1
  Ru  Ru16  1  0.565335  0.948671  0.500000  1
  Ru  Ru17  1  0.047538  0.613893  0.500000  1
  Ru  Ru18  1  0.209734  0.098409  0.500000  1
  Ru  Ru19  1  0.906435  0.111846  0.500000  1
  Ru  Ru20  1  0.890131  0.798075  0.500000  1
