# generated using pymatgen
data_Ho3In2SnHgIrRu
_symmetry_space_group_name_H-M   'P 1'
_cell_length_a   7.87274000
_cell_length_b   7.87274101
_cell_length_c   3.76167300
_cell_angle_alpha   90.00000000
_cell_angle_beta   90.00000000
_cell_angle_gamma   119.99999577
_symmetry_Int_Tables_number   1
_chemical_formula_structural   Ho3In2SnHgIrRu
_chemical_formula_sum   'Ho3 In2 Sn1 Hg1 Ir1 Ru1'
_cell_volume   201.91266619
_cell_formula_units_Z   1
loop_
 _symmetry_equiv_pos_site_id
 _symmetry_equiv_pos_as_xyz
  1  'x, y, z'
loop_
 _atom_site_type_symbol
 _atom_site_label
 _atom_site_symmetry_multiplicity
 _atom_site_fract_x
 _atom_site_fract_y
 _atom_site_fract_z
 _atom_site_occupancy
  Ho  Ho0  1  0.586885  0.617882  0.000000  1
  Ho  Ho1  1  0.383380  0.970173  0.000000  1
  Ho  Ho2  1  0.030578  0.413561  0.000000  1
  In  In3  1  0.260171  0.261320  0.500000  1
  In  In4  1  0.740596  0.000986  0.500000  1
  Sn  Sn5  1  0.000077  0.742645  0.500000  1
  Hg  Hg6  1  0.665379  0.332148  0.500000  1
  Ir  Ir7  1  0.332220  0.667756  0.500000  1
  Ru  Ru8  1  0.000714  0.993529  0.000000  1
