# generated using pymatgen
data_Yb3Ho5(Si4W3)4
_symmetry_space_group_name_H-M   'P 1'
_cell_length_a   6.73774565
_cell_length_b   6.91805278
_cell_length_c   12.94006539
_cell_angle_alpha   89.94897917
_cell_angle_beta   90.04771816
_cell_angle_gamma   89.93564835
_symmetry_Int_Tables_number   1
_chemical_formula_structural   Yb3Ho5(Si4W3)4
_chemical_formula_sum   'Yb3 Ho5 Si16 W12'
_cell_volume   603.16253449
_cell_formula_units_Z   1
loop_
 _symmetry_equiv_pos_site_id
 _symmetry_equiv_pos_as_xyz
  1  'x, y, z'
loop_
 _atom_site_type_symbol
 _atom_site_label
 _atom_site_symmetry_multiplicity
 _atom_site_fract_x
 _atom_site_fract_y
 _atom_site_fract_z
 _atom_site_occupancy
  Yb  Yb0  1  0.496601  0.332355  0.091705  1
  Yb  Yb1  1  0.996984  0.168044  0.408987  1
  Yb  Yb2  1  0.503482  0.666552  0.590510  1
  Ho  Ho3  1  0.003953  0.831129  0.906298  1
  Ho  Ho4  1  0.504146  0.667826  0.907588  1
  Ho  Ho5  1  0.003660  0.832222  0.592380  1
  Ho  Ho6  1  0.497505  0.331622  0.407492  1
  Ho  Ho7  1  0.997025  0.169758  0.093852  1
  Si  Si8  1  0.800224  0.634633  0.748339  1
  Si  Si9  1  0.304391  0.862680  0.748915  1
  Si  Si10  1  0.198701  0.364770  0.250189  1
  Si  Si11  1  0.698066  0.136429  0.250541  1
  Si  Si12  1  0.533695  0.373315  0.749635  1
  Si  Si13  1  0.034423  0.127274  0.749348  1
  Si  Si14  1  0.465651  0.625766  0.249647  1
  Si  Si15  1  0.965829  0.876176  0.251138  1
  Si  Si16  1  0.661600  0.042149  0.545640  1
  Si  Si17  1  0.162649  0.455617  0.955311  1
  Si  Si18  1  0.337064  0.957349  0.045269  1
  Si  Si19  1  0.838391  0.542866  0.455005  1
  Si  Si20  1  0.337841  0.956272  0.454562  1
  Si  Si21  1  0.836225  0.543744  0.044807  1
  Si  Si22  1  0.662721  0.044268  0.954992  1
  Si  Si23  1  0.162298  0.456339  0.545993  1
  W  W24  1  0.663378  0.005192  0.750907  1
  W  W25  1  0.162472  0.495203  0.750635  1
  W  W26  1  0.337698  0.992885  0.250196  1
  W  W27  1  0.838495  0.508527  0.249425  1
  W  W28  1  0.832169  0.337112  0.626083  1
  W  W29  1  0.330431  0.160411  0.874551  1
  W  W30  1  0.165443  0.664206  0.125539  1
  W  W31  1  0.667758  0.837021  0.373990  1
  W  W32  1  0.166568  0.662542  0.373576  1
  W  W33  1  0.667806  0.838019  0.126175  1
  W  W34  1  0.832115  0.338092  0.874392  1
  W  W35  1  0.332541  0.161636  0.626389  1
