# generated using pymatgen
data_Y4Al24Pt8Rh
_symmetry_space_group_name_H-M   'P 1'
_cell_length_a   7.52586587
_cell_length_b   7.52842156
_cell_length_c   13.21058827
_cell_angle_alpha   84.59177329
_cell_angle_beta   100.88233004
_cell_angle_gamma   119.80676255
_symmetry_Int_Tables_number   1
_chemical_formula_structural   Y4Al24Pt8Rh
_chemical_formula_sum   'Y4 Al24 Pt8 Rh1'
_cell_volume   637.78530091
_cell_formula_units_Z   1
loop_
 _symmetry_equiv_pos_site_id
 _symmetry_equiv_pos_as_xyz
  1  'x, y, z'
loop_
 _atom_site_type_symbol
 _atom_site_label
 _atom_site_symmetry_multiplicity
 _atom_site_fract_x
 _atom_site_fract_y
 _atom_site_fract_z
 _atom_site_occupancy
  Y  Y0  1  0.731595  0.998451  0.191068  1
  Y  Y1  1  0.268405  0.001549  0.808932  1
  Y  Y2  1  0.062009  0.667854  0.191139  1
  Y  Y3  1  0.937991  0.332146  0.808861  1
  Al  Al4  1  0.810410  0.871200  0.817950  1
  Al  Al5  1  0.189590  0.128800  0.182050  1
  Al  Al6  1  0.982145  0.669720  0.945924  1
  Al  Al7  1  0.017855  0.330280  0.054076  1
  Al  Al8  1  0.399055  0.663821  0.816958  1
  Al  Al9  1  0.600945  0.336179  0.183042  1
  Al  Al10  1  0.881941  0.665257  0.671329  1
  Al  Al11  1  0.118059  0.334743  0.328671  1
  Al  Al12  1  0.602749  0.458980  0.816626  1
  Al  Al13  1  0.397251  0.541020  0.183374  1
  Al  Al14  1  0.230228  0.339811  0.669161  1
  Al  Al15  1  0.769772  0.660189  0.330839  1
  Al  Al16  1  0.852919  0.333166  0.558809  1
  Al  Al17  1  0.185756  0.999268  0.558776  1
  Al  Al18  1  0.814244  0.000732  0.441224  1
  Al  Al19  1  0.348317  0.999557  0.054080  1
  Al  Al20  1  0.651683  0.000443  0.945920  1
  Al  Al21  1  0.556380  0.992616  0.671344  1
  Al  Al22  1  0.443620  0.007384  0.328656  1
  Al  Al23  1  0.521216  0.667867  0.561632  1
  Al  Al24  1  0.478784  0.332133  0.438368  1
  Al  Al25  1  0.686676  0.671704  0.044798  1
  Al  Al26  1  0.313324  0.328296  0.955202  1
  Al  Al27  1  0.147081  0.666834  0.441191  1
  Pt  Pt28  1  0.328493  0.671573  0.000082  1
  Pt  Pt29  1  0.545889  0.324931  0.637031  1
  Pt  Pt30  1  0.454111  0.675069  0.362969  1
  Pt  Pt31  1  0.887205  0.007481  0.638404  1
  Pt  Pt32  1  0.112795  0.992519  0.361596  1
  Pt  Pt33  1  0.671507  0.328427  0.999918  1
  Pt  Pt34  1  0.204234  0.666687  0.638301  1
  Pt  Pt35  1  0.795766  0.333313  0.361699  1
  Rh  Rh36  1  0.000000  0.000000  0.000000  1
