# generated using pymatgen
data_Rb4VP2S9
_symmetry_space_group_name_H-M   'P 1'
_cell_length_a   6.90522400
_cell_length_b   13.08500600
_cell_length_c   19.59251800
_cell_angle_alpha   90.00000000
_cell_angle_beta   90.00000000
_cell_angle_gamma   90.00000000
_symmetry_Int_Tables_number   1
_chemical_formula_structural   Rb4VP2S9
_chemical_formula_sum   'Rb16 V4 P8 S36'
_cell_volume   1770.27995510
_cell_formula_units_Z   4
loop_
 _symmetry_equiv_pos_site_id
 _symmetry_equiv_pos_as_xyz
  1  'x, y, z'
loop_
 _atom_site_type_symbol
 _atom_site_label
 _atom_site_symmetry_multiplicity
 _atom_site_fract_x
 _atom_site_fract_y
 _atom_site_fract_z
 _atom_site_occupancy
  Rb  Rb0  1  0.750742  0.327884  0.568840  1
  Rb  Rb1  1  0.256669  0.375652  0.819218  1
  Rb  Rb2  1  0.743331  0.875652  0.180782  1
  Rb  Rb3  1  0.745117  0.021797  0.465990  1
  Rb  Rb4  1  0.243331  0.375652  0.319218  1
  Rb  Rb5  1  0.249258  0.827884  0.431160  1
  Rb  Rb6  1  0.248505  0.681264  0.216704  1
  Rb  Rb7  1  0.748505  0.181264  0.283296  1
  Rb  Rb8  1  0.254883  0.521797  0.534010  1
  Rb  Rb9  1  0.250742  0.827884  0.931160  1
  Rb  Rb10  1  0.245117  0.521797  0.034010  1
  Rb  Rb11  1  0.251495  0.681264  0.716704  1
  Rb  Rb12  1  0.756669  0.875652  0.680782  1
  Rb  Rb13  1  0.751495  0.181264  0.783296  1
  Rb  Rb14  1  0.754883  0.021797  0.965990  1
  Rb  Rb15  1  0.749258  0.327884  0.068840  1
  V  V16  1  0.144925  0.101506  0.124966  1
  V  V17  1  0.644925  0.601506  0.375034  1
  V  V18  1  0.855075  0.601506  0.875034  1
  V  V19  1  0.355075  0.101506  0.624966  1
  P  P20  1  0.252297  0.000773  0.766314  1
  P  P21  1  0.248898  0.202154  0.483837  1
  P  P22  1  0.748898  0.702154  0.016163  1
  P  P23  1  0.251102  0.202154  0.983837  1
  P  P24  1  0.751102  0.702154  0.516163  1
  P  P25  1  0.752297  0.500773  0.733686  1
  P  P26  1  0.747703  0.500773  0.233686  1
  P  P27  1  0.247703  0.000773  0.266314  1
  S  S28  1  0.749950  0.548175  0.483925  1
  S  S29  1  0.838366  0.101537  0.124668  1
  S  S30  1  0.497625  0.240740  0.936247  1
  S  S31  1  0.506528  0.462056  0.685696  1
  S  S32  1  0.748241  0.762087  0.416302  1
  S  S33  1  0.002375  0.240740  0.436247  1
  S  S34  1  0.006528  0.962056  0.814304  1
  S  S35  1  0.249950  0.048175  0.016075  1
  S  S36  1  0.991687  0.742763  0.065643  1
  S  S37  1  0.997625  0.740740  0.563753  1
  S  S38  1  0.996074  0.460180  0.684800  1
  S  S39  1  0.753919  0.440751  0.833521  1
  S  S40  1  0.246081  0.940751  0.166479  1
  S  S41  1  0.750050  0.548175  0.983925  1
  S  S42  1  0.253919  0.940751  0.666479  1
  S  S43  1  0.161634  0.601537  0.875332  1
  S  S44  1  0.503926  0.460180  0.184800  1
  S  S45  1  0.746081  0.440751  0.333521  1
  S  S46  1  0.247044  0.154799  0.234172  1
  S  S47  1  0.338366  0.601537  0.375332  1
  S  S48  1  0.008313  0.242763  0.934357  1
  S  S49  1  0.993472  0.462056  0.185696  1
  S  S50  1  0.250050  0.048175  0.516075  1
  S  S51  1  0.747044  0.654799  0.265828  1
  S  S52  1  0.661634  0.101537  0.624668  1
  S  S53  1  0.251759  0.262087  0.583698  1
  S  S54  1  0.751759  0.762087  0.916302  1
  S  S55  1  0.493472  0.962056  0.314304  1
  S  S56  1  0.496074  0.960180  0.815200  1
  S  S57  1  0.252956  0.154799  0.734172  1
  S  S58  1  0.508313  0.742763  0.565643  1
  S  S59  1  0.752956  0.654799  0.765828  1
  S  S60  1  0.248241  0.262087  0.083698  1
  S  S61  1  0.502375  0.740740  0.063753  1
  S  S62  1  0.491687  0.242763  0.434357  1
  S  S63  1  0.003926  0.960180  0.315200  1
