# generated using pymatgen
data_K3Er3(PS4)4
_symmetry_space_group_name_H-M   'P 1'
_cell_length_a   9.78142400
_cell_length_b   9.78142378
_cell_length_c   14.37857800
_cell_angle_alpha   89.22925568
_cell_angle_beta   89.22925569
_cell_angle_gamma   72.01230186
_symmetry_Int_Tables_number   1
_chemical_formula_structural   K3Er3(PS4)4
_chemical_formula_sum   'K6 Er6 P8 S32'
_cell_volume   1308.26782094
_cell_formula_units_Z   2
loop_
 _symmetry_equiv_pos_site_id
 _symmetry_equiv_pos_as_xyz
  1  'x, y, z'
loop_
 _atom_site_type_symbol
 _atom_site_label
 _atom_site_symmetry_multiplicity
 _atom_site_fract_x
 _atom_site_fract_y
 _atom_site_fract_z
 _atom_site_occupancy
  K  K0  1  0.612855  0.972022  0.836447  1
  K  K1  1  0.027978  0.387145  0.663553  1
  K  K2  1  0.972022  0.612855  0.336447  1
  K  K3  1  0.000000  0.000000  0.000000  1
  K  K4  1  0.387145  0.027978  0.163553  1
  K  K5  1  0.000000  0.000000  0.500000  1
  Er  Er6  1  0.513861  0.747236  0.488313  1
  Er  Er7  1  0.486139  0.252764  0.511687  1
  Er  Er8  1  0.747236  0.513861  0.988313  1
  Er  Er9  1  0.249717  0.750283  0.750000  1
  Er  Er10  1  0.750283  0.249717  0.250000  1
  Er  Er11  1  0.252764  0.486139  0.011687  1
  P  P12  1  0.398399  0.762784  0.976465  1
  P  P13  1  0.601601  0.237216  0.023535  1
  P  P14  1  0.237216  0.601601  0.523535  1
  P  P15  1  0.332058  0.038249  0.638641  1
  P  P16  1  0.038249  0.332058  0.138641  1
  P  P17  1  0.762784  0.398399  0.476465  1
  P  P18  1  0.667942  0.961751  0.361359  1
  P  P19  1  0.961751  0.667942  0.861359  1
  S  S20  1  0.260449  0.732651  0.416133  1
  S  S21  1  0.946302  0.678942  0.003560  1
  S  S22  1  0.524688  0.161947  0.328212  1
  S  S23  1  0.678942  0.946302  0.503560  1
  S  S24  1  0.739551  0.267349  0.583867  1
  S  S25  1  0.959835  0.860423  0.804276  1
  S  S26  1  0.838053  0.475312  0.171788  1
  S  S27  1  0.072601  0.705657  0.609504  1
  S  S28  1  0.139577  0.040165  0.695724  1
  S  S29  1  0.475312  0.838053  0.671788  1
  S  S30  1  0.801618  0.596774  0.812489  1
  S  S31  1  0.456375  0.579703  0.894371  1
  S  S32  1  0.420297  0.543625  0.605629  1
  S  S33  1  0.040165  0.139577  0.195724  1
  S  S34  1  0.267349  0.739551  0.083867  1
  S  S35  1  0.927399  0.294343  0.390496  1
  S  S36  1  0.321058  0.053698  0.496440  1
  S  S37  1  0.053698  0.321058  0.996440  1
  S  S38  1  0.705657  0.072601  0.109504  1
  S  S39  1  0.403226  0.198382  0.687511  1
  S  S40  1  0.583369  0.787794  0.026824  1
  S  S41  1  0.212206  0.416631  0.473176  1
  S  S42  1  0.294343  0.927399  0.890496  1
  S  S43  1  0.787794  0.583369  0.526824  1
  S  S44  1  0.860423  0.959835  0.304276  1
  S  S45  1  0.198382  0.403226  0.187511  1
  S  S46  1  0.543625  0.420297  0.105629  1
  S  S47  1  0.579703  0.456375  0.394371  1
  S  S48  1  0.161947  0.524688  0.828212  1
  S  S49  1  0.732651  0.260449  0.916133  1
  S  S50  1  0.416631  0.212206  0.973176  1
  S  S51  1  0.596774  0.801618  0.312489  1
