# generated using pymatgen
data_Nd4Y11Ho5Bi12
_symmetry_space_group_name_H-M   'P 1'
_cell_length_a   8.31381284
_cell_length_b   9.53737105
_cell_length_c   12.16129400
_cell_angle_alpha   90.00486608
_cell_angle_beta   90.04733866
_cell_angle_gamma   89.99628334
_symmetry_Int_Tables_number   1
_chemical_formula_structural   Nd4Y11Ho5Bi12
_chemical_formula_sum   'Nd4 Y11 Ho5 Bi12'
_cell_volume   964.29199089
_cell_formula_units_Z   1
loop_
 _symmetry_equiv_pos_site_id
 _symmetry_equiv_pos_as_xyz
  1  'x, y, z'
loop_
 _atom_site_type_symbol
 _atom_site_label
 _atom_site_symmetry_multiplicity
 _atom_site_fract_x
 _atom_site_fract_y
 _atom_site_fract_z
 _atom_site_occupancy
  Nd  Nd0  1  0.183164  0.749996  0.720527  1
  Nd  Nd1  1  0.683212  0.750141  0.779562  1
  Nd  Nd2  1  0.816940  0.250216  0.279417  1
  Nd  Nd3  1  0.316865  0.250307  0.220216  1
  Y  Y4  1  0.807569  0.062314  0.560902  1
  Y  Y5  1  0.691562  0.937334  0.060079  1
  Y  Y6  1  0.192589  0.562196  0.439316  1
  Y  Y7  1  0.692509  0.561853  0.060584  1
  Y  Y8  1  0.192482  0.938033  0.439217  1
  Y  Y9  1  0.307768  0.061466  0.939573  1
  Y  Y10  1  0.807508  0.438094  0.560784  1
  Y  Y11  1  0.353711  0.750506  0.216880  1
  Y  Y12  1  0.853296  0.750324  0.282897  1
  Y  Y13  1  0.645954  0.250568  0.783117  1
  Y  Y14  1  0.147343  0.250783  0.717391  1
  Ho  Ho15  1  0.024335  0.750078  0.987657  1
  Ho  Ho16  1  0.524495  0.750216  0.512547  1
  Ho  Ho17  1  0.975981  0.250353  0.012357  1
  Ho  Ho18  1  0.475542  0.250238  0.487575  1
  Ho  Ho19  1  0.307344  0.435016  0.939523  1
  Bi  Bi20  1  0.433309  0.008096  0.670697  1
  Bi  Bi21  1  0.933845  0.492445  0.829424  1
  Bi  Bi22  1  0.566580  0.508174  0.329303  1
  Bi  Bi23  1  0.066544  0.992265  0.170592  1
  Bi  Bi24  1  0.566702  0.992441  0.329436  1
  Bi  Bi25  1  0.066707  0.508231  0.170549  1
  Bi  Bi26  1  0.433158  0.492452  0.670667  1
  Bi  Bi27  1  0.933441  0.008302  0.829407  1
  Bi  Bi28  1  0.406010  0.747464  0.962189  1
  Bi  Bi29  1  0.907227  0.750174  0.537225  1
  Bi  Bi30  1  0.593422  0.249871  0.037407  1
  Bi  Bi31  1  0.092890  0.250054  0.462985  1
