# generated using pymatgen
data_LaPr2ZnHg3Pd2
_symmetry_space_group_name_H-M   'P 1'
_cell_length_a   7.99628264
_cell_length_b   7.99628403
_cell_length_c   3.89797700
_cell_angle_alpha   90.00000000
_cell_angle_beta   90.00000000
_cell_angle_gamma   119.70981068
_symmetry_Int_Tables_number   1
_chemical_formula_structural   LaPr2ZnHg3Pd2
_chemical_formula_sum   'La1 Pr2 Zn1 Hg3 Pd2'
_cell_volume   216.47551298
_cell_formula_units_Z   1
loop_
 _symmetry_equiv_pos_site_id
 _symmetry_equiv_pos_as_xyz
  1  'x, y, z'
loop_
 _atom_site_type_symbol
 _atom_site_label
 _atom_site_symmetry_multiplicity
 _atom_site_fract_x
 _atom_site_fract_y
 _atom_site_fract_z
 _atom_site_occupancy
  La  La0  1  0.409948  0.409948  0.500000  1
  Pr  Pr1  1  0.590796  0.000139  0.500000  1
  Pr  Pr2  1  0.000139  0.590796  0.500000  1
  Zn  Zn3  1  0.999160  0.999160  0.500000  1
  Hg  Hg4  1  0.738516  0.738516  0.000000  1
  Hg  Hg5  1  0.263294  0.999080  0.000000  1
  Hg  Hg6  1  0.999080  0.263294  0.000000  1
  Pd  Pd7  1  0.665505  0.333561  0.000000  1
  Pd  Pd8  1  0.333561  0.665505  0.000000  1
