# generated using pymatgen
data_Tm(TaC)5
_symmetry_space_group_name_H-M   'P 1'
_cell_length_a   5.55751143
_cell_length_b   5.55751015
_cell_length_c   5.52574754
_cell_angle_alpha   80.98790431
_cell_angle_beta   80.98789877
_cell_angle_gamma   120.38710190
_symmetry_Int_Tables_number   1
_chemical_formula_structural   Tm(TaC)5
_chemical_formula_sum   'Tm1 Ta5 C5'
_cell_volume   139.72147338
_cell_formula_units_Z   1
loop_
 _symmetry_equiv_pos_site_id
 _symmetry_equiv_pos_as_xyz
  1  'x, y, z'
loop_
 _atom_site_type_symbol
 _atom_site_label
 _atom_site_symmetry_multiplicity
 _atom_site_fract_x
 _atom_site_fract_y
 _atom_site_fract_z
 _atom_site_occupancy
  Tm  Tm0  1  0.750867  0.750867  0.749067  1
  Ta  Ta1  1  0.257516  0.257516  0.259714  1
  Ta  Ta2  1  0.088024  0.442646  0.743559  1
  Ta  Ta3  1  0.559771  0.908425  0.254036  1
  Ta  Ta4  1  0.908425  0.559771  0.254036  1
  Ta  Ta5  1  0.442646  0.088024  0.743559  1
  C  C6  1  0.493032  0.493032  0.496172  1
  C  C7  1  0.663115  0.320135  0.008444  1
  C  C8  1  0.320135  0.663115  0.008444  1
  C  C9  1  0.836565  0.179901  0.491485  1
  C  C10  1  0.179901  0.836565  0.491485  1
