# generated using pymatgen
data_Be18Nb6Co5
_symmetry_space_group_name_H-M   'P 1'
_cell_length_a   7.53683035
_cell_length_b   7.53188180
_cell_length_c   7.50529100
_cell_angle_alpha   60.11672158
_cell_angle_beta   60.13833678
_cell_angle_gamma   59.72668754
_symmetry_Int_Tables_number   1
_chemical_formula_structural   Be18Nb6Co5
_chemical_formula_sum   'Be18 Nb6 Co5'
_cell_volume   301.21090224
_cell_formula_units_Z   1
loop_
 _symmetry_equiv_pos_site_id
 _symmetry_equiv_pos_as_xyz
  1  'x, y, z'
loop_
 _atom_site_type_symbol
 _atom_site_label
 _atom_site_symmetry_multiplicity
 _atom_site_fract_x
 _atom_site_fract_y
 _atom_site_fract_z
 _atom_site_occupancy
  Be  Be0  1  0.325133  0.326702  0.324914  1
  Be  Be1  1  0.675286  0.675379  0.672416  1
  Be  Be2  1  0.325133  0.326702  0.023253  1
  Be  Be3  1  0.321983  0.023511  0.327253  1
  Be  Be4  1  0.675286  0.675379  0.976918  1
  Be  Be5  1  0.675863  0.973054  0.675541  1
  Be  Be6  1  0.028147  0.324407  0.323723  1
  Be  Be7  1  0.974196  0.679647  0.673079  1
  Be  Be8  1  0.498922  0.999415  0.001844  1
  Be  Be9  1  0.999642  0.499923  0.500617  1
  Be  Be10  1  0.999642  0.499923  0.999818  1
  Be  Be11  1  0.498922  0.999415  0.499818  1
  Be  Be12  1  0.001734  0.998773  0.499746  1
  Be  Be13  1  0.505398  0.495794  0.999404  1
  Be  Be14  1  0.996554  0.001549  0.000949  1
  Be  Be15  1  0.878868  0.364805  0.878163  1
  Be  Be16  1  0.634944  0.118400  0.123328  1
  Be  Be17  1  0.362564  0.876871  0.880282  1
  Nb  Nb18  1  0.710454  0.289757  0.301328  1
  Nb  Nb19  1  0.286844  0.707488  0.707287  1
  Nb  Nb20  1  0.286844  0.707488  0.298381  1
  Nb  Nb21  1  0.710454  0.289757  0.698461  1
  Nb  Nb22  1  0.296191  0.295592  0.704109  1
  Nb  Nb23  1  0.713759  0.701498  0.292371  1
  Co  Co24  1  0.123391  0.124521  0.111825  1
  Co  Co25  1  0.871078  0.882100  0.882634  1
  Co  Co26  1  0.123391  0.124521  0.640264  1
  Co  Co27  1  0.128298  0.635531  0.118086  1
  Co  Co28  1  0.871078  0.882100  0.364188  1
