# generated using pymatgen
data_Ag4RuPt3O14
_symmetry_space_group_name_H-M   'P 1'
_cell_length_a   7.21076500
_cell_length_b   7.21076383
_cell_length_c   7.21049655
_cell_angle_alpha   59.99876113
_cell_angle_beta   59.99876634
_cell_angle_gamma   60.00000240
_symmetry_Int_Tables_number   1
_chemical_formula_structural   Ag4RuPt3O14
_chemical_formula_sum   'Ag4 Ru1 Pt3 O14'
_cell_volume   265.09691986
_cell_formula_units_Z   1
loop_
 _symmetry_equiv_pos_site_id
 _symmetry_equiv_pos_as_xyz
  1  'x, y, z'
loop_
 _atom_site_type_symbol
 _atom_site_label
 _atom_site_symmetry_multiplicity
 _atom_site_fract_x
 _atom_site_fract_y
 _atom_site_fract_z
 _atom_site_occupancy
  Ag  Ag0  1  0.125000  0.125000  0.125000  1
  Ag  Ag1  1  0.625000  0.125000  0.125000  1
  Ag  Ag2  1  0.125000  0.625000  0.125000  1
  Ag  Ag3  1  0.125000  0.125000  0.625000  1
  Ru  Ru4  1  0.625000  0.625000  0.125000  1
  Pt  Pt5  1  0.625000  0.625000  0.625000  1
  Pt  Pt6  1  0.625000  0.125000  0.625000  1
  Pt  Pt7  1  0.125000  0.625000  0.625000  1
  O  O8  1  0.696638  0.308173  0.298553  1
  O  O9  1  0.704629  0.286442  0.722487  1
  O  O10  1  0.998579  0.998579  0.004263  1
  O  O11  1  0.308173  0.696638  0.298553  1
  O  O12  1  0.696638  0.696638  0.298553  1
  O  O13  1  0.963558  0.545371  0.527513  1
  O  O14  1  0.286442  0.704629  0.722487  1
  O  O15  1  0.251421  0.251421  0.245737  1
  O  O16  1  0.941827  0.553362  0.951447  1
  O  O17  1  0.545371  0.963558  0.527513  1
  O  O18  1  0.553362  0.553362  0.951447  1
  O  O19  1  0.963558  0.963558  0.527513  1
  O  O20  1  0.553362  0.941827  0.951447  1
  O  O21  1  0.286442  0.286442  0.722487  1
