# generated using pymatgen
data_Sc12Co5Bi
_symmetry_space_group_name_H-M   'P 1'
_cell_length_a   7.73313807
_cell_length_b   7.73313852
_cell_length_c   7.73313766
_cell_angle_alpha   111.21067834
_cell_angle_beta   110.82635418
_cell_angle_gamma   106.41931342
_symmetry_Int_Tables_number   1
_chemical_formula_structural   Sc12Co5Bi
_chemical_formula_sum   'Sc12 Co5 Bi1'
_cell_volume   355.23958620
_cell_formula_units_Z   1
loop_
 _symmetry_equiv_pos_site_id
 _symmetry_equiv_pos_as_xyz
  1  'x, y, z'
loop_
 _atom_site_type_symbol
 _atom_site_label
 _atom_site_symmetry_multiplicity
 _atom_site_fract_x
 _atom_site_fract_y
 _atom_site_fract_z
 _atom_site_occupancy
  Sc  Sc0  1  0.818297  0.722085  0.540382  1
  Sc  Sc1  1  0.181703  0.277915  0.459618  1
  Sc  Sc2  1  0.181703  0.722085  0.903790  1
  Sc  Sc3  1  0.818297  0.277915  0.096210  1
  Sc  Sc4  1  0.681450  0.371914  0.690465  1
  Sc  Sc5  1  0.318550  0.628086  0.309535  1
  Sc  Sc6  1  0.681450  0.990985  0.309535  1
  Sc  Sc7  1  0.318550  0.009015  0.690465  1
  Sc  Sc8  1  0.585801  0.782095  0.803707  1
  Sc  Sc9  1  0.414199  0.217905  0.196293  1
  Sc  Sc10  1  0.978387  0.782095  0.196293  1
  Sc  Sc11  1  0.021613  0.217905  0.803707  1
  Co  Co12  1  0.649706  0.000000  0.649706  1
  Co  Co13  1  0.350294  0.000000  0.350294  1
  Co  Co14  1  0.118828  0.618828  0.500000  1
  Co  Co15  1  0.881172  0.381172  0.500000  1
  Co  Co16  1  0.000000  0.000000  0.000000  1
  Bi  Bi17  1  0.500000  0.500000  0.000000  1
