# generated using pymatgen
data_LiRhF5
_symmetry_space_group_name_H-M   'P 1'
_cell_length_a   5.54782354
_cell_length_b   5.79189643
_cell_length_c   7.34993663
_cell_angle_alpha   104.10064083
_cell_angle_beta   101.36351870
_cell_angle_gamma   108.30856374
_symmetry_Int_Tables_number   1
_chemical_formula_structural   LiRhF5
_chemical_formula_sum   'Li2 Rh2 F10'
_cell_volume   207.64081388
_cell_formula_units_Z   2
loop_
 _symmetry_equiv_pos_site_id
 _symmetry_equiv_pos_as_xyz
  1  'x, y, z'
loop_
 _atom_site_type_symbol
 _atom_site_label
 _atom_site_symmetry_multiplicity
 _atom_site_fract_x
 _atom_site_fract_y
 _atom_site_fract_z
 _atom_site_occupancy
  Li  Li0  1  0.313490  0.673778  0.765621  1
  Li  Li1  1  0.686510  0.326222  0.234379  1
  Rh  Rh2  1  0.000000  0.000000  0.500000  1
  Rh  Rh3  1  0.000000  0.000000  0.000000  1
  F  F4  1  0.270907  0.341851  0.618769  1
  F  F5  1  0.749293  0.143411  0.408403  1
  F  F6  1  0.250707  0.856589  0.591597  1
  F  F7  1  0.962667  0.317004  0.119835  1
  F  F8  1  0.132244  0.965447  0.262485  1
  F  F9  1  0.729093  0.658149  0.381231  1
  F  F10  1  0.365357  0.190012  0.022944  1
  F  F11  1  0.634643  0.809988  0.977056  1
  F  F12  1  0.867756  0.034553  0.737515  1
  F  F13  1  0.037333  0.682996  0.880165  1
