# generated using pymatgen
data_Er2Ni9Sn
_symmetry_space_group_name_H-M   'P 1'
_cell_length_a   8.48351851
_cell_length_b   8.48351868
_cell_length_c   8.48351859
_cell_angle_alpha   33.60195598
_cell_angle_beta   33.60195694
_cell_angle_gamma   33.60195080
_symmetry_Int_Tables_number   1
_chemical_formula_structural   Er2Ni9Sn
_chemical_formula_sum   'Er2 Ni9 Sn1'
_cell_volume   166.57603697
_cell_formula_units_Z   1
loop_
 _symmetry_equiv_pos_site_id
 _symmetry_equiv_pos_as_xyz
  1  'x, y, z'
loop_
 _atom_site_type_symbol
 _atom_site_label
 _atom_site_symmetry_multiplicity
 _atom_site_fract_x
 _atom_site_fract_y
 _atom_site_fract_z
 _atom_site_occupancy
  Er  Er0  1  0.995740  0.995740  0.995740  1
  Er  Er1  1  0.141785  0.141785  0.141785  1
  Ni  Ni2  1  0.499663  0.499663  0.499663  1
  Ni  Ni3  1  0.667531  0.667531  0.667531  1
  Ni  Ni4  1  0.333931  0.333931  0.333931  1
  Ni  Ni5  1  0.416675  0.918378  0.416675  1
  Ni  Ni6  1  0.416675  0.416675  0.918378  1
  Ni  Ni7  1  0.918378  0.416675  0.416675  1
  Ni  Ni8  1  0.583585  0.080217  0.583585  1
  Ni  Ni9  1  0.583585  0.583585  0.080217  1
  Ni  Ni10  1  0.080217  0.583585  0.583585  1
  Sn  Sn11  1  0.862236  0.862236  0.862236  1
