# generated using pymatgen
data_Sr7Cd(SnN)2
_symmetry_space_group_name_H-M   'P 1'
_cell_length_a   13.28133229
_cell_length_b   13.28133349
_cell_length_c   5.21716700
_cell_angle_alpha   90.00000000
_cell_angle_beta   90.00000000
_cell_angle_gamma   157.12542172
_symmetry_Int_Tables_number   1
_chemical_formula_structural   Sr7Cd(SnN)2
_chemical_formula_sum   'Sr7 Cd1 Sn2 N2'
_cell_volume   357.72523164
_cell_formula_units_Z   1
loop_
 _symmetry_equiv_pos_site_id
 _symmetry_equiv_pos_as_xyz
  1  'x, y, z'
loop_
 _atom_site_type_symbol
 _atom_site_label
 _atom_site_symmetry_multiplicity
 _atom_site_fract_x
 _atom_site_fract_y
 _atom_site_fract_z
 _atom_site_occupancy
  Sr  Sr0  1  0.905495  0.094504  0.000000  1
  Sr  Sr1  1  0.696793  0.303207  0.000000  1
  Sr  Sr2  1  0.501910  0.498090  0.000000  1
  Sr  Sr3  1  0.299847  0.700153  0.000000  1
  Sr  Sr4  1  0.099788  0.900211  0.000000  1
  Sr  Sr5  1  0.600810  0.399189  0.499999  1
  Sr  Sr6  1  0.402091  0.597908  0.499999  1
  Cd  Cd7  1  0.791712  0.208287  0.499999  1
  Sn  Sn8  1  0.999888  0.000112  0.499999  1
  Sn  Sn9  1  0.204800  0.795199  0.499999  1
  N  N10  1  0.603292  0.396708  0.000000  1
  N  N11  1  0.393570  0.606430  0.000000  1
