# generated using pymatgen
data_Tb2HoSi5PPd20
_symmetry_space_group_name_H-M   'P 1'
_cell_length_a   8.70490400
_cell_length_b   8.70628289
_cell_length_c   8.70628311
_cell_angle_alpha   59.98953265
_cell_angle_beta   60.00523872
_cell_angle_gamma   60.00523073
_symmetry_Int_Tables_number   1
_chemical_formula_structural   Tb2HoSi5PPd20
_chemical_formula_sum   'Tb2 Ho1 Si5 P1 Pd20'
_cell_volume   466.56755318
_cell_formula_units_Z   1
loop_
 _symmetry_equiv_pos_site_id
 _symmetry_equiv_pos_as_xyz
  1  'x, y, z'
loop_
 _atom_site_type_symbol
 _atom_site_label
 _atom_site_symmetry_multiplicity
 _atom_site_fract_x
 _atom_site_fract_y
 _atom_site_fract_z
 _atom_site_occupancy
  Tb  Tb0  1  0.249467  0.250533  0.250533  1
  Tb  Tb1  1  0.749467  0.750533  0.750533  1
  Ho  Ho2  1  0.000433  0.999567  0.999567  1
  Si  Si3  1  0.267564  0.732436  0.732436  1
  Si  Si4  1  0.266192  0.733808  0.267535  1
  Si  Si5  1  0.732465  0.267535  0.733808  1
  Si  Si6  1  0.266192  0.267535  0.733808  1
  Si  Si7  1  0.732465  0.733808  0.267535  1
  P  P8  1  0.734248  0.265752  0.265752  1
  Pd  Pd9  1  0.385035  0.383463  0.383463  1
  Pd  Pd10  1  0.616424  0.616279  0.616279  1
  Pd  Pd11  1  0.383721  0.383576  0.848981  1
  Pd  Pd12  1  0.383721  0.848981  0.383576  1
  Pd  Pd13  1  0.616537  0.614965  0.151962  1
  Pd  Pd14  1  0.616537  0.151962  0.614965  1
  Pd  Pd15  1  0.848038  0.383463  0.383463  1
  Pd  Pd16  1  0.151019  0.616279  0.616279  1
  Pd  Pd17  1  0.346291  0.999414  0.999414  1
  Pd  Pd18  1  0.654882  0.999414  0.999414  1
  Pd  Pd19  1  0.000586  0.345118  0.653709  1
  Pd  Pd20  1  0.000586  0.653709  0.345118  1
  Pd  Pd21  1  0.998781  0.345198  0.001219  1
  Pd  Pd22  1  0.654802  0.001219  0.345198  1
  Pd  Pd23  1  0.000151  0.654669  0.999849  1
  Pd  Pd24  1  0.345331  0.999849  0.654669  1
  Pd  Pd25  1  0.998781  0.001219  0.345198  1
  Pd  Pd26  1  0.000151  0.999849  0.654669  1
  Pd  Pd27  1  0.654802  0.345198  0.001219  1
  Pd  Pd28  1  0.345331  0.654669  0.999849  1
