# generated using pymatgen
data_Nd8Er12Si15Au
_symmetry_space_group_name_H-M   'P 1'
_cell_length_a   7.45561215
_cell_length_b   14.74299600
_cell_length_c   7.82626730
_cell_angle_alpha   90.00000000
_cell_angle_beta   90.13407461
_cell_angle_gamma   90.00000000
_symmetry_Int_Tables_number   1
_chemical_formula_structural   Nd8Er12Si15Au
_chemical_formula_sum   'Nd8 Er12 Si15 Au1'
_cell_volume   860.24576508
_cell_formula_units_Z   1
loop_
 _symmetry_equiv_pos_site_id
 _symmetry_equiv_pos_as_xyz
  1  'x, y, z'
loop_
 _atom_site_type_symbol
 _atom_site_label
 _atom_site_symmetry_multiplicity
 _atom_site_fract_x
 _atom_site_fract_y
 _atom_site_fract_z
 _atom_site_occupancy
  Nd  Nd0  1  0.021393  0.097775  0.179477  1
  Nd  Nd1  1  0.021393  0.402225  0.179477  1
  Nd  Nd2  1  0.520307  0.098355  0.320083  1
  Nd  Nd3  1  0.520307  0.401645  0.320083  1
  Nd  Nd4  1  0.480100  0.596016  0.678931  1
  Nd  Nd5  1  0.480100  0.903984  0.678931  1
  Nd  Nd6  1  0.980228  0.594533  0.816781  1
  Nd  Nd7  1  0.980228  0.905467  0.816781  1
  Er  Er8  1  0.345823  0.250000  0.010543  1
  Er  Er9  1  0.320765  0.622149  0.177235  1
  Er  Er10  1  0.320765  0.877850  0.177235  1
  Er  Er11  1  0.818188  0.621987  0.324922  1
  Er  Er12  1  0.818188  0.878012  0.324922  1
  Er  Er13  1  0.845608  0.250000  0.490086  1
  Er  Er14  1  0.152066  0.750000  0.514274  1
  Er  Er15  1  0.178924  0.124255  0.678205  1
  Er  Er16  1  0.178924  0.375744  0.678205  1
  Er  Er17  1  0.679277  0.124465  0.823280  1
  Er  Er18  1  0.679277  0.375534  0.823280  1
  Er  Er19  1  0.655863  0.750000  0.991538  1
  Si  Si20  1  0.649259  0.539231  0.030923  1
  Si  Si21  1  0.649259  0.960769  0.030923  1
  Si  Si22  1  0.725201  0.250000  0.123308  1
  Si  Si23  1  0.224449  0.250000  0.376202  1
  Si  Si24  1  0.525684  0.750000  0.389686  1
  Si  Si25  1  0.148391  0.538835  0.469864  1
  Si  Si26  1  0.148391  0.961165  0.469864  1
  Si  Si27  1  0.851923  0.040078  0.531747  1
  Si  Si28  1  0.851923  0.459921  0.531747  1
  Si  Si29  1  0.474107  0.250000  0.612847  1
  Si  Si30  1  0.769593  0.750000  0.621112  1
  Si  Si31  1  0.277992  0.750000  0.873349  1
  Si  Si32  1  0.975125  0.250000  0.887072  1
  Si  Si33  1  0.353502  0.039248  0.967256  1
  Si  Si34  1  0.353502  0.460751  0.967256  1
  Au  Au35  1  0.023974  0.750000  0.112577  1
