# generated using pymatgen
data_Dy3Y(ErSb5)4
_symmetry_space_group_name_H-M   'P 1'
_cell_length_a   4.24018500
_cell_length_b   13.14746463
_cell_length_c   14.63681917
_cell_angle_alpha   77.70197389
_cell_angle_beta   90.00000000
_cell_angle_gamma   90.00000000
_symmetry_Int_Tables_number   1
_chemical_formula_structural   Dy3Y(ErSb5)4
_chemical_formula_sum   'Dy3 Y1 Er4 Sb20'
_cell_volume   797.24463914
_cell_formula_units_Z   1
loop_
 _symmetry_equiv_pos_site_id
 _symmetry_equiv_pos_as_xyz
  1  'x, y, z'
loop_
 _atom_site_type_symbol
 _atom_site_label
 _atom_site_symmetry_multiplicity
 _atom_site_fract_x
 _atom_site_fract_y
 _atom_site_fract_z
 _atom_site_occupancy
  Dy  Dy0  1  0.750000  0.330668  0.422798  1
  Dy  Dy1  1  0.250000  0.952714  0.360088  1
  Dy  Dy2  1  0.750000  0.047279  0.639935  1
  Y  Y3  1  0.250000  0.669343  0.577277  1
  Er  Er4  1  0.250000  0.394306  0.771738  1
  Er  Er5  1  0.750000  0.605704  0.228266  1
  Er  Er6  1  0.250000  0.662306  0.855793  1
  Er  Er7  1  0.750000  0.337681  0.144202  1
  Sb  Sb8  1  0.250000  0.143326  0.779823  1
  Sb  Sb9  1  0.750000  0.856669  0.220164  1
  Sb  Sb10  1  0.250000  0.142895  0.482831  1
  Sb  Sb11  1  0.750000  0.857289  0.517101  1
  Sb  Sb12  1  0.250000  0.153666  0.171886  1
  Sb  Sb13  1  0.750000  0.846334  0.828104  1
  Sb  Sb14  1  0.250000  0.420401  0.975764  1
  Sb  Sb15  1  0.750000  0.579576  0.024256  1
  Sb  Sb16  1  0.750000  0.030010  0.906615  1
  Sb  Sb17  1  0.250000  0.970003  0.093370  1
  Sb  Sb18  1  0.750000  0.139253  0.321724  1
  Sb  Sb19  1  0.250000  0.860827  0.678300  1
  Sb  Sb20  1  0.750000  0.279641  0.938571  1
  Sb  Sb21  1  0.250000  0.720352  0.061440  1
  Sb  Sb22  1  0.750000  0.287270  0.653925  1
  Sb  Sb23  1  0.250000  0.712765  0.345996  1
  Sb  Sb24  1  0.750000  0.575383  0.736158  1
  Sb  Sb25  1  0.250000  0.424487  0.264002  1
  Sb  Sb26  1  0.750000  0.574282  0.446377  1
  Sb  Sb27  1  0.250000  0.425570  0.553496  1
