# generated using pymatgen
data_Dy8Ti6Nb5Si16Tc
_symmetry_space_group_name_H-M   'P 1'
_cell_length_a   7.03243343
_cell_length_b   7.04051062
_cell_length_c   12.96915412
_cell_angle_alpha   90.09880284
_cell_angle_beta   90.15806337
_cell_angle_gamma   89.99404764
_symmetry_Int_Tables_number   1
_chemical_formula_structural   Dy8Ti6Nb5Si16Tc
_chemical_formula_sum   'Dy8 Ti6 Nb5 Si16 Tc1'
_cell_volume   642.12434884
_cell_formula_units_Z   1
loop_
 _symmetry_equiv_pos_site_id
 _symmetry_equiv_pos_as_xyz
  1  'x, y, z'
loop_
 _atom_site_type_symbol
 _atom_site_label
 _atom_site_symmetry_multiplicity
 _atom_site_fract_x
 _atom_site_fract_y
 _atom_site_fract_z
 _atom_site_occupancy
  Dy  Dy0  1  0.998874  0.656879  0.035259  1
  Dy  Dy1  1  0.003150  0.341748  0.531518  1
  Dy  Dy2  1  0.658647  0.996378  0.966640  1
  Dy  Dy3  1  0.158521  0.503355  0.783047  1
  Dy  Dy4  1  0.840404  0.495777  0.282416  1
  Dy  Dy5  1  0.503727  0.158557  0.218757  1
  Dy  Dy6  1  0.496199  0.841259  0.715827  1
  Dy  Dy7  1  0.341456  0.001806  0.466770  1
  Ti  Ti8  1  0.671286  0.671236  0.499063  1
  Ti  Ti9  1  0.826743  0.171367  0.750398  1
  Ti  Ti10  1  0.173294  0.827943  0.250604  1
  Ti  Ti11  1  0.327297  0.325849  0.001202  1
  Ti  Ti12  1  0.495630  0.654143  0.123572  1
  Ti  Ti13  1  0.654339  0.493368  0.875594  1
  Nb  Nb14  1  0.846197  0.993254  0.374837  1
  Nb  Nb15  1  0.009792  0.155206  0.128272  1
  Nb  Nb16  1  0.995028  0.844239  0.622750  1
  Nb  Nb17  1  0.507348  0.345722  0.624781  1
  Nb  Nb18  1  0.153212  0.005939  0.873439  1
  Si  Si19  1  0.048014  0.706309  0.434748  1
  Si  Si20  1  0.953442  0.293344  0.936504  1
  Si  Si21  1  0.708243  0.046849  0.563509  1
  Si  Si22  1  0.211947  0.457662  0.188502  1
  Si  Si23  1  0.792113  0.546334  0.687037  1
  Si  Si24  1  0.454302  0.208688  0.815041  1
  Si  Si25  1  0.541735  0.785958  0.312543  1
  Si  Si26  1  0.294462  0.953398  0.064075  1
  Si  Si27  1  0.795226  0.866731  0.183215  1
  Si  Si28  1  0.300516  0.632777  0.563398  1
  Si  Si29  1  0.700657  0.367062  0.066047  1
  Si  Si30  1  0.627363  0.302582  0.433203  1
  Si  Si31  1  0.367910  0.700820  0.934603  1
  Si  Si32  1  0.134721  0.207945  0.318189  1
  Si  Si33  1  0.201000  0.134491  0.682983  1
  Si  Si34  1  0.864851  0.795583  0.815939  1
  Tc  Tc35  1  0.342354  0.509441  0.375721  1
