# generated using pymatgen
data_Na6Be4C6O19
_symmetry_space_group_name_H-M   'P 1'
_cell_length_a   10.06079378
_cell_length_b   10.06079378
_cell_length_c   10.06079361
_cell_angle_alpha   90.80146933
_cell_angle_beta   90.80146933
_cell_angle_gamma   90.80147272
_symmetry_Int_Tables_number   1
_chemical_formula_structural   Na6Be4C6O19
_chemical_formula_sum   'Na12 Be8 C12 O38'
_cell_volume   1018.04751062
_cell_formula_units_Z   2
loop_
 _symmetry_equiv_pos_site_id
 _symmetry_equiv_pos_as_xyz
  1  'x, y, z'
loop_
 _atom_site_type_symbol
 _atom_site_label
 _atom_site_symmetry_multiplicity
 _atom_site_fract_x
 _atom_site_fract_y
 _atom_site_fract_z
 _atom_site_occupancy
  Na  Na0  1  0.319754  0.804312  0.978170  1
  Na  Na1  1  0.680246  0.195688  0.021830  1
  Na  Na2  1  0.879847  0.320745  0.458630  1
  Na  Na3  1  0.978170  0.319754  0.804312  1
  Na  Na4  1  0.679255  0.541370  0.120153  1
  Na  Na5  1  0.120153  0.679255  0.541370  1
  Na  Na6  1  0.804312  0.978170  0.319754  1
  Na  Na7  1  0.320745  0.458630  0.879847  1
  Na  Na8  1  0.541370  0.120153  0.679255  1
  Na  Na9  1  0.458630  0.879847  0.320745  1
  Na  Na10  1  0.021830  0.680246  0.195688  1
  Na  Na11  1  0.195688  0.021830  0.680246  1
  Be  Be12  1  0.686814  0.840776  0.623211  1
  Be  Be13  1  0.376789  0.313186  0.159224  1
  Be  Be14  1  0.156904  0.156904  0.156904  1
  Be  Be15  1  0.623211  0.686814  0.840776  1
  Be  Be16  1  0.843096  0.843096  0.843096  1
  Be  Be17  1  0.840776  0.623211  0.686814  1
  Be  Be18  1  0.313186  0.159224  0.376789  1
  Be  Be19  1  0.159224  0.376789  0.313186  1
  C  C20  1  0.027808  0.671634  0.870259  1
  C  C21  1  0.797485  0.690097  0.431984  1
  C  C22  1  0.690097  0.431984  0.797485  1
  C  C23  1  0.202515  0.309903  0.568016  1
  C  C24  1  0.309903  0.568016  0.202515  1
  C  C25  1  0.129741  0.972192  0.328366  1
  C  C26  1  0.568016  0.202515  0.309903  1
  C  C27  1  0.870259  0.027808  0.671634  1
  C  C28  1  0.972192  0.328366  0.129741  1
  C  C29  1  0.328366  0.129741  0.972192  1
  C  C30  1  0.671634  0.870259  0.027808  1
  C  C31  1  0.431984  0.797485  0.690097  1
  O  O32  1  0.865628  0.366236  0.072246  1
  O  O33  1  0.810846  0.662105  0.309120  1
  O  O34  1  0.189154  0.337895  0.690880  1
  O  O35  1  0.366236  0.072246  0.865628  1
  O  O36  1  0.256343  0.256343  0.256343  1
  O  O37  1  0.523864  0.863633  0.625046  1
  O  O38  1  0.053661  0.247998  0.068230  1
  O  O39  1  0.337895  0.690880  0.189154  1
  O  O40  1  0.212930  0.530453  0.281107  1
  O  O41  1  0.251589  0.004396  0.368803  1
  O  O42  1  0.309120  0.810846  0.662105  1
  O  O43  1  0.072246  0.865628  0.366236  1
  O  O44  1  0.281107  0.212930  0.530453  1
  O  O45  1  0.068230  0.053661  0.247998  1
  O  O46  1  0.530453  0.281107  0.212930  1
  O  O47  1  0.136367  0.374954  0.476136  1
  O  O48  1  0.469547  0.718893  0.787070  1
  O  O49  1  0.787070  0.469547  0.718893  1
  O  O50  1  0.863633  0.625046  0.523864  1
  O  O51  1  0.752002  0.931770  0.946339  1
  O  O52  1  0.631197  0.748411  0.995604  1
  O  O53  1  0.718893  0.787070  0.469547  1
  O  O54  1  0.633764  0.927754  0.134372  1
  O  O55  1  0.931770  0.946339  0.752002  1
  O  O56  1  0.743657  0.743657  0.743657  1
  O  O57  1  0.374954  0.476136  0.136367  1
  O  O58  1  0.946339  0.752002  0.931770  1
  O  O59  1  0.927754  0.134372  0.633764  1
  O  O60  1  0.134372  0.633764  0.927754  1
  O  O61  1  0.004396  0.368803  0.251589  1
  O  O62  1  0.995604  0.631197  0.748411  1
  O  O63  1  0.247998  0.068230  0.053661  1
  O  O64  1  0.476136  0.136367  0.374954  1
  O  O65  1  0.368803  0.251589  0.004396  1
  O  O66  1  0.690880  0.189154  0.337895  1
  O  O67  1  0.625046  0.523864  0.863633  1
  O  O68  1  0.662105  0.309120  0.810846  1
  O  O69  1  0.748411  0.995604  0.631197  1
