# generated using pymatgen
data_BaLiTmS3
_symmetry_space_group_name_H-M   'P 1'
_cell_length_a   4.08508301
_cell_length_b   7.08660588
_cell_length_c   10.21386800
_cell_angle_alpha   89.99990528
_cell_angle_beta   90.00002524
_cell_angle_gamma   106.74549293
_symmetry_Int_Tables_number   1
_chemical_formula_structural   BaLiTmS3
_chemical_formula_sum   'Ba2 Li2 Tm2 S6'
_cell_volume   283.14626398
_cell_formula_units_Z   2
loop_
 _symmetry_equiv_pos_site_id
 _symmetry_equiv_pos_as_xyz
  1  'x, y, z'
loop_
 _atom_site_type_symbol
 _atom_site_label
 _atom_site_symmetry_multiplicity
 _atom_site_fract_x
 _atom_site_fract_y
 _atom_site_fract_z
 _atom_site_occupancy
  Ba  Ba0  1  0.254856  0.509734  0.250000  1
  Ba  Ba1  1  0.745133  0.490264  0.750000  1
  Li  Li2  1  0.528814  0.057554  0.250001  1
  Li  Li3  1  0.471182  0.942444  0.749999  1
  Tm  Tm4  1  0.999996  0.000002  0.000003  1
  Tm  Tm5  1  0.000006  0.000002  0.499998  1
  S  S6  1  0.627994  0.256105  0.058555  1
  S  S7  1  0.935408  0.870566  0.250000  1
  S  S8  1  0.627991  0.256105  0.441446  1
  S  S9  1  0.372010  0.743900  0.558558  1
  S  S10  1  0.064585  0.129430  0.749999  1
  S  S11  1  0.372006  0.743895  0.941443  1
