# generated using pymatgen
data_Nd2In(PRh2)6
_symmetry_space_group_name_H-M   'P 1'
_cell_length_a   9.83650900
_cell_length_b   9.83650916
_cell_length_c   3.89415700
_cell_angle_alpha   90.00000000
_cell_angle_beta   90.00000000
_cell_angle_gamma   120.00000954
_symmetry_Int_Tables_number   1
_chemical_formula_structural   Nd2In(PRh2)6
_chemical_formula_sum   'Nd2 In1 P6 Rh12'
_cell_volume   326.30673767
_cell_formula_units_Z   1
loop_
 _symmetry_equiv_pos_site_id
 _symmetry_equiv_pos_as_xyz
  1  'x, y, z'
loop_
 _atom_site_type_symbol
 _atom_site_label
 _atom_site_symmetry_multiplicity
 _atom_site_fract_x
 _atom_site_fract_y
 _atom_site_fract_z
 _atom_site_occupancy
  Nd  Nd0  1  0.333333  0.666667  0.755155  1
  Nd  Nd1  1  0.666667  0.333333  0.244845  1
  In  In2  1  0.000000  0.000000  0.500000  1
  P  P3  1  0.887135  0.598736  0.745480  1
  P  P4  1  0.401264  0.288398  0.745480  1
  P  P5  1  0.711602  0.112865  0.745480  1
  P  P6  1  0.112865  0.401264  0.254520  1
  P  P7  1  0.598736  0.711602  0.254520  1
  P  P8  1  0.288398  0.887135  0.254520  1
  Rh  Rh9  1  0.613349  0.549581  0.747920  1
  Rh  Rh10  1  0.450419  0.063768  0.747920  1
  Rh  Rh11  1  0.936232  0.386651  0.747920  1
  Rh  Rh12  1  0.386651  0.450419  0.252080  1
  Rh  Rh13  1  0.549581  0.936232  0.252080  1
  Rh  Rh14  1  0.063768  0.613349  0.252080  1
  Rh  Rh15  1  0.128515  0.838869  0.759685  1
  Rh  Rh16  1  0.161131  0.289646  0.759685  1
  Rh  Rh17  1  0.710354  0.871485  0.759685  1
  Rh  Rh18  1  0.871485  0.161131  0.240315  1
  Rh  Rh19  1  0.838869  0.710354  0.240315  1
  Rh  Rh20  1  0.289646  0.128515  0.240315  1
