# generated using pymatgen
data_LiEu3Ag2Sn3
_symmetry_space_group_name_H-M   'P 1'
_cell_length_a   4.96720800
_cell_length_b   4.96720773
_cell_length_c   11.06821000
_cell_angle_alpha   90.00000000
_cell_angle_beta   90.00000000
_cell_angle_gamma   120.00000181
_symmetry_Int_Tables_number   1
_chemical_formula_structural   LiEu3Ag2Sn3
_chemical_formula_sum   'Li1 Eu3 Ag2 Sn3'
_cell_volume   236.50083757
_cell_formula_units_Z   1
loop_
 _symmetry_equiv_pos_site_id
 _symmetry_equiv_pos_as_xyz
  1  'x, y, z'
loop_
 _atom_site_type_symbol
 _atom_site_label
 _atom_site_symmetry_multiplicity
 _atom_site_fract_x
 _atom_site_fract_y
 _atom_site_fract_z
 _atom_site_occupancy
  Li  Li0  1  0.000000  0.000000  0.816438  1
  Eu  Eu1  1  0.666667  0.333333  0.000479  1
  Eu  Eu2  1  0.666667  0.333333  0.667346  1
  Eu  Eu3  1  0.666667  0.333333  0.331729  1
  Ag  Ag4  1  0.000000  0.000000  0.187523  1
  Ag  Ag5  1  0.333333  0.666667  0.509063  1
  Sn  Sn6  1  0.333333  0.666667  0.845823  1
  Sn  Sn7  1  0.000000  0.000000  0.495949  1
  Sn  Sn8  1  0.333333  0.666667  0.145649  1
