# generated using pymatgen
data_Na3Sr(NpSe3)2
_symmetry_space_group_name_H-M   'P 1'
_cell_length_a   7.37403411
_cell_length_b   7.37403413
_cell_length_c   7.41882960
_cell_angle_alpha   80.85562412
_cell_angle_beta   80.85562201
_cell_angle_gamma   120.04027530
_symmetry_Int_Tables_number   1
_chemical_formula_structural   Na3Sr(NpSe3)2
_chemical_formula_sum   'Na3 Sr1 Np2 Se6'
_cell_volume   331.08826061
_cell_formula_units_Z   1
loop_
 _symmetry_equiv_pos_site_id
 _symmetry_equiv_pos_as_xyz
  1  'x, y, z'
loop_
 _atom_site_type_symbol
 _atom_site_label
 _atom_site_symmetry_multiplicity
 _atom_site_fract_x
 _atom_site_fract_y
 _atom_site_fract_z
 _atom_site_occupancy
  Na  Na0  1  0.000088  0.999912  0.000000  1
  Na  Na1  1  0.500046  0.499954  0.500000  1
  Na  Na2  1  0.162013  0.837987  0.500000  1
  Sr  Sr3  1  0.841240  0.158760  0.500000  1
  Np  Np4  1  0.666634  0.333366  0.000000  1
  Np  Np5  1  0.333459  0.666541  0.000000  1
  Se  Se6  1  0.274438  0.276540  0.232166  1
  Se  Se7  1  0.427288  0.073621  0.770170  1
  Se  Se8  1  0.075064  0.430110  0.767939  1
  Se  Se9  1  0.723460  0.725562  0.767834  1
  Se  Se10  1  0.569890  0.924936  0.232061  1
  Se  Se11  1  0.926379  0.572712  0.229830  1
