# generated using pymatgen
data_Eu2Ta5W3O22
_symmetry_space_group_name_H-M   'P 1'
_cell_length_a   6.24501200
_cell_length_b   6.35799512
_cell_length_c   12.42024484
_cell_angle_alpha   90.41679203
_cell_angle_beta   90.00000000
_cell_angle_gamma   119.41388566
_symmetry_Int_Tables_number   1
_chemical_formula_structural   Eu2Ta5W3O22
_chemical_formula_sum   'Eu2 Ta5 W3 O22'
_cell_volume   429.56996653
_cell_formula_units_Z   1
loop_
 _symmetry_equiv_pos_site_id
 _symmetry_equiv_pos_as_xyz
  1  'x, y, z'
loop_
 _atom_site_type_symbol
 _atom_site_label
 _atom_site_symmetry_multiplicity
 _atom_site_fract_x
 _atom_site_fract_y
 _atom_site_fract_z
 _atom_site_occupancy
  Eu  Eu0  1  0.334210  0.665757  0.749747  1
  Eu  Eu1  1  0.668454  0.334243  0.250253  1
  Ta  Ta2  1  0.649960  0.647855  0.999768  1
  Ta  Ta3  1  0.002105  0.352145  0.000232  1
  Ta  Ta4  1  0.991564  0.646445  0.500321  1
  Ta  Ta5  1  0.345119  0.353555  0.499679  1
  Ta  Ta6  1  0.361792  0.000000  0.000000  1
  W  W7  1  0.665286  0.324546  0.748464  1
  W  W8  1  0.340739  0.675454  0.251536  1
  W  W9  1  0.626459  0.000000  0.500000  1
  O  O10  1  0.328628  0.663113  0.538478  1
  O  O11  1  0.667616  0.335138  0.034859  1
  O  O12  1  0.665516  0.336887  0.461522  1
  O  O13  1  0.332477  0.664862  0.965141  1
  O  O14  1  0.258749  0.000000  0.500000  1
  O  O15  1  0.238483  0.238071  0.000993  1
  O  O16  1  0.000412  0.761929  0.999007  1
  O  O17  1  0.001554  0.240489  0.498228  1
  O  O18  1  0.761065  0.759511  0.501772  1
  O  O19  1  0.745520  0.000000  0.000000  1
  O  O20  1  0.369821  0.948996  0.155125  1
  O  O21  1  0.424108  0.370648  0.656184  1
  O  O22  1  0.941933  0.567173  0.657122  1
  O  O23  1  0.060915  0.438342  0.156036  1
  O  O24  1  0.574634  0.625665  0.154060  1
  O  O25  1  0.420825  0.051004  0.844875  1
  O  O26  1  0.622574  0.561658  0.843964  1
  O  O27  1  0.637883  0.053473  0.668597  1
  O  O28  1  0.948969  0.374335  0.845940  1
  O  O29  1  0.053460  0.629352  0.343816  1
  O  O30  1  0.584410  0.946527  0.331403  1
  O  O31  1  0.374760  0.432827  0.342878  1
