# generated using pymatgen
data_ScCo4Si3Ru
_symmetry_space_group_name_H-M   'P 1'
_cell_length_a   3.68896800
_cell_length_b   10.42002100
_cell_length_c   11.86077500
_cell_angle_alpha   90.00000000
_cell_angle_beta   90.00000000
_cell_angle_gamma   90.00000000
_symmetry_Int_Tables_number   1
_chemical_formula_structural   ScCo4Si3Ru
_chemical_formula_sum   'Sc4 Co16 Si12 Ru4'
_cell_volume   455.91780130
_cell_formula_units_Z   4
loop_
 _symmetry_equiv_pos_site_id
 _symmetry_equiv_pos_as_xyz
  1  'x, y, z'
loop_
 _atom_site_type_symbol
 _atom_site_label
 _atom_site_symmetry_multiplicity
 _atom_site_fract_x
 _atom_site_fract_y
 _atom_site_fract_z
 _atom_site_occupancy
  Sc  Sc0  1  0.250000  0.580852  0.703407  1
  Sc  Sc1  1  0.250000  0.919148  0.203407  1
  Sc  Sc2  1  0.750000  0.419148  0.296593  1
  Sc  Sc3  1  0.750000  0.080852  0.796593  1
  Co  Co4  1  0.250000  0.407869  0.488828  1
  Co  Co5  1  0.250000  0.092131  0.988828  1
  Co  Co6  1  0.750000  0.592131  0.511172  1
  Co  Co7  1  0.750000  0.907869  0.011172  1
  Co  Co8  1  0.250000  0.213988  0.175335  1
  Co  Co9  1  0.250000  0.286013  0.675335  1
  Co  Co10  1  0.750000  0.786013  0.824665  1
  Co  Co11  1  0.750000  0.713987  0.324665  1
  Co  Co12  1  0.250000  0.885545  0.700527  1
  Co  Co13  1  0.250000  0.614455  0.200527  1
  Co  Co14  1  0.750000  0.114455  0.299473  1
  Co  Co15  1  0.750000  0.385545  0.799473  1
  Co  Co16  1  0.250000  0.467517  0.930928  1
  Co  Co17  1  0.250000  0.032483  0.430928  1
  Co  Co18  1  0.750000  0.532483  0.069072  1
  Co  Co19  1  0.750000  0.967517  0.569072  1
  Si  Si20  1  0.250000  0.416009  0.115534  1
  Si  Si21  1  0.250000  0.083991  0.615534  1
  Si  Si22  1  0.750000  0.583991  0.884466  1
  Si  Si23  1  0.750000  0.916009  0.384466  1
  Si  Si24  1  0.250000  0.265777  0.866184  1
  Si  Si25  1  0.250000  0.234223  0.366184  1
  Si  Si26  1  0.750000  0.734223  0.133816  1
  Si  Si27  1  0.750000  0.765777  0.633816  1
  Si  Si28  1  0.250000  0.596249  0.391027  1
  Si  Si29  1  0.250000  0.903751  0.891027  1
  Si  Si30  1  0.750000  0.403751  0.608973  1
  Si  Si31  1  0.750000  0.096249  0.108973  1
  Ru  Ru32  1  0.250000  0.705986  0.990528  1
  Ru  Ru33  1  0.250000  0.794014  0.490528  1
  Ru  Ru34  1  0.750000  0.294014  0.009472  1
  Ru  Ru35  1  0.750000  0.205986  0.509472  1
