# generated using pymatgen
data_Tb2Mo3P7(Ir2Rh)3
_symmetry_space_group_name_H-M   'P 1'
_cell_length_a   3.98626200
_cell_length_b   9.53353402
_cell_length_c   9.53319200
_cell_angle_alpha   120.00297066
_cell_angle_beta   89.99998197
_cell_angle_gamma   90.00007210
_symmetry_Int_Tables_number   1
_chemical_formula_structural   Tb2Mo3P7(Ir2Rh)3
_chemical_formula_sum   'Tb2 Mo3 P7 Ir6 Rh3'
_cell_volume   313.74421785
_cell_formula_units_Z   1
loop_
 _symmetry_equiv_pos_site_id
 _symmetry_equiv_pos_as_xyz
  1  'x, y, z'
loop_
 _atom_site_type_symbol
 _atom_site_label
 _atom_site_symmetry_multiplicity
 _atom_site_fract_x
 _atom_site_fract_y
 _atom_site_fract_z
 _atom_site_occupancy
  Tb  Tb0  1  0.261870  0.666656  0.333314  1
  Tb  Tb1  1  0.761947  0.333337  0.666678  1
  Mo  Mo2  1  0.761933  0.088927  0.867091  1
  Mo  Mo3  1  0.761938  0.132922  0.221890  1
  Mo  Mo4  1  0.761938  0.778140  0.911040  1
  P  P5  1  0.262045  0.000002  0.999987  1
  P  P6  1  0.761821  0.880070  0.593022  1
  P  P7  1  0.761812  0.406979  0.287058  1
  P  P8  1  0.761819  0.712945  0.119908  1
  P  P9  1  0.261940  0.119909  0.415909  1
  P  P10  1  0.261935  0.584116  0.704016  1
  P  P11  1  0.261928  0.296007  0.880111  1
  Ir  Ir12  1  0.261907  0.888992  0.161717  1
  Ir  Ir13  1  0.261908  0.838254  0.727231  1
  Ir  Ir14  1  0.261908  0.272738  0.111026  1
  Ir  Ir15  1  0.261900  0.369755  0.438490  1
  Ir  Ir16  1  0.261902  0.561554  0.931276  1
  Ir  Ir17  1  0.261900  0.068729  0.630279  1
  Rh  Rh18  1  0.761884  0.611845  0.556220  1
  Rh  Rh19  1  0.761877  0.443739  0.055577  1
  Rh  Rh20  1  0.761885  0.944383  0.388159  1
