# generated using pymatgen
data_Ho2Tm8Zn3Ru
_symmetry_space_group_name_H-M   'P 1'
_cell_length_a   9.29482616
_cell_length_b   9.29183282
_cell_length_c   9.51589800
_cell_angle_alpha   89.99921748
_cell_angle_beta   89.99961755
_cell_angle_gamma   119.98961039
_symmetry_Int_Tables_number   1
_chemical_formula_structural   Ho2Tm8Zn3Ru
_chemical_formula_sum   'Ho4 Tm16 Zn6 Ru2'
_cell_volume   711.81727961
_cell_formula_units_Z   2
loop_
 _symmetry_equiv_pos_site_id
 _symmetry_equiv_pos_as_xyz
  1  'x, y, z'
loop_
 _atom_site_type_symbol
 _atom_site_label
 _atom_site_symmetry_multiplicity
 _atom_site_fract_x
 _atom_site_fract_y
 _atom_site_fract_z
 _atom_site_occupancy
  Ho  Ho0  1  0.917560  0.458783  0.249999  1
  Ho  Ho1  1  0.458990  0.540995  0.749995  1
  Ho  Ho2  1  0.458983  0.917994  0.750001  1
  Ho  Ho3  1  0.081906  0.540949  0.749999  1
  Tm  Tm4  1  0.000006  0.999996  0.499984  1
  Tm  Tm5  1  0.000011  0.000008  0.000026  1
  Tm  Tm6  1  0.207952  0.792417  0.441904  1
  Tm  Tm7  1  0.207952  0.415544  0.441900  1
  Tm  Tm8  1  0.584437  0.792222  0.441815  1
  Tm  Tm9  1  0.792085  0.207697  0.557878  1
  Tm  Tm10  1  0.792077  0.584382  0.557874  1
  Tm  Tm11  1  0.415663  0.207833  0.557809  1
  Tm  Tm12  1  0.792083  0.207695  0.942127  1
  Tm  Tm13  1  0.792081  0.584382  0.942124  1
  Tm  Tm14  1  0.415656  0.207827  0.942189  1
  Tm  Tm15  1  0.207957  0.792417  0.058101  1
  Tm  Tm16  1  0.207956  0.415537  0.058100  1
  Tm  Tm17  1  0.584448  0.792226  0.058183  1
  Tm  Tm18  1  0.540879  0.458789  0.250002  1
  Tm  Tm19  1  0.540886  0.082093  0.250003  1
  Zn  Zn20  1  0.885776  0.113994  0.249999  1
  Zn  Zn21  1  0.885779  0.771784  0.249999  1
  Zn  Zn22  1  0.228450  0.114225  0.250000  1
  Zn  Zn23  1  0.114116  0.886027  0.749998  1
  Zn  Zn24  1  0.114114  0.228092  0.750001  1
  Zn  Zn25  1  0.771926  0.885963  0.750002  1
  Ru  Ru26  1  0.333495  0.666747  0.249993  1
  Ru  Ru27  1  0.666775  0.333383  0.749998  1
