# generated using pymatgen
data_Y3B6Ir7Os
_symmetry_space_group_name_H-M   'P 1'
_cell_length_a   9.99777102
_cell_length_b   9.17690214
_cell_length_c   5.57779104
_cell_angle_alpha   81.36413107
_cell_angle_beta   65.16051263
_cell_angle_gamma   33.47535580
_symmetry_Int_Tables_number   1
_chemical_formula_structural   Y3B6Ir7Os
_chemical_formula_sum   'Y3 B6 Ir7 Os1'
_cell_volume   234.76873648
_cell_formula_units_Z   1
loop_
 _symmetry_equiv_pos_site_id
 _symmetry_equiv_pos_as_xyz
  1  'x, y, z'
loop_
 _atom_site_type_symbol
 _atom_site_label
 _atom_site_symmetry_multiplicity
 _atom_site_fract_x
 _atom_site_fract_y
 _atom_site_fract_z
 _atom_site_occupancy
  Y  Y0  1  0.000000  0.000000  0.000000  1
  Y  Y1  1  0.178894  0.178894  0.821106  1
  Y  Y2  1  0.821106  0.821106  0.178894  1
  B  B3  1  0.821338  0.529093  0.482745  1
  B  B4  1  0.166824  0.482745  0.529093  1
  B  B5  1  0.482745  0.166824  0.821338  1
  B  B6  1  0.670161  0.329839  0.670161  1
  B  B7  1  0.529093  0.821338  0.166824  1
  B  B8  1  0.329839  0.670161  0.329839  1
  Ir  Ir9  1  0.414144  0.414144  0.585856  1
  Ir  Ir10  1  0.585688  0.585688  0.914312  1
  Ir  Ir11  1  0.085967  0.085967  0.414033  1
  Ir  Ir12  1  0.914312  0.914312  0.585688  1
  Ir  Ir13  1  0.585856  0.585856  0.414144  1
  Ir  Ir14  1  0.250000  0.250000  0.250000  1
  Ir  Ir15  1  0.414033  0.414033  0.085967  1
  Os  Os16  1  0.750000  0.750000  0.750000  1
