# generated using pymatgen
data_Er6Tm10In4RuRh3
_symmetry_space_group_name_H-M   'P 1'
_cell_length_a   9.55020406
_cell_length_b   9.53895119
_cell_length_c   9.54491694
_cell_angle_alpha   59.95665646
_cell_angle_beta   59.97622506
_cell_angle_gamma   59.94930746
_symmetry_Int_Tables_number   1
_chemical_formula_structural   Er6Tm10In4RuRh3
_chemical_formula_sum   'Er6 Tm10 In4 Ru1 Rh3'
_cell_volume   614.30413352
_cell_formula_units_Z   1
loop_
 _symmetry_equiv_pos_site_id
 _symmetry_equiv_pos_as_xyz
  1  'x, y, z'
loop_
 _atom_site_type_symbol
 _atom_site_label
 _atom_site_symmetry_multiplicity
 _atom_site_fract_x
 _atom_site_fract_y
 _atom_site_fract_z
 _atom_site_occupancy
  Er  Er0  1  0.060288  0.060365  0.437004  1
  Er  Er1  1  0.442533  0.060155  0.437091  1
  Er  Er2  1  0.061943  0.438192  0.061321  1
  Er  Er3  1  0.047448  0.650885  0.649542  1
  Er  Er4  1  0.438670  0.438203  0.061177  1
  Er  Er5  1  0.651299  0.048188  0.649241  1
  Tm  Tm6  1  0.187936  0.809987  0.192694  1
  Tm  Tm7  1  0.189875  0.190987  0.809759  1
  Tm  Tm8  1  0.809310  0.809861  0.192894  1
  Tm  Tm9  1  0.438822  0.061509  0.060874  1
  Tm  Tm10  1  0.809793  0.188316  0.192132  1
  Tm  Tm11  1  0.059987  0.442510  0.437411  1
  Tm  Tm12  1  0.809319  0.191169  0.809617  1
  Tm  Tm13  1  0.190573  0.809662  0.809416  1
  Tm  Tm14  1  0.650706  0.649832  0.048743  1
  Tm  Tm15  1  0.652269  0.650924  0.649636  1
  In  In16  1  0.416795  0.416917  0.416653  1
  In  In17  1  0.749677  0.416923  0.416711  1
  In  In18  1  0.417014  0.749770  0.416327  1
  In  In19  1  0.417373  0.417105  0.748373  1
  Ru  Ru20  1  0.858288  0.857716  0.425010  1
  Rh  Rh21  1  0.858264  0.858517  0.859963  1
  Rh  Rh22  1  0.423657  0.858184  0.859527  1
  Rh  Rh23  1  0.858162  0.424126  0.858888  1
