# generated using pymatgen
data_CsF5
_symmetry_space_group_name_H-M   'P 1'
_cell_length_a   4.96299875
_cell_length_b   6.04542404
_cell_length_c   5.30041811
_cell_angle_alpha   66.57610207
_cell_angle_beta   104.61795549
_cell_angle_gamma   127.51326431
_symmetry_Int_Tables_number   1
_chemical_formula_structural   CsF5
_chemical_formula_sum   'Cs1 F5'
_cell_volume   115.73780043
_cell_formula_units_Z   1
loop_
 _symmetry_equiv_pos_site_id
 _symmetry_equiv_pos_as_xyz
  1  'x, y, z'
loop_
 _atom_site_type_symbol
 _atom_site_label
 _atom_site_symmetry_multiplicity
 _atom_site_fract_x
 _atom_site_fract_y
 _atom_site_fract_z
 _atom_site_occupancy
  Cs  Cs0  1  0.982636  0.144609  0.756382  1
  F  F1  1  0.776669  0.505710  0.834788  1
  F  F2  1  0.061238  0.749106  0.594564  1
  F  F3  1  0.410087  0.762523  0.236684  1
  F  F4  1  0.381719  0.028365  0.324274  1
  F  F5  1  0.431930  0.540421  0.175007  1
