# generated using pymatgen
data_Tb4Dy(InSb)2
_symmetry_space_group_name_H-M   'P 1'
_cell_length_a   8.85736404
_cell_length_b   8.85736469
_cell_length_c   8.14391300
_cell_angle_alpha   90.00000000
_cell_angle_beta   90.00000000
_cell_angle_gamma   125.16339185
_symmetry_Int_Tables_number   1
_chemical_formula_structural   Tb4Dy(InSb)2
_chemical_formula_sum   'Tb8 Dy2 In4 Sb4'
_cell_volume   522.32021160
_cell_formula_units_Z   2
loop_
 _symmetry_equiv_pos_site_id
 _symmetry_equiv_pos_as_xyz
  1  'x, y, z'
loop_
 _atom_site_type_symbol
 _atom_site_label
 _atom_site_symmetry_multiplicity
 _atom_site_fract_x
 _atom_site_fract_y
 _atom_site_fract_z
 _atom_site_occupancy
  Tb  Tb0  1  0.031525  0.308293  0.334151  1
  Tb  Tb1  1  0.968475  0.691707  0.665849  1
  Tb  Tb2  1  0.468475  0.191707  0.834151  1
  Tb  Tb3  1  0.808293  0.531525  0.165849  1
  Tb  Tb4  1  0.531525  0.808293  0.165849  1
  Tb  Tb5  1  0.191707  0.468475  0.834151  1
  Tb  Tb6  1  0.691707  0.968475  0.665849  1
  Tb  Tb7  1  0.308293  0.031525  0.334151  1
  Dy  Dy8  1  0.000000  0.000000  0.000000  1
  Dy  Dy9  1  0.500000  0.500000  0.500000  1
  In  In10  1  0.371281  0.371281  0.127971  1
  In  In11  1  0.628719  0.628719  0.872029  1
  In  In12  1  0.128719  0.128719  0.627971  1
  In  In13  1  0.871281  0.871281  0.372029  1
  Sb  Sb14  1  0.797553  0.202447  0.000000  1
  Sb  Sb15  1  0.202447  0.797553  0.000000  1
  Sb  Sb16  1  0.702447  0.297553  0.500000  1
  Sb  Sb17  1  0.297553  0.702447  0.500000  1
