# generated using pymatgen
data_Rb4Na2NdTlSb4
_symmetry_space_group_name_H-M   'P 1'
_cell_length_a   10.13400983
_cell_length_b   10.13401001
_cell_length_c   10.13400942
_cell_angle_alpha   136.31099446
_cell_angle_beta   62.65836239
_cell_angle_gamma   137.40832856
_symmetry_Int_Tables_number   1
_chemical_formula_structural   Rb4Na2NdTlSb4
_chemical_formula_sum   'Rb4 Na2 Nd1 Tl1 Sb4'
_cell_volume   480.54422453
_cell_formula_units_Z   1
loop_
 _symmetry_equiv_pos_site_id
 _symmetry_equiv_pos_as_xyz
  1  'x, y, z'
loop_
 _atom_site_type_symbol
 _atom_site_label
 _atom_site_symmetry_multiplicity
 _atom_site_fract_x
 _atom_site_fract_y
 _atom_site_fract_z
 _atom_site_occupancy
  Rb  Rb0  1  0.834026  0.245064  0.061161  1
  Rb  Rb1  1  0.665974  0.727134  0.411040  1
  Rb  Rb2  1  0.316096  0.254935  0.588961  1
  Rb  Rb3  1  0.183904  0.772866  0.938840  1
  Na  Na4  1  0.250000  0.250000  0.000000  1
  Na  Na5  1  0.750000  0.750000  0.000000  1
  Nd  Nd6  1  0.750001  0.250000  0.500000  1
  Tl  Tl7  1  0.250000  0.750001  0.500000  1
  Sb  Sb8  1  0.393225  0.765533  0.166908  1
  Sb  Sb9  1  0.106774  0.273682  0.372307  1
  Sb  Sb10  1  0.901375  0.734467  0.627693  1
  Sb  Sb11  1  0.598625  0.226318  0.833092  1
