# generated using pymatgen
data_Tb20Co4Bi7Sb
_symmetry_space_group_name_H-M   'P 1'
_cell_length_a   8.06452391
_cell_length_b   8.87039271
_cell_length_c   12.44375350
_cell_angle_alpha   89.99496410
_cell_angle_beta   90.03217079
_cell_angle_gamma   89.95516486
_symmetry_Int_Tables_number   1
_chemical_formula_structural   Tb20Co4Bi7Sb
_chemical_formula_sum   'Tb20 Co4 Bi7 Sb1'
_cell_volume   890.16963950
_cell_formula_units_Z   1
loop_
 _symmetry_equiv_pos_site_id
 _symmetry_equiv_pos_as_xyz
  1  'x, y, z'
loop_
 _atom_site_type_symbol
 _atom_site_label
 _atom_site_symmetry_multiplicity
 _atom_site_fract_x
 _atom_site_fract_y
 _atom_site_fract_z
 _atom_site_occupancy
  Tb  Tb0  1  0.154799  0.746364  0.199812  1
  Tb  Tb1  1  0.650975  0.253036  0.298997  1
  Tb  Tb2  1  0.847218  0.249941  0.801345  1
  Tb  Tb3  1  0.347476  0.750265  0.699704  1
  Tb  Tb4  1  0.451604  0.747507  0.999048  1
  Tb  Tb5  1  0.950443  0.249655  0.501846  1
  Tb  Tb6  1  0.547026  0.252275  0.003953  1
  Tb  Tb7  1  0.049480  0.750316  0.497366  1
  Tb  Tb8  1  0.614742  0.746855  0.307500  1
  Tb  Tb9  1  0.121228  0.252664  0.191095  1
  Tb  Tb10  1  0.383228  0.250044  0.690441  1
  Tb  Tb11  1  0.883004  0.750136  0.809428  1
  Tb  Tb12  1  0.822990  0.964272  0.063296  1
  Tb  Tb13  1  0.322806  0.036469  0.436613  1
  Tb  Tb14  1  0.177177  0.463998  0.938647  1
  Tb  Tb15  1  0.676852  0.535958  0.563001  1
  Tb  Tb16  1  0.178015  0.035755  0.937457  1
  Tb  Tb17  1  0.677221  0.963978  0.562611  1
  Tb  Tb18  1  0.820854  0.536061  0.063641  1
  Tb  Tb19  1  0.323637  0.463947  0.434198  1
  Co  Co20  1  0.436214  0.749454  0.490901  1
  Co  Co21  1  0.937199  0.251081  0.009545  1
  Co  Co22  1  0.563597  0.250317  0.507840  1
  Co  Co23  1  0.063265  0.749510  0.991957  1
  Bi  Bi24  1  0.926889  0.990958  0.324453  1
  Bi  Bi25  1  0.427525  0.008729  0.174314  1
  Bi  Bi26  1  0.072449  0.490536  0.674358  1
  Bi  Bi27  1  0.572153  0.509075  0.825702  1
  Bi  Bi28  1  0.072291  0.009459  0.674339  1
  Bi  Bi29  1  0.571749  0.990895  0.827419  1
  Bi  Bi30  1  0.927489  0.509178  0.326018  1
  Sb  Sb31  1  0.428406  0.491310  0.173158  1
