# generated using pymatgen
data_Yb12Ho8Sn13Ge3
_symmetry_space_group_name_H-M   'P 1'
_cell_length_a   7.63087966
_cell_length_b   8.40715165
_cell_length_c   15.94566600
_cell_angle_alpha   90.00000000
_cell_angle_beta   90.00000000
_cell_angle_gamma   89.87641945
_symmetry_Int_Tables_number   1
_chemical_formula_structural   Yb12Ho8Sn13Ge3
_chemical_formula_sum   'Yb12 Ho8 Sn13 Ge3'
_cell_volume   1022.97527947
_cell_formula_units_Z   1
loop_
 _symmetry_equiv_pos_site_id
 _symmetry_equiv_pos_as_xyz
  1  'x, y, z'
loop_
 _atom_site_type_symbol
 _atom_site_label
 _atom_site_symmetry_multiplicity
 _atom_site_fract_x
 _atom_site_fract_y
 _atom_site_fract_z
 _atom_site_occupancy
  Yb  Yb0  1  0.500052  0.687446  0.593238  1
  Yb  Yb1  1  0.000933  0.812452  0.907714  1
  Yb  Yb2  1  0.499346  0.311992  0.091578  1
  Yb  Yb3  1  0.000562  0.188358  0.407253  1
  Yb  Yb4  1  0.499346  0.311992  0.408422  1
  Yb  Yb5  1  0.000562  0.188358  0.092747  1
  Yb  Yb6  1  0.500052  0.687446  0.906762  1
  Yb  Yb7  1  0.000933  0.812452  0.592286  1
  Yb  Yb8  1  0.818776  0.508550  0.750000  1
  Yb  Yb9  1  0.318721  0.990781  0.750000  1
  Yb  Yb10  1  0.181022  0.491904  0.250000  1
  Yb  Yb11  1  0.668208  0.012291  0.250000  1
  Ho  Ho12  1  0.672188  0.171684  0.627512  1
  Ho  Ho13  1  0.172513  0.326873  0.872699  1
  Ho  Ho14  1  0.335439  0.826593  0.123858  1
  Ho  Ho15  1  0.820539  0.666214  0.376210  1
  Ho  Ho16  1  0.335439  0.826593  0.376142  1
  Ho  Ho17  1  0.820539  0.666214  0.123790  1
  Ho  Ho18  1  0.672188  0.171684  0.872488  1
  Ho  Ho19  1  0.172513  0.326873  0.627301  1
  Sn  Sn20  1  0.675612  0.964684  0.462136  1
  Sn  Sn21  1  0.173092  0.535779  0.038047  1
  Sn  Sn22  1  0.327613  0.036339  0.960686  1
  Sn  Sn23  1  0.827053  0.462561  0.539872  1
  Sn  Sn24  1  0.327613  0.036339  0.539314  1
  Sn  Sn25  1  0.827053  0.462561  0.960128  1
  Sn  Sn26  1  0.675612  0.964684  0.037864  1
  Sn  Sn27  1  0.173092  0.535779  0.461953  1
  Sn  Sn28  1  0.032492  0.870096  0.250000  1
  Sn  Sn29  1  0.726147  0.879975  0.750000  1
  Sn  Sn30  1  0.224616  0.619495  0.750000  1
  Sn  Sn31  1  0.283295  0.127453  0.250000  1
  Sn  Sn32  1  0.774740  0.379326  0.250000  1
  Ge  Ge33  1  0.462857  0.361204  0.750000  1
  Ge  Ge34  1  0.962525  0.139123  0.750000  1
  Ge  Ge35  1  0.536719  0.637851  0.250000  1
