# generated using pymatgen
data_SrYb5(Si3Ru)8
_symmetry_space_group_name_H-M   'P 1'
_cell_length_a   10.16340159
_cell_length_b   10.16340144
_cell_length_c   8.17874873
_cell_angle_alpha   90.00240413
_cell_angle_beta   89.99760465
_cell_angle_gamma   132.54907041
_symmetry_Int_Tables_number   1
_chemical_formula_structural   SrYb5(Si3Ru)8
_chemical_formula_sum   'Sr1 Yb5 Si24 Ru8'
_cell_volume   622.37880671
_cell_formula_units_Z   1
loop_
 _symmetry_equiv_pos_site_id
 _symmetry_equiv_pos_as_xyz
  1  'x, y, z'
loop_
 _atom_site_type_symbol
 _atom_site_label
 _atom_site_symmetry_multiplicity
 _atom_site_fract_x
 _atom_site_fract_y
 _atom_site_fract_z
 _atom_site_occupancy
  Sr  Sr0  1  0.496593  0.996593  0.250000  1
  Yb  Yb1  1  0.001740  0.501740  0.750000  1
  Yb  Yb2  1  0.502579  0.002579  0.750000  1
  Yb  Yb3  1  0.997072  0.497072  0.250000  1
  Yb  Yb4  1  0.500072  0.499984  0.500342  1
  Yb  Yb5  1  0.999984  0.000072  0.999658  1
  Si  Si6  1  0.385981  0.153916  0.004729  1
  Si  Si7  1  0.653916  0.885981  0.495271  1
  Si  Si8  1  0.114131  0.346185  0.507639  1
  Si  Si9  1  0.846185  0.614131  0.992361  1
  Si  Si10  1  0.614807  0.847568  0.988698  1
  Si  Si11  1  0.347568  0.114807  0.511302  1
  Si  Si12  1  0.885225  0.653038  0.490624  1
  Si  Si13  1  0.153038  0.385225  0.009376  1
  Si  Si14  1  0.609632  0.378054  0.229837  1
  Si  Si15  1  0.878054  0.109632  0.270163  1
  Si  Si16  1  0.893226  0.124909  0.730909  1
  Si  Si17  1  0.624909  0.393226  0.769091  1
  Si  Si18  1  0.394798  0.626612  0.768821  1
  Si  Si19  1  0.126612  0.894798  0.731179  1
  Si  Si20  1  0.708837  0.298071  0.996931  1
  Si  Si21  1  0.798071  0.208837  0.503069  1
  Si  Si22  1  0.290751  0.700978  0.996451  1
  Si  Si23  1  0.200978  0.790751  0.503549  1
  Si  Si24  1  0.167508  0.166326  0.332071  1
  Si  Si25  1  0.666326  0.667508  0.167929  1
  Si  Si26  1  0.333388  0.332765  0.832276  1
  Si  Si27  1  0.832765  0.833388  0.667724  1
  Si  Si28  1  0.371162  0.603417  0.231620  1
  Si  Si29  1  0.103417  0.871162  0.268380  1
  Ru  Ru30  1  0.625977  0.625891  0.875645  1
  Ru  Ru31  1  0.125891  0.125977  0.624355  1
  Ru  Ru32  1  0.874481  0.874568  0.375620  1
  Ru  Ru33  1  0.374568  0.374481  0.124380  1
  Ru  Ru34  1  0.328970  0.667246  0.502304  1
  Ru  Ru35  1  0.167246  0.828970  0.997696  1
  Ru  Ru36  1  0.670746  0.332798  0.501372  1
  Ru  Ru37  1  0.832798  0.170746  0.998628  1
