# generated using pymatgen
data_ErTh3(Al8Pt3)3
_symmetry_space_group_name_H-M   'P 1'
_cell_length_a   7.61242367
_cell_length_b   7.61348699
_cell_length_c   13.20772721
_cell_angle_alpha   84.49377179
_cell_angle_beta   101.07552555
_cell_angle_gamma   119.86167064
_symmetry_Int_Tables_number   1
_chemical_formula_structural   ErTh3(Al8Pt3)3
_chemical_formula_sum   'Er1 Th3 Al24 Pt9'
_cell_volume   651.48412676
_cell_formula_units_Z   1
loop_
 _symmetry_equiv_pos_site_id
 _symmetry_equiv_pos_as_xyz
  1  'x, y, z'
loop_
 _atom_site_type_symbol
 _atom_site_label
 _atom_site_symmetry_multiplicity
 _atom_site_fract_x
 _atom_site_fract_y
 _atom_site_fract_z
 _atom_site_occupancy
  Er  Er0  1  0.936844  0.331962  0.805812  1
  Th  Th1  1  0.732529  0.998747  0.192839  1
  Th  Th2  1  0.267376  0.000988  0.806431  1
  Th  Th3  1  0.062257  0.667673  0.192679  1
  Al  Al4  1  0.804185  0.868438  0.814874  1
  Al  Al5  1  0.196702  0.135698  0.184871  1
  Al  Al6  1  0.978880  0.663001  0.942450  1
  Al  Al7  1  0.019992  0.333681  0.051389  1
  Al  Al8  1  0.397894  0.660351  0.816355  1
  Al  Al9  1  0.597848  0.336434  0.183491  1
  Al  Al10  1  0.878155  0.661788  0.667324  1
  Al  Al11  1  0.123212  0.334582  0.335769  1
  Al  Al12  1  0.605631  0.461781  0.815536  1
  Al  Al13  1  0.396980  0.537095  0.183904  1
  Al  Al14  1  0.228788  0.343689  0.665901  1
  Al  Al15  1  0.768134  0.655890  0.337778  1
  Al  Al16  1  0.852672  0.333309  0.559853  1
  Al  Al17  1  0.186287  0.999699  0.558266  1
  Al  Al18  1  0.814100  0.000588  0.443378  1
  Al  Al19  1  0.351578  0.003373  0.053444  1
  Al  Al20  1  0.650640  0.001470  0.942304  1
  Al  Al21  1  0.558444  0.993661  0.667392  1
  Al  Al22  1  0.446111  0.010328  0.336029  1
  Al  Al23  1  0.521508  0.666937  0.562627  1
  Al  Al24  1  0.480163  0.333284  0.440140  1
  Al  Al25  1  0.678862  0.664706  0.042284  1
  Al  Al26  1  0.315763  0.334303  0.951729  1
  Al  Al27  1  0.148001  0.666172  0.443355  1
  Pt  Pt28  1  0.328697  0.672194  0.000332  1
  Pt  Pt29  1  0.545308  0.324061  0.637857  1
  Pt  Pt30  1  0.454135  0.675946  0.362532  1
  Pt  Pt31  1  0.888799  0.008802  0.639360  1
  Pt  Pt32  1  0.111248  0.990907  0.361005  1
  Pt  Pt33  1  0.672007  0.328413  0.999962  1
  Pt  Pt34  1  0.203867  0.667085  0.639325  1
  Pt  Pt35  1  0.796323  0.333179  0.361296  1
  Pt  Pt36  1  0.000082  0.999785  0.000128  1
