# generated using pymatgen
data_HoEr2In3NiPd2
_symmetry_space_group_name_H-M   'P 1'
_cell_length_a   7.64242300
_cell_length_b   7.64206798
_cell_length_c   3.74045800
_cell_angle_alpha   90.00000000
_cell_angle_beta   90.00000000
_cell_angle_gamma   119.99846320
_symmetry_Int_Tables_number   1
_chemical_formula_structural   HoEr2In3NiPd2
_chemical_formula_sum   'Ho1 Er2 In3 Ni1 Pd2'
_cell_volume   189.19258360
_cell_formula_units_Z   1
loop_
 _symmetry_equiv_pos_site_id
 _symmetry_equiv_pos_as_xyz
  1  'x, y, z'
loop_
 _atom_site_type_symbol
 _atom_site_label
 _atom_site_symmetry_multiplicity
 _atom_site_fract_x
 _atom_site_fract_y
 _atom_site_fract_z
 _atom_site_occupancy
  Ho  Ho0  1  0.000000  0.592852  0.500000  1
  Er  Er1  1  0.407148  0.407143  0.500000  1
  Er  Er2  1  0.592852  0.999995  0.500000  1
  In  In3  1  0.249968  0.000041  0.000000  1
  In  In4  1  0.750032  0.750073  0.000000  1
  In  In5  1  0.000000  0.249907  0.000000  1
  Ni  Ni6  1  0.000000  0.000025  0.500000  1
  Pd  Pd7  1  0.333408  0.666686  0.000000  1
  Pd  Pd8  1  0.666592  0.333277  0.000000  1
