# generated using pymatgen
data_HfZrNiSb2Os
_symmetry_space_group_name_H-M   'P 1'
_cell_length_a   7.67231262
_cell_length_b   7.65185759
_cell_length_c   6.26191112
_cell_angle_alpha   114.04923856
_cell_angle_beta   114.18524958
_cell_angle_gamma   109.39931580
_symmetry_Int_Tables_number   1
_chemical_formula_structural   HfZrNiSb2Os
_chemical_formula_sum   'Hf2 Zr2 Ni2 Sb4 Os2'
_cell_volume   245.19200959
_cell_formula_units_Z   2
loop_
 _symmetry_equiv_pos_site_id
 _symmetry_equiv_pos_as_xyz
  1  'x, y, z'
loop_
 _atom_site_type_symbol
 _atom_site_label
 _atom_site_symmetry_multiplicity
 _atom_site_fract_x
 _atom_site_fract_y
 _atom_site_fract_z
 _atom_site_occupancy
  Hf  Hf0  1  0.379708  0.129631  0.504065  1
  Hf  Hf1  1  0.125668  0.375560  0.995878  1
  Zr  Zr2  1  0.625569  0.875641  0.005036  1
  Zr  Zr3  1  0.870563  0.620655  0.494943  1
  Ni  Ni4  1  0.496298  0.496239  0.996509  1
  Ni  Ni5  1  0.749828  0.249756  0.503614  1
  Sb  Sb6  1  0.377849  0.128642  0.003005  1
  Sb  Sb7  1  0.624825  0.875665  0.496972  1
  Sb  Sb8  1  0.125654  0.374936  0.504334  1
  Sb  Sb9  1  0.871327  0.620592  0.995680  1
  Os  Os10  1  0.002716  0.002673  0.002673  1
  Os  Os11  1  0.249995  0.750012  0.497290  1
