# generated using pymatgen
data_BaLi4Pr3Pt4
_symmetry_space_group_name_H-M   'P 1'
_cell_length_a   4.20294200
_cell_length_b   7.39587749
_cell_length_c   8.80472278
_cell_angle_alpha   91.28540378
_cell_angle_beta   90.00000000
_cell_angle_gamma   90.00000000
_symmetry_Int_Tables_number   1
_chemical_formula_structural   BaLi4Pr3Pt4
_chemical_formula_sum   'Ba1 Li4 Pr3 Pt4'
_cell_volume   273.62104089
_cell_formula_units_Z   1
loop_
 _symmetry_equiv_pos_site_id
 _symmetry_equiv_pos_as_xyz
  1  'x, y, z'
loop_
 _atom_site_type_symbol
 _atom_site_label
 _atom_site_symmetry_multiplicity
 _atom_site_fract_x
 _atom_site_fract_y
 _atom_site_fract_z
 _atom_site_occupancy
  Ba  Ba0  1  0.750000  0.455290  0.187274  1
  Li  Li1  1  0.250000  0.124369  0.046415  1
  Li  Li2  1  0.250000  0.627110  0.457129  1
  Li  Li3  1  0.750000  0.885276  0.944069  1
  Li  Li4  1  0.750000  0.364686  0.561188  1
  Pr  Pr5  1  0.250000  0.040509  0.683291  1
  Pr  Pr6  1  0.250000  0.549948  0.814763  1
  Pr  Pr7  1  0.750000  0.950403  0.320833  1
  Pt  Pt8  1  0.250000  0.228191  0.393390  1
  Pt  Pt9  1  0.250000  0.777828  0.110503  1
  Pt  Pt10  1  0.750000  0.745525  0.622871  1
  Pt  Pt11  1  0.750000  0.250864  0.858274  1
