# generated using pymatgen
data_Zr2Co9Si7Rh3
_symmetry_space_group_name_H-M   'P 1'
_cell_length_a   9.17812470
_cell_length_b   9.20079448
_cell_length_c   3.65674100
_cell_angle_alpha   90.00000000
_cell_angle_beta   90.00000000
_cell_angle_gamma   120.06724055
_symmetry_Int_Tables_number   1
_chemical_formula_structural   Zr2Co9Si7Rh3
_chemical_formula_sum   'Zr2 Co9 Si7 Rh3'
_cell_volume   267.24491923
_cell_formula_units_Z   1
loop_
 _symmetry_equiv_pos_site_id
 _symmetry_equiv_pos_as_xyz
  1  'x, y, z'
loop_
 _atom_site_type_symbol
 _atom_site_label
 _atom_site_symmetry_multiplicity
 _atom_site_fract_x
 _atom_site_fract_y
 _atom_site_fract_z
 _atom_site_occupancy
  Zr  Zr0  1  0.993071  0.001094  0.000000  1
  Zr  Zr1  1  0.333192  0.664901  0.500000  1
  Co  Co2  1  0.289387  0.394075  0.000000  1
  Co  Co3  1  0.104002  0.706524  0.000000  1
  Co  Co4  1  0.388606  0.183272  0.000000  1
  Co  Co5  1  0.793569  0.616145  0.000000  1
  Co  Co6  1  0.819746  0.203347  0.000000  1
  Co  Co7  1  0.046893  0.275845  0.500000  1
  Co  Co8  1  0.721724  0.773318  0.500000  1
  Co  Co9  1  0.564351  0.098384  0.500000  1
  Co  Co10  1  0.609714  0.897015  0.000000  1
  Si  Si11  1  0.666587  0.330007  0.000000  1
  Si  Si12  1  0.073883  0.444552  0.000000  1
  Si  Si13  1  0.257223  0.222467  0.500000  1
  Si  Si14  1  0.779179  0.041092  0.500000  1
  Si  Si15  1  0.951351  0.738053  0.500000  1
  Si  Si16  1  0.553308  0.629140  0.000000  1
  Si  Si17  1  0.385883  0.930893  0.000000  1
  Rh  Rh18  1  0.897334  0.457572  0.500000  1
  Rh  Rh19  1  0.541251  0.441526  0.500000  1
  Rh  Rh20  1  0.229743  0.950781  0.500000  1
