# generated using pymatgen
data_LiLa3Nd13Cd3Pt4
_symmetry_space_group_name_H-M   'P 1'
_cell_length_a   10.05444863
_cell_length_b   10.08835034
_cell_length_c   10.08834986
_cell_angle_alpha   59.88796842
_cell_angle_beta   59.93065290
_cell_angle_gamma   59.93065376
_symmetry_Int_Tables_number   1
_chemical_formula_structural   LiLa3Nd13Cd3Pt4
_chemical_formula_sum   'Li1 La3 Nd13 Cd3 Pt4'
_cell_volume   722.20294318
_cell_formula_units_Z   1
loop_
 _symmetry_equiv_pos_site_id
 _symmetry_equiv_pos_as_xyz
  1  'x, y, z'
loop_
 _atom_site_type_symbol
 _atom_site_label
 _atom_site_symmetry_multiplicity
 _atom_site_fract_x
 _atom_site_fract_y
 _atom_site_fract_z
 _atom_site_occupancy
  Li  Li0  1  0.572848  0.572003  0.572003  1
  La  La1  1  0.349830  0.350006  0.350006  1
  La  La2  1  0.350083  0.350657  0.949136  1
  La  La3  1  0.350083  0.949136  0.350657  1
  Nd  Nd4  1  0.947076  0.351012  0.351012  1
  Nd  Nd5  1  0.810569  0.191665  0.191665  1
  Nd  Nd6  1  0.187470  0.812353  0.812353  1
  Nd  Nd7  1  0.191336  0.810544  0.191432  1
  Nd  Nd8  1  0.812309  0.187643  0.811244  1
  Nd  Nd9  1  0.191336  0.191432  0.810544  1
  Nd  Nd10  1  0.812309  0.811244  0.187643  1
  Nd  Nd11  1  0.937276  0.565102  0.565102  1
  Nd  Nd12  1  0.562963  0.935445  0.935445  1
  Nd  Nd13  1  0.565065  0.937080  0.565179  1
  Nd  Nd14  1  0.935791  0.562594  0.935658  1
  Nd  Nd15  1  0.565065  0.565179  0.937080  1
  Nd  Nd16  1  0.935791  0.935658  0.562594  1
  Cd  Cd17  1  0.583020  0.581827  0.256165  1
  Cd  Cd18  1  0.583020  0.256165  0.581827  1
  Cd  Cd19  1  0.255760  0.582266  0.582266  1
  Pt  Pt20  1  0.143286  0.143590  0.143590  1
  Pt  Pt21  1  0.142764  0.142992  0.571621  1
  Pt  Pt22  1  0.142764  0.571621  0.142992  1
  Pt  Pt23  1  0.572193  0.142788  0.142788  1
