# generated using pymatgen
data_Ho13Tm7(Bi2Rh)4
_symmetry_space_group_name_H-M   'P 1'
_cell_length_a   7.94006942
_cell_length_b   8.96694207
_cell_length_c   12.41809628
_cell_angle_alpha   89.98136185
_cell_angle_beta   90.04649457
_cell_angle_gamma   90.02123726
_symmetry_Int_Tables_number   1
_chemical_formula_structural   Ho13Tm7(Bi2Rh)4
_chemical_formula_sum   'Ho13 Tm7 Bi8 Rh4'
_cell_volume   884.14499012
_cell_formula_units_Z   1
loop_
 _symmetry_equiv_pos_site_id
 _symmetry_equiv_pos_as_xyz
  1  'x, y, z'
loop_
 _atom_site_type_symbol
 _atom_site_label
 _atom_site_symmetry_multiplicity
 _atom_site_fract_x
 _atom_site_fract_y
 _atom_site_fract_z
 _atom_site_occupancy
  Ho  Ho0  1  0.342937  0.749979  0.706497  1
  Ho  Ho1  1  0.657193  0.249915  0.293306  1
  Ho  Ho2  1  0.842667  0.250230  0.793333  1
  Ho  Ho3  1  0.157336  0.749885  0.206765  1
  Ho  Ho4  1  0.877228  0.749660  0.807613  1
  Ho  Ho5  1  0.121680  0.250470  0.192476  1
  Ho  Ho6  1  0.377626  0.249790  0.691965  1
  Ho  Ho7  1  0.622336  0.750127  0.307846  1
  Ho  Ho8  1  0.178077  0.041706  0.934634  1
  Ho  Ho9  1  0.049661  0.749948  0.498597  1
  Ho  Ho10  1  0.950178  0.250125  0.501405  1
  Ho  Ho11  1  0.550370  0.250489  0.001452  1
  Ho  Ho12  1  0.451398  0.749395  0.998725  1
  Tm  Tm13  1  0.675843  0.542466  0.565185  1
  Tm  Tm14  1  0.324071  0.457836  0.434602  1
  Tm  Tm15  1  0.175836  0.457653  0.934856  1
  Tm  Tm16  1  0.324094  0.042242  0.434666  1
  Tm  Tm17  1  0.824039  0.542993  0.065583  1
  Tm  Tm18  1  0.675999  0.957778  0.565098  1
  Tm  Tm19  1  0.823914  0.957568  0.065415  1
  Bi  Bi20  1  0.569313  0.508680  0.826804  1
  Bi  Bi21  1  0.430319  0.491122  0.173169  1
  Bi  Bi22  1  0.069503  0.491194  0.672997  1
  Bi  Bi23  1  0.430006  0.008868  0.172788  1
  Bi  Bi24  1  0.930238  0.508933  0.327215  1
  Bi  Bi25  1  0.570437  0.991070  0.826795  1
  Bi  Bi26  1  0.930524  0.991173  0.327110  1
  Bi  Bi27  1  0.069289  0.008726  0.672796  1
  Rh  Rh28  1  0.069927  0.749190  0.991043  1
  Rh  Rh29  1  0.928126  0.250723  0.009468  1
  Rh  Rh30  1  0.570381  0.250039  0.508841  1
  Rh  Rh31  1  0.429453  0.750027  0.490953  1
