# generated using pymatgen
data_Sc22FeCoIr6
_symmetry_space_group_name_H-M   'P 1'
_cell_length_a   9.44082314
_cell_length_b   9.44082275
_cell_length_c   9.44082300
_cell_angle_alpha   60.00000262
_cell_angle_beta   60.00000399
_cell_angle_gamma   60.00000736
_symmetry_Int_Tables_number   1
_chemical_formula_structural   Sc22FeCoIr6
_chemical_formula_sum   'Sc22 Fe1 Co1 Ir6'
_cell_volume   594.99677133
_cell_formula_units_Z   1
loop_
 _symmetry_equiv_pos_site_id
 _symmetry_equiv_pos_as_xyz
  1  'x, y, z'
loop_
 _atom_site_type_symbol
 _atom_site_label
 _atom_site_symmetry_multiplicity
 _atom_site_fract_x
 _atom_site_fract_y
 _atom_site_fract_z
 _atom_site_occupancy
  Sc  Sc0  1  0.805969  0.805969  0.194031  1
  Sc  Sc1  1  0.194031  0.805969  0.194031  1
  Sc  Sc2  1  0.805969  0.194031  0.194031  1
  Sc  Sc3  1  0.194031  0.194031  0.805969  1
  Sc  Sc4  1  0.805969  0.194031  0.805969  1
  Sc  Sc5  1  0.194031  0.805969  0.805969  1
  Sc  Sc6  1  0.614860  0.614860  0.155420  1
  Sc  Sc7  1  0.614860  0.155420  0.614860  1
  Sc  Sc8  1  0.155420  0.614860  0.614860  1
  Sc  Sc9  1  0.614860  0.614860  0.614860  1
  Sc  Sc10  1  0.385140  0.385140  0.844580  1
  Sc  Sc11  1  0.385140  0.844580  0.385140  1
  Sc  Sc12  1  0.844580  0.385140  0.385140  1
  Sc  Sc13  1  0.385140  0.385140  0.385140  1
  Sc  Sc14  1  0.842129  0.842129  0.473613  1
  Sc  Sc15  1  0.842129  0.473613  0.842129  1
  Sc  Sc16  1  0.473613  0.842129  0.842129  1
  Sc  Sc17  1  0.842129  0.842129  0.842129  1
  Sc  Sc18  1  0.157871  0.157871  0.526387  1
  Sc  Sc19  1  0.157871  0.526387  0.157871  1
  Sc  Sc20  1  0.526387  0.157871  0.157871  1
  Sc  Sc21  1  0.157871  0.157871  0.157871  1
  Fe  Fe22  1  0.500000  0.500000  0.500000  1
  Co  Co23  1  0.000000  0.000000  0.000000  1
  Ir  Ir24  1  0.000000  0.000000  0.500000  1
  Ir  Ir25  1  0.500000  0.000000  0.500000  1
  Ir  Ir26  1  0.000000  0.500000  0.500000  1
  Ir  Ir27  1  0.500000  0.500000  0.000000  1
  Ir  Ir28  1  0.000000  0.500000  0.000000  1
  Ir  Ir29  1  0.500000  0.000000  0.000000  1
