# generated using pymatgen
data_Hf18CuRe8Ir
_symmetry_space_group_name_H-M   'P 1'
_cell_length_a   8.54259600
_cell_length_b   8.63143144
_cell_length_c   8.63143100
_cell_angle_alpha   120.00230198
_cell_angle_beta   90.00000000
_cell_angle_gamma   90.00000000
_symmetry_Int_Tables_number   1
_chemical_formula_structural   Hf18CuRe8Ir
_chemical_formula_sum   'Hf18 Cu1 Re8 Ir1'
_cell_volume   551.15792139
_cell_formula_units_Z   1
loop_
 _symmetry_equiv_pos_site_id
 _symmetry_equiv_pos_as_xyz
  1  'x, y, z'
loop_
 _atom_site_type_symbol
 _atom_site_label
 _atom_site_symmetry_multiplicity
 _atom_site_fract_x
 _atom_site_fract_y
 _atom_site_fract_z
 _atom_site_occupancy
  Hf  Hf0  1  0.554067  0.804557  0.609128  1
  Hf  Hf1  1  0.554045  0.804564  0.195436  1
  Hf  Hf2  1  0.554067  0.390872  0.195443  1
  Hf  Hf3  1  0.446056  0.195576  0.391139  1
  Hf  Hf4  1  0.446073  0.195572  0.804428  1
  Hf  Hf5  1  0.446056  0.608861  0.804424  1
  Hf  Hf6  1  0.053944  0.195576  0.391139  1
  Hf  Hf7  1  0.053927  0.195572  0.804428  1
  Hf  Hf8  1  0.053944  0.608861  0.804424  1
  Hf  Hf9  1  0.945933  0.804557  0.609128  1
  Hf  Hf10  1  0.945955  0.804564  0.195436  1
  Hf  Hf11  1  0.945933  0.390872  0.195443  1
  Hf  Hf12  1  0.750000  0.458381  0.916730  1
  Hf  Hf13  1  0.750000  0.458364  0.541636  1
  Hf  Hf14  1  0.750000  0.083270  0.541619  1
  Hf  Hf15  1  0.250000  0.541889  0.083813  1
  Hf  Hf16  1  0.250000  0.541911  0.458089  1
  Hf  Hf17  1  0.250000  0.916187  0.458111  1
  Cu  Cu18  1  0.750000  0.666678  0.333322  1
  Re  Re19  1  0.750000  0.110225  0.220441  1
  Re  Re20  1  0.750000  0.110242  0.889758  1
  Re  Re21  1  0.750000  0.779559  0.889775  1
  Re  Re22  1  0.250000  0.889714  0.779448  1
  Re  Re23  1  0.250000  0.889705  0.110295  1
  Re  Re24  1  0.250000  0.220552  0.110286  1
  Re  Re25  1  0.499898  0.999999  0.000001  1
  Re  Re26  1  0.000102  0.999999  0.000001  1
  Ir  Ir27  1  0.250000  0.333320  0.666680  1
