# generated using pymatgen
data_Y8As(PdPt11)2
_symmetry_space_group_name_H-M   'P 1'
_cell_length_a   8.39268500
_cell_length_b   8.39268526
_cell_length_c   8.35649800
_cell_angle_alpha   90.00000000
_cell_angle_beta   90.00000000
_cell_angle_gamma   90.01422720
_symmetry_Int_Tables_number   1
_chemical_formula_structural   Y8As(PdPt11)2
_chemical_formula_sum   'Y8 As1 Pd2 Pt22'
_cell_volume   588.60799928
_cell_formula_units_Z   1
loop_
 _symmetry_equiv_pos_site_id
 _symmetry_equiv_pos_as_xyz
  1  'x, y, z'
loop_
 _atom_site_type_symbol
 _atom_site_label
 _atom_site_symmetry_multiplicity
 _atom_site_fract_x
 _atom_site_fract_y
 _atom_site_fract_z
 _atom_site_occupancy
  Y  Y0  1  0.252889  0.252889  0.748208  1
  Y  Y1  1  0.253735  0.746009  0.252677  1
  Y  Y2  1  0.746009  0.253735  0.252677  1
  Y  Y3  1  0.745255  0.745255  0.746318  1
  Y  Y4  1  0.745255  0.745255  0.253682  1
  Y  Y5  1  0.746009  0.253735  0.747323  1
  Y  Y6  1  0.253735  0.746009  0.747323  1
  Y  Y7  1  0.252889  0.252889  0.251792  1
  As  As8  1  0.007120  0.007120  0.000000  1
  Pd  Pd9  1  0.998396  0.717584  0.000000  1
  Pd  Pd10  1  0.717584  0.998396  0.000000  1
  Pt  Pt11  1  0.499343  0.499343  0.748082  1
  Pt  Pt12  1  0.499103  0.252344  0.500000  1
  Pt  Pt13  1  0.252344  0.499103  0.500000  1
  Pt  Pt14  1  0.499343  0.499343  0.251918  1
  Pt  Pt15  1  0.499084  0.747133  0.500000  1
  Pt  Pt16  1  0.747133  0.499084  0.500000  1
  Pt  Pt17  1  0.997966  0.997966  0.709680  1
  Pt  Pt18  1  0.998165  0.293074  0.000000  1
  Pt  Pt19  1  0.293074  0.998165  0.000000  1
  Pt  Pt20  1  0.997966  0.997966  0.290320  1
  Pt  Pt21  1  0.999816  0.500550  0.741577  1
  Pt  Pt22  1  0.500547  0.257921  0.000000  1
  Pt  Pt23  1  0.259703  0.999876  0.500000  1
  Pt  Pt24  1  0.999876  0.259703  0.500000  1
  Pt  Pt25  1  0.500550  0.999816  0.741577  1
  Pt  Pt26  1  0.257921  0.500547  0.000000  1
  Pt  Pt27  1  0.999816  0.500550  0.258423  1
  Pt  Pt28  1  0.500689  0.740102  0.000000  1
  Pt  Pt29  1  0.000059  0.737976  0.500000  1
  Pt  Pt30  1  0.500550  0.999816  0.258423  1
  Pt  Pt31  1  0.737976  0.000059  0.500000  1
  Pt  Pt32  1  0.740102  0.500689  0.000000  1
