# generated using pymatgen
data_Pr20Si15Cl
_symmetry_space_group_name_H-M   'P 1'
_cell_length_a   7.97589129
_cell_length_b   7.89714028
_cell_length_c   15.32906587
_cell_angle_alpha   89.56048924
_cell_angle_beta   89.15348734
_cell_angle_gamma   90.80783441
_symmetry_Int_Tables_number   1
_chemical_formula_structural   Pr20Si15Cl
_chemical_formula_sum   'Pr20 Si15 Cl1'
_cell_volume   965.29645788
_cell_formula_units_Z   1
loop_
 _symmetry_equiv_pos_site_id
 _symmetry_equiv_pos_as_xyz
  1  'x, y, z'
loop_
 _atom_site_type_symbol
 _atom_site_label
 _atom_site_symmetry_multiplicity
 _atom_site_fract_x
 _atom_site_fract_y
 _atom_site_fract_z
 _atom_site_occupancy
  Pr  Pr0  1  0.311079  0.310235  0.999290  1
  Pr  Pr1  1  0.186800  0.806760  0.249250  1
  Pr  Pr2  1  0.797087  0.189368  0.752933  1
  Pr  Pr3  1  0.687930  0.687454  0.497856  1
  Pr  Pr4  1  0.381998  0.003483  0.442224  1
  Pr  Pr5  1  0.500290  0.861274  0.700576  1
  Pr  Pr6  1  0.511108  0.121355  0.196977  1
  Pr  Pr7  1  0.873992  0.484078  0.300305  1
  Pr  Pr8  1  0.123207  0.518314  0.801820  1
  Pr  Pr9  1  0.633830  0.986653  0.952170  1
  Pr  Pr10  1  0.996403  0.382641  0.546840  1
  Pr  Pr11  1  0.993751  0.623405  0.052260  1
  Pr  Pr12  1  0.141904  0.990475  0.873217  1
  Pr  Pr13  1  0.518279  0.630529  0.125443  1
  Pr  Pr14  1  0.475114  0.362437  0.631347  1
  Pr  Pr15  1  0.635755  0.520385  0.876064  1
  Pr  Pr16  1  0.366979  0.477873  0.375949  1
  Pr  Pr17  1  0.871145  0.019221  0.377249  1
  Pr  Pr18  1  0.983980  0.126389  0.123699  1
  Pr  Pr19  1  0.018998  0.873324  0.621938  1
  Si  Si20  1  0.333904  0.699123  0.948556  1
  Si  Si21  1  0.660652  0.303327  0.454201  1
  Si  Si22  1  0.702798  0.336089  0.050800  1
  Si  Si23  1  0.303145  0.665472  0.551659  1
  Si  Si24  1  0.804085  0.831459  0.202870  1
  Si  Si25  1  0.167823  0.193683  0.296735  1
  Si  Si26  1  0.845365  0.804296  0.797678  1
  Si  Si27  1  0.289114  0.922165  0.057593  1
  Si  Si28  1  0.576045  0.784382  0.308582  1
  Si  Si29  1  0.450354  0.207425  0.822901  1
  Si  Si30  1  0.791161  0.578857  0.687719  1
  Si  Si31  1  0.211838  0.422944  0.190851  1
  Si  Si32  1  0.704771  0.074277  0.561266  1
  Si  Si33  1  0.927861  0.291579  0.940202  1
  Si  Si34  1  0.076504  0.711567  0.441461  1
  Cl  Cl35  1  0.144950  0.197704  0.689522  1
