# generated using pymatgen
data_Dy5Lu2Sc3(Si5Ir2)4
_symmetry_space_group_name_H-M   'P 1'
_cell_length_a   12.54906901
_cell_length_b   12.54916501
_cell_length_c   4.20253400
_cell_angle_alpha   90.00000000
_cell_angle_beta   90.00000000
_cell_angle_gamma   89.95391817
_symmetry_Int_Tables_number   1
_chemical_formula_structural   Dy5Lu2Sc3(Si5Ir2)4
_chemical_formula_sum   'Dy5 Lu2 Sc3 Si20 Ir8'
_cell_volume   661.81626008
_cell_formula_units_Z   1
loop_
 _symmetry_equiv_pos_site_id
 _symmetry_equiv_pos_as_xyz
  1  'x, y, z'
loop_
 _atom_site_type_symbol
 _atom_site_label
 _atom_site_symmetry_multiplicity
 _atom_site_fract_x
 _atom_site_fract_y
 _atom_site_fract_z
 _atom_site_occupancy
  Dy  Dy0  1  0.000476  0.000071  0.000000  1
  Dy  Dy1  1  0.884691  0.385423  0.500000  1
  Dy  Dy2  1  0.116322  0.615634  0.500000  1
  Dy  Dy3  1  0.383641  0.116051  0.500000  1
  Dy  Dy4  1  0.615314  0.882982  0.500000  1
  Lu  Lu5  1  0.500059  0.500469  0.000000  1
  Lu  Lu6  1  0.674067  0.174969  0.500000  1
  Sc  Sc7  1  0.326333  0.825098  0.500000  1
  Sc  Sc8  1  0.174545  0.326662  0.500000  1
  Sc  Sc9  1  0.825481  0.673418  0.500000  1
  Si  Si10  1  0.564888  0.065679  0.000000  1
  Si  Si11  1  0.432525  0.931612  0.000000  1
  Si  Si12  1  0.067721  0.433625  0.000000  1
  Si  Si13  1  0.932739  0.566868  0.000000  1
  Si  Si14  1  0.666144  0.700173  0.000000  1
  Si  Si15  1  0.333311  0.300255  0.000000  1
  Si  Si16  1  0.166145  0.800018  0.000000  1
  Si  Si17  1  0.835865  0.200977  0.000000  1
  Si  Si18  1  0.299927  0.666152  0.000000  1
  Si  Si19  1  0.701032  0.335900  0.000000  1
  Si  Si20  1  0.200062  0.166147  0.000000  1
  Si  Si21  1  0.800391  0.833341  0.000000  1
  Si  Si22  1  0.655213  0.506200  0.500000  1
  Si  Si23  1  0.345195  0.493250  0.500000  1
  Si  Si24  1  0.157678  0.993338  0.500000  1
  Si  Si25  1  0.843524  0.002486  0.500000  1
  Si  Si26  1  0.493062  0.654887  0.500000  1
  Si  Si27  1  0.503167  0.346330  0.500000  1
  Si  Si28  1  0.005714  0.158031  0.500000  1
  Si  Si29  1  0.993408  0.842528  0.500000  1
  Ir  Ir30  1  0.745171  0.521783  0.000000  1
  Ir  Ir31  1  0.254979  0.479805  0.000000  1
  Ir  Ir32  1  0.246439  0.979095  0.000000  1
  Ir  Ir33  1  0.754246  0.019845  0.000000  1
  Ir  Ir34  1  0.479232  0.744593  0.000000  1
  Ir  Ir35  1  0.519727  0.256116  0.000000  1
  Ir  Ir36  1  0.021914  0.246960  0.000000  1
  Ir  Ir37  1  0.979654  0.753230  0.000000  1
