# generated using pymatgen
data_Tb4NpNbRu6
_symmetry_space_group_name_H-M   'P 1'
_cell_length_a   5.81693000
_cell_length_b   5.81692900
_cell_length_c   7.87699500
_cell_angle_alpha   90.00000000
_cell_angle_beta   90.00000000
_cell_angle_gamma   120.00000567
_symmetry_Int_Tables_number   1
_chemical_formula_structural   Tb4NpNbRu6
_chemical_formula_sum   'Tb4 Np1 Nb1 Ru6'
_cell_volume   230.82283850
_cell_formula_units_Z   1
loop_
 _symmetry_equiv_pos_site_id
 _symmetry_equiv_pos_as_xyz
  1  'x, y, z'
loop_
 _atom_site_type_symbol
 _atom_site_label
 _atom_site_symmetry_multiplicity
 _atom_site_fract_x
 _atom_site_fract_y
 _atom_site_fract_z
 _atom_site_occupancy
  Tb  Tb0  1  0.333333  0.666667  0.439144  1
  Tb  Tb1  1  0.666667  0.333333  0.560856  1
  Tb  Tb2  1  0.666667  0.333333  0.945825  1
  Tb  Tb3  1  0.333333  0.666667  0.054175  1
  Np  Np4  1  0.000000  0.000000  0.500000  1
  Nb  Nb5  1  0.000000  0.000000  0.000000  1
  Ru  Ru6  1  0.832877  0.167123  0.258182  1
  Ru  Ru7  1  0.832877  0.665755  0.258182  1
  Ru  Ru8  1  0.334245  0.167123  0.258182  1
  Ru  Ru9  1  0.167123  0.832877  0.741818  1
  Ru  Ru10  1  0.167123  0.334245  0.741818  1
  Ru  Ru11  1  0.665755  0.832877  0.741818  1
