# generated using pymatgen
data_La2Sn4PdRh
_symmetry_space_group_name_H-M   'P 1'
_cell_length_a   9.06096694
_cell_length_b   9.06096617
_cell_length_c   9.70995500
_cell_angle_alpha   90.00000000
_cell_angle_beta   90.00000000
_cell_angle_gamma   149.96763523
_symmetry_Int_Tables_number   1
_chemical_formula_structural   La2Sn4PdRh
_chemical_formula_sum   'La4 Sn8 Pd2 Rh2'
_cell_volume   398.98898629
_cell_formula_units_Z   2
loop_
 _symmetry_equiv_pos_site_id
 _symmetry_equiv_pos_as_xyz
  1  'x, y, z'
loop_
 _atom_site_type_symbol
 _atom_site_label
 _atom_site_symmetry_multiplicity
 _atom_site_fract_x
 _atom_site_fract_y
 _atom_site_fract_z
 _atom_site_occupancy
  La  La0  1  0.498443  0.501557  0.499169  1
  La  La1  1  0.501557  0.498443  0.999169  1
  La  La2  1  0.296596  0.703404  0.249738  1
  La  La3  1  0.703404  0.296596  0.749738  1
  Sn  Sn4  1  0.909681  0.090319  0.747120  1
  Sn  Sn5  1  0.927801  0.072199  0.253681  1
  Sn  Sn6  1  0.090319  0.909681  0.247120  1
  Sn  Sn7  1  0.072199  0.927801  0.753681  1
  Sn  Sn8  1  0.698864  0.301136  0.408374  1
  Sn  Sn9  1  0.303993  0.696007  0.590211  1
  Sn  Sn10  1  0.301136  0.698864  0.908374  1
  Sn  Sn11  1  0.696007  0.303993  0.090211  1
  Pd  Pd12  1  0.146141  0.853859  0.507098  1
  Pd  Pd13  1  0.853859  0.146141  0.007098  1
  Rh  Rh14  1  0.147975  0.852025  0.994609  1
  Rh  Rh15  1  0.852025  0.147975  0.494609  1
