# generated using pymatgen
data_Er2LuCo8MoP6
_symmetry_space_group_name_H-M   'P 1'
_cell_length_a   3.69916800
_cell_length_b   10.51498200
_cell_length_c   12.18459900
_cell_angle_alpha   90.00000000
_cell_angle_beta   90.00000000
_cell_angle_gamma   90.00000000
_symmetry_Int_Tables_number   1
_chemical_formula_structural   Er2LuCo8MoP6
_chemical_formula_sum   'Er4 Lu2 Co16 Mo2 P12'
_cell_volume   473.94050836
_cell_formula_units_Z   2
loop_
 _symmetry_equiv_pos_site_id
 _symmetry_equiv_pos_as_xyz
  1  'x, y, z'
loop_
 _atom_site_type_symbol
 _atom_site_label
 _atom_site_symmetry_multiplicity
 _atom_site_fract_x
 _atom_site_fract_y
 _atom_site_fract_z
 _atom_site_occupancy
  Er  Er0  1  0.750000  0.250000  0.475388  1
  Er  Er1  1  0.250000  0.750000  0.525111  1
  Er  Er2  1  0.750000  0.069189  0.204929  1
  Er  Er3  1  0.750000  0.430811  0.204929  1
  Lu  Lu4  1  0.250000  0.930360  0.795162  1
  Lu  Lu5  1  0.250000  0.569640  0.795162  1
  Co  Co6  1  0.250000  0.250000  0.298929  1
  Co  Co7  1  0.750000  0.750000  0.701766  1
  Co  Co8  1  0.750000  0.250000  0.013070  1
  Co  Co9  1  0.250000  0.750000  0.985326  1
  Co  Co10  1  0.250000  0.417929  0.009380  1
  Co  Co11  1  0.250000  0.082071  0.009380  1
  Co  Co12  1  0.750000  0.582873  0.988865  1
  Co  Co13  1  0.750000  0.917127  0.988865  1
  Co  Co14  1  0.250000  0.454125  0.569232  1
  Co  Co15  1  0.250000  0.045875  0.569232  1
  Co  Co16  1  0.750000  0.546287  0.432182  1
  Co  Co17  1  0.750000  0.953713  0.432182  1
  Co  Co18  1  0.250000  0.872261  0.293878  1
  Co  Co19  1  0.250000  0.627739  0.293878  1
  Co  Co20  1  0.750000  0.127016  0.706879  1
  Co  Co21  1  0.750000  0.372984  0.706879  1
  Mo  Mo22  1  0.250000  0.250000  0.842955  1
  Mo  Mo23  1  0.750000  0.750000  0.156668  1
  P  P24  1  0.250000  0.250000  0.119443  1
  P  P25  1  0.750000  0.750000  0.879067  1
  P  P26  1  0.250000  0.250000  0.649538  1
  P  P27  1  0.750000  0.750000  0.350584  1
  P  P28  1  0.250000  0.438073  0.384197  1
  P  P29  1  0.250000  0.061927  0.384197  1
  P  P30  1  0.750000  0.562466  0.617336  1
  P  P31  1  0.750000  0.937534  0.617336  1
  P  P32  1  0.250000  0.905527  0.107298  1
  P  P33  1  0.250000  0.594473  0.107298  1
  P  P34  1  0.750000  0.093468  0.891740  1
  P  P35  1  0.750000  0.406532  0.891740  1
