# generated using pymatgen
data_LiYMgPt3
_symmetry_space_group_name_H-M   'P 1'
_cell_length_a   5.10138394
_cell_length_b   5.10138253
_cell_length_c   5.10138374
_cell_angle_alpha   64.99057004
_cell_angle_beta   64.99058301
_cell_angle_gamma   64.99057197
_symmetry_Int_Tables_number   1
_chemical_formula_structural   LiYMgPt3
_chemical_formula_sum   'Li1 Y1 Mg1 Pt3'
_cell_volume   104.10603210
_cell_formula_units_Z   1
loop_
 _symmetry_equiv_pos_site_id
 _symmetry_equiv_pos_as_xyz
  1  'x, y, z'
loop_
 _atom_site_type_symbol
 _atom_site_label
 _atom_site_symmetry_multiplicity
 _atom_site_fract_x
 _atom_site_fract_y
 _atom_site_fract_z
 _atom_site_occupancy
  Li  Li0  1  0.623062  0.623062  0.623062  1
  Y  Y1  1  0.002590  0.002590  0.002590  1
  Mg  Mg2  1  0.255556  0.255556  0.255556  1
  Pt  Pt3  1  0.621968  0.621968  0.124857  1
  Pt  Pt4  1  0.621968  0.124857  0.621968  1
  Pt  Pt5  1  0.124857  0.621968  0.621968  1
