# generated using pymatgen
data_CsTbTl(H6Ir)2
_symmetry_space_group_name_H-M   'P 1'
_cell_length_a   5.15220600
_cell_length_b   5.15220699
_cell_length_c   9.49226100
_cell_angle_alpha   90.00000000
_cell_angle_beta   90.00000000
_cell_angle_gamma   119.99998081
_symmetry_Int_Tables_number   1
_chemical_formula_structural   CsTbTl(H6Ir)2
_chemical_formula_sum   'Cs1 Tb1 Tl1 H12 Ir2'
_cell_volume   218.21615951
_cell_formula_units_Z   1
loop_
 _symmetry_equiv_pos_site_id
 _symmetry_equiv_pos_as_xyz
  1  'x, y, z'
loop_
 _atom_site_type_symbol
 _atom_site_label
 _atom_site_symmetry_multiplicity
 _atom_site_fract_x
 _atom_site_fract_y
 _atom_site_fract_z
 _atom_site_occupancy
  Cs  Cs0  1  0.000000  0.000000  0.005809  1
  Tb  Tb1  1  0.333333  0.666667  0.616050  1
  Tl  Tl2  1  0.666667  0.333333  0.363070  1
  H  H3  1  0.172330  0.827670  0.397407  1
  H  H4  1  0.655340  0.827670  0.397407  1
  H  H5  1  0.172330  0.344660  0.397407  1
  H  H6  1  0.832718  0.167282  0.614986  1
  H  H7  1  0.334565  0.167282  0.614986  1
  H  H8  1  0.832718  0.665435  0.614986  1
  H  H9  1  0.516034  0.032067  0.806583  1
  H  H10  1  0.516034  0.483966  0.806583  1
  H  H11  1  0.967933  0.483966  0.806583  1
  H  H12  1  0.468473  0.936945  0.184269  1
  H  H13  1  0.468473  0.531527  0.184269  1
  H  H14  1  0.063055  0.531527  0.184269  1
  Ir  Ir15  1  0.666667  0.333333  0.700295  1
  Ir  Ir16  1  0.333333  0.666667  0.305037  1
