# generated using pymatgen
data_Pm4Ta3(TcO8)3
_symmetry_space_group_name_H-M   'P 1'
_cell_length_a   7.06832455
_cell_length_b   7.21706033
_cell_length_c   11.71679499
_cell_angle_alpha   79.84329827
_cell_angle_beta   79.60049876
_cell_angle_gamma   113.25260870
_symmetry_Int_Tables_number   1
_chemical_formula_structural   Pm4Ta3(TcO8)3
_chemical_formula_sum   'Pm4 Ta3 Tc3 O24'
_cell_volume   519.46258743
_cell_formula_units_Z   1
loop_
 _symmetry_equiv_pos_site_id
 _symmetry_equiv_pos_as_xyz
  1  'x, y, z'
loop_
 _atom_site_type_symbol
 _atom_site_label
 _atom_site_symmetry_multiplicity
 _atom_site_fract_x
 _atom_site_fract_y
 _atom_site_fract_z
 _atom_site_occupancy
  Pm  Pm0  1  0.183610  0.453754  0.600177  1
  Pm  Pm1  1  0.812393  0.567436  0.402536  1
  Pm  Pm2  1  0.556872  0.818784  0.908111  1
  Pm  Pm3  1  0.451883  0.179289  0.083664  1
  Ta  Ta4  1  0.011810  0.302954  0.953393  1
  Ta  Ta5  1  0.988266  0.692787  0.048711  1
  Ta  Ta6  1  0.712804  0.997043  0.546490  1
  Tc  Tc7  1  0.301683  0.003318  0.455931  1
  Tc  Tc8  1  0.600660  0.389649  0.746743  1
  Tc  Tc9  1  0.396099  0.618024  0.251219  1
  O  O10  1  0.542027  0.477920  0.611791  1
  O  O11  1  0.438804  0.512414  0.388075  1
  O  O12  1  0.524138  0.451148  0.880998  1
  O  O13  1  0.468006  0.537582  0.124160  1
  O  O14  1  0.501064  0.121487  0.772383  1
  O  O15  1  0.512045  0.888001  0.223865  1
  O  O16  1  0.877866  0.498687  0.711714  1
  O  O17  1  0.120847  0.524198  0.283471  1
  O  O18  1  0.715462  0.132776  0.952131  1
  O  O19  1  0.284919  0.864759  0.047274  1
  O  O20  1  0.896846  0.290925  0.527100  1
  O  O21  1  0.130869  0.733670  0.463364  1
  O  O22  1  0.398529  0.828970  0.567259  1
  O  O23  1  0.588518  0.175028  0.435028  1
  O  O24  1  0.179457  0.604057  0.925559  1
  O  O25  1  0.820018  0.390180  0.076273  1
  O  O26  1  0.140443  0.313338  0.792701  1
  O  O27  1  0.852122  0.682200  0.207871  1
  O  O28  1  0.690626  0.867606  0.702874  1
  O  O29  1  0.308656  0.117753  0.308610  1
  O  O30  1  0.867193  0.810204  0.950289  1
  O  O31  1  0.133691  0.184335  0.051336  1
  O  O32  1  0.169456  0.093364  0.554762  1
  O  O33  1  0.822319  0.876359  0.444136  1
