# generated using pymatgen
data_Pr4Ga18Ru3Pt2Rh
_symmetry_space_group_name_H-M   'P 1'
_cell_length_a   7.68200774
_cell_length_b   7.68202229
_cell_length_c   9.75111147
_cell_angle_alpha   89.96806337
_cell_angle_beta   89.96803415
_cell_angle_gamma   119.91173867
_symmetry_Int_Tables_number   1
_chemical_formula_structural   Pr4Ga18Ru3Pt2Rh
_chemical_formula_sum   'Pr4 Ga18 Ru3 Pt2 Rh1'
_cell_volume   498.79300314
_cell_formula_units_Z   1
loop_
 _symmetry_equiv_pos_site_id
 _symmetry_equiv_pos_as_xyz
  1  'x, y, z'
loop_
 _atom_site_type_symbol
 _atom_site_label
 _atom_site_symmetry_multiplicity
 _atom_site_fract_x
 _atom_site_fract_y
 _atom_site_fract_z
 _atom_site_occupancy
  Pr  Pr0  1  0.997184  0.668241  0.250276  1
  Pr  Pr1  1  0.003282  0.331353  0.750190  1
  Pr  Pr2  1  0.668647  0.996713  0.249810  1
  Pr  Pr3  1  0.331759  0.002816  0.749724  1
  Ga  Ga4  1  0.132746  0.131387  0.246711  1
  Ga  Ga5  1  0.868615  0.867254  0.753288  1
  Ga  Ga6  1  0.008999  0.335758  0.075159  1
  Ga  Ga7  1  0.001619  0.669731  0.925487  1
  Ga  Ga8  1  0.996223  0.660764  0.574619  1
  Ga  Ga9  1  0.339237  0.003776  0.425380  1
  Ga  Ga10  1  0.004601  0.339104  0.424477  1
  Ga  Ga11  1  0.660895  0.995399  0.575523  1
  Ga  Ga12  1  0.664241  0.991000  0.924841  1
  Ga  Ga13  1  0.330269  0.998382  0.074514  1
  Ga  Ga14  1  0.341948  0.342060  0.557746  1
  Ga  Ga15  1  0.657942  0.658053  0.442254  1
  Ga  Ga16  1  0.661287  0.666695  0.058300  1
  Ga  Ga17  1  0.333306  0.338712  0.941700  1
  Ga  Ga18  1  0.336592  0.546096  0.249811  1
  Ga  Ga19  1  0.663417  0.457361  0.746212  1
  Ga  Ga20  1  0.542641  0.336584  0.253786  1
  Ga  Ga21  1  0.453902  0.663407  0.750190  1
  Ru  Ru22  1  0.328266  0.671735  0.000000  1
  Ru  Ru23  1  0.328006  0.671994  0.500001  1
  Ru  Ru24  1  0.672564  0.327435  0.499999  1
  Pt  Pt25  1  0.672152  0.327848  0.000000  1
  Pt  Pt26  1  0.999658  0.000342  0.500000  1
  Rh  Rh27  1  0.000002  0.999999  0.000000  1
