# generated using pymatgen
data_Na2LiGaSb2
_symmetry_space_group_name_H-M   'P 1'
_cell_length_a   10.00512775
_cell_length_b   10.00512703
_cell_length_c   6.25573000
_cell_angle_alpha   90.00000000
_cell_angle_beta   90.00000000
_cell_angle_gamma   98.16044756
_symmetry_Int_Tables_number   1
_chemical_formula_structural   Na2LiGaSb2
_chemical_formula_sum   'Na8 Li4 Ga4 Sb8'
_cell_volume   619.87391091
_cell_formula_units_Z   4
loop_
 _symmetry_equiv_pos_site_id
 _symmetry_equiv_pos_as_xyz
  1  'x, y, z'
loop_
 _atom_site_type_symbol
 _atom_site_label
 _atom_site_symmetry_multiplicity
 _atom_site_fract_x
 _atom_site_fract_y
 _atom_site_fract_z
 _atom_site_occupancy
  Na  Na0  1  0.426905  0.073095  0.250000  1
  Na  Na1  1  0.073095  0.426905  0.750000  1
  Na  Na2  1  0.573095  0.926905  0.750000  1
  Na  Na3  1  0.324757  0.675243  0.279293  1
  Na  Na4  1  0.824757  0.175243  0.220707  1
  Na  Na5  1  0.675243  0.324757  0.720707  1
  Na  Na6  1  0.175243  0.824757  0.779293  1
  Na  Na7  1  0.926905  0.573095  0.250000  1
  Li  Li8  1  0.381135  0.381135  0.500000  1
  Li  Li9  1  0.118865  0.118865  0.000000  1
  Li  Li10  1  0.618865  0.618865  0.500000  1
  Li  Li11  1  0.881135  0.881135  0.000000  1
  Ga  Ga12  1  0.868111  0.868111  0.500000  1
  Ga  Ga13  1  0.131889  0.131889  0.500000  1
  Ga  Ga14  1  0.631889  0.631889  0.000000  1
  Ga  Ga15  1  0.368111  0.368111  0.000000  1
  Sb  Sb16  1  0.109185  0.890815  0.279878  1
  Sb  Sb17  1  0.609185  0.390815  0.220122  1
  Sb  Sb18  1  0.890815  0.109185  0.720122  1
  Sb  Sb19  1  0.390815  0.609185  0.779878  1
  Sb  Sb20  1  0.139874  0.360126  0.250000  1
  Sb  Sb21  1  0.360126  0.139874  0.750000  1
  Sb  Sb22  1  0.860126  0.639874  0.750000  1
  Sb  Sb23  1  0.639874  0.860126  0.250000  1
