# generated using pymatgen
data_Er10Tm2Mn2In3
_symmetry_space_group_name_H-M   'P 1'
_cell_length_a   8.38144674
_cell_length_b   8.38142369
_cell_length_c   8.38225217
_cell_angle_alpha   110.14418430
_cell_angle_beta   110.14324164
_cell_angle_gamma   108.12943070
_symmetry_Int_Tables_number   1
_chemical_formula_structural   Er10Tm2Mn2In3
_chemical_formula_sum   'Er10 Tm2 Mn2 In3'
_cell_volume   453.13230127
_cell_formula_units_Z   1
loop_
 _symmetry_equiv_pos_site_id
 _symmetry_equiv_pos_as_xyz
  1  'x, y, z'
loop_
 _atom_site_type_symbol
 _atom_site_label
 _atom_site_symmetry_multiplicity
 _atom_site_fract_x
 _atom_site_fract_y
 _atom_site_fract_z
 _atom_site_occupancy
  Er  Er0  1  0.303593  0.696414  0.999997  1
  Er  Er1  1  0.696407  0.303586  0.000003  1
  Er  Er2  1  0.457187  0.210730  0.246865  1
  Er  Er3  1  0.542813  0.789270  0.753135  1
  Er  Er4  1  0.963868  0.210304  0.753127  1
  Er  Er5  1  0.210306  0.963861  0.753134  1
  Er  Er6  1  0.036132  0.789696  0.246873  1
  Er  Er7  1  0.789694  0.036139  0.246866  1
  Er  Er8  1  0.210728  0.457181  0.246878  1
  Er  Er9  1  0.789272  0.542819  0.753122  1
  Tm  Tm10  1  0.303620  0.303622  0.607254  1
  Tm  Tm11  1  0.696380  0.696378  0.392746  1
  Mn  Mn12  1  0.393908  0.393902  0.000007  1
  Mn  Mn13  1  0.606092  0.606098  0.999993  1
  In  In14  1  0.000000  0.000000  0.000000  1
  In  In15  1  0.500000  0.000000  0.500000  1
  In  In16  1  0.000000  0.500000  0.500000  1
