# generated using pymatgen
data_Sr3ScAs3
_symmetry_space_group_name_H-M   'P 1'
_cell_length_a   13.05908800
_cell_length_b   4.52238800
_cell_length_c   14.45691500
_cell_angle_alpha   90.00000000
_cell_angle_beta   90.00000000
_cell_angle_gamma   90.00000000
_symmetry_Int_Tables_number   1
_chemical_formula_structural   Sr3ScAs3
_chemical_formula_sum   'Sr12 Sc4 As12'
_cell_volume   853.80028625
_cell_formula_units_Z   4
loop_
 _symmetry_equiv_pos_site_id
 _symmetry_equiv_pos_as_xyz
  1  'x, y, z'
loop_
 _atom_site_type_symbol
 _atom_site_label
 _atom_site_symmetry_multiplicity
 _atom_site_fract_x
 _atom_site_fract_y
 _atom_site_fract_z
 _atom_site_occupancy
  Sr  Sr0  1  0.354936  0.250001  0.002849  1
  Sr  Sr1  1  0.077936  0.250001  0.100205  1
  Sr  Sr2  1  0.775085  0.250001  0.204739  1
  Sr  Sr3  1  0.275084  0.250001  0.295261  1
  Sr  Sr4  1  0.577937  0.250001  0.399795  1
  Sr  Sr5  1  0.854936  0.250001  0.497151  1
  Sr  Sr6  1  0.145064  0.750001  0.502849  1
  Sr  Sr7  1  0.422063  0.750001  0.600205  1
  Sr  Sr8  1  0.724915  0.750001  0.704739  1
  Sr  Sr9  1  0.224916  0.750001  0.795261  1
  Sr  Sr10  1  0.922063  0.750001  0.899795  1
  Sr  Sr11  1  0.645064  0.750001  0.997151  1
  Sc  Sc12  1  0.454164  0.750001  0.205242  1
  Sc  Sc13  1  0.954164  0.750001  0.294758  1
  Sc  Sc14  1  0.045837  0.250001  0.705242  1
  Sc  Sc15  1  0.545836  0.250001  0.794758  1
  As  As16  1  0.907052  0.750001  0.116052  1
  As  As17  1  0.266125  0.750001  0.132600  1
  As  As18  1  0.544751  0.250001  0.145235  1
  As  As19  1  0.044751  0.250001  0.354765  1
  As  As20  1  0.766125  0.750001  0.367399  1
  As  As21  1  0.407051  0.750001  0.383947  1
  As  As22  1  0.592948  0.250001  0.616052  1
  As  As23  1  0.233875  0.250001  0.632601  1
  As  As24  1  0.955249  0.750001  0.645235  1
  As  As25  1  0.455248  0.750001  0.854765  1
  As  As26  1  0.733875  0.250001  0.867399  1
  As  As27  1  0.092949  0.250001  0.883948  1
