# generated using pymatgen
data_HoTm9Si5Sn
_symmetry_space_group_name_H-M   'P 1'
_cell_length_a   8.42402715
_cell_length_b   8.42402537
_cell_length_c   6.28029400
_cell_angle_alpha   90.00000000
_cell_angle_beta   90.00000000
_cell_angle_gamma   120.20283285
_symmetry_Int_Tables_number   1
_chemical_formula_structural   HoTm9Si5Sn
_chemical_formula_sum   'Ho1 Tm9 Si5 Sn1'
_cell_volume   385.17558569
_cell_formula_units_Z   1
loop_
 _symmetry_equiv_pos_site_id
 _symmetry_equiv_pos_as_xyz
  1  'x, y, z'
loop_
 _atom_site_type_symbol
 _atom_site_label
 _atom_site_symmetry_multiplicity
 _atom_site_fract_x
 _atom_site_fract_y
 _atom_site_fract_z
 _atom_site_occupancy
  Ho  Ho0  1  0.240534  0.240534  0.750000  1
  Tm  Tm1  1  0.673709  0.331628  0.502992  1
  Tm  Tm2  1  0.331628  0.673709  0.502992  1
  Tm  Tm3  1  0.331628  0.673709  0.997008  1
  Tm  Tm4  1  0.673709  0.331628  0.997008  1
  Tm  Tm5  1  0.765707  0.765707  0.250000  1
  Tm  Tm6  1  0.240021  0.989288  0.250000  1
  Tm  Tm7  1  0.989288  0.240021  0.250000  1
  Tm  Tm8  1  0.756564  0.998782  0.750000  1
  Tm  Tm9  1  0.998782  0.756564  0.750000  1
  Si  Si10  1  0.604210  0.998647  0.250000  1
  Si  Si11  1  0.998647  0.604210  0.250000  1
  Si  Si12  1  0.605801  0.605801  0.750000  1
  Si  Si13  1  0.393867  0.001197  0.750000  1
  Si  Si14  1  0.001197  0.393867  0.750000  1
  Sn  Sn15  1  0.394711  0.394711  0.250000  1
