# generated using pymatgen
data_Tb4Nd(CoTe)2
_symmetry_space_group_name_H-M   'P 1'
_cell_length_a   7.85369395
_cell_length_b   7.85369405
_cell_length_c   15.19157761
_cell_angle_alpha   89.99475802
_cell_angle_beta   90.00524170
_cell_angle_gamma   150.23581415
_symmetry_Int_Tables_number   1
_chemical_formula_structural   Tb4Nd(CoTe)2
_chemical_formula_sum   'Tb8 Nd2 Co4 Te4'
_cell_volume   465.16829918
_cell_formula_units_Z   2
loop_
 _symmetry_equiv_pos_site_id
 _symmetry_equiv_pos_as_xyz
  1  'x, y, z'
loop_
 _atom_site_type_symbol
 _atom_site_label
 _atom_site_symmetry_multiplicity
 _atom_site_fract_x
 _atom_site_fract_y
 _atom_site_fract_z
 _atom_site_occupancy
  Tb  Tb0  1  0.039511  0.960489  0.625647  1
  Tb  Tb1  1  0.960489  0.039511  0.374353  1
  Tb  Tb2  1  0.741374  0.258626  0.629842  1
  Tb  Tb3  1  0.258626  0.741374  0.370158  1
  Tb  Tb4  1  0.257138  0.742862  0.132637  1
  Tb  Tb5  1  0.742862  0.257138  0.867363  1
  Tb  Tb6  1  0.607554  0.392446  0.251872  1
  Tb  Tb7  1  0.392446  0.607554  0.748128  1
  Nd  Nd8  1  0.962225  0.037775  0.125018  1
  Nd  Nd9  1  0.037775  0.962225  0.874982  1
  Co  Co10  1  0.409330  0.590670  0.252855  1
  Co  Co11  1  0.590670  0.409330  0.747145  1
  Co  Co12  1  0.817592  0.182408  0.252228  1
  Co  Co13  1  0.182408  0.817592  0.747772  1
  Te  Te14  1  0.621390  0.378610  0.038797  1
  Te  Te15  1  0.378610  0.621390  0.961203  1
  Te  Te16  1  0.382353  0.617647  0.538213  1
  Te  Te17  1  0.617647  0.382353  0.461787  1
