# generated using pymatgen
data_Er6Cd(P3Rh5)4
_symmetry_space_group_name_H-M   'P 1'
_cell_length_a   13.45470900
_cell_length_b   13.45470806
_cell_length_c   3.91763700
_cell_angle_alpha   90.00000000
_cell_angle_beta   90.00000000
_cell_angle_gamma   119.99999985
_symmetry_Int_Tables_number   1
_chemical_formula_structural   Er6Cd(P3Rh5)4
_chemical_formula_sum   'Er6 Cd1 P12 Rh20'
_cell_volume   614.19095050
_cell_formula_units_Z   1
loop_
 _symmetry_equiv_pos_site_id
 _symmetry_equiv_pos_as_xyz
  1  'x, y, z'
loop_
 _atom_site_type_symbol
 _atom_site_label
 _atom_site_symmetry_multiplicity
 _atom_site_fract_x
 _atom_site_fract_y
 _atom_site_fract_z
 _atom_site_occupancy
  Er  Er0  1  0.529549  0.716589  0.255109  1
  Er  Er1  1  0.283411  0.812960  0.255109  1
  Er  Er2  1  0.187040  0.470451  0.255109  1
  Er  Er3  1  0.470451  0.283411  0.744891  1
  Er  Er4  1  0.716589  0.187040  0.744891  1
  Er  Er5  1  0.812960  0.529549  0.744891  1
  Cd  Cd6  1  0.000000  0.000000  0.000000  1
  P  P7  1  0.529315  0.139167  0.248447  1
  P  P8  1  0.860833  0.390149  0.248447  1
  P  P9  1  0.609851  0.470685  0.248447  1
  P  P10  1  0.950142  0.718170  0.238406  1
  P  P11  1  0.281830  0.231970  0.238406  1
  P  P12  1  0.768030  0.049858  0.238406  1
  P  P13  1  0.390149  0.529315  0.751553  1
  P  P14  1  0.470685  0.860833  0.751553  1
  P  P15  1  0.139167  0.609851  0.751553  1
  P  P16  1  0.718170  0.768030  0.761594  1
  P  P17  1  0.231970  0.950142  0.761594  1
  P  P18  1  0.049858  0.281830  0.761594  1
  Rh  Rh19  1  0.333333  0.666667  0.752136  1
  Rh  Rh20  1  0.915820  0.253383  0.238070  1
  Rh  Rh21  1  0.746617  0.662437  0.238070  1
  Rh  Rh22  1  0.337563  0.084180  0.238070  1
  Rh  Rh23  1  0.442603  0.025910  0.746562  1
  Rh  Rh24  1  0.974090  0.416693  0.746562  1
  Rh  Rh25  1  0.583307  0.557397  0.746562  1
  Rh  Rh26  1  0.666667  0.333333  0.247864  1
  Rh  Rh27  1  0.098749  0.212899  0.271557  1
  Rh  Rh28  1  0.787101  0.885850  0.271557  1
  Rh  Rh29  1  0.114150  0.901251  0.271557  1
  Rh  Rh30  1  0.025910  0.583307  0.253438  1
  Rh  Rh31  1  0.416693  0.442603  0.253438  1
  Rh  Rh32  1  0.557397  0.974090  0.253438  1
  Rh  Rh33  1  0.662437  0.915820  0.761930  1
  Rh  Rh34  1  0.084180  0.746617  0.761930  1
  Rh  Rh35  1  0.253383  0.337563  0.761930  1
  Rh  Rh36  1  0.901251  0.787101  0.728443  1
  Rh  Rh37  1  0.212899  0.114150  0.728443  1
  Rh  Rh38  1  0.885850  0.098749  0.728443  1
