# generated using pymatgen
data_Cu(RuO3)2
_symmetry_space_group_name_H-M   'P 1'
_cell_length_a   4.54612800
_cell_length_b   4.54612800
_cell_length_c   9.25178300
_cell_angle_alpha   90.00000000
_cell_angle_beta   90.00000000
_cell_angle_gamma   90.00000000
_symmetry_Int_Tables_number   1
_chemical_formula_structural   Cu(RuO3)2
_chemical_formula_sum   'Cu2 Ru4 O12'
_cell_volume   191.20918784
_cell_formula_units_Z   2
loop_
 _symmetry_equiv_pos_site_id
 _symmetry_equiv_pos_as_xyz
  1  'x, y, z'
loop_
 _atom_site_type_symbol
 _atom_site_label
 _atom_site_symmetry_multiplicity
 _atom_site_fract_x
 _atom_site_fract_y
 _atom_site_fract_z
 _atom_site_occupancy
  Cu  Cu0  1  0.000000  0.000000  0.000000  1
  Cu  Cu1  1  0.500000  0.500000  0.500000  1
  Ru  Ru2  1  0.500000  0.500000  0.832347  1
  Ru  Ru3  1  0.000000  0.000000  0.332347  1
  Ru  Ru4  1  0.500000  0.500000  0.167653  1
  Ru  Ru5  1  0.000000  0.000000  0.667653  1
  O  O6  1  0.704016  0.704016  0.674470  1
  O  O7  1  0.295984  0.295984  0.674470  1
  O  O8  1  0.704016  0.704016  0.325530  1
  O  O9  1  0.204016  0.795984  0.174470  1
  O  O10  1  0.795984  0.204016  0.174470  1
  O  O11  1  0.795984  0.204016  0.825530  1
  O  O12  1  0.308264  0.308264  0.000000  1
  O  O13  1  0.191736  0.808264  0.500000  1
  O  O14  1  0.808264  0.191736  0.500000  1
  O  O15  1  0.691736  0.691736  0.000000  1
  O  O16  1  0.295984  0.295984  0.325530  1
  O  O17  1  0.204016  0.795984  0.825530  1
