# generated using pymatgen
data_Al2Ni9Sb
_symmetry_space_group_name_H-M   'P 1'
_cell_length_a   3.62337900
_cell_length_b   3.62337900
_cell_length_c   10.78992900
_cell_angle_alpha   90.00000000
_cell_angle_beta   90.00000000
_cell_angle_gamma   90.00000000
_symmetry_Int_Tables_number   1
_chemical_formula_structural   Al2Ni9Sb
_chemical_formula_sum   'Al2 Ni9 Sb1'
_cell_volume   141.65963317
_cell_formula_units_Z   1
loop_
 _symmetry_equiv_pos_site_id
 _symmetry_equiv_pos_as_xyz
  1  'x, y, z'
loop_
 _atom_site_type_symbol
 _atom_site_label
 _atom_site_symmetry_multiplicity
 _atom_site_fract_x
 _atom_site_fract_y
 _atom_site_fract_z
 _atom_site_occupancy
  Al  Al0  1  0.000000  0.000000  0.340385  1
  Al  Al1  1  0.000000  0.000000  0.659615  1
  Ni  Ni2  1  0.500000  0.500000  0.000000  1
  Ni  Ni3  1  0.500000  0.500000  0.337431  1
  Ni  Ni4  1  0.500000  0.500000  0.662569  1
  Ni  Ni5  1  0.500000  0.000000  0.176753  1
  Ni  Ni6  1  0.500000  0.000000  0.500000  1
  Ni  Ni7  1  0.500000  0.000000  0.823247  1
  Ni  Ni8  1  0.000000  0.500000  0.176753  1
  Ni  Ni9  1  0.000000  0.500000  0.500000  1
  Ni  Ni10  1  0.000000  0.500000  0.823247  1
  Sb  Sb11  1  0.000000  0.000000  0.000000  1
