# generated using pymatgen
data_Ho2In(GaPt)3
_symmetry_space_group_name_H-M   'P 1'
_cell_length_a   6.79857922
_cell_length_b   6.79857961
_cell_length_c   4.17210400
_cell_angle_alpha   90.00000000
_cell_angle_beta   90.00000000
_cell_angle_gamma   116.39433820
_symmetry_Int_Tables_number   1
_chemical_formula_structural   Ho2In(GaPt)3
_chemical_formula_sum   'Ho2 In1 Ga3 Pt3'
_cell_volume   172.73528170
_cell_formula_units_Z   1
loop_
 _symmetry_equiv_pos_site_id
 _symmetry_equiv_pos_as_xyz
  1  'x, y, z'
loop_
 _atom_site_type_symbol
 _atom_site_label
 _atom_site_symmetry_multiplicity
 _atom_site_fract_x
 _atom_site_fract_y
 _atom_site_fract_z
 _atom_site_occupancy
  Ho  Ho0  1  0.580340  0.995786  0.500000  1
  Ho  Ho1  1  0.995786  0.580340  0.500000  1
  In  In2  1  0.406375  0.406375  0.500000  1
  Ga  Ga3  1  0.767226  0.767226  0.000000  1
  Ga  Ga4  1  0.248418  0.991212  0.000000  1
  Ga  Ga5  1  0.991212  0.248418  0.000000  1
  Pt  Pt6  1  0.653813  0.343035  0.000000  1
  Pt  Pt7  1  0.343035  0.653813  0.000000  1
  Pt  Pt8  1  0.013797  0.013797  0.500000  1
