# generated using pymatgen
data_Np4Fe3Si2Ni3
_symmetry_space_group_name_H-M   'P 1'
_cell_length_a   5.20134722
_cell_length_b   5.19965763
_cell_length_c   7.50486500
_cell_angle_alpha   90.00000000
_cell_angle_beta   90.00000000
_cell_angle_gamma   60.01074716
_symmetry_Int_Tables_number   1
_chemical_formula_structural   Np4Fe3Si2Ni3
_chemical_formula_sum   'Np4 Fe3 Si2 Ni3'
_cell_volume   175.79686802
_cell_formula_units_Z   1
loop_
 _symmetry_equiv_pos_site_id
 _symmetry_equiv_pos_as_xyz
  1  'x, y, z'
loop_
 _atom_site_type_symbol
 _atom_site_label
 _atom_site_symmetry_multiplicity
 _atom_site_fract_x
 _atom_site_fract_y
 _atom_site_fract_z
 _atom_site_occupancy
  Np  Np0  1  0.333611  0.333195  0.557214  1
  Np  Np1  1  0.666340  0.666830  0.421695  1
  Np  Np2  1  0.666340  0.666830  0.078305  1
  Np  Np3  1  0.333611  0.333195  0.942786  1
  Fe  Fe4  1  0.167287  0.665000  0.250000  1
  Fe  Fe5  1  0.664808  0.167596  0.250000  1
  Fe  Fe6  1  0.167287  0.167715  0.250000  1
  Si  Si7  1  0.000000  0.000000  0.500388  1
  Si  Si8  1  0.000000  0.000000  0.999612  1
  Ni  Ni9  1  0.832492  0.335556  0.750000  1
  Ni  Ni10  1  0.335734  0.832133  0.750000  1
  Ni  Ni11  1  0.832492  0.831952  0.750000  1
