# generated using pymatgen
data_Tm2Co5P6Rh5
_symmetry_space_group_name_H-M   'P 1'
_cell_length_a   3.74877000
_cell_length_b   10.54693200
_cell_length_c   12.12850800
_cell_angle_alpha   90.00000000
_cell_angle_beta   90.00000000
_cell_angle_gamma   90.00000000
_symmetry_Int_Tables_number   1
_chemical_formula_structural   Tm2Co5P6Rh5
_chemical_formula_sum   'Tm4 Co10 P12 Rh10'
_cell_volume   479.53721945
_cell_formula_units_Z   2
loop_
 _symmetry_equiv_pos_site_id
 _symmetry_equiv_pos_as_xyz
  1  'x, y, z'
loop_
 _atom_site_type_symbol
 _atom_site_label
 _atom_site_symmetry_multiplicity
 _atom_site_fract_x
 _atom_site_fract_y
 _atom_site_fract_z
 _atom_site_occupancy
  Tm  Tm0  1  0.250000  0.586892  0.711266  1
  Tm  Tm1  1  0.250000  0.913108  0.211266  1
  Tm  Tm2  1  0.750000  0.420269  0.291197  1
  Tm  Tm3  1  0.750000  0.079731  0.791197  1
  Co  Co4  1  0.750000  0.777358  0.821370  1
  Co  Co5  1  0.750000  0.722642  0.321370  1
  Co  Co6  1  0.250000  0.879258  0.696966  1
  Co  Co7  1  0.250000  0.620742  0.196966  1
  Co  Co8  1  0.750000  0.111451  0.302644  1
  Co  Co9  1  0.750000  0.388549  0.802644  1
  Co  Co10  1  0.250000  0.464874  0.931068  1
  Co  Co11  1  0.250000  0.035126  0.431068  1
  Co  Co12  1  0.750000  0.538277  0.067446  1
  Co  Co13  1  0.750000  0.961723  0.567446  1
  P  P14  1  0.250000  0.431661  0.110812  1
  P  P15  1  0.250000  0.068339  0.610812  1
  P  P16  1  0.750000  0.579012  0.888109  1
  P  P17  1  0.750000  0.920988  0.388109  1
  P  P18  1  0.250000  0.273286  0.871031  1
  P  P19  1  0.250000  0.226714  0.371031  1
  P  P20  1  0.750000  0.726316  0.138298  1
  P  P21  1  0.750000  0.773684  0.638298  1
  P  P22  1  0.250000  0.606135  0.377957  1
  P  P23  1  0.250000  0.893865  0.877957  1
  P  P24  1  0.750000  0.403725  0.618434  1
  P  P25  1  0.750000  0.096275  0.118434  1
  Rh  Rh26  1  0.250000  0.711847  0.985743  1
  Rh  Rh27  1  0.250000  0.788153  0.485743  1
  Rh  Rh28  1  0.750000  0.283441  0.008087  1
  Rh  Rh29  1  0.750000  0.216559  0.508087  1
  Rh  Rh30  1  0.250000  0.412262  0.477781  1
  Rh  Rh31  1  0.250000  0.087738  0.977781  1
  Rh  Rh32  1  0.750000  0.596738  0.521409  1
  Rh  Rh33  1  0.750000  0.903262  0.021409  1
  Rh  Rh34  1  0.250000  0.225604  0.180383  1
  Rh  Rh35  1  0.250000  0.274396  0.680383  1
