# generated using pymatgen
data_Nd5Er11Cd4TcPt3
_symmetry_space_group_name_H-M   'P 1'
_cell_length_a   9.73952527
_cell_length_b   9.73283240
_cell_length_c   9.73283197
_cell_angle_alpha   59.56681816
_cell_angle_beta   59.55258232
_cell_angle_gamma   59.55258415
_symmetry_Int_Tables_number   1
_chemical_formula_structural   Nd5Er11Cd4TcPt3
_chemical_formula_sum   'Nd5 Er11 Cd4 Tc1 Pt3'
_cell_volume   645.81532356
_cell_formula_units_Z   1
loop_
 _symmetry_equiv_pos_site_id
 _symmetry_equiv_pos_as_xyz
  1  'x, y, z'
loop_
 _atom_site_type_symbol
 _atom_site_label
 _atom_site_symmetry_multiplicity
 _atom_site_fract_x
 _atom_site_fract_y
 _atom_site_fract_z
 _atom_site_occupancy
  Nd  Nd0  1  0.552754  0.941628  0.941628  1
  Nd  Nd1  1  0.564977  0.935180  0.562630  1
  Nd  Nd2  1  0.940565  0.554874  0.937272  1
  Nd  Nd3  1  0.564977  0.562630  0.935180  1
  Nd  Nd4  1  0.940565  0.937272  0.554874  1
  Er  Er5  1  0.350849  0.351098  0.351098  1
  Er  Er6  1  0.348429  0.350980  0.953926  1
  Er  Er7  1  0.348429  0.953926  0.350980  1
  Er  Er8  1  0.951164  0.350290  0.350290  1
  Er  Er9  1  0.817683  0.185275  0.185275  1
  Er  Er10  1  0.185213  0.811929  0.811929  1
  Er  Er11  1  0.184658  0.816101  0.187830  1
  Er  Er12  1  0.811950  0.186250  0.810900  1
  Er  Er13  1  0.184658  0.187830  0.816101  1
  Er  Er14  1  0.811950  0.810900  0.186250  1
  Er  Er15  1  0.940513  0.558608  0.558608  1
  Cd  Cd16  1  0.581585  0.578560  0.578560  1
  Cd  Cd17  1  0.578767  0.579477  0.259807  1
  Cd  Cd18  1  0.578767  0.259807  0.579477  1
  Cd  Cd19  1  0.258108  0.578558  0.578558  1
  Tc  Tc20  1  0.144034  0.143488  0.143488  1
  Pt  Pt21  1  0.142449  0.146771  0.574551  1
  Pt  Pt22  1  0.142449  0.574551  0.146771  1
  Pt  Pt23  1  0.574508  0.144019  0.144019  1
