# generated using pymatgen
data_Ce5GePb3
_symmetry_space_group_name_H-M   'P 1'
_cell_length_a   6.52374200
_cell_length_b   9.66413016
_cell_length_c   9.66413126
_cell_angle_alpha   119.98185270
_cell_angle_beta   90.00000000
_cell_angle_gamma   90.00000000
_symmetry_Int_Tables_number   1
_chemical_formula_structural   Ce5GePb3
_chemical_formula_sum   'Ce10 Ge2 Pb6'
_cell_volume   527.75503769
_cell_formula_units_Z   2
loop_
 _symmetry_equiv_pos_site_id
 _symmetry_equiv_pos_as_xyz
  1  'x, y, z'
loop_
 _atom_site_type_symbol
 _atom_site_label
 _atom_site_symmetry_multiplicity
 _atom_site_fract_x
 _atom_site_fract_y
 _atom_site_fract_z
 _atom_site_occupancy
  Ce  Ce0  1  0.750000  0.742703  0.742703  1
  Ce  Ce1  1  0.750000  0.257385  0.999933  1
  Ce  Ce2  1  0.750000  0.999933  0.257385  1
  Ce  Ce3  1  0.250000  0.257297  0.257297  1
  Ce  Ce4  1  0.250000  0.742615  0.000067  1
  Ce  Ce5  1  0.250000  0.000067  0.742615  1
  Ce  Ce6  1  0.000000  0.666701  0.333299  1
  Ce  Ce7  1  0.000000  0.333299  0.666701  1
  Ce  Ce8  1  0.500000  0.333299  0.666701  1
  Ce  Ce9  1  0.500000  0.666701  0.333299  1
  Ge  Ge10  1  0.000000  0.000000  0.000000  1
  Ge  Ge11  1  0.500000  0.000000  0.000000  1
  Pb  Pb12  1  0.750000  0.383923  0.383923  1
  Pb  Pb13  1  0.750000  0.616046  0.000062  1
  Pb  Pb14  1  0.750000  0.000062  0.616046  1
  Pb  Pb15  1  0.250000  0.616077  0.616077  1
  Pb  Pb16  1  0.250000  0.383954  0.999938  1
  Pb  Pb17  1  0.250000  0.999938  0.383954  1
