# generated using pymatgen
data_La3Mo4PbO14
_symmetry_space_group_name_H-M   'P 1'
_cell_length_a   7.61587731
_cell_length_b   7.53483928
_cell_length_c   7.55780500
_cell_angle_alpha   119.34565639
_cell_angle_beta   120.43931929
_cell_angle_gamma   90.04958067
_symmetry_Int_Tables_number   1
_chemical_formula_structural   La3Mo4PbO14
_chemical_formula_sum   'La3 Mo4 Pb1 O14'
_cell_volume   307.50671961
_cell_formula_units_Z   1
loop_
 _symmetry_equiv_pos_site_id
 _symmetry_equiv_pos_as_xyz
  1  'x, y, z'
loop_
 _atom_site_type_symbol
 _atom_site_label
 _atom_site_symmetry_multiplicity
 _atom_site_fract_x
 _atom_site_fract_y
 _atom_site_fract_z
 _atom_site_occupancy
  La  La0  1  0.375000  0.625000  0.250000  1
  La  La1  1  0.875000  0.625000  0.250000  1
  La  La2  1  0.375000  0.125000  0.750000  1
  Mo  Mo3  1  0.875000  0.625000  0.750000  1
  Mo  Mo4  1  0.375000  0.125000  0.250000  1
  Mo  Mo5  1  0.875000  0.125000  0.250000  1
  Mo  Mo6  1  0.875000  0.125000  0.750000  1
  Pb  Pb7  1  0.375000  0.625000  0.750000  1
  O  O8  1  0.789453  0.198656  0.998657  1
  O  O9  1  0.553940  0.458303  0.502956  1
  O  O10  1  0.204082  0.203273  0.999352  1
  O  O11  1  0.941814  0.436678  0.485945  1
  O  O12  1  0.805304  0.799000  0.590950  1
  O  O13  1  0.554826  0.053148  0.107605  1
  O  O14  1  0.244004  0.756135  0.487093  1
  O  O15  1  0.944696  0.451000  0.909050  1
  O  O16  1  0.960547  0.051344  0.501343  1
  O  O17  1  0.545918  0.046727  0.500648  1
  O  O18  1  0.195174  0.196852  0.392395  1
  O  O19  1  0.505996  0.493865  0.012907  1
  O  O20  1  0.808186  0.813322  0.014055  1
  O  O21  1  0.196060  0.791697  0.997044  1
