# generated using pymatgen
data_Ho3Er5Tc2(B12Rh)2
_symmetry_space_group_name_H-M   'P 1'
_cell_length_a   3.65987100
_cell_length_b   9.10875164
_cell_length_c   11.49802601
_cell_angle_alpha   90.36202409
_cell_angle_beta   90.00000000
_cell_angle_gamma   90.00000000
_symmetry_Int_Tables_number   1
_chemical_formula_structural   Ho3Er5Tc2(B12Rh)2
_chemical_formula_sum   'Ho3 Er5 Tc2 B24 Rh2'
_cell_volume   383.30038572
_cell_formula_units_Z   1
loop_
 _symmetry_equiv_pos_site_id
 _symmetry_equiv_pos_as_xyz
  1  'x, y, z'
loop_
 _atom_site_type_symbol
 _atom_site_label
 _atom_site_symmetry_multiplicity
 _atom_site_fract_x
 _atom_site_fract_y
 _atom_site_fract_z
 _atom_site_occupancy
  Ho  Ho0  1  0.500000  0.318650  0.411047  1
  Ho  Ho1  1  0.500000  0.681335  0.588919  1
  Ho  Ho2  1  0.500000  0.173559  0.917082  1
  Er  Er3  1  0.500000  0.826521  0.082791  1
  Er  Er4  1  0.500000  0.441838  0.126717  1
  Er  Er5  1  0.500000  0.558294  0.873399  1
  Er  Er6  1  0.500000  0.053940  0.628520  1
  Er  Er7  1  0.500000  0.945968  0.371445  1
  Tc  Tc8  1  0.500000  0.138911  0.179887  1
  Tc  Tc9  1  0.500000  0.860867  0.820169  1
  B  B10  1  0.000000  0.107218  0.471139  1
  B  B11  1  0.000000  0.892731  0.528820  1
  B  B12  1  0.000000  0.393928  0.970499  1
  B  B13  1  0.000000  0.606436  0.029620  1
  B  B14  1  0.000000  0.132134  0.314964  1
  B  B15  1  0.000000  0.867758  0.685017  1
  B  B16  1  0.000000  0.367655  0.816701  1
  B  B17  1  0.000000  0.632616  0.183184  1
  B  B18  1  0.000000  0.052929  0.067341  1
  B  B19  1  0.000000  0.946754  0.932821  1
  B  B20  1  0.000000  0.445542  0.565940  1
  B  B21  1  0.000000  0.554505  0.434017  1
  B  B22  1  0.000000  0.483420  0.287527  1
  B  B23  1  0.000000  0.516692  0.712471  1
  B  B24  1  0.000000  0.016736  0.786988  1
  B  B25  1  0.000000  0.982954  0.212959  1
  B  B26  1  0.000000  0.248391  0.081110  1
  B  B27  1  0.000000  0.751594  0.919159  1
  B  B28  1  0.000000  0.250525  0.578804  1
  B  B29  1  0.000000  0.749447  0.421131  1
  B  B30  1  0.000000  0.292981  0.234750  1
  B  B31  1  0.000000  0.706990  0.765320  1
  B  B32  1  0.000000  0.208207  0.734909  1
  B  B33  1  0.000000  0.791902  0.264897  1
  Rh  Rh34  1  0.500000  0.361841  0.678960  1
  Rh  Rh35  1  0.500000  0.638229  0.320974  1
