# generated using pymatgen
data_Zr4SiGe2MoN
_symmetry_space_group_name_H-M   'P 1'
_cell_length_a   7.88276129
_cell_length_b   7.88276170
_cell_length_c   5.53920381
_cell_angle_alpha   89.93295787
_cell_angle_beta   89.93296295
_cell_angle_gamma   120.15209842
_symmetry_Int_Tables_number   1
_chemical_formula_structural   Zr4SiGe2MoN
_chemical_formula_sum   'Zr8 Si2 Ge4 Mo2 N2'
_cell_volume   297.62259143
_cell_formula_units_Z   2
loop_
 _symmetry_equiv_pos_site_id
 _symmetry_equiv_pos_as_xyz
  1  'x, y, z'
loop_
 _atom_site_type_symbol
 _atom_site_label
 _atom_site_symmetry_multiplicity
 _atom_site_fract_x
 _atom_site_fract_y
 _atom_site_fract_z
 _atom_site_occupancy
  Zr  Zr0  1  0.234585  0.003048  0.747719  1
  Zr  Zr1  1  0.765415  0.996952  0.252281  1
  Zr  Zr2  1  0.003048  0.234585  0.747719  1
  Zr  Zr3  1  0.996952  0.765415  0.252281  1
  Zr  Zr4  1  0.764817  0.764817  0.748449  1
  Zr  Zr5  1  0.235183  0.235183  0.251551  1
  Zr  Zr6  1  0.663278  0.336722  0.000000  1
  Zr  Zr7  1  0.336722  0.663278  0.000000  1
  Si  Si8  1  0.410634  0.410634  0.718648  1
  Si  Si9  1  0.589366  0.589366  0.281352  1
  Ge  Ge10  1  0.592131  0.001429  0.731121  1
  Ge  Ge11  1  0.407869  0.998571  0.268879  1
  Ge  Ge12  1  0.001429  0.592131  0.731121  1
  Ge  Ge13  1  0.998571  0.407869  0.268879  1
  Mo  Mo14  1  0.336657  0.663343  0.500000  1
  Mo  Mo15  1  0.663343  0.336657  0.500000  1
  N  N16  1  0.000000  0.000000  0.500000  1
  N  N17  1  0.000000  0.000000  0.000000  1
