# generated using pymatgen
data_Nd2Th(SnRu)3
_symmetry_space_group_name_H-M   'P 1'
_cell_length_a   7.71570500
_cell_length_b   7.25182621
_cell_length_c   4.29013900
_cell_angle_alpha   90.00000000
_cell_angle_beta   90.00000000
_cell_angle_gamma   122.13957119
_symmetry_Int_Tables_number   1
_chemical_formula_structural   Nd2Th(SnRu)3
_chemical_formula_sum   'Nd2 Th1 Sn3 Ru3'
_cell_volume   203.26003072
_cell_formula_units_Z   1
loop_
 _symmetry_equiv_pos_site_id
 _symmetry_equiv_pos_as_xyz
  1  'x, y, z'
loop_
 _atom_site_type_symbol
 _atom_site_label
 _atom_site_symmetry_multiplicity
 _atom_site_fract_x
 _atom_site_fract_y
 _atom_site_fract_z
 _atom_site_occupancy
  Nd  Nd0  1  0.002307  0.592256  0.000000  1
  Nd  Nd1  1  0.410051  0.407744  0.000000  1
  Th  Th2  1  0.596356  0.000000  0.000000  1
  Sn  Sn3  1  0.223925  0.000000  0.500000  1
  Sn  Sn4  1  0.022130  0.276321  0.500000  1
  Sn  Sn5  1  0.745809  0.723679  0.500000  1
  Ru  Ru6  1  0.375434  0.732861  0.500000  1
  Ru  Ru7  1  0.642574  0.267139  0.500000  1
  Ru  Ru8  1  0.981415  0.000000  0.000000  1
