# generated using pymatgen
data_Lu2Sc3(In2Rh)2
_symmetry_space_group_name_H-M   'P 1'
_cell_length_a   3.46668200
_cell_length_b   7.75883800
_cell_length_c   17.76260100
_cell_angle_alpha   90.00000000
_cell_angle_beta   90.00000000
_cell_angle_gamma   90.00000000
_symmetry_Int_Tables_number   1
_chemical_formula_structural   Lu2Sc3(In2Rh)2
_chemical_formula_sum   'Lu4 Sc6 In8 Rh4'
_cell_volume   477.76821107
_cell_formula_units_Z   2
loop_
 _symmetry_equiv_pos_site_id
 _symmetry_equiv_pos_as_xyz
  1  'x, y, z'
loop_
 _atom_site_type_symbol
 _atom_site_label
 _atom_site_symmetry_multiplicity
 _atom_site_fract_x
 _atom_site_fract_y
 _atom_site_fract_z
 _atom_site_occupancy
  Lu  Lu0  1  0.000000  0.746428  0.779488  1
  Lu  Lu1  1  0.000000  0.253572  0.220512  1
  Lu  Lu2  1  0.000000  0.246428  0.720512  1
  Lu  Lu3  1  0.000000  0.753572  0.279488  1
  Sc  Sc4  1  0.000000  0.000000  0.000000  1
  Sc  Sc5  1  0.000000  0.500000  0.500000  1
  Sc  Sc6  1  0.000000  0.877339  0.585906  1
  Sc  Sc7  1  0.000000  0.122661  0.414094  1
  Sc  Sc8  1  0.000000  0.377339  0.914094  1
  Sc  Sc9  1  0.000000  0.622661  0.085906  1
  In  In10  1  0.500000  0.797957  0.436477  1
  In  In11  1  0.500000  0.202043  0.563523  1
  In  In12  1  0.500000  0.297957  0.063523  1
  In  In13  1  0.500000  0.702043  0.936477  1
  In  In14  1  0.500000  0.929796  0.146569  1
  In  In15  1  0.500000  0.070204  0.853431  1
  In  In16  1  0.500000  0.429796  0.353431  1
  In  In17  1  0.500000  0.570204  0.646569  1
  Rh  Rh18  1  0.500000  0.961822  0.692290  1
  Rh  Rh19  1  0.500000  0.038178  0.307710  1
  Rh  Rh20  1  0.500000  0.461822  0.807710  1
  Rh  Rh21  1  0.500000  0.538178  0.192290  1
