# generated using pymatgen
data_SrYb(SbO2)4
_symmetry_space_group_name_H-M   'P 1'
_cell_length_a   10.24613157
_cell_length_b   10.24613125
_cell_length_c   6.36983700
_cell_angle_alpha   80.77493591
_cell_angle_beta   80.77493753
_cell_angle_gamma   23.42545568
_symmetry_Int_Tables_number   1
_chemical_formula_structural   SrYb(SbO2)4
_chemical_formula_sum   'Sr1 Yb1 Sb4 O8'
_cell_volume   262.26841329
_cell_formula_units_Z   1
loop_
 _symmetry_equiv_pos_site_id
 _symmetry_equiv_pos_as_xyz
  1  'x, y, z'
loop_
 _atom_site_type_symbol
 _atom_site_label
 _atom_site_symmetry_multiplicity
 _atom_site_fract_x
 _atom_site_fract_y
 _atom_site_fract_z
 _atom_site_occupancy
  Sr  Sr0  1  0.755734  0.755734  0.252452  1
  Yb  Yb1  1  0.244963  0.244963  0.749129  1
  Sb  Sb2  1  0.405088  0.405088  0.282741  1
  Sb  Sb3  1  0.596429  0.596429  0.717480  1
  Sb  Sb4  1  0.098954  0.098954  0.140773  1
  Sb  Sb5  1  0.900816  0.900816  0.852995  1
  O  O6  1  0.108091  0.108091  0.812818  1
  O  O7  1  0.893266  0.893266  0.183377  1
  O  O8  1  0.196769  0.196769  0.120730  1
  O  O9  1  0.804140  0.804140  0.851857  1
  O  O10  1  0.309664  0.309664  0.408906  1
  O  O11  1  0.693589  0.693589  0.623612  1
  O  O12  1  0.592111  0.592111  0.041760  1
  O  O13  1  0.400385  0.400385  0.961369  1
