# generated using pymatgen
data_LiEuCr4O14
_symmetry_space_group_name_H-M   'P 1'
_cell_length_a   7.37760506
_cell_length_b   7.37760592
_cell_length_c   7.37760610
_cell_angle_alpha   109.42439890
_cell_angle_beta   109.42437727
_cell_angle_gamma   109.56493232
_symmetry_Int_Tables_number   1
_chemical_formula_structural   LiEuCr4O14
_chemical_formula_sum   'Li1 Eu1 Cr4 O14'
_cell_volume   309.11745275
_cell_formula_units_Z   1
loop_
 _symmetry_equiv_pos_site_id
 _symmetry_equiv_pos_as_xyz
  1  'x, y, z'
loop_
 _atom_site_type_symbol
 _atom_site_label
 _atom_site_symmetry_multiplicity
 _atom_site_fract_x
 _atom_site_fract_y
 _atom_site_fract_z
 _atom_site_occupancy
  Li  Li0  1  0.494951  0.494951  0.000000  1
  Eu  Eu1  1  0.010848  0.010848  0.000000  1
  Cr  Cr2  1  0.820304  0.374026  0.786072  1
  Cr  Cr3  1  0.034232  0.820304  0.446278  1
  Cr  Cr4  1  0.374026  0.587954  0.553722  1
  Cr  Cr5  1  0.587954  0.034232  0.213928  1
  O  O6  1  0.222623  0.722623  0.500000  1
  O  O7  1  0.722623  0.222623  0.500000  1
  O  O8  1  0.961564  0.641366  0.874777  1
  O  O9  1  0.086786  0.961564  0.320198  1
  O  O10  1  0.641366  0.766588  0.679802  1
  O  O11  1  0.766588  0.086786  0.125223  1
  O  O12  1  0.491578  0.780987  0.167600  1
  O  O13  1  0.323978  0.491578  0.710591  1
  O  O14  1  0.780987  0.613386  0.289409  1
  O  O15  1  0.613386  0.323978  0.832400  1
  O  O16  1  0.382713  0.067069  0.085329  1
  O  O17  1  0.297385  0.382713  0.315647  1
  O  O18  1  0.067069  0.981739  0.684353  1
  O  O19  1  0.981739  0.297385  0.914671  1
