# generated using pymatgen
data_Yb8Fe2AgN8
_symmetry_space_group_name_H-M   'P 1'
_cell_length_a   9.18832270
_cell_length_b   4.94376326
_cell_length_c   7.09169285
_cell_angle_alpha   89.99999606
_cell_angle_beta   73.59912031
_cell_angle_gamma   74.39377856
_symmetry_Int_Tables_number   1
_chemical_formula_structural   Yb8Fe2AgN8
_chemical_formula_sum   'Yb8 Fe2 Ag1 N8'
_cell_volume   296.63088123
_cell_formula_units_Z   1
loop_
 _symmetry_equiv_pos_site_id
 _symmetry_equiv_pos_as_xyz
  1  'x, y, z'
loop_
 _atom_site_type_symbol
 _atom_site_label
 _atom_site_symmetry_multiplicity
 _atom_site_fract_x
 _atom_site_fract_y
 _atom_site_fract_z
 _atom_site_occupancy
  Yb  Yb0  1  0.064143  0.967928  0.751206  1
  Yb  Yb1  1  0.935857  0.032072  0.248794  1
  Yb  Yb2  1  0.662536  0.668732  0.461269  1
  Yb  Yb3  1  0.337464  0.331268  0.538731  1
  Yb  Yb4  1  0.817898  0.591051  0.975473  1
  Yb  Yb5  1  0.182102  0.408949  0.024527  1
  Yb  Yb6  1  0.602057  0.198971  0.809242  1
  Yb  Yb7  1  0.397943  0.801029  0.190758  1
  Fe  Fe8  1  0.378810  0.810596  0.793728  1
  Fe  Fe9  1  0.621190  0.189404  0.206272  1
  Ag  Ag10  1  0.000000  0.500000  0.500000  1
  N  N11  1  0.210306  0.894847  0.999798  1
  N  N12  1  0.789694  0.105153  0.000202  1
  N  N13  1  0.356875  0.821563  0.558025  1
  N  N14  1  0.643125  0.178437  0.441975  1
  N  N15  1  0.565663  0.717169  0.827461  1
  N  N16  1  0.434337  0.282831  0.172539  1
  N  N17  1  0.072016  0.463992  0.756981  1
  N  N18  1  0.927984  0.536008  0.243019  1
