# generated using pymatgen
data_Nd2Zn3Ni7
_symmetry_space_group_name_H-M   'P 1'
_cell_length_a   4.06125200
_cell_length_b   5.02785327
_cell_length_c   8.80694862
_cell_angle_alpha   89.03450123
_cell_angle_beta   90.00000000
_cell_angle_gamma   90.00000000
_symmetry_Int_Tables_number   1
_chemical_formula_structural   Nd2Zn3Ni7
_chemical_formula_sum   'Nd2 Zn3 Ni7'
_cell_volume   179.80689093
_cell_formula_units_Z   1
loop_
 _symmetry_equiv_pos_site_id
 _symmetry_equiv_pos_as_xyz
  1  'x, y, z'
loop_
 _atom_site_type_symbol
 _atom_site_label
 _atom_site_symmetry_multiplicity
 _atom_site_fract_x
 _atom_site_fract_y
 _atom_site_fract_z
 _atom_site_occupancy
  Nd  Nd0  1  0.000000  0.248460  0.742022  1
  Nd  Nd1  1  0.000000  0.751540  0.257978  1
  Zn  Zn2  1  0.500000  0.257822  0.254616  1
  Zn  Zn3  1  0.500000  0.742178  0.745384  1
  Zn  Zn4  1  0.500000  0.000000  0.000000  1
  Ni  Ni5  1  0.500000  0.500000  0.500000  1
  Ni  Ni6  1  0.500000  0.500000  0.000000  1
  Ni  Ni7  1  0.500000  0.000000  0.500000  1
  Ni  Ni8  1  0.000000  0.261195  0.076730  1
  Ni  Ni9  1  0.000000  0.749864  0.577859  1
  Ni  Ni10  1  0.000000  0.738805  0.923270  1
  Ni  Ni11  1  0.000000  0.250136  0.422141  1
