# generated using pymatgen
data_La8Ho2Ir3Rh
_symmetry_space_group_name_H-M   'P 1'
_cell_length_a   6.70734002
_cell_length_b   7.30167850
_cell_length_c   9.14347000
_cell_angle_alpha   95.82439920
_cell_angle_beta   111.25534207
_cell_angle_gamma   90.00856686
_symmetry_Int_Tables_number   1
_chemical_formula_structural   La8Ho2Ir3Rh
_chemical_formula_sum   'La8 Ho2 Ir3 Rh1'
_cell_volume   414.85387047
_cell_formula_units_Z   1
loop_
 _symmetry_equiv_pos_site_id
 _symmetry_equiv_pos_as_xyz
  1  'x, y, z'
loop_
 _atom_site_type_symbol
 _atom_site_label
 _atom_site_symmetry_multiplicity
 _atom_site_fract_x
 _atom_site_fract_y
 _atom_site_fract_z
 _atom_site_occupancy
  La  La0  1  0.799357  0.083021  0.818304  1
  La  La1  1  0.981543  0.416463  0.182111  1
  La  La2  1  0.201122  0.916698  0.182048  1
  La  La3  1  0.019593  0.584387  0.818717  1
  La  La4  1  0.215205  0.184074  0.572928  1
  La  La5  1  0.642722  0.315318  0.425403  1
  La  La6  1  0.783707  0.815135  0.427079  1
  La  La7  1  0.357425  0.684825  0.573583  1
  Ho  Ho8  1  0.433302  0.249468  0.000894  1
  Ho  Ho9  1  0.566052  0.751775  0.000854  1
  Ir  Ir10  1  0.806660  0.074702  0.212829  1
  Ir  Ir11  1  0.402749  0.573443  0.210445  1
  Ir  Ir12  1  0.192342  0.924986  0.786456  1
  Rh  Rh13  1  0.598222  0.425703  0.788348  1
