# generated using pymatgen
data_Nd2As4Rh7
_symmetry_space_group_name_H-M   'P 1'
_cell_length_a   4.05457900
_cell_length_b   9.95621000
_cell_length_c   11.23960200
_cell_angle_alpha   90.00000000
_cell_angle_beta   90.00000000
_cell_angle_gamma   90.00000000
_symmetry_Int_Tables_number   1
_chemical_formula_structural   Nd2As4Rh7
_chemical_formula_sum   'Nd4 As8 Rh14'
_cell_volume   453.72295088
_cell_formula_units_Z   2
loop_
 _symmetry_equiv_pos_site_id
 _symmetry_equiv_pos_as_xyz
  1  'x, y, z'
loop_
 _atom_site_type_symbol
 _atom_site_label
 _atom_site_symmetry_multiplicity
 _atom_site_fract_x
 _atom_site_fract_y
 _atom_site_fract_z
 _atom_site_occupancy
  Nd  Nd0  1  0.500000  0.454009  0.506682  1
  Nd  Nd1  1  0.500000  0.058780  0.283170  1
  Nd  Nd2  1  0.000000  0.941220  0.783170  1
  Nd  Nd3  1  0.000000  0.545991  0.006682  1
  As  As4  1  0.000000  0.821316  0.283756  1
  As  As5  1  0.000000  0.192067  0.460078  1
  As  As6  1  0.500000  0.178684  0.783756  1
  As  As7  1  0.000000  0.148376  0.095659  1
  As  As8  1  0.500000  0.473249  0.229762  1
  As  As9  1  0.500000  0.807933  0.960078  1
  As  As10  1  0.500000  0.851624  0.595659  1
  As  As11  1  0.000000  0.526751  0.729762  1
  Rh  Rh12  1  0.500000  0.315725  0.071071  1
  Rh  Rh13  1  0.500000  0.753988  0.404272  1
  Rh  Rh14  1  0.500000  0.415575  0.810646  1
  Rh  Rh15  1  0.500000  0.058331  0.977736  1
  Rh  Rh16  1  0.500000  0.694912  0.764726  1
  Rh  Rh17  1  0.000000  0.282219  0.662453  1
  Rh  Rh18  1  0.000000  0.246012  0.904272  1
  Rh  Rh19  1  0.000000  0.684275  0.571071  1
  Rh  Rh20  1  0.500000  0.103495  0.577688  1
  Rh  Rh21  1  0.000000  0.305088  0.264726  1
  Rh  Rh22  1  0.000000  0.584425  0.310646  1
  Rh  Rh23  1  0.000000  0.896505  0.077688  1
  Rh  Rh24  1  0.000000  0.941669  0.477736  1
  Rh  Rh25  1  0.500000  0.717781  0.162453  1
