# generated using pymatgen
data_Ho8Ga(PdPt11)2
_symmetry_space_group_name_H-M   'P 1'
_cell_length_a   8.34908929
_cell_length_b   8.34908929
_cell_length_c   8.33936600
_cell_angle_alpha   90.00000000
_cell_angle_beta   90.00000000
_cell_angle_gamma   90.11622363
_symmetry_Int_Tables_number   1
_chemical_formula_structural   Ho8Ga(PdPt11)2
_chemical_formula_sum   'Ho8 Ga1 Pd2 Pt22'
_cell_volume   581.31342524
_cell_formula_units_Z   1
loop_
 _symmetry_equiv_pos_site_id
 _symmetry_equiv_pos_as_xyz
  1  'x, y, z'
loop_
 _atom_site_type_symbol
 _atom_site_label
 _atom_site_symmetry_multiplicity
 _atom_site_fract_x
 _atom_site_fract_y
 _atom_site_fract_z
 _atom_site_occupancy
  Ho  Ho0  1  0.250736  0.250736  0.749472  1
  Ho  Ho1  1  0.251628  0.748596  0.251378  1
  Ho  Ho2  1  0.748596  0.251628  0.251378  1
  Ho  Ho3  1  0.747959  0.747959  0.747920  1
  Ho  Ho4  1  0.747959  0.747959  0.252080  1
  Ho  Ho5  1  0.748596  0.251628  0.748622  1
  Ho  Ho6  1  0.251628  0.748596  0.748622  1
  Ho  Ho7  1  0.250736  0.250736  0.250528  1
  Ga  Ga8  1  0.003504  0.003504  0.000000  1
  Pd  Pd9  1  0.999062  0.709142  0.000000  1
  Pd  Pd10  1  0.709142  0.999062  0.000000  1
  Pt  Pt11  1  0.499627  0.499627  0.746921  1
  Pt  Pt12  1  0.499513  0.253229  0.500000  1
  Pt  Pt13  1  0.253229  0.499513  0.500000  1
  Pt  Pt14  1  0.499627  0.499627  0.253079  1
  Pt  Pt15  1  0.499654  0.746574  0.500000  1
  Pt  Pt16  1  0.746574  0.499654  0.500000  1
  Pt  Pt17  1  0.998643  0.998643  0.706392  1
  Pt  Pt18  1  0.998538  0.297597  0.000000  1
  Pt  Pt19  1  0.297597  0.998538  0.000000  1
  Pt  Pt20  1  0.998643  0.998643  0.293608  1
  Pt  Pt21  1  0.000013  0.500379  0.739046  1
  Pt  Pt22  1  0.500295  0.260414  0.000000  1
  Pt  Pt23  1  0.260691  0.999965  0.500000  1
  Pt  Pt24  1  0.999965  0.260691  0.500000  1
  Pt  Pt25  1  0.500379  0.000013  0.739046  1
  Pt  Pt26  1  0.260414  0.500295  0.000000  1
  Pt  Pt27  1  0.000013  0.500379  0.260954  1
  Pt  Pt28  1  0.500575  0.738324  0.000000  1
  Pt  Pt29  1  0.000062  0.737698  0.500000  1
  Pt  Pt30  1  0.500379  0.000013  0.260954  1
  Pt  Pt31  1  0.737698  0.000062  0.500000  1
  Pt  Pt32  1  0.738324  0.500575  0.000000  1
