# generated using pymatgen
data_KSrNbO4
_symmetry_space_group_name_H-M   'P 1'
_cell_length_a   6.16679000
_cell_length_b   7.65715600
_cell_length_c   10.41333300
_cell_angle_alpha   90.00000000
_cell_angle_beta   90.00000000
_cell_angle_gamma   90.00000000
_symmetry_Int_Tables_number   1
_chemical_formula_structural   KSrNbO4
_chemical_formula_sum   'K4 Sr4 Nb4 O16'
_cell_volume   491.71834495
_cell_formula_units_Z   4
loop_
 _symmetry_equiv_pos_site_id
 _symmetry_equiv_pos_as_xyz
  1  'x, y, z'
loop_
 _atom_site_type_symbol
 _atom_site_label
 _atom_site_symmetry_multiplicity
 _atom_site_fract_x
 _atom_site_fract_y
 _atom_site_fract_z
 _atom_site_occupancy
  K  K0  1  0.478893  0.085509  0.572600  1
  K  K1  1  0.521107  0.585509  0.927400  1
  K  K2  1  0.021107  0.914491  0.072600  1
  K  K3  1  0.978893  0.414491  0.427400  1
  Sr  Sr4  1  0.982757  0.250507  0.791576  1
  Sr  Sr5  1  0.482757  0.249493  0.208424  1
  Sr  Sr6  1  0.517243  0.749493  0.291576  1
  Sr  Sr7  1  0.017243  0.750507  0.708424  1
  Nb  Nb8  1  0.484931  0.530171  0.584276  1
  Nb  Nb9  1  0.015069  0.469829  0.084276  1
  Nb  Nb10  1  0.984931  0.969829  0.415724  1
  Nb  Nb11  1  0.515069  0.030171  0.915724  1
  O  O12  1  0.506126  0.912596  0.074128  1
  O  O13  1  0.249849  0.551858  0.181688  1
  O  O14  1  0.250151  0.448142  0.681688  1
  O  O15  1  0.090910  0.239584  0.047885  1
  O  O16  1  0.749849  0.948142  0.818312  1
  O  O17  1  0.590910  0.260416  0.952115  1
  O  O18  1  0.755782  0.505089  0.178110  1
  O  O19  1  0.255782  0.994911  0.821890  1
  O  O20  1  0.993874  0.087404  0.574128  1
  O  O21  1  0.750151  0.051858  0.318312  1
  O  O22  1  0.006126  0.587404  0.925872  1
  O  O23  1  0.493874  0.412596  0.425872  1
  O  O24  1  0.244218  0.005089  0.321890  1
  O  O25  1  0.409090  0.760416  0.547885  1
  O  O26  1  0.744218  0.494911  0.678110  1
  O  O27  1  0.909090  0.739584  0.452115  1
