# generated using pymatgen
data_Dy2Y2Ga4Ni3Ru
_symmetry_space_group_name_H-M   'P 1'
_cell_length_a   4.27687500
_cell_length_b   6.78501211
_cell_length_c   7.52682338
_cell_angle_alpha   90.10167942
_cell_angle_beta   90.00000000
_cell_angle_gamma   90.00000000
_symmetry_Int_Tables_number   1
_chemical_formula_structural   Dy2Y2Ga4Ni3Ru
_chemical_formula_sum   'Dy2 Y2 Ga4 Ni3 Ru1'
_cell_volume   218.41789932
_cell_formula_units_Z   1
loop_
 _symmetry_equiv_pos_site_id
 _symmetry_equiv_pos_as_xyz
  1  'x, y, z'
loop_
 _atom_site_type_symbol
 _atom_site_label
 _atom_site_symmetry_multiplicity
 _atom_site_fract_x
 _atom_site_fract_y
 _atom_site_fract_z
 _atom_site_occupancy
  Dy  Dy0  1  0.250000  0.521553  0.688196  1
  Dy  Dy1  1  0.750000  0.479246  0.308964  1
  Y  Y2  1  0.250000  0.026331  0.812731  1
  Y  Y3  1  0.750000  0.978874  0.191693  1
  Ga  Ga4  1  0.250000  0.165804  0.431003  1
  Ga  Ga5  1  0.250000  0.661479  0.061304  1
  Ga  Ga6  1  0.750000  0.838463  0.578397  1
  Ga  Ga7  1  0.750000  0.337192  0.929932  1
  Ni  Ni8  1  0.250000  0.286283  0.107008  1
  Ni  Ni9  1  0.750000  0.218867  0.608553  1
  Ni  Ni10  1  0.750000  0.715301  0.891166  1
  Ru  Ru11  1  0.250000  0.770606  0.391052  1
