# generated using pymatgen
data_Hf8In4RuAu7
_symmetry_space_group_name_H-M   'P 1'
_cell_length_a   7.58704885
_cell_length_b   7.58704789
_cell_length_c   7.03338897
_cell_angle_alpha   90.29991446
_cell_angle_beta   90.29991682
_cell_angle_gamma   90.20754762
_symmetry_Int_Tables_number   1
_chemical_formula_structural   Hf8In4RuAu7
_chemical_formula_sum   'Hf8 In4 Ru1 Au7'
_cell_volume   404.85131031
_cell_formula_units_Z   1
loop_
 _symmetry_equiv_pos_site_id
 _symmetry_equiv_pos_as_xyz
  1  'x, y, z'
loop_
 _atom_site_type_symbol
 _atom_site_label
 _atom_site_symmetry_multiplicity
 _atom_site_fract_x
 _atom_site_fract_y
 _atom_site_fract_z
 _atom_site_occupancy
  Hf  Hf0  1  0.155418  0.155418  0.012613  1
  Hf  Hf1  1  0.858299  0.858299  0.995318  1
  Hf  Hf2  1  0.632283  0.346000  0.486577  1
  Hf  Hf3  1  0.346000  0.632283  0.486577  1
  Hf  Hf4  1  0.679008  0.308630  0.008668  1
  Hf  Hf5  1  0.308630  0.679008  0.008668  1
  Hf  Hf6  1  0.808780  0.808780  0.498997  1
  Hf  Hf7  1  0.199808  0.199808  0.491285  1
  In  In8  1  0.498962  0.003850  0.245376  1
  In  In9  1  0.499498  0.997172  0.749662  1
  In  In10  1  0.003850  0.498962  0.245376  1
  In  In11  1  0.997172  0.499498  0.749662  1
  Ru  Ru12  1  0.371044  0.371044  0.222273  1
  Au  Au13  1  0.630815  0.630815  0.784700  1
  Au  Au14  1  0.635475  0.635475  0.204357  1
  Au  Au15  1  0.870072  0.134329  0.712184  1
  Au  Au16  1  0.870567  0.130952  0.293840  1
  Au  Au17  1  0.369038  0.369038  0.797842  1
  Au  Au18  1  0.130952  0.870567  0.293840  1
  Au  Au19  1  0.134329  0.870072  0.712184  1
