# generated using pymatgen
data_Y6Er14Cd6RuPt
_symmetry_space_group_name_H-M   'P 1'
_cell_length_a   9.59533300
_cell_length_b   9.59531385
_cell_length_c   9.77904300
_cell_angle_alpha   89.99992515
_cell_angle_beta   89.99995268
_cell_angle_gamma   120.00011404
_symmetry_Int_Tables_number   1
_chemical_formula_structural   Y6Er14Cd6RuPt
_chemical_formula_sum   'Y6 Er14 Cd6 Ru1 Pt1'
_cell_volume   779.73265736
_cell_formula_units_Z   1
loop_
 _symmetry_equiv_pos_site_id
 _symmetry_equiv_pos_as_xyz
  1  'x, y, z'
loop_
 _atom_site_type_symbol
 _atom_site_label
 _atom_site_symmetry_multiplicity
 _atom_site_fract_x
 _atom_site_fract_y
 _atom_site_fract_z
 _atom_site_occupancy
  Y  Y0  1  0.541825  0.458176  0.249999  1
  Y  Y1  1  0.541827  0.083650  0.250001  1
  Y  Y2  1  0.916350  0.458179  0.250001  1
  Y  Y3  1  0.459287  0.540714  0.750000  1
  Y  Y4  1  0.459285  0.918570  0.749997  1
  Y  Y5  1  0.081425  0.540711  0.749998  1
  Er  Er6  1  0.000005  0.000000  0.499559  1
  Er  Er7  1  0.000001  0.999997  0.000439  1
  Er  Er8  1  0.208596  0.791405  0.441908  1
  Er  Er9  1  0.208597  0.417195  0.441912  1
  Er  Er10  1  0.582806  0.791402  0.441907  1
  Er  Er11  1  0.790234  0.209765  0.560227  1
  Er  Er12  1  0.790234  0.580467  0.560229  1
  Er  Er13  1  0.419536  0.209767  0.560228  1
  Er  Er14  1  0.790233  0.209764  0.939777  1
  Er  Er15  1  0.790230  0.580466  0.939771  1
  Er  Er16  1  0.419535  0.209763  0.939772  1
  Er  Er17  1  0.208593  0.791403  0.058090  1
  Er  Er18  1  0.208595  0.417195  0.058090  1
  Er  Er19  1  0.582808  0.791404  0.058092  1
  Cd  Cd20  1  0.885798  0.114194  0.250002  1
  Cd  Cd21  1  0.885799  0.771605  0.250003  1
  Cd  Cd22  1  0.228397  0.114199  0.250005  1
  Cd  Cd23  1  0.114248  0.885756  0.749997  1
  Cd  Cd24  1  0.114249  0.228498  0.749999  1
  Cd  Cd25  1  0.771507  0.885756  0.749999  1
  Ru  Ru26  1  0.666666  0.333329  0.749997  1
  Pt  Pt27  1  0.333333  0.666669  0.250001  1
