# generated using pymatgen
data_Dy2YNi9
_symmetry_space_group_name_H-M   'P 1'
_cell_length_a   8.67193102
_cell_length_b   8.67193089
_cell_length_c   8.67193072
_cell_angle_alpha   33.35668456
_cell_angle_beta   33.35668904
_cell_angle_gamma   33.35668241
_symmetry_Int_Tables_number   1
_chemical_formula_structural   Dy2YNi9
_chemical_formula_sum   'Dy2 Y1 Ni9'
_cell_volume   175.56383284
_cell_formula_units_Z   1
loop_
 _symmetry_equiv_pos_site_id
 _symmetry_equiv_pos_as_xyz
  1  'x, y, z'
loop_
 _atom_site_type_symbol
 _atom_site_label
 _atom_site_symmetry_multiplicity
 _atom_site_fract_x
 _atom_site_fract_y
 _atom_site_fract_z
 _atom_site_occupancy
  Dy  Dy0  1  0.861293  0.861293  0.861293  1
  Dy  Dy1  1  0.138707  0.138707  0.138707  1
  Y  Y2  1  0.000000  0.000000  0.000000  1
  Ni  Ni3  1  0.417774  0.417774  0.918653  1
  Ni  Ni4  1  0.918653  0.417774  0.417774  1
  Ni  Ni5  1  0.500000  0.500000  0.500000  1
  Ni  Ni6  1  0.582226  0.081347  0.582226  1
  Ni  Ni7  1  0.582226  0.582226  0.081347  1
  Ni  Ni8  1  0.333106  0.333106  0.333106  1
  Ni  Ni9  1  0.417774  0.918653  0.417774  1
  Ni  Ni10  1  0.666894  0.666894  0.666894  1
  Ni  Ni11  1  0.081347  0.582226  0.582226  1
