# generated using pymatgen
data_Dy3Lu17(CoSb2)4
_symmetry_space_group_name_H-M   'P 1'
_cell_length_a   7.71521965
_cell_length_b   8.70932300
_cell_length_c   11.97707799
_cell_angle_alpha   90.00000000
_cell_angle_beta   90.04668456
_cell_angle_gamma   90.00000000
_symmetry_Int_Tables_number   1
_chemical_formula_structural   Dy3Lu17(CoSb2)4
_chemical_formula_sum   'Dy3 Lu17 Co4 Sb8'
_cell_volume   804.79158214
_cell_formula_units_Z   1
loop_
 _symmetry_equiv_pos_site_id
 _symmetry_equiv_pos_as_xyz
  1  'x, y, z'
loop_
 _atom_site_type_symbol
 _atom_site_label
 _atom_site_symmetry_multiplicity
 _atom_site_fract_x
 _atom_site_fract_y
 _atom_site_fract_z
 _atom_site_occupancy
  Dy  Dy0  1  0.878761  0.750000  0.807536  1
  Dy  Dy1  1  0.378916  0.250000  0.692181  1
  Dy  Dy2  1  0.121355  0.250000  0.192321  1
  Lu  Lu3  1  0.155501  0.750000  0.203081  1
  Lu  Lu4  1  0.344951  0.750000  0.703051  1
  Lu  Lu5  1  0.844990  0.250000  0.797084  1
  Lu  Lu6  1  0.655084  0.250000  0.296969  1
  Lu  Lu7  1  0.448875  0.750000  0.998004  1
  Lu  Lu8  1  0.050938  0.750000  0.498084  1
  Lu  Lu9  1  0.550920  0.250000  0.002178  1
  Lu  Lu10  1  0.948040  0.250000  0.501906  1
  Lu  Lu11  1  0.619205  0.750000  0.309335  1
  Lu  Lu12  1  0.823531  0.536981  0.065038  1
  Lu  Lu13  1  0.676522  0.962047  0.564409  1
  Lu  Lu14  1  0.176436  0.037426  0.935085  1
  Lu  Lu15  1  0.324305  0.464492  0.434536  1
  Lu  Lu16  1  0.176436  0.462574  0.935085  1
  Lu  Lu17  1  0.324305  0.035508  0.434536  1
  Lu  Lu18  1  0.823531  0.963019  0.065038  1
  Lu  Lu19  1  0.676522  0.537953  0.564409  1
  Co  Co20  1  0.432623  0.750000  0.491116  1
  Co  Co21  1  0.068112  0.750000  0.991602  1
  Co  Co22  1  0.567904  0.250000  0.508095  1
  Co  Co23  1  0.931915  0.250000  0.008529  1
  Sb  Sb24  1  0.929080  0.509859  0.328536  1
  Sb  Sb25  1  0.569504  0.991282  0.828706  1
  Sb  Sb26  1  0.069502  0.008988  0.671311  1
  Sb  Sb27  1  0.432075  0.492271  0.171844  1
  Sb  Sb28  1  0.069502  0.491012  0.671311  1
  Sb  Sb29  1  0.432075  0.007729  0.171844  1
  Sb  Sb30  1  0.929080  0.990141  0.328536  1
  Sb  Sb31  1  0.569504  0.508718  0.828706  1
