# generated using pymatgen
data_Y13Th3(AlCo)4
_symmetry_space_group_name_H-M   'P 1'
_cell_length_a   9.48574765
_cell_length_b   9.56059463
_cell_length_c   9.56059400
_cell_angle_alpha   60.00000218
_cell_angle_beta   59.73864259
_cell_angle_gamma   59.73863996
_symmetry_Int_Tables_number   1
_chemical_formula_structural   Y13Th3(AlCo)4
_chemical_formula_sum   'Y13 Th3 Al4 Co4'
_cell_volume   610.65984103
_cell_formula_units_Z   1
loop_
 _symmetry_equiv_pos_site_id
 _symmetry_equiv_pos_as_xyz
  1  'x, y, z'
loop_
 _atom_site_type_symbol
 _atom_site_label
 _atom_site_symmetry_multiplicity
 _atom_site_fract_x
 _atom_site_fract_y
 _atom_site_fract_z
 _atom_site_occupancy
  Y  Y0  1  0.945283  0.351573  0.351573  1
  Y  Y1  1  0.810726  0.190062  0.190062  1
  Y  Y2  1  0.191605  0.809310  0.809310  1
  Y  Y3  1  0.191605  0.809310  0.189774  1
  Y  Y4  1  0.810726  0.190062  0.809150  1
  Y  Y5  1  0.191605  0.189774  0.809310  1
  Y  Y6  1  0.810726  0.809150  0.190062  1
  Y  Y7  1  0.937191  0.563061  0.563061  1
  Y  Y8  1  0.562866  0.937246  0.937246  1
  Y  Y9  1  0.562866  0.937246  0.562642  1
  Y  Y10  1  0.937191  0.563061  0.936686  1
  Y  Y11  1  0.562866  0.562642  0.937246  1
  Y  Y12  1  0.937191  0.936686  0.563061  1
  Th  Th13  1  0.343308  0.346244  0.346244  1
  Th  Th14  1  0.343308  0.346244  0.964206  1
  Th  Th15  1  0.343308  0.964206  0.346244  1
  Al  Al16  1  0.577292  0.578526  0.578526  1
  Al  Al17  1  0.577292  0.578526  0.265655  1
  Al  Al18  1  0.577292  0.265655  0.578526  1
  Al  Al19  1  0.267049  0.577650  0.577650  1
  Co  Co20  1  0.150987  0.140301  0.140301  1
  Co  Co21  1  0.150987  0.140301  0.568413  1
  Co  Co22  1  0.150987  0.568413  0.140301  1
  Co  Co23  1  0.565745  0.144752  0.144752  1
