# generated using pymatgen
data_Er7Hg10
_symmetry_space_group_name_H-M   'P 1'
_cell_length_a   9.14020700
_cell_length_b   9.14020849
_cell_length_c   10.72780800
_cell_angle_alpha   90.00000000
_cell_angle_beta   90.00000000
_cell_angle_gamma   108.04801139
_symmetry_Int_Tables_number   1
_chemical_formula_structural   Er7Hg10
_chemical_formula_sum   'Er14 Hg20'
_cell_volume   852.14016877
_cell_formula_units_Z   2
loop_
 _symmetry_equiv_pos_site_id
 _symmetry_equiv_pos_as_xyz
  1  'x, y, z'
loop_
 _atom_site_type_symbol
 _atom_site_label
 _atom_site_symmetry_multiplicity
 _atom_site_fract_x
 _atom_site_fract_y
 _atom_site_fract_z
 _atom_site_occupancy
  Er  Er0  1  0.692717  0.307283  0.000000  1
  Er  Er1  1  0.307283  0.692717  0.000000  1
  Er  Er2  1  0.807283  0.192717  0.500000  1
  Er  Er3  1  0.192717  0.807283  0.500000  1
  Er  Er4  1  0.000000  0.000000  0.000000  1
  Er  Er5  1  0.500000  0.500000  0.500000  1
  Er  Er6  1  0.007872  0.507872  0.250000  1
  Er  Er7  1  0.992128  0.492128  0.750000  1
  Er  Er8  1  0.492128  0.992128  0.750000  1
  Er  Er9  1  0.507872  0.007872  0.250000  1
  Er  Er10  1  0.309175  0.309175  0.193169  1
  Er  Er11  1  0.690825  0.690825  0.806831  1
  Er  Er12  1  0.190825  0.190825  0.693169  1
  Er  Er13  1  0.809175  0.809175  0.306831  1
  Hg  Hg14  1  0.858974  0.149319  0.208955  1
  Hg  Hg15  1  0.141026  0.850681  0.791045  1
  Hg  Hg16  1  0.641026  0.350681  0.708955  1
  Hg  Hg17  1  0.649319  0.358974  0.291045  1
  Hg  Hg18  1  0.358974  0.649319  0.291045  1
  Hg  Hg19  1  0.350681  0.641026  0.708955  1
  Hg  Hg20  1  0.850681  0.141026  0.791045  1
  Hg  Hg21  1  0.149319  0.858974  0.208955  1
  Hg  Hg22  1  0.936019  0.645177  0.998285  1
  Hg  Hg23  1  0.063981  0.354823  0.001715  1
  Hg  Hg24  1  0.563981  0.854823  0.498285  1
  Hg  Hg25  1  0.145177  0.436019  0.501715  1
  Hg  Hg26  1  0.436019  0.145177  0.501715  1
  Hg  Hg27  1  0.854823  0.563981  0.498285  1
  Hg  Hg28  1  0.354823  0.063981  0.001715  1
  Hg  Hg29  1  0.645177  0.936019  0.998285  1
  Hg  Hg30  1  0.102175  0.102175  0.399505  1
  Hg  Hg31  1  0.897825  0.897825  0.600495  1
  Hg  Hg32  1  0.397825  0.397825  0.899505  1
  Hg  Hg33  1  0.602175  0.602175  0.100495  1
