# generated using pymatgen
data_NaSm(BH4)4
_symmetry_space_group_name_H-M   'P 1'
_cell_length_a   6.68431700
_cell_length_b   6.68431700
_cell_length_c   6.55308800
_cell_angle_alpha   90.00000000
_cell_angle_beta   90.00000000
_cell_angle_gamma   90.00000000
_symmetry_Int_Tables_number   1
_chemical_formula_structural   NaSm(BH4)4
_chemical_formula_sum   'Na1 Sm1 B4 H16'
_cell_volume   292.79258623
_cell_formula_units_Z   1
loop_
 _symmetry_equiv_pos_site_id
 _symmetry_equiv_pos_as_xyz
  1  'x, y, z'
loop_
 _atom_site_type_symbol
 _atom_site_label
 _atom_site_symmetry_multiplicity
 _atom_site_fract_x
 _atom_site_fract_y
 _atom_site_fract_z
 _atom_site_occupancy
  Na  Na0  1  0.000000  0.000000  0.500000  1
  Sm  Sm1  1  0.500000  0.500000  0.500000  1
  B  B2  1  0.732495  0.732495  0.303578  1
  B  B3  1  0.267505  0.267505  0.303578  1
  B  B4  1  0.732495  0.267505  0.696422  1
  B  B5  1  0.267505  0.732495  0.696422  1
  H  H6  1  0.749927  0.749927  0.492048  1
  H  H7  1  0.250073  0.250073  0.492048  1
  H  H8  1  0.749927  0.250073  0.507952  1
  H  H9  1  0.250073  0.749927  0.507952  1
  H  H10  1  0.843309  0.843309  0.211100  1
  H  H11  1  0.156691  0.156691  0.211100  1
  H  H12  1  0.843309  0.156691  0.788900  1
  H  H13  1  0.156691  0.843309  0.788900  1
  H  H14  1  0.767836  0.554799  0.264223  1
  H  H15  1  0.232164  0.445201  0.264223  1
  H  H16  1  0.767836  0.445201  0.735777  1
  H  H17  1  0.232164  0.554799  0.735777  1
  H  H18  1  0.554799  0.232164  0.735777  1
  H  H19  1  0.445201  0.767836  0.735777  1
  H  H20  1  0.445201  0.232164  0.264223  1
  H  H21  1  0.554799  0.767836  0.264223  1
