# generated using pymatgen
data_Zr10ZnGeSb4
_symmetry_space_group_name_H-M   'P 1'
_cell_length_a   5.58230076
_cell_length_b   8.34004951
_cell_length_c   8.34005078
_cell_angle_alpha   83.56210709
_cell_angle_beta   70.43698970
_cell_angle_gamma   70.43699126
_symmetry_Int_Tables_number   1
_chemical_formula_structural   Zr10ZnGeSb4
_chemical_formula_sum   'Zr10 Zn1 Ge1 Sb4'
_cell_volume   344.75042514
_cell_formula_units_Z   1
loop_
 _symmetry_equiv_pos_site_id
 _symmetry_equiv_pos_as_xyz
  1  'x, y, z'
loop_
 _atom_site_type_symbol
 _atom_site_label
 _atom_site_symmetry_multiplicity
 _atom_site_fract_x
 _atom_site_fract_y
 _atom_site_fract_z
 _atom_site_occupancy
  Zr  Zr0  1  0.250000  0.500066  0.499934  1
  Zr  Zr1  1  0.750000  0.499966  0.500034  1
  Zr  Zr2  1  0.075362  0.137793  0.711882  1
  Zr  Zr3  1  0.924906  0.862182  0.288131  1
  Zr  Zr4  1  0.787039  0.288132  0.137816  1
  Zr  Zr5  1  0.424638  0.288118  0.862207  1
  Zr  Zr6  1  0.213200  0.711878  0.862188  1
  Zr  Zr7  1  0.575094  0.711869  0.137818  1
  Zr  Zr8  1  0.712961  0.862184  0.711868  1
  Zr  Zr9  1  0.286800  0.137812  0.288122  1
  Zn  Zn10  1  0.250000  0.000005  0.999995  1
  Ge  Ge11  1  0.750000  0.999983  0.000017  1
  Sb  Sb12  1  0.163831  0.499999  0.172290  1
  Sb  Sb13  1  0.836170  0.499999  0.827696  1
  Sb  Sb14  1  0.336169  0.827710  0.500001  1
  Sb  Sb15  1  0.663830  0.172304  0.500001  1
