# generated using pymatgen
data_Ac2Nd(MgAu)3
_symmetry_space_group_name_H-M   'P 1'
_cell_length_a   7.99926649
_cell_length_b   7.99926730
_cell_length_c   4.34314800
_cell_angle_alpha   90.00000000
_cell_angle_beta   90.00000000
_cell_angle_gamma   120.30043523
_symmetry_Int_Tables_number   1
_chemical_formula_structural   Ac2Nd(MgAu)3
_chemical_formula_sum   'Ac2 Nd1 Mg3 Au3'
_cell_volume   239.94565076
_cell_formula_units_Z   1
loop_
 _symmetry_equiv_pos_site_id
 _symmetry_equiv_pos_as_xyz
  1  'x, y, z'
loop_
 _atom_site_type_symbol
 _atom_site_label
 _atom_site_symmetry_multiplicity
 _atom_site_fract_x
 _atom_site_fract_y
 _atom_site_fract_z
 _atom_site_occupancy
  Ac  Ac0  1  0.585831  0.000514  0.000000  1
  Ac  Ac1  1  0.000514  0.585831  0.000000  1
  Nd  Nd2  1  0.412690  0.412690  0.000000  1
  Mg  Mg3  1  0.236073  0.008716  0.500000  1
  Mg  Mg4  1  0.008716  0.236073  0.500000  1
  Mg  Mg5  1  0.758209  0.758209  0.500000  1
  Au  Au6  1  0.335924  0.657078  0.500000  1
  Au  Au7  1  0.657078  0.335924  0.500000  1
  Au  Au8  1  0.004965  0.004965  0.000000  1
