# generated using pymatgen
data_Pr3Y3Al24CuOs7
_symmetry_space_group_name_H-M   'P 1'
_cell_length_a   8.88514273
_cell_length_b   8.86561095
_cell_length_c   9.64199241
_cell_angle_alpha   90.02053570
_cell_angle_beta   89.93698112
_cell_angle_gamma   119.79391236
_symmetry_Int_Tables_number   1
_chemical_formula_structural   Pr3Y3Al24CuOs7
_chemical_formula_sum   'Pr3 Y3 Al24 Cu1 Os7'
_cell_volume   659.12588821
_cell_formula_units_Z   1
loop_
 _symmetry_equiv_pos_site_id
 _symmetry_equiv_pos_as_xyz
  1  'x, y, z'
loop_
 _atom_site_type_symbol
 _atom_site_label
 _atom_site_symmetry_multiplicity
 _atom_site_fract_x
 _atom_site_fract_y
 _atom_site_fract_z
 _atom_site_occupancy
  Pr  Pr0  1  0.188078  0.381394  0.248323  1
  Pr  Pr1  1  0.811696  0.619327  0.751907  1
  Pr  Pr2  1  0.617439  0.810718  0.248097  1
  Y  Y3  1  0.387537  0.190560  0.750479  1
  Y  Y4  1  0.194623  0.804732  0.250901  1
  Y  Y5  1  0.804605  0.194152  0.748978  1
  Al  Al6  1  0.330808  0.668611  0.016681  1
  Al  Al7  1  0.667473  0.331520  0.979341  1
  Al  Al8  1  0.666626  0.332376  0.520387  1
  Al  Al9  1  0.332490  0.666823  0.483020  1
  Al  Al10  1  0.164520  0.327076  0.575103  1
  Al  Al11  1  0.836281  0.671211  0.426931  1
  Al  Al12  1  0.670984  0.835779  0.574333  1
  Al  Al13  1  0.846208  0.675254  0.078219  1
  Al  Al14  1  0.328272  0.163375  0.429076  1
  Al  Al15  1  0.154978  0.323990  0.920412  1
  Al  Al16  1  0.165040  0.837324  0.573939  1
  Al  Al17  1  0.324510  0.154629  0.075597  1
  Al  Al18  1  0.835544  0.164404  0.427409  1
  Al  Al19  1  0.674883  0.846270  0.920638  1
  Al  Al20  1  0.834243  0.165619  0.071139  1
  Al  Al21  1  0.166062  0.836727  0.927069  1
  Al  Al22  1  0.559855  0.123894  0.248967  1
  Al  Al23  1  0.438738  0.877771  0.750554  1
  Al  Al24  1  0.875263  0.438703  0.249314  1
  Al  Al25  1  0.123936  0.560358  0.750863  1
  Al  Al26  1  0.562997  0.435114  0.251374  1
  Al  Al27  1  0.435677  0.560992  0.749928  1
  Al  Al28  1  0.000522  0.998416  0.250456  1
  Al  Al29  1  0.004787  0.004391  0.749920  1
  Cu  Cu30  1  0.499410  0.498971  0.999244  1
  Os  Os31  1  0.499054  0.001206  0.998351  1
  Os  Os32  1  0.999326  0.499874  0.999593  1
  Os  Os33  1  0.499130  0.000559  0.501104  1
  Os  Os34  1  0.999749  0.499623  0.500590  1
  Os  Os35  1  0.499283  0.498261  0.501523  1
  Os  Os36  1  0.999676  0.000151  0.999680  1
  Os  Os37  1  0.999699  0.999846  0.500560  1
