# generated using pymatgen
data_La10Mg4(OsRu)3
_symmetry_space_group_name_H-M   'P 1'
_cell_length_a   8.76645900
_cell_length_b   8.76097644
_cell_length_c   8.76693125
_cell_angle_alpha   109.15812825
_cell_angle_beta   109.60030419
_cell_angle_gamma   109.68365427
_symmetry_Int_Tables_number   1
_chemical_formula_structural   La10Mg4(OsRu)3
_chemical_formula_sum   'La10 Mg4 Os3 Ru3'
_cell_volume   518.13398534
_cell_formula_units_Z   1
loop_
 _symmetry_equiv_pos_site_id
 _symmetry_equiv_pos_as_xyz
  1  'x, y, z'
loop_
 _atom_site_type_symbol
 _atom_site_label
 _atom_site_symmetry_multiplicity
 _atom_site_fract_x
 _atom_site_fract_y
 _atom_site_fract_z
 _atom_site_occupancy
  La  La0  1  0.247024  0.678937  0.431092  1
  La  La1  1  0.752148  0.821036  0.068072  1
  La  La2  1  0.433133  0.249995  0.683137  1
  La  La3  1  0.679962  0.427728  0.249290  1
  La  La4  1  0.066592  0.750003  0.816589  1
  La  La5  1  0.821566  0.072264  0.752226  1
  La  La6  1  0.211765  0.210298  0.211960  1
  La  La7  1  0.498781  0.997398  0.289970  1
  La  La8  1  0.292552  0.502598  0.001370  1
  La  La9  1  0.001665  0.289707  0.501484  1
  Mg  Mg10  1  0.499357  0.999892  0.908355  1
  Mg  Mg11  1  0.591803  0.592115  0.591656  1
  Mg  Mg12  1  0.908453  0.500108  0.999468  1
  Mg  Mg13  1  0.999545  0.907897  0.499689  1
  Os  Os14  1  0.249770  0.131783  0.880861  1
  Os  Os15  1  0.749080  0.368209  0.617976  1
  Os  Os16  1  0.881544  0.250006  0.131534  1
  Ru  Ru17  1  0.130889  0.881226  0.249508  1
  Ru  Ru18  1  0.616081  0.749995  0.366087  1
  Ru  Ru19  1  0.368287  0.618805  0.749677  1
