# generated using pymatgen
data_CaNdCo5B4
_symmetry_space_group_name_H-M   'P 1'
_cell_length_a   7.10133497
_cell_length_b   5.90494015
_cell_length_c   5.35819303
_cell_angle_alpha   78.00646196
_cell_angle_beta   54.42690973
_cell_angle_gamma   47.56665392
_symmetry_Int_Tables_number   1
_chemical_formula_structural   CaNdCo5B4
_chemical_formula_sum   'Ca1 Nd1 Co5 B4'
_cell_volume   128.33907965
_cell_formula_units_Z   1
loop_
 _symmetry_equiv_pos_site_id
 _symmetry_equiv_pos_as_xyz
  1  'x, y, z'
loop_
 _atom_site_type_symbol
 _atom_site_label
 _atom_site_symmetry_multiplicity
 _atom_site_fract_x
 _atom_site_fract_y
 _atom_site_fract_z
 _atom_site_occupancy
  Ca  Ca0  1  0.148028  0.148028  0.851972  1
  Nd  Nd1  1  0.857562  0.857562  0.142438  1
  Co  Co2  1  0.500314  0.500314  0.499686  1
  Co  Co3  1  0.500598  0.500598  0.999402  1
  Co  Co4  1  0.000598  0.000598  0.499402  1
  Co  Co5  1  0.747666  0.747666  0.752334  1
  Co  Co6  1  0.247666  0.247666  0.252334  1
  B  B7  1  0.788197  0.467402  0.532598  1
  B  B8  1  0.207689  0.534281  0.465719  1
  B  B9  1  0.534281  0.207689  0.792311  1
  B  B10  1  0.467402  0.788197  0.211803  1
