# generated using pymatgen
data_YbTm(Be12Cu)2
_symmetry_space_group_name_H-M   'P 1'
_cell_length_a   7.25267854
_cell_length_b   7.31065166
_cell_length_c   7.22895611
_cell_angle_alpha   59.84106428
_cell_angle_beta   59.84917583
_cell_angle_gamma   59.52008828
_symmetry_Int_Tables_number   1
_chemical_formula_structural   YbTm(Be12Cu)2
_chemical_formula_sum   'Yb1 Tm1 Be24 Cu2'
_cell_volume   269.40263589
_cell_formula_units_Z   1
loop_
 _symmetry_equiv_pos_site_id
 _symmetry_equiv_pos_as_xyz
  1  'x, y, z'
loop_
 _atom_site_type_symbol
 _atom_site_label
 _atom_site_symmetry_multiplicity
 _atom_site_fract_x
 _atom_site_fract_y
 _atom_site_fract_z
 _atom_site_occupancy
  Yb  Yb0  1  0.249695  0.250305  0.249695  1
  Tm  Tm1  1  0.746626  0.753374  0.746626  1
  Be  Be2  1  0.500070  0.499930  0.500070  1
  Be  Be3  1  0.000102  0.999898  0.000102  1
  Be  Be4  1  0.567142  0.790789  0.435625  1
  Be  Be5  1  0.435625  0.206443  0.567142  1
  Be  Be6  1  0.291235  0.933671  0.711522  1
  Be  Be7  1  0.711522  0.063572  0.291235  1
  Be  Be8  1  0.928700  0.278893  0.069006  1
  Be  Be9  1  0.069006  0.723401  0.928700  1
  Be  Be10  1  0.207983  0.797597  0.559857  1
  Be  Be11  1  0.790211  0.199853  0.441906  1
  Be  Be12  1  0.441906  0.568029  0.790211  1
  Be  Be13  1  0.559857  0.434563  0.207983  1
  Be  Be14  1  0.712750  0.286352  0.934224  1
  Be  Be15  1  0.289458  0.716296  0.063135  1
  Be  Be16  1  0.063135  0.931111  0.289458  1
  Be  Be17  1  0.934224  0.066674  0.712750  1
  Be  Be18  1  0.568136  0.206030  0.789747  1
  Be  Be19  1  0.433784  0.791320  0.208416  1
  Be  Be20  1  0.789747  0.436087  0.568136  1
  Be  Be21  1  0.208416  0.566480  0.433784  1
  Be  Be22  1  0.934240  0.714449  0.291824  1
  Be  Be23  1  0.062940  0.287983  0.711204  1
  Be  Be24  1  0.291824  0.059487  0.934240  1
  Be  Be25  1  0.711204  0.937873  0.062940  1
  Cu  Cu26  1  0.804595  0.557879  0.195864  1
  Cu  Cu27  1  0.195864  0.441662  0.804595  1
