# generated using pymatgen
data_La5SiSe4
_symmetry_space_group_name_H-M   'P 1'
_cell_length_a   7.53426592
_cell_length_b   7.53426629
_cell_length_c   7.53426644
_cell_angle_alpha   99.49303255
_cell_angle_beta   99.49303871
_cell_angle_gamma   132.07822226
_symmetry_Int_Tables_number   1
_chemical_formula_structural   La5SiSe4
_chemical_formula_sum   'La5 Si1 Se4'
_cell_volume   290.08400400
_cell_formula_units_Z   1
loop_
 _symmetry_equiv_pos_site_id
 _symmetry_equiv_pos_as_xyz
  1  'x, y, z'
loop_
 _atom_site_type_symbol
 _atom_site_label
 _atom_site_symmetry_multiplicity
 _atom_site_fract_x
 _atom_site_fract_y
 _atom_site_fract_z
 _atom_site_occupancy
  La  La0  1  0.402755  0.792853  0.195607  1
  La  La1  1  0.000000  0.000000  0.000000  1
  La  La2  1  0.597245  0.207147  0.804393  1
  La  La3  1  0.207147  0.402755  0.609902  1
  La  La4  1  0.792853  0.597245  0.390098  1
  Si  Si5  1  0.500000  0.500000  0.000000  1
  Se  Se6  1  0.099577  0.698791  0.798367  1
  Se  Se7  1  0.698791  0.900423  0.599214  1
  Se  Se8  1  0.301209  0.099577  0.400786  1
  Se  Se9  1  0.900423  0.301209  0.201633  1
