# generated using pymatgen
data_Ca2Nd2Al18CoPd5
_symmetry_space_group_name_H-M   'P 1'
_cell_length_a   7.63502137
_cell_length_b   7.63798846
_cell_length_c   9.55079851
_cell_angle_alpha   89.98567115
_cell_angle_beta   89.94953274
_cell_angle_gamma   119.45928082
_symmetry_Int_Tables_number   1
_chemical_formula_structural   Ca2Nd2Al18CoPd5
_chemical_formula_sum   'Ca2 Nd2 Al18 Co1 Pd5'
_cell_volume   484.95326755
_cell_formula_units_Z   1
loop_
 _symmetry_equiv_pos_site_id
 _symmetry_equiv_pos_as_xyz
  1  'x, y, z'
loop_
 _atom_site_type_symbol
 _atom_site_label
 _atom_site_symmetry_multiplicity
 _atom_site_fract_x
 _atom_site_fract_y
 _atom_site_fract_z
 _atom_site_occupancy
  Ca  Ca0  1  0.001575  0.324031  0.750420  1
  Ca  Ca1  1  0.328706  0.008407  0.750126  1
  Nd  Nd2  1  0.994142  0.669378  0.249876  1
  Nd  Nd3  1  0.672310  0.998209  0.249603  1
  Al  Al4  1  0.654939  0.990753  0.925575  1
  Al  Al5  1  0.998739  0.664808  0.577695  1
  Al  Al6  1  0.134312  0.133150  0.248115  1
  Al  Al7  1  0.660448  0.667288  0.046668  1
  Al  Al8  1  0.335264  0.336111  0.556783  1
  Al  Al9  1  0.333242  0.340445  0.951004  1
  Al  Al10  1  0.664408  0.665113  0.445240  1
  Al  Al11  1  0.334288  0.989926  0.069738  1
  Al  Al12  1  0.005592  0.336152  0.426026  1
  Al  Al13  1  0.340332  0.551320  0.240972  1
  Al  Al14  1  0.010522  0.344069  0.069698  1
  Al  Al15  1  0.542614  0.339326  0.248292  1
  Al  Al16  1  0.659467  0.455656  0.751842  1
  Al  Al17  1  0.865013  0.863857  0.751824  1
  Al  Al18  1  0.013813  0.665425  0.925050  1
  Al  Al19  1  0.663301  0.996237  0.578127  1
  Al  Al20  1  0.334938  0.003048  0.426588  1
  Al  Al21  1  0.445144  0.658421  0.759317  1
  Co  Co22  1  0.331706  0.669939  0.000699  1
  Pd  Pd23  1  0.671980  0.328905  0.500459  1
  Pd  Pd24  1  0.672751  0.328726  0.999748  1
  Pd  Pd25  1  0.329609  0.671508  0.500319  1
  Pd  Pd26  1  0.000581  0.999431  0.999343  1
  Pd  Pd27  1  0.000266  0.000362  0.500852  1
