# generated using pymatgen
data_La8Pr6PtAu5
_symmetry_space_group_name_H-M   'P 1'
_cell_length_a   6.63172387
_cell_length_b   10.57936430
_cell_length_c   10.56165607
_cell_angle_alpha   120.05828081
_cell_angle_beta   90.07644241
_cell_angle_gamma   89.99715766
_symmetry_Int_Tables_number   1
_chemical_formula_structural   La8Pr6PtAu5
_chemical_formula_sum   'La8 Pr6 Pt1 Au5'
_cell_volume   641.34662178
_cell_formula_units_Z   1
loop_
 _symmetry_equiv_pos_site_id
 _symmetry_equiv_pos_as_xyz
  1  'x, y, z'
loop_
 _atom_site_type_symbol
 _atom_site_label
 _atom_site_symmetry_multiplicity
 _atom_site_fract_x
 _atom_site_fract_y
 _atom_site_fract_z
 _atom_site_occupancy
  La  La0  1  0.448161  0.330284  0.660479  1
  La  La1  1  0.938602  0.667328  0.334712  1
  La  La2  1  0.246001  0.130648  0.868389  1
  La  La3  1  0.245986  0.737933  0.868489  1
  La  La4  1  0.257799  0.131396  0.262851  1
  La  La5  1  0.746171  0.878632  0.136022  1
  La  La6  1  0.746178  0.257134  0.135926  1
  La  La7  1  0.747450  0.869961  0.739905  1
  Pr  Pr8  1  0.449172  0.537433  0.461436  1
  Pr  Pr9  1  0.449132  0.924019  0.461502  1
  Pr  Pr10  1  0.451363  0.537293  0.074669  1
  Pr  Pr11  1  0.946241  0.454401  0.535250  1
  Pr  Pr12  1  0.946151  0.080915  0.535178  1
  Pr  Pr13  1  0.950570  0.462489  0.924888  1
  Pt  Pt14  1  0.683392  0.188346  0.376656  1
  Au  Au15  1  0.186050  0.810780  0.188223  1
  Au  Au16  1  0.185997  0.377353  0.188209  1
  Au  Au17  1  0.186919  0.810950  0.621951  1
  Au  Au18  1  0.687374  0.189180  0.812641  1
  Au  Au19  1  0.687286  0.623525  0.812623  1
