# generated using pymatgen
data_Ta6Si6TcW5
_symmetry_space_group_name_H-M   'P 1'
_cell_length_a   7.68935483
_cell_length_b   7.69596960
_cell_length_c   7.68925710
_cell_angle_alpha   126.43247661
_cell_angle_beta   128.52624453
_cell_angle_gamma   77.46177710
_symmetry_Int_Tables_number   1
_chemical_formula_structural   Ta6Si6TcW5
_chemical_formula_sum   'Ta6 Si6 Tc1 W5'
_cell_volume   277.83547301
_cell_formula_units_Z   1
loop_
 _symmetry_equiv_pos_site_id
 _symmetry_equiv_pos_as_xyz
  1  'x, y, z'
loop_
 _atom_site_type_symbol
 _atom_site_label
 _atom_site_symmetry_multiplicity
 _atom_site_fract_x
 _atom_site_fract_y
 _atom_site_fract_z
 _atom_site_occupancy
  Ta  Ta0  1  0.550174  0.090409  0.041286  1
  Ta  Ta1  1  0.449650  0.497472  0.550093  1
  Ta  Ta2  1  0.947419  0.497393  0.047735  1
  Ta  Ta3  1  0.049176  0.090287  0.540267  1
  Ta  Ta4  1  0.754597  0.904058  0.652307  1
  Ta  Ta5  1  0.251867  0.904028  0.149582  1
  Si  Si6  1  0.744756  0.496552  0.247893  1
  Si  Si7  1  0.248563  0.496499  0.751731  1
  Si  Si8  1  0.334117  0.825204  0.491236  1
  Si  Si9  1  0.667746  0.164724  0.496778  1
  Si  Si10  1  0.834033  0.828775  0.994813  1
  Si  Si11  1  0.170124  0.168188  0.998115  1
  Tc  Tc12  1  0.370305  0.496281  0.125962  1
  W  W13  1  0.499541  0.237789  0.738192  1
  W  W14  1  0.000946  0.239716  0.238753  1
  W  W15  1  0.128834  0.754278  0.625343  1
  W  W16  1  0.869362  0.496190  0.626744  1
  W  W17  1  0.628790  0.754355  0.125370  1
