# generated using pymatgen
data_Gd8MoW3C8
_symmetry_space_group_name_H-M   'P 1'
_cell_length_a   5.77658409
_cell_length_b   5.77658409
_cell_length_c   10.03767100
_cell_angle_alpha   90.00000000
_cell_angle_beta   90.00000000
_cell_angle_gamma   89.98026193
_symmetry_Int_Tables_number   1
_chemical_formula_structural   Gd8MoW3C8
_chemical_formula_sum   'Gd8 Mo1 W3 C8'
_cell_volume   334.94625784
_cell_formula_units_Z   1
loop_
 _symmetry_equiv_pos_site_id
 _symmetry_equiv_pos_as_xyz
  1  'x, y, z'
loop_
 _atom_site_type_symbol
 _atom_site_label
 _atom_site_symmetry_multiplicity
 _atom_site_fract_x
 _atom_site_fract_y
 _atom_site_fract_z
 _atom_site_occupancy
  Gd  Gd0  1  0.198917  0.801083  0.156911  1
  Gd  Gd1  1  0.801102  0.198898  0.842991  1
  Gd  Gd2  1  0.198917  0.801083  0.843089  1
  Gd  Gd3  1  0.300180  0.301057  0.343172  1
  Gd  Gd4  1  0.698943  0.699820  0.343172  1
  Gd  Gd5  1  0.300180  0.301057  0.656828  1
  Gd  Gd6  1  0.801102  0.198898  0.157009  1
  Gd  Gd7  1  0.698943  0.699820  0.656828  1
  Mo  Mo8  1  0.823246  0.176754  0.500000  1
  W  W9  1  0.322973  0.322743  0.000000  1
  W  W10  1  0.176111  0.823889  0.500000  1
  W  W11  1  0.677257  0.677027  0.000000  1
  C  C12  1  0.000812  0.501518  0.500000  1
  C  C13  1  0.001434  0.998566  0.349025  1
  C  C14  1  0.499956  0.000182  0.000000  1
  C  C15  1  0.001434  0.998566  0.650975  1
  C  C16  1  0.500097  0.499903  0.849419  1
  C  C17  1  0.500097  0.499903  0.150581  1
  C  C18  1  0.498482  0.999188  0.500000  1
  C  C19  1  0.999818  0.500044  0.000000  1
