# generated using pymatgen
data_DyEr2Tm5(CdIr)2
_symmetry_space_group_name_H-M   'P 1'
_cell_length_a   9.52934315
_cell_length_b   9.53245411
_cell_length_c   9.53245451
_cell_angle_alpha   59.97840843
_cell_angle_beta   60.01079325
_cell_angle_gamma   60.01079782
_symmetry_Int_Tables_number   1
_chemical_formula_structural   DyEr2Tm5(CdIr)2
_chemical_formula_sum   'Dy2 Er4 Tm10 Cd4 Ir4'
_cell_volume   612.29024239
_cell_formula_units_Z   2
loop_
 _symmetry_equiv_pos_site_id
 _symmetry_equiv_pos_as_xyz
  1  'x, y, z'
loop_
 _atom_site_type_symbol
 _atom_site_label
 _atom_site_symmetry_multiplicity
 _atom_site_fract_x
 _atom_site_fract_y
 _atom_site_fract_z
 _atom_site_occupancy
  Dy  Dy0  1  0.187781  0.812219  0.812219  1
  Dy  Dy1  1  0.812219  0.187781  0.187781  1
  Er  Er2  1  0.811797  0.188203  0.811797  1
  Er  Er3  1  0.188203  0.811797  0.188203  1
  Er  Er4  1  0.811797  0.811797  0.188203  1
  Er  Er5  1  0.188203  0.188203  0.811797  1
  Tm  Tm6  1  0.599078  0.598977  0.598977  1
  Tm  Tm7  1  0.598977  0.599078  0.202968  1
  Tm  Tm8  1  0.598977  0.202968  0.599078  1
  Tm  Tm9  1  0.202968  0.598977  0.598977  1
  Tm  Tm10  1  0.060771  0.439229  0.439229  1
  Tm  Tm11  1  0.439229  0.060771  0.060771  1
  Tm  Tm12  1  0.439145  0.060855  0.439145  1
  Tm  Tm13  1  0.060855  0.439145  0.060855  1
  Tm  Tm14  1  0.439145  0.439145  0.060855  1
  Tm  Tm15  1  0.060855  0.060855  0.439145  1
  Cd  Cd16  1  0.830761  0.831098  0.831098  1
  Cd  Cd17  1  0.831098  0.830761  0.507042  1
  Cd  Cd18  1  0.831098  0.507042  0.830761  1
  Cd  Cd19  1  0.507042  0.831098  0.831098  1
  Ir  Ir20  1  0.391420  0.391904  0.391904  1
  Ir  Ir21  1  0.391904  0.391420  0.824771  1
  Ir  Ir22  1  0.391904  0.824771  0.391420  1
  Ir  Ir23  1  0.824771  0.391904  0.391904  1
