# generated using pymatgen
data_Yb2Sb3I3O5
_symmetry_space_group_name_H-M   'P 1'
_cell_length_a   6.81181274
_cell_length_b   10.61099232
_cell_length_c   10.81257801
_cell_angle_alpha   98.28724882
_cell_angle_beta   109.87121306
_cell_angle_gamma   91.66281103
_symmetry_Int_Tables_number   1
_chemical_formula_structural   Yb2Sb3I3O5
_chemical_formula_sum   'Yb4 Sb6 I6 O10'
_cell_volume   724.76607857
_cell_formula_units_Z   2
loop_
 _symmetry_equiv_pos_site_id
 _symmetry_equiv_pos_as_xyz
  1  'x, y, z'
loop_
 _atom_site_type_symbol
 _atom_site_label
 _atom_site_symmetry_multiplicity
 _atom_site_fract_x
 _atom_site_fract_y
 _atom_site_fract_z
 _atom_site_occupancy
  Yb  Yb0  1  0.743631  0.421034  0.007764  1
  Yb  Yb1  1  0.252623  0.294318  0.732253  1
  Yb  Yb2  1  0.256400  0.578960  0.992249  1
  Yb  Yb3  1  0.747341  0.705726  0.267749  1
  Sb  Sb4  1  0.216214  0.835553  0.225770  1
  Sb  Sb5  1  0.783774  0.164422  0.774236  1
  Sb  Sb6  1  0.244630  0.283123  0.074310  1
  Sb  Sb7  1  0.755389  0.716853  0.925687  1
  Sb  Sb8  1  0.295370  0.563512  0.323600  1
  Sb  Sb9  1  0.704581  0.436456  0.676392  1
  I  I10  1  0.737798  0.417190  0.307052  1
  I  I11  1  0.262259  0.582857  0.692984  1
  I  I12  1  0.782734  0.967848  0.179385  1
  I  I13  1  0.217377  0.032193  0.820599  1
  I  I14  1  0.664106  0.779330  0.541177  1
  I  I15  1  0.335824  0.220735  0.458812  1
  O  O16  1  0.138337  0.456955  0.133530  1
  O  O17  1  0.861647  0.543008  0.866478  1
  O  O18  1  0.349764  0.372012  0.956211  1
  O  O19  1  0.650251  0.627995  0.043802  1
  O  O20  1  0.397866  0.676502  0.214007  1
  O  O21  1  0.602110  0.323463  0.785999  1
  O  O22  1  0.067527  0.752718  0.036236  1
  O  O23  1  0.932505  0.247273  0.963757  1
  O  O24  1  0.091267  0.705761  0.304857  1
  O  O25  1  0.908672  0.294201  0.695106  1
