# generated using pymatgen
data_LuNpB6Ru
_symmetry_space_group_name_H-M   'P 1'
_cell_length_a   3.56466300
_cell_length_b   9.16862200
_cell_length_c   11.20285500
_cell_angle_alpha   90.00000000
_cell_angle_beta   90.00000000
_cell_angle_gamma   90.00000000
_symmetry_Int_Tables_number   1
_chemical_formula_structural   LuNpB6Ru
_chemical_formula_sum   'Lu4 Np4 B24 Ru4'
_cell_volume   366.14344327
_cell_formula_units_Z   4
loop_
 _symmetry_equiv_pos_site_id
 _symmetry_equiv_pos_as_xyz
  1  'x, y, z'
loop_
 _atom_site_type_symbol
 _atom_site_label
 _atom_site_symmetry_multiplicity
 _atom_site_fract_x
 _atom_site_fract_y
 _atom_site_fract_z
 _atom_site_occupancy
  Lu  Lu0  1  0.000000  0.337571  0.406807  1
  Lu  Lu1  1  0.000000  0.662429  0.593193  1
  Lu  Lu2  1  0.000000  0.837571  0.093193  1
  Lu  Lu3  1  0.000000  0.162429  0.906807  1
  Np  Np4  1  0.000000  0.959348  0.401178  1
  Np  Np5  1  0.000000  0.040652  0.598822  1
  Np  Np6  1  0.000000  0.459348  0.098822  1
  Np  Np7  1  0.000000  0.540652  0.901178  1
  B  B8  1  0.500000  0.550816  0.432485  1
  B  B9  1  0.500000  0.449184  0.567515  1
  B  B10  1  0.500000  0.050816  0.067515  1
  B  B11  1  0.500000  0.949184  0.932485  1
  B  B12  1  0.500000  0.742568  0.424008  1
  B  B13  1  0.500000  0.257432  0.575992  1
  B  B14  1  0.500000  0.242568  0.075992  1
  B  B15  1  0.500000  0.757432  0.924008  1
  B  B16  1  0.500000  0.804543  0.274106  1
  B  B17  1  0.500000  0.195457  0.725894  1
  B  B18  1  0.500000  0.304543  0.225894  1
  B  B19  1  0.500000  0.695457  0.774106  1
  B  B20  1  0.500000  0.644488  0.189121  1
  B  B21  1  0.500000  0.355512  0.810879  1
  B  B22  1  0.500000  0.144488  0.310879  1
  B  B23  1  0.500000  0.855512  0.689121  1
  B  B24  1  0.500000  0.986780  0.219377  1
  B  B25  1  0.500000  0.013220  0.780623  1
  B  B26  1  0.500000  0.486780  0.280623  1
  B  B27  1  0.500000  0.513220  0.719377  1
  B  B28  1  0.500000  0.644410  0.040354  1
  B  B29  1  0.500000  0.355590  0.959646  1
  B  B30  1  0.500000  0.144410  0.459646  1
  B  B31  1  0.500000  0.855590  0.540354  1
  Ru  Ru32  1  0.000000  0.644897  0.320558  1
  Ru  Ru33  1  0.000000  0.355103  0.679442  1
  Ru  Ru34  1  0.000000  0.144897  0.179442  1
  Ru  Ru35  1  0.000000  0.855103  0.820558  1
