# generated using pymatgen
data_ZrSc2(AlNi)3
_symmetry_space_group_name_H-M   'P 1'
_cell_length_a   6.93554900
_cell_length_b   6.92908174
_cell_length_c   3.46539200
_cell_angle_alpha   90.00000000
_cell_angle_beta   90.00000000
_cell_angle_gamma   120.03087501
_symmetry_Int_Tables_number   1
_chemical_formula_structural   ZrSc2(AlNi)3
_chemical_formula_sum   'Zr1 Sc2 Al3 Ni3'
_cell_volume   144.17977004
_cell_formula_units_Z   1
loop_
 _symmetry_equiv_pos_site_id
 _symmetry_equiv_pos_as_xyz
  1  'x, y, z'
loop_
 _atom_site_type_symbol
 _atom_site_label
 _atom_site_symmetry_multiplicity
 _atom_site_fract_x
 _atom_site_fract_y
 _atom_site_fract_z
 _atom_site_occupancy
  Zr  Zr0  1  0.413579  0.000000  0.500000  1
  Sc  Sc1  1  0.999411  0.411083  0.500000  1
  Sc  Sc2  1  0.588328  0.588917  0.500000  1
  Al  Al3  1  0.998248  0.746549  0.000000  1
  Al  Al4  1  0.251699  0.253451  0.000000  1
  Al  Al5  1  0.750453  0.000000  0.000000  1
  Ni  Ni6  1  0.001866  0.000000  0.500000  1
  Ni  Ni7  1  0.333351  0.670286  0.000000  1
  Ni  Ni8  1  0.663066  0.329714  0.000000  1
