# generated using pymatgen
data_Ta9BeAl4
_symmetry_space_group_name_H-M   'P 1'
_cell_length_a   9.86958301
_cell_length_b   9.86958825
_cell_length_c   9.86958417
_cell_angle_alpha   93.86890872
_cell_angle_beta   93.86639464
_cell_angle_gamma   149.89361440
_symmetry_Int_Tables_number   1
_chemical_formula_structural   Ta9BeAl4
_chemical_formula_sum   'Ta18 Be2 Al8'
_cell_volume   465.68909545
_cell_formula_units_Z   2
loop_
 _symmetry_equiv_pos_site_id
 _symmetry_equiv_pos_as_xyz
  1  'x, y, z'
loop_
 _atom_site_type_symbol
 _atom_site_label
 _atom_site_symmetry_multiplicity
 _atom_site_fract_x
 _atom_site_fract_y
 _atom_site_fract_z
 _atom_site_occupancy
  Ta  Ta0  1  0.565246  0.790671  0.355918  1
  Ta  Ta1  1  0.076176  0.148827  0.225003  1
  Ta  Ta2  1  0.576176  0.351173  0.927348  1
  Ta  Ta3  1  0.648827  0.576172  0.225000  1
  Ta  Ta4  1  0.351173  0.423828  0.775000  1
  Ta  Ta5  1  0.790668  0.434753  0.225415  1
  Ta  Ta6  1  0.423824  0.648827  0.072652  1
  Ta  Ta7  1  0.148829  0.923828  0.072656  1
  Ta  Ta8  1  0.709338  0.934753  0.644085  1
  Ta  Ta9  1  0.434754  0.209329  0.644082  1
  Ta  Ta10  1  0.923824  0.851173  0.774997  1
  Ta  Ta11  1  0.065247  0.709329  0.774575  1
  Ta  Ta12  1  0.209332  0.565247  0.774585  1
  Ta  Ta13  1  0.250002  0.750000  0.500002  1
  Ta  Ta14  1  0.290662  0.065247  0.355915  1
  Ta  Ta15  1  0.749998  0.250000  0.499998  1
  Ta  Ta16  1  0.851171  0.076172  0.927344  1
  Ta  Ta17  1  0.934753  0.290671  0.225425  1
  Be  Be18  1  0.750000  0.750000  0.000000  1
  Be  Be19  1  0.250000  0.250000  0.000000  1
  Al  Al20  1  0.371879  0.871879  0.243758  1
  Al  Al21  1  0.871879  0.628121  0.499999  1
  Al  Al22  1  0.500000  0.000000  0.000000  1
  Al  Al23  1  0.128121  0.371879  0.500001  1
  Al  Al24  1  0.628121  0.128121  0.756242  1
  Al  Al25  1  0.000000  0.500000  0.000000  1
  Al  Al26  1  0.500000  0.500000  0.500000  1
  Al  Al27  1  0.000000  0.000000  0.500000  1
