# generated using pymatgen
data_Pr8Er12Ga15Hg
_symmetry_space_group_name_H-M   'P 1'
_cell_length_a   7.62018613
_cell_length_b   7.99795388
_cell_length_c   15.35679200
_cell_angle_alpha   90.07350066
_cell_angle_beta   90.12498756
_cell_angle_gamma   90.03255668
_symmetry_Int_Tables_number   1
_chemical_formula_structural   Pr8Er12Ga15Hg
_chemical_formula_sum   'Pr8 Er12 Ga15 Hg1'
_cell_volume   935.93031803
_cell_formula_units_Z   1
loop_
 _symmetry_equiv_pos_site_id
 _symmetry_equiv_pos_as_xyz
  1  'x, y, z'
loop_
 _atom_site_type_symbol
 _atom_site_label
 _atom_site_symmetry_multiplicity
 _atom_site_fract_x
 _atom_site_fract_y
 _atom_site_fract_z
 _atom_site_occupancy
  Pr  Pr0  1  0.488552  0.318292  0.904248  1
  Pr  Pr1  1  0.989809  0.179944  0.593960  1
  Pr  Pr2  1  0.510163  0.678384  0.406559  1
  Pr  Pr3  1  0.011394  0.825750  0.095241  1
  Pr  Pr4  1  0.500997  0.684569  0.097842  1
  Pr  Pr5  1  0.008977  0.819348  0.406454  1
  Pr  Pr6  1  0.490111  0.319674  0.593848  1
  Pr  Pr7  1  0.995040  0.177377  0.902575  1
  Er  Er8  1  0.337295  0.824887  0.875377  1
  Er  Er9  1  0.834607  0.675931  0.622836  1
  Er  Er10  1  0.665462  0.175951  0.377397  1
  Er  Er11  1  0.172561  0.323476  0.122962  1
  Er  Er12  1  0.657317  0.167109  0.126694  1
  Er  Er13  1  0.164857  0.324770  0.377830  1
  Er  Er14  1  0.334399  0.824248  0.622498  1
  Er  Er15  1  0.839439  0.680614  0.873208  1
  Er  Er16  1  0.174046  0.490047  0.749096  1
  Er  Er17  1  0.674378  0.013129  0.748730  1
  Er  Er18  1  0.826776  0.509662  0.253082  1
  Er  Er19  1  0.324469  0.988722  0.253952  1
  Ga  Ga20  1  0.338772  0.031436  0.038089  1
  Ga  Ga21  1  0.840495  0.467364  0.461363  1
  Ga  Ga22  1  0.658954  0.966840  0.538708  1
  Ga  Ga23  1  0.169002  0.534286  0.959320  1
  Ga  Ga24  1  0.662016  0.966900  0.961654  1
  Ga  Ga25  1  0.159174  0.532148  0.539553  1
  Ga  Ga26  1  0.340403  0.032598  0.460966  1
  Ga  Ga27  1  0.541768  0.614245  0.748741  1
  Ga  Ga28  1  0.042177  0.887610  0.747956  1
  Ga  Ga29  1  0.459026  0.386195  0.251860  1
  Ga  Ga30  1  0.958013  0.116052  0.249437  1
  Ga  Ga31  1  0.285736  0.121937  0.748592  1
  Ga  Ga32  1  0.785766  0.379635  0.750158  1
  Ga  Ga33  1  0.714505  0.876342  0.251734  1
  Ga  Ga34  1  0.212771  0.620868  0.249987  1
  Hg  Hg35  1  0.830769  0.463665  0.037494  1
