# generated using pymatgen
data_K3RbNi2P4(WO10)2
_symmetry_space_group_name_H-M   'P 1'
_cell_length_a   9.30495300
_cell_length_b   9.30495300
_cell_length_c   10.82662400
_cell_angle_alpha   90.00000000
_cell_angle_beta   90.00000000
_cell_angle_gamma   90.00000000
_symmetry_Int_Tables_number   1
_chemical_formula_structural   K3RbNi2P4(WO10)2
_chemical_formula_sum   'K6 Rb2 Ni4 P8 W4 O40'
_cell_volume   937.39238676
_cell_formula_units_Z   2
loop_
 _symmetry_equiv_pos_site_id
 _symmetry_equiv_pos_as_xyz
  1  'x, y, z'
loop_
 _atom_site_type_symbol
 _atom_site_label
 _atom_site_symmetry_multiplicity
 _atom_site_fract_x
 _atom_site_fract_y
 _atom_site_fract_z
 _atom_site_occupancy
  K  K0  1  0.785771  0.497936  0.293830  1
  K  K1  1  0.502064  0.214229  0.206170  1
  K  K2  1  0.497615  0.786501  0.706635  1
  K  K3  1  0.002302  0.286353  0.543893  1
  K  K4  1  0.713647  0.997698  0.956107  1
  K  K5  1  0.213499  0.502385  0.793365  1
  Rb  Rb6  1  0.000885  0.713098  0.049582  1
  Rb  Rb7  1  0.286902  0.999115  0.450418  1
  Ni  Ni8  1  0.634438  0.635257  0.999661  1
  Ni  Ni9  1  0.864514  0.135486  0.250000  1
  Ni  Ni10  1  0.364743  0.365562  0.500339  1
  Ni  Ni11  1  0.135671  0.864329  0.750000  1
  P  P12  1  0.332563  0.824418  0.001217  1
  P  P13  1  0.675242  0.829812  0.253401  1
  P  P14  1  0.175582  0.667437  0.498783  1
  P  P15  1  0.671867  0.178874  0.502436  1
  P  P16  1  0.829367  0.677253  0.747251  1
  P  P17  1  0.821126  0.328133  0.997564  1
  P  P18  1  0.322747  0.170633  0.752749  1
  P  P19  1  0.170188  0.324758  0.246599  1
  W  W20  1  0.111630  0.112351  0.999813  1
  W  W21  1  0.887649  0.888370  0.500187  1
  W  W22  1  0.611667  0.388333  0.750000  1
  W  W23  1  0.388971  0.611029  0.250000  1
  O  O24  1  0.457743  0.492754  0.368767  1
  O  O25  1  0.780018  0.760147  0.628110  1
  O  O26  1  0.256469  0.267114  0.356526  1
  O  O27  1  0.219048  0.239838  0.128428  1
  O  O28  1  0.216786  0.486054  0.218325  1
  O  O29  1  0.716811  0.016471  0.528689  1
  O  O30  1  0.236980  0.751718  0.608720  1
  O  O31  1  0.983529  0.283189  0.971311  1
  O  O32  1  0.782739  0.515574  0.721132  1
  O  O33  1  0.738867  0.279288  0.878139  1
  O  O34  1  0.316276  0.008630  0.733360  1
  O  O35  1  0.507246  0.542257  0.131233  1
  O  O36  1  0.262662  0.256147  0.643010  1
  O  O37  1  0.283213  0.985061  0.028266  1
  O  O38  1  0.956009  0.006287  0.380881  1
  O  O39  1  0.493681  0.456784  0.630985  1
  O  O40  1  0.720712  0.261133  0.621861  1
  O  O41  1  0.761746  0.241596  0.107120  1
  O  O42  1  0.494355  0.819167  0.981033  1
  O  O43  1  0.043922  0.994041  0.880711  1
  O  O44  1  0.005959  0.956078  0.619289  1
  O  O45  1  0.484426  0.217261  0.778868  1
  O  O46  1  0.682100  0.991680  0.233061  1
  O  O47  1  0.543216  0.506319  0.869015  1
  O  O48  1  0.014939  0.716787  0.471734  1
  O  O49  1  0.758403  0.238254  0.392880  1
  O  O50  1  0.258782  0.713219  0.379080  1
  O  O51  1  0.180833  0.505645  0.518967  1
  O  O52  1  0.812289  0.489574  0.017993  1
  O  O53  1  0.760162  0.780952  0.371572  1
  O  O54  1  0.286781  0.741218  0.120920  1
  O  O55  1  0.991370  0.683724  0.766640  1
  O  O56  1  0.513946  0.783214  0.281675  1
  O  O57  1  0.993713  0.043991  0.119119  1
  O  O58  1  0.248281  0.763020  0.891280  1
  O  O59  1  0.239853  0.219982  0.871890  1
  O  O60  1  0.743854  0.737338  0.856990  1
  O  O61  1  0.732886  0.743532  0.143474  1
  O  O62  1  0.008320  0.317900  0.266939  1
  O  O63  1  0.510426  0.187711  0.482007  1
