# generated using pymatgen
data_Gd4Al18AgIr5
_symmetry_space_group_name_H-M   'P 1'
_cell_length_a   7.56370746
_cell_length_b   7.56370799
_cell_length_c   9.46207700
_cell_angle_alpha   90.03564838
_cell_angle_beta   90.03564839
_cell_angle_gamma   119.67256540
_symmetry_Int_Tables_number   1
_chemical_formula_structural   Gd4Al18AgIr5
_chemical_formula_sum   'Gd4 Al18 Ag1 Ir5'
_cell_volume   470.33765656
_cell_formula_units_Z   1
loop_
 _symmetry_equiv_pos_site_id
 _symmetry_equiv_pos_as_xyz
  1  'x, y, z'
loop_
 _atom_site_type_symbol
 _atom_site_label
 _atom_site_symmetry_multiplicity
 _atom_site_fract_x
 _atom_site_fract_y
 _atom_site_fract_z
 _atom_site_occupancy
  Gd  Gd0  1  0.995946  0.672934  0.250949  1
  Gd  Gd1  1  0.004054  0.327066  0.749051  1
  Gd  Gd2  1  0.672934  0.995946  0.250949  1
  Gd  Gd3  1  0.327066  0.004054  0.749051  1
  Al  Al4  1  0.135048  0.135048  0.256226  1
  Al  Al5  1  0.864952  0.864952  0.743774  1
  Al  Al6  1  0.002240  0.344280  0.079519  1
  Al  Al7  1  0.997760  0.655720  0.920481  1
  Al  Al8  1  0.999907  0.664564  0.573689  1
  Al  Al9  1  0.335436  0.000093  0.426311  1
  Al  Al10  1  0.000093  0.335436  0.426311  1
  Al  Al11  1  0.664564  0.999907  0.573689  1
  Al  Al12  1  0.655720  0.997760  0.920481  1
  Al  Al13  1  0.344280  0.002240  0.079519  1
  Al  Al14  1  0.333134  0.333134  0.551340  1
  Al  Al15  1  0.666866  0.666866  0.448660  1
  Al  Al16  1  0.657821  0.657821  0.058843  1
  Al  Al17  1  0.342179  0.342179  0.941157  1
  Al  Al18  1  0.339666  0.549758  0.251383  1
  Al  Al19  1  0.660334  0.450242  0.748617  1
  Al  Al20  1  0.549758  0.339666  0.251383  1
  Al  Al21  1  0.450242  0.660334  0.748617  1
  Ag  Ag22  1  0.000000  0.000000  0.000000  1
  Ir  Ir23  1  0.671736  0.328264  0.000000  1
  Ir  Ir24  1  0.328264  0.671736  0.000000  1
  Ir  Ir25  1  0.328318  0.671682  0.500000  1
  Ir  Ir26  1  0.671682  0.328318  0.500000  1
  Ir  Ir27  1  0.000000  0.000000  0.500000  1
