# generated using pymatgen
data_DyLu9(IrPt2)2
_symmetry_space_group_name_H-M   'P 1'
_cell_length_a   10.84903224
_cell_length_b   10.85052500
_cell_length_c   6.27322313
_cell_angle_alpha   90.00000000
_cell_angle_beta   90.02385574
_cell_angle_gamma   90.00000000
_symmetry_Int_Tables_number   1
_chemical_formula_structural   DyLu9(IrPt2)2
_chemical_formula_sum   'Dy2 Lu18 Ir4 Pt8'
_cell_volume   738.46930688
_cell_formula_units_Z   2
loop_
 _symmetry_equiv_pos_site_id
 _symmetry_equiv_pos_as_xyz
  1  'x, y, z'
loop_
 _atom_site_type_symbol
 _atom_site_label
 _atom_site_symmetry_multiplicity
 _atom_site_fract_x
 _atom_site_fract_y
 _atom_site_fract_z
 _atom_site_occupancy
  Dy  Dy0  1  0.087313  0.705898  0.626216  1
  Dy  Dy1  1  0.087313  0.294102  0.126216  1
  Lu  Lu2  1  0.296592  0.086041  0.375533  1
  Lu  Lu3  1  0.296592  0.913959  0.875533  1
  Lu  Lu4  1  0.704058  0.086755  0.874545  1
  Lu  Lu5  1  0.704058  0.913245  0.374545  1
  Lu  Lu6  1  0.586810  0.795665  0.874871  1
  Lu  Lu7  1  0.586810  0.204335  0.374871  1
  Lu  Lu8  1  0.413492  0.795806  0.374639  1
  Lu  Lu9  1  0.413492  0.204194  0.874639  1
  Lu  Lu10  1  0.204679  0.412933  0.625342  1
  Lu  Lu11  1  0.204679  0.587067  0.125342  1
  Lu  Lu12  1  0.794712  0.413647  0.125325  1
  Lu  Lu13  1  0.794712  0.586353  0.625325  1
  Lu  Lu14  1  0.912217  0.704075  0.125449  1
  Lu  Lu15  1  0.912217  0.295925  0.625449  1
  Lu  Lu16  1  0.999310  0.000758  0.499493  1
  Lu  Lu17  1  0.999310  0.999242  0.999493  1
  Lu  Lu18  1  0.500142  0.499981  0.999740  1
  Lu  Lu19  1  0.500142  0.500019  0.499740  1
  Ir  Ir20  1  0.500249  0.999975  0.121588  1
  Ir  Ir21  1  0.500249  0.000025  0.621588  1
  Ir  Ir22  1  0.998962  0.500138  0.878510  1
  Ir  Ir23  1  0.998962  0.499862  0.378510  1
  Pt  Pt24  1  0.845655  0.153417  0.250413  1
  Pt  Pt25  1  0.845655  0.846583  0.750413  1
  Pt  Pt26  1  0.154240  0.152663  0.747707  1
  Pt  Pt27  1  0.154240  0.847337  0.247707  1
  Pt  Pt28  1  0.653802  0.346385  0.749996  1
  Pt  Pt29  1  0.653802  0.653615  0.249996  1
  Pt  Pt30  1  0.347766  0.346576  0.250630  1
  Pt  Pt31  1  0.347766  0.653424  0.750630  1
