# generated using pymatgen
data_Rb4HfTcI12
_symmetry_space_group_name_H-M   'P 1'
_cell_length_a   8.80838431
_cell_length_b   8.35729563
_cell_length_c   14.27736443
_cell_angle_alpha   54.46364280
_cell_angle_beta   90.01401510
_cell_angle_gamma   90.10057928
_symmetry_Int_Tables_number   1
_chemical_formula_structural   Rb4HfTcI12
_chemical_formula_sum   'Rb4 Hf1 Tc1 I12'
_cell_volume   855.26072297
_cell_formula_units_Z   1
loop_
 _symmetry_equiv_pos_site_id
 _symmetry_equiv_pos_as_xyz
  1  'x, y, z'
loop_
 _atom_site_type_symbol
 _atom_site_label
 _atom_site_symmetry_multiplicity
 _atom_site_fract_x
 _atom_site_fract_y
 _atom_site_fract_z
 _atom_site_occupancy
  Rb  Rb0  1  0.424314  0.727635  0.251535  1
  Rb  Rb1  1  0.924946  0.260489  0.254866  1
  Rb  Rb2  1  0.075054  0.739511  0.745134  1
  Rb  Rb3  1  0.575686  0.272365  0.748465  1
  Hf  Hf4  1  0.000000  0.000000  0.000000  1
  Tc  Tc5  1  0.500000  0.000000  0.500000  1
  I  I6  1  0.823769  0.320565  0.963476  1
  I  I7  1  0.507220  0.159121  0.268382  1
  I  I8  1  0.492780  0.840879  0.731618  1
  I  I9  1  0.275810  0.211589  0.968021  1
  I  I10  1  0.321763  0.693337  0.537938  1
  I  I11  1  0.239543  0.214375  0.464731  1
  I  I12  1  0.176231  0.679435  0.036524  1
  I  I13  1  0.760457  0.785625  0.535269  1
  I  I14  1  0.724190  0.788411  0.031979  1
  I  I15  1  0.006532  0.824256  0.241899  1
  I  I16  1  0.993468  0.175744  0.758101  1
  I  I17  1  0.678237  0.306663  0.462062  1
