# generated using pymatgen
data_Yb3HoOs5Ru3
_symmetry_space_group_name_H-M   'P 1'
_cell_length_a   5.26379011
_cell_length_b   5.18996740
_cell_length_c   8.93910286
_cell_angle_alpha   90.00242227
_cell_angle_beta   89.95501480
_cell_angle_gamma   119.51579691
_symmetry_Int_Tables_number   1
_chemical_formula_structural   Yb3HoOs5Ru3
_chemical_formula_sum   'Yb3 Ho1 Os5 Ru3'
_cell_volume   212.51322877
_cell_formula_units_Z   1
loop_
 _symmetry_equiv_pos_site_id
 _symmetry_equiv_pos_as_xyz
  1  'x, y, z'
loop_
 _atom_site_type_symbol
 _atom_site_label
 _atom_site_symmetry_multiplicity
 _atom_site_fract_x
 _atom_site_fract_y
 _atom_site_fract_z
 _atom_site_occupancy
  Yb  Yb0  1  0.332004  0.666005  0.430580  1
  Yb  Yb1  1  0.332017  0.665955  0.065571  1
  Yb  Yb2  1  0.666016  0.333004  0.939310  1
  Ho  Ho3  1  0.667048  0.333530  0.566875  1
  Os  Os4  1  0.174010  0.344808  0.749213  1
  Os  Os5  1  0.174218  0.828955  0.749217  1
  Os  Os6  1  0.660647  0.830140  0.750207  1
  Os  Os7  1  0.835603  0.661738  0.249970  1
  Os  Os8  1  0.834494  0.174489  0.249957  1
  Ru  Ru9  1  0.987578  0.993701  0.498892  1
  Ru  Ru10  1  0.986767  0.993322  0.999124  1
  Ru  Ru11  1  0.349594  0.174353  0.251083  1
