# generated using pymatgen
data_Cs(CrSe2)3
_symmetry_space_group_name_H-M   'P 1'
_cell_length_a   6.16742207
_cell_length_b   6.16742166
_cell_length_c   9.19032993
_cell_angle_alpha   96.43118499
_cell_angle_beta   96.43118291
_cell_angle_gamma   120.27724819
_symmetry_Int_Tables_number   1
_chemical_formula_structural   Cs(CrSe2)3
_chemical_formula_sum   'Cs1 Cr3 Se6'
_cell_volume   294.15190004
_cell_formula_units_Z   1
loop_
 _symmetry_equiv_pos_site_id
 _symmetry_equiv_pos_as_xyz
  1  'x, y, z'
loop_
 _atom_site_type_symbol
 _atom_site_label
 _atom_site_symmetry_multiplicity
 _atom_site_fract_x
 _atom_site_fract_y
 _atom_site_fract_z
 _atom_site_occupancy
  Cs  Cs0  1  0.000000  0.000000  0.500000  1
  Cr  Cr1  1  0.835468  0.164532  0.000000  1
  Cr  Cr2  1  0.500000  0.500000  0.000000  1
  Cr  Cr3  1  0.164532  0.835468  0.000000  1
  Se  Se4  1  0.223674  0.223674  0.162821  1
  Se  Se5  1  0.886832  0.550283  0.161451  1
  Se  Se6  1  0.550283  0.886832  0.161451  1
  Se  Se7  1  0.449717  0.113168  0.838550  1
  Se  Se8  1  0.113168  0.449717  0.838550  1
  Se  Se9  1  0.776328  0.776328  0.837180  1
