# generated using pymatgen
data_YTh7TiSe17
_symmetry_space_group_name_H-M   'P 1'
_cell_length_a   8.46068234
_cell_length_b   8.44443641
_cell_length_c   11.19405552
_cell_angle_alpha   80.57212050
_cell_angle_beta   80.40863673
_cell_angle_gamma   64.88782509
_symmetry_Int_Tables_number   1
_chemical_formula_structural   YTh7TiSe17
_chemical_formula_sum   'Y1 Th7 Ti1 Se17'
_cell_volume   710.15670824
_cell_formula_units_Z   1
loop_
 _symmetry_equiv_pos_site_id
 _symmetry_equiv_pos_as_xyz
  1  'x, y, z'
loop_
 _atom_site_type_symbol
 _atom_site_label
 _atom_site_symmetry_multiplicity
 _atom_site_fract_x
 _atom_site_fract_y
 _atom_site_fract_z
 _atom_site_occupancy
  Y  Y0  1  0.813581  0.302698  0.297262  1
  Th  Th1  1  0.300261  0.814039  0.294408  1
  Th  Th2  1  0.185100  0.699588  0.702765  1
  Th  Th3  1  0.699540  0.187115  0.701813  1
  Th  Th4  1  0.204160  0.203998  0.541206  1
  Th  Th5  1  0.795194  0.797823  0.455016  1
  Th  Th6  1  0.683090  0.679066  0.983504  1
  Th  Th7  1  0.318358  0.317357  0.021357  1
  Ti  Ti8  1  0.999771  0.002044  0.001172  1
  Se  Se9  1  0.823152  0.431086  0.530551  1
  Se  Se10  1  0.432985  0.820629  0.531289  1
  Se  Se11  1  0.178424  0.567463  0.467611  1
  Se  Se12  1  0.569746  0.178632  0.468499  1
  Se  Se13  1  0.942594  0.321564  0.029350  1
  Se  Se14  1  0.324034  0.942379  0.026070  1
  Se  Se15  1  0.057259  0.678041  0.971954  1
  Se  Se16  1  0.677090  0.057871  0.972102  1
  Se  Se17  1  0.207369  0.207487  0.276745  1
  Se  Se18  1  0.790843  0.790387  0.724024  1
  Se  Se19  1  0.061623  0.061267  0.772874  1
  Se  Se20  1  0.936441  0.944741  0.228373  1
  Se  Se21  1  0.303034  0.304493  0.754715  1
  Se  Se22  1  0.695780  0.693732  0.245775  1
  Se  Se23  1  0.519750  0.521430  0.832834  1
  Se  Se24  1  0.478455  0.479979  0.165397  1
  Se  Se25  1  0.002365  0.995092  0.503334  1
