# generated using pymatgen
data_Ba2GaAsS5
_symmetry_space_group_name_H-M   'P 1'
_cell_length_a   8.83886000
_cell_length_b   9.09337300
_cell_length_c   12.34005600
_cell_angle_alpha   90.00000000
_cell_angle_beta   90.00000000
_cell_angle_gamma   90.00000000
_symmetry_Int_Tables_number   1
_chemical_formula_structural   Ba2GaAsS5
_chemical_formula_sum   'Ba8 Ga4 As4 S20'
_cell_volume   991.83262880
_cell_formula_units_Z   4
loop_
 _symmetry_equiv_pos_site_id
 _symmetry_equiv_pos_as_xyz
  1  'x, y, z'
loop_
 _atom_site_type_symbol
 _atom_site_label
 _atom_site_symmetry_multiplicity
 _atom_site_fract_x
 _atom_site_fract_y
 _atom_site_fract_z
 _atom_site_occupancy
  Ba  Ba0  1  0.993983  0.134045  0.674283  1
  Ba  Ba1  1  0.506017  0.365955  0.174283  1
  Ba  Ba2  1  0.493983  0.865955  0.325717  1
  Ba  Ba3  1  0.006017  0.634045  0.825717  1
  Ba  Ba4  1  0.006017  0.865955  0.325717  1
  Ba  Ba5  1  0.493983  0.634045  0.825717  1
  Ba  Ba6  1  0.506017  0.134045  0.674283  1
  Ba  Ba7  1  0.993983  0.365955  0.174283  1
  Ga  Ga8  1  0.250000  0.833663  0.596569  1
  Ga  Ga9  1  0.250000  0.666337  0.096569  1
  Ga  Ga10  1  0.750000  0.166337  0.403431  1
  Ga  Ga11  1  0.750000  0.333663  0.903431  1
  As  As12  1  0.250000  0.495960  0.537371  1
  As  As13  1  0.250000  0.004040  0.037371  1
  As  As14  1  0.750000  0.504040  0.462629  1
  As  As15  1  0.750000  0.995960  0.962629  1
  S  S16  1  0.054388  0.668719  0.557374  1
  S  S17  1  0.445612  0.831281  0.057374  1
  S  S18  1  0.554388  0.331281  0.442626  1
  S  S19  1  0.945612  0.168719  0.942626  1
  S  S20  1  0.945612  0.331281  0.442626  1
  S  S21  1  0.554388  0.168719  0.942626  1
  S  S22  1  0.445612  0.668719  0.557374  1
  S  S23  1  0.054388  0.831281  0.057374  1
  S  S24  1  0.750000  0.967506  0.509686  1
  S  S25  1  0.750000  0.532494  0.009686  1
  S  S26  1  0.250000  0.032494  0.490314  1
  S  S27  1  0.250000  0.467506  0.990314  1
  S  S28  1  0.250000  0.895977  0.772988  1
  S  S29  1  0.250000  0.604023  0.272988  1
  S  S30  1  0.750000  0.104023  0.227012  1
  S  S31  1  0.750000  0.395977  0.727012  1
  S  S32  1  0.250000  0.400227  0.707718  1
  S  S33  1  0.250000  0.099773  0.207718  1
  S  S34  1  0.750000  0.599773  0.292282  1
  S  S35  1  0.750000  0.900227  0.792282  1
