# generated using pymatgen
data_La11Pr5(CdIr)4
_symmetry_space_group_name_H-M   'P 1'
_cell_length_a   10.10578615
_cell_length_b   10.09952091
_cell_length_c   10.09952065
_cell_angle_alpha   59.98354243
_cell_angle_beta   59.97946862
_cell_angle_gamma   59.97947431
_symmetry_Int_Tables_number   1
_chemical_formula_structural   La11Pr5(CdIr)4
_chemical_formula_sum   'La11 Pr5 Cd4 Ir4'
_cell_volume   728.56415723
_cell_formula_units_Z   1
loop_
 _symmetry_equiv_pos_site_id
 _symmetry_equiv_pos_as_xyz
  1  'x, y, z'
loop_
 _atom_site_type_symbol
 _atom_site_label
 _atom_site_symmetry_multiplicity
 _atom_site_fract_x
 _atom_site_fract_y
 _atom_site_fract_z
 _atom_site_occupancy
  La  La0  1  0.347752  0.347124  0.347124  1
  La  La1  1  0.347645  0.347306  0.957404  1
  La  La2  1  0.347645  0.957404  0.347306  1
  La  La3  1  0.957999  0.347124  0.347124  1
  La  La4  1  0.809688  0.190312  0.190312  1
  La  La5  1  0.190560  0.809440  0.809440  1
  La  La6  1  0.190698  0.809933  0.189921  1
  La  La7  1  0.809448  0.189921  0.809933  1
  La  La8  1  0.190698  0.189921  0.809933  1
  La  La9  1  0.809448  0.809933  0.189921  1
  La  La10  1  0.937927  0.562073  0.562073  1
  Pr  Pr11  1  0.562467  0.937533  0.937533  1
  Pr  Pr12  1  0.562162  0.938029  0.562534  1
  Pr  Pr13  1  0.937275  0.562534  0.938029  1
  Pr  Pr14  1  0.562162  0.562534  0.938029  1
  Pr  Pr15  1  0.937275  0.938029  0.562534  1
  Cd  Cd16  1  0.579192  0.579814  0.579814  1
  Cd  Cd17  1  0.579798  0.579709  0.260693  1
  Cd  Cd18  1  0.579798  0.260693  0.579709  1
  Cd  Cd19  1  0.261178  0.579814  0.579814  1
  Ir  Ir20  1  0.140907  0.141342  0.141342  1
  Ir  Ir21  1  0.140933  0.141448  0.576686  1
  Ir  Ir22  1  0.140933  0.576686  0.141448  1
  Ir  Ir23  1  0.576410  0.141342  0.141342  1
