# generated using pymatgen
data_Ta12Al7Si(IrC)4
_symmetry_space_group_name_H-M   'P 1'
_cell_length_a   8.30231830
_cell_length_b   8.30231855
_cell_length_c   8.30231810
_cell_angle_alpha   60.01472508
_cell_angle_beta   60.01472724
_cell_angle_gamma   60.01472035
_symmetry_Int_Tables_number   1
_chemical_formula_structural   Ta12Al7Si(IrC)4
_chemical_formula_sum   'Ta12 Al7 Si1 Ir4 C4'
_cell_volume   404.78842837
_cell_formula_units_Z   1
loop_
 _symmetry_equiv_pos_site_id
 _symmetry_equiv_pos_as_xyz
  1  'x, y, z'
loop_
 _atom_site_type_symbol
 _atom_site_label
 _atom_site_symmetry_multiplicity
 _atom_site_fract_x
 _atom_site_fract_y
 _atom_site_fract_z
 _atom_site_occupancy
  Ta  Ta0  1  0.564810  0.934854  0.564810  1
  Ta  Ta1  1  0.315249  0.685079  0.685079  1
  Ta  Ta2  1  0.685950  0.314074  0.314074  1
  Ta  Ta3  1  0.314074  0.685950  0.314074  1
  Ta  Ta4  1  0.685079  0.685079  0.315249  1
  Ta  Ta5  1  0.314074  0.314074  0.685950  1
  Ta  Ta6  1  0.564810  0.564810  0.934854  1
  Ta  Ta7  1  0.934854  0.564810  0.564810  1
  Ta  Ta8  1  0.567382  0.935721  0.935721  1
  Ta  Ta9  1  0.935721  0.935721  0.567382  1
  Ta  Ta10  1  0.685079  0.315249  0.685079  1
  Ta  Ta11  1  0.935721  0.567382  0.935721  1
  Al  Al12  1  0.999953  0.333507  0.333507  1
  Al  Al13  1  0.333507  0.999953  0.333507  1
  Al  Al14  1  0.333507  0.333507  0.999953  1
  Al  Al15  1  0.917032  0.251670  0.917032  1
  Al  Al16  1  0.917032  0.917032  0.251670  1
  Al  Al17  1  0.251670  0.917032  0.917032  1
  Al  Al18  1  0.332951  0.332951  0.332951  1
  Si  Si19  1  0.915455  0.915455  0.915455  1
  Ir  Ir20  1  0.125059  0.125059  0.125059  1
  Ir  Ir21  1  0.629941  0.120631  0.120631  1
  Ir  Ir22  1  0.120631  0.629941  0.120631  1
  Ir  Ir23  1  0.120631  0.120631  0.629941  1
  C  C24  1  0.624812  0.624812  0.624812  1
  C  C25  1  0.125146  0.624932  0.624932  1
  C  C26  1  0.624932  0.125146  0.624932  1
  C  C27  1  0.624932  0.624932  0.125146  1
