# generated using pymatgen
data_Pr2Ga4GeRh3
_symmetry_space_group_name_H-M   'P 1'
_cell_length_a   8.65353605
_cell_length_b   8.73264757
_cell_length_c   8.73264666
_cell_angle_alpha   141.14016870
_cell_angle_beta   108.16018895
_cell_angle_gamma   84.93219266
_symmetry_Int_Tables_number   1
_chemical_formula_structural   Pr2Ga4GeRh3
_chemical_formula_sum   'Pr4 Ga8 Ge2 Rh6'
_cell_volume   379.99947780
_cell_formula_units_Z   2
loop_
 _symmetry_equiv_pos_site_id
 _symmetry_equiv_pos_as_xyz
  1  'x, y, z'
loop_
 _atom_site_type_symbol
 _atom_site_label
 _atom_site_symmetry_multiplicity
 _atom_site_fract_x
 _atom_site_fract_y
 _atom_site_fract_z
 _atom_site_occupancy
  Pr  Pr0  1  0.861937  0.632929  0.229007  1
  Pr  Pr1  1  0.138063  0.367071  0.770993  1
  Pr  Pr2  1  0.593082  0.863386  0.729697  1
  Pr  Pr3  1  0.406918  0.136614  0.270303  1
  Ga  Ga4  1  0.500000  0.752824  0.252824  1
  Ga  Ga5  1  0.500000  0.247176  0.747176  1
  Ga  Ga6  1  0.211343  0.960660  0.748033  1
  Ga  Ga7  1  0.788657  0.536689  0.749317  1
  Ga  Ga8  1  0.788657  0.039340  0.251967  1
  Ga  Ga9  1  0.211343  0.463311  0.250683  1
  Ga  Ga10  1  0.074089  0.907743  0.166347  1
  Ga  Ga11  1  0.925911  0.092257  0.833653  1
  Ge  Ge12  1  0.260383  0.594027  0.666356  1
  Ge  Ge13  1  0.739617  0.405973  0.333644  1
  Rh  Rh14  1  0.257365  0.855026  0.402339  1
  Rh  Rh15  1  0.742635  0.144974  0.597661  1
  Rh  Rh16  1  0.547215  0.644280  0.902934  1
  Rh  Rh17  1  0.452785  0.355720  0.097066  1
  Rh  Rh18  1  0.000000  0.747567  0.747567  1
  Rh  Rh19  1  0.000000  0.252433  0.252433  1
