# generated using pymatgen
data_Dy3Er4Tm(CdIr)2
_symmetry_space_group_name_H-M   'P 1'
_cell_length_a   9.56948402
_cell_length_b   9.56948424
_cell_length_c   9.56693500
_cell_angle_alpha   60.00881525
_cell_angle_beta   60.00881451
_cell_angle_gamma   59.98237111
_symmetry_Int_Tables_number   1
_chemical_formula_structural   Dy3Er4Tm(CdIr)2
_chemical_formula_sum   'Dy6 Er8 Tm2 Cd4 Ir4'
_cell_volume   619.49074099
_cell_formula_units_Z   2
loop_
 _symmetry_equiv_pos_site_id
 _symmetry_equiv_pos_as_xyz
  1  'x, y, z'
loop_
 _atom_site_type_symbol
 _atom_site_label
 _atom_site_symmetry_multiplicity
 _atom_site_fract_x
 _atom_site_fract_y
 _atom_site_fract_z
 _atom_site_occupancy
  Dy  Dy0  1  0.188653  0.811347  0.811347  1
  Dy  Dy1  1  0.811347  0.188653  0.188653  1
  Dy  Dy2  1  0.811347  0.188653  0.811347  1
  Dy  Dy3  1  0.188653  0.811347  0.188653  1
  Dy  Dy4  1  0.811447  0.811447  0.188553  1
  Dy  Dy5  1  0.188553  0.188553  0.811447  1
  Er  Er6  1  0.598728  0.598728  0.598877  1
  Er  Er7  1  0.598728  0.598728  0.203667  1
  Er  Er8  1  0.598877  0.203667  0.598728  1
  Er  Er9  1  0.203667  0.598877  0.598728  1
  Er  Er10  1  0.061381  0.438619  0.438619  1
  Er  Er11  1  0.438619  0.061381  0.061381  1
  Er  Er12  1  0.438619  0.061381  0.438619  1
  Er  Er13  1  0.061381  0.438619  0.061381  1
  Tm  Tm14  1  0.438745  0.438745  0.061255  1
  Tm  Tm15  1  0.061255  0.061255  0.438745  1
  Cd  Cd16  1  0.830720  0.830720  0.830615  1
  Cd  Cd17  1  0.830720  0.830720  0.507945  1
  Cd  Cd18  1  0.830615  0.507945  0.830720  1
  Cd  Cd19  1  0.507945  0.830615  0.830720  1
  Ir  Ir20  1  0.391789  0.391789  0.391364  1
  Ir  Ir21  1  0.391789  0.391789  0.825059  1
  Ir  Ir22  1  0.391364  0.825059  0.391789  1
  Ir  Ir23  1  0.825059  0.391364  0.391789  1
