# generated using pymatgen
data_HoTm3(IrO4)4
_symmetry_space_group_name_H-M   'P 1'
_cell_length_a   5.30475159
_cell_length_b   7.35924620
_cell_length_c   7.58612618
_cell_angle_alpha   81.16602087
_cell_angle_beta   89.95959551
_cell_angle_gamma   90.02919225
_symmetry_Int_Tables_number   1
_chemical_formula_structural   HoTm3(IrO4)4
_chemical_formula_sum   'Ho1 Tm3 Ir4 O16'
_cell_volume   292.64130537
_cell_formula_units_Z   1
loop_
 _symmetry_equiv_pos_site_id
 _symmetry_equiv_pos_as_xyz
  1  'x, y, z'
loop_
 _atom_site_type_symbol
 _atom_site_label
 _atom_site_symmetry_multiplicity
 _atom_site_fract_x
 _atom_site_fract_y
 _atom_site_fract_z
 _atom_site_occupancy
  Ho  Ho0  1  0.219033  0.611856  0.649274  1
  Tm  Tm1  1  0.718368  0.887513  0.350049  1
  Tm  Tm2  1  0.281686  0.112708  0.649537  1
  Tm  Tm3  1  0.781328  0.387170  0.350276  1
  Ir  Ir4  1  0.771629  0.300160  0.839350  1
  Ir  Ir5  1  0.228666  0.699435  0.160887  1
  Ir  Ir6  1  0.271140  0.199233  0.161202  1
  Ir  Ir7  1  0.728725  0.800969  0.839094  1
  O  O8  1  0.904449  0.808825  0.063386  1
  O  O9  1  0.095995  0.191317  0.936436  1
  O  O10  1  0.381091  0.943900  0.169271  1
  O  O11  1  0.618859  0.056033  0.831028  1
  O  O12  1  0.118860  0.443791  0.169203  1
  O  O13  1  0.879121  0.555922  0.831939  1
  O  O14  1  0.595607  0.308649  0.063618  1
  O  O15  1  0.405180  0.691627  0.936919  1
  O  O16  1  0.976341  0.324196  0.608287  1
  O  O17  1  0.021613  0.675514  0.389970  1
  O  O18  1  0.476578  0.175234  0.391434  1
  O  O19  1  0.525063  0.826348  0.608326  1
  O  O20  1  0.519635  0.617530  0.310596  1
  O  O21  1  0.481924  0.380695  0.689601  1
  O  O22  1  0.980008  0.117575  0.310395  1
  O  O23  1  0.019101  0.883799  0.689924  1
