# generated using pymatgen
data_Dy5Cr2Si12Ir17
_symmetry_space_group_name_H-M   'P 1'
_cell_length_a   12.86768700
_cell_length_b   12.84874948
_cell_length_c   3.98774400
_cell_angle_alpha   90.00000000
_cell_angle_beta   90.00000000
_cell_angle_gamma   120.04877014
_symmetry_Int_Tables_number   1
_chemical_formula_structural   Dy5Cr2Si12Ir17
_chemical_formula_sum   'Dy5 Cr2 Si12 Ir17'
_cell_volume   570.69702961
_cell_formula_units_Z   1
loop_
 _symmetry_equiv_pos_site_id
 _symmetry_equiv_pos_as_xyz
  1  'x, y, z'
loop_
 _atom_site_type_symbol
 _atom_site_label
 _atom_site_symmetry_multiplicity
 _atom_site_fract_x
 _atom_site_fract_y
 _atom_site_fract_z
 _atom_site_occupancy
  Dy  Dy0  1  0.333355  0.666743  0.500000  1
  Dy  Dy1  1  0.666613  0.333257  0.500000  1
  Dy  Dy2  1  0.001819  0.815050  0.000000  1
  Dy  Dy3  1  0.186769  0.184950  0.000000  1
  Dy  Dy4  1  0.815536  0.000000  0.000000  1
  Cr  Cr5  1  0.999589  0.441527  0.500000  1
  Cr  Cr6  1  0.558062  0.558473  0.500000  1
  Si  Si7  1  0.000185  0.632405  0.500000  1
  Si  Si8  1  0.367780  0.367595  0.500000  1
  Si  Si9  1  0.629774  0.000000  0.500000  1
  Si  Si10  1  0.518275  0.688381  0.000000  1
  Si  Si11  1  0.311484  0.831110  0.000000  1
  Si  Si12  1  0.171113  0.480886  0.000000  1
  Si  Si13  1  0.480374  0.168890  0.000000  1
  Si  Si14  1  0.690227  0.519114  0.000000  1
  Si  Si15  1  0.829895  0.311619  0.000000  1
  Si  Si16  1  0.999510  0.182946  0.500000  1
  Si  Si17  1  0.816564  0.817054  0.500000  1
  Si  Si18  1  0.180704  0.000000  0.500000  1
  Ir  Ir19  1  0.512093  0.874317  0.000000  1
  Ir  Ir20  1  0.127337  0.637639  0.000000  1
  Ir  Ir21  1  0.363245  0.487099  0.000000  1
  Ir  Ir22  1  0.489698  0.362361  0.000000  1
  Ir  Ir23  1  0.876146  0.512901  0.000000  1
  Ir  Ir24  1  0.637776  0.125683  0.000000  1
  Ir  Ir25  1  0.445926  0.000000  0.500000  1
  Ir  Ir26  1  0.999199  0.282076  0.000000  1
  Ir  Ir27  1  0.717123  0.717924  0.000000  1
  Ir  Ir28  1  0.282489  0.000000  0.000000  1
  Ir  Ir29  1  0.622080  0.805422  0.500000  1
  Ir  Ir30  1  0.193414  0.818455  0.500000  1
  Ir  Ir31  1  0.181303  0.376211  0.500000  1
  Ir  Ir32  1  0.374958  0.181545  0.500000  1
  Ir  Ir33  1  0.805091  0.623789  0.500000  1
  Ir  Ir34  1  0.816657  0.194578  0.500000  1
  Ir  Ir35  1  0.997837  0.000000  0.500000  1
