# generated using pymatgen
data_ThU(Sb2Pd)2
_symmetry_space_group_name_H-M   'P 1'
_cell_length_a   4.45357700
_cell_length_b   4.41897100
_cell_length_c   9.73576600
_cell_angle_alpha   90.00000000
_cell_angle_beta   90.00000000
_cell_angle_gamma   90.00000000
_symmetry_Int_Tables_number   1
_chemical_formula_structural   ThU(Sb2Pd)2
_chemical_formula_sum   'Th1 U1 Sb4 Pd2'
_cell_volume   191.60209083
_cell_formula_units_Z   1
loop_
 _symmetry_equiv_pos_site_id
 _symmetry_equiv_pos_as_xyz
  1  'x, y, z'
loop_
 _atom_site_type_symbol
 _atom_site_label
 _atom_site_symmetry_multiplicity
 _atom_site_fract_x
 _atom_site_fract_y
 _atom_site_fract_z
 _atom_site_occupancy
  Th  Th0  1  0.000000  0.500000  0.745923  1
  U  U1  1  0.500000  0.000000  0.257054  1
  Sb  Sb2  1  0.000000  0.500000  0.322298  1
  Sb  Sb3  1  0.500000  0.000000  0.666576  1
  Sb  Sb4  1  0.000000  0.000000  0.008876  1
  Sb  Sb5  1  0.500000  0.500000  0.008746  1
  Pd  Pd6  1  0.000000  0.000000  0.494895  1
  Pd  Pd7  1  0.500000  0.500000  0.495632  1
