# generated using pymatgen
data_Tb3Er17(Bi2Te)4
_symmetry_space_group_name_H-M   'P 1'
_cell_length_a   8.16717607
_cell_length_b   9.43657600
_cell_length_c   11.98126400
_cell_angle_alpha   90.00000000
_cell_angle_beta   90.12051717
_cell_angle_gamma   90.00000000
_symmetry_Int_Tables_number   1
_chemical_formula_structural   Tb3Er17(Bi2Te)4
_chemical_formula_sum   'Tb3 Er17 Bi8 Te4'
_cell_volume   923.39610240
_cell_formula_units_Z   1
loop_
 _symmetry_equiv_pos_site_id
 _symmetry_equiv_pos_as_xyz
  1  'x, y, z'
loop_
 _atom_site_type_symbol
 _atom_site_label
 _atom_site_symmetry_multiplicity
 _atom_site_fract_x
 _atom_site_fract_y
 _atom_site_fract_z
 _atom_site_occupancy
  Tb  Tb0  1  0.825336  0.250000  0.284445  1
  Tb  Tb1  1  0.674414  0.750000  0.784736  1
  Tb  Tb2  1  0.173846  0.750000  0.715406  1
  Er  Er3  1  0.354709  0.750000  0.215660  1
  Er  Er4  1  0.855055  0.750000  0.283634  1
  Er  Er5  1  0.644821  0.250000  0.785075  1
  Er  Er6  1  0.145761  0.250000  0.716224  1
  Er  Er7  1  0.687793  0.563730  0.058883  1
  Er  Er8  1  0.186127  0.936018  0.440850  1
  Er  Er9  1  0.313005  0.064043  0.941342  1
  Er  Er10  1  0.812663  0.435769  0.559146  1
  Er  Er11  1  0.313005  0.435957  0.941342  1
  Er  Er12  1  0.812663  0.064231  0.559146  1
  Er  Er13  1  0.687793  0.936270  0.058883  1
  Er  Er14  1  0.186127  0.563982  0.440850  1
  Er  Er15  1  0.478857  0.250000  0.488572  1
  Er  Er16  1  0.979864  0.250000  0.011384  1
  Er  Er17  1  0.520232  0.750000  0.509936  1
  Er  Er18  1  0.021955  0.750000  0.989672  1
  Er  Er19  1  0.325026  0.250000  0.214002  1
  Bi  Bi20  1  0.569428  0.996001  0.325790  1
  Bi  Bi21  1  0.072113  0.504059  0.173444  1
  Bi  Bi22  1  0.429443  0.495472  0.672847  1
  Bi  Bi23  1  0.929454  0.004737  0.827471  1
  Bi  Bi24  1  0.429443  0.004528  0.672847  1
  Bi  Bi25  1  0.929454  0.495263  0.827471  1
  Bi  Bi26  1  0.569428  0.503999  0.325790  1
  Bi  Bi27  1  0.072113  0.995941  0.173444  1
  Te  Te28  1  0.402142  0.750000  0.961277  1
  Te  Te29  1  0.900462  0.750000  0.538452  1
  Te  Te30  1  0.598873  0.250000  0.040560  1
  Te  Te31  1  0.098598  0.250000  0.461423  1
