# generated using pymatgen
data_Ba3CdPdO6
_symmetry_space_group_name_H-M   'P 1'
_cell_length_a   7.17401089
_cell_length_b   7.17401056
_cell_length_c   7.17401087
_cell_angle_alpha   91.65123158
_cell_angle_beta   91.65123014
_cell_angle_gamma   91.65123484
_symmetry_Int_Tables_number   1
_chemical_formula_structural   Ba3CdPdO6
_chemical_formula_sum   'Ba6 Cd2 Pd2 O12'
_cell_volume   368.75173219
_cell_formula_units_Z   2
loop_
 _symmetry_equiv_pos_site_id
 _symmetry_equiv_pos_as_xyz
  1  'x, y, z'
loop_
 _atom_site_type_symbol
 _atom_site_label
 _atom_site_symmetry_multiplicity
 _atom_site_fract_x
 _atom_site_fract_y
 _atom_site_fract_z
 _atom_site_occupancy
  Ba  Ba0  1  0.387287  0.112713  0.750000  1
  Ba  Ba1  1  0.112713  0.750000  0.387287  1
  Ba  Ba2  1  0.750000  0.387287  0.112713  1
  Ba  Ba3  1  0.612713  0.887287  0.250000  1
  Ba  Ba4  1  0.250000  0.612713  0.887287  1
  Ba  Ba5  1  0.887287  0.250000  0.612713  1
  Cd  Cd6  1  0.750000  0.750000  0.750000  1
  Cd  Cd7  1  0.250000  0.250000  0.250000  1
  Pd  Pd8  1  0.500000  0.500000  0.500000  1
  Pd  Pd9  1  0.000000  0.000000  0.000000  1
  O  O10  1  0.955458  0.087067  0.274437  1
  O  O11  1  0.274437  0.955458  0.087067  1
  O  O12  1  0.087067  0.274437  0.955458  1
  O  O13  1  0.544542  0.225563  0.412933  1
  O  O14  1  0.412933  0.544542  0.225563  1
  O  O15  1  0.225563  0.412933  0.544542  1
  O  O16  1  0.044542  0.912933  0.725563  1
  O  O17  1  0.725563  0.044542  0.912933  1
  O  O18  1  0.912933  0.725563  0.044542  1
  O  O19  1  0.455458  0.774437  0.587067  1
  O  O20  1  0.774437  0.587067  0.455458  1
  O  O21  1  0.587067  0.455458  0.774437  1
