# generated using pymatgen
data_Pr3PtRh8
_symmetry_space_group_name_H-M   'P 1'
_cell_length_a   9.41266522
_cell_length_b   9.41266727
_cell_length_c   9.41266700
_cell_angle_alpha   33.40876957
_cell_angle_beta   33.40875058
_cell_angle_gamma   33.40876108
_symmetry_Int_Tables_number   1
_chemical_formula_structural   Pr3PtRh8
_chemical_formula_sum   'Pr3 Pt1 Rh8'
_cell_volume   225.14416768
_cell_formula_units_Z   1
loop_
 _symmetry_equiv_pos_site_id
 _symmetry_equiv_pos_as_xyz
  1  'x, y, z'
loop_
 _atom_site_type_symbol
 _atom_site_label
 _atom_site_symmetry_multiplicity
 _atom_site_fract_x
 _atom_site_fract_y
 _atom_site_fract_z
 _atom_site_occupancy
  Pr  Pr0  1  0.861949  0.861949  0.861949  1
  Pr  Pr1  1  0.138051  0.138051  0.138051  1
  Pr  Pr2  1  0.000000  0.000000  0.000000  1
  Pt  Pt3  1  0.500000  0.500000  0.500000  1
  Rh  Rh4  1  0.418457  0.919506  0.418457  1
  Rh  Rh5  1  0.418457  0.418457  0.919506  1
  Rh  Rh6  1  0.919506  0.418457  0.418457  1
  Rh  Rh7  1  0.581543  0.080494  0.581543  1
  Rh  Rh8  1  0.581543  0.581543  0.080494  1
  Rh  Rh9  1  0.080494  0.581543  0.581543  1
  Rh  Rh10  1  0.667559  0.667559  0.667559  1
  Rh  Rh11  1  0.332441  0.332441  0.332441  1
