# generated using pymatgen
data_TbY2Al3GaCu2
_symmetry_space_group_name_H-M   'P 1'
_cell_length_a   7.00216300
_cell_length_b   7.00270461
_cell_length_c   4.18072800
_cell_angle_alpha   90.00000000
_cell_angle_beta   90.00000000
_cell_angle_gamma   119.99651569
_symmetry_Int_Tables_number   1
_chemical_formula_structural   TbY2Al3GaCu2
_chemical_formula_sum   'Tb1 Y2 Al3 Ga1 Cu2'
_cell_volume   177.53983631
_cell_formula_units_Z   1
loop_
 _symmetry_equiv_pos_site_id
 _symmetry_equiv_pos_as_xyz
  1  'x, y, z'
loop_
 _atom_site_type_symbol
 _atom_site_label
 _atom_site_symmetry_multiplicity
 _atom_site_fract_x
 _atom_site_fract_y
 _atom_site_fract_z
 _atom_site_occupancy
  Tb  Tb0  1  0.996791  0.412152  0.500000  1
  Y  Y1  1  0.587855  0.584719  0.500000  1
  Y  Y2  1  0.415320  0.003174  0.500000  1
  Al  Al3  1  0.992394  0.759873  0.000000  1
  Al  Al4  1  0.240128  0.232521  0.000000  1
  Al  Al5  1  0.767461  0.007581  0.000000  1
  Ga  Ga6  1  0.333366  0.666665  0.000000  1
  Cu  Cu7  1  0.666685  0.333320  0.000000  1
  Cu  Cu8  1  0.999999  0.999997  0.500000  1
