# generated using pymatgen
data_Yb6NpWO12
_symmetry_space_group_name_H-M   'P 1'
_cell_length_a   6.58931322
_cell_length_b   6.58931330
_cell_length_c   6.58931415
_cell_angle_alpha   92.13560121
_cell_angle_beta   92.13559735
_cell_angle_gamma   92.13560742
_symmetry_Int_Tables_number   1
_chemical_formula_structural   Yb6NpWO12
_chemical_formula_sum   'Yb6 Np1 W1 O12'
_cell_volume   285.49035259
_cell_formula_units_Z   1
loop_
 _symmetry_equiv_pos_site_id
 _symmetry_equiv_pos_as_xyz
  1  'x, y, z'
loop_
 _atom_site_type_symbol
 _atom_site_label
 _atom_site_symmetry_multiplicity
 _atom_site_fract_x
 _atom_site_fract_y
 _atom_site_fract_z
 _atom_site_occupancy
  Yb  Yb0  1  0.932202  0.436817  0.741384  1
  Yb  Yb1  1  0.741384  0.932202  0.436817  1
  Yb  Yb2  1  0.563183  0.258616  0.067798  1
  Yb  Yb3  1  0.436817  0.741384  0.932202  1
  Yb  Yb4  1  0.258616  0.067798  0.563183  1
  Yb  Yb5  1  0.067798  0.563183  0.258616  1
  Np  Np6  1  0.000000  0.000000  0.000000  1
  W  W7  1  0.500000  0.500000  0.500000  1
  O  O8  1  0.925018  0.298371  0.065352  1
  O  O9  1  0.934648  0.074982  0.701629  1
  O  O10  1  0.783855  0.580850  0.455192  1
  O  O11  1  0.701629  0.934648  0.074982  1
  O  O12  1  0.580850  0.455192  0.783855  1
  O  O13  1  0.544808  0.216145  0.419150  1
  O  O14  1  0.455192  0.783855  0.580850  1
  O  O15  1  0.419150  0.544808  0.216145  1
  O  O16  1  0.298371  0.065352  0.925018  1
  O  O17  1  0.216145  0.419150  0.544808  1
  O  O18  1  0.065352  0.925018  0.298371  1
  O  O19  1  0.074982  0.701629  0.934648  1
