# generated using pymatgen
data_Ca5Si9As3Rh19
_symmetry_space_group_name_H-M   'P 1'
_cell_length_a   12.92733700
_cell_length_b   12.92733654
_cell_length_c   3.98636200
_cell_angle_alpha   90.00000000
_cell_angle_beta   90.00000000
_cell_angle_gamma   119.99999862
_symmetry_Int_Tables_number   1
_chemical_formula_structural   Ca5Si9As3Rh19
_chemical_formula_sum   'Ca5 Si9 As3 Rh19'
_cell_volume   576.93315481
_cell_formula_units_Z   1
loop_
 _symmetry_equiv_pos_site_id
 _symmetry_equiv_pos_as_xyz
  1  'x, y, z'
loop_
 _atom_site_type_symbol
 _atom_site_label
 _atom_site_symmetry_multiplicity
 _atom_site_fract_x
 _atom_site_fract_y
 _atom_site_fract_z
 _atom_site_occupancy
  Ca  Ca0  1  0.000000  0.188453  0.500000  1
  Ca  Ca1  1  0.811547  0.811547  0.500000  1
  Ca  Ca2  1  0.188453  0.000000  0.500000  1
  Ca  Ca3  1  0.666667  0.333333  0.000000  1
  Ca  Ca4  1  0.333333  0.666667  0.000000  1
  Si  Si5  1  0.478288  0.314538  0.500000  1
  Si  Si6  1  0.373984  0.000000  0.000000  1
  Si  Si7  1  0.685462  0.163750  0.500000  1
  Si  Si8  1  0.836250  0.521712  0.500000  1
  Si  Si9  1  0.521712  0.836250  0.500000  1
  Si  Si10  1  0.163750  0.685462  0.500000  1
  Si  Si11  1  0.314538  0.478288  0.500000  1
  Si  Si12  1  0.000000  0.373984  0.000000  1
  Si  Si13  1  0.626016  0.626016  0.000000  1
  As  As14  1  0.818558  0.000000  0.000000  1
  As  As15  1  0.181442  0.181442  0.000000  1
  As  As16  1  0.000000  0.818558  0.000000  1
  Rh  Rh17  1  0.804969  0.185193  0.000000  1
  Rh  Rh18  1  0.380224  0.195031  0.000000  1
  Rh  Rh19  1  0.639668  0.512734  0.500000  1
  Rh  Rh20  1  0.873065  0.360332  0.500000  1
  Rh  Rh21  1  0.360332  0.873065  0.500000  1
  Rh  Rh22  1  0.512734  0.639668  0.500000  1
  Rh  Rh23  1  0.126935  0.487266  0.500000  1
  Rh  Rh24  1  0.814807  0.619776  0.000000  1
  Rh  Rh25  1  0.619776  0.814807  0.000000  1
  Rh  Rh26  1  0.185193  0.804969  0.000000  1
  Rh  Rh27  1  0.195031  0.380224  0.000000  1
  Rh  Rh28  1  0.000000  0.715803  0.500000  1
  Rh  Rh29  1  0.284197  0.284197  0.500000  1
  Rh  Rh30  1  0.715803  0.000000  0.500000  1
  Rh  Rh31  1  0.000000  0.554304  0.000000  1
  Rh  Rh32  1  0.445696  0.445696  0.000000  1
  Rh  Rh33  1  0.554304  0.000000  0.000000  1
  Rh  Rh34  1  0.000000  0.000000  0.000000  1
  Rh  Rh35  1  0.487266  0.126935  0.500000  1
