# generated using pymatgen
data_Nd2Ga(SiRh2)6
_symmetry_space_group_name_H-M   'P 1'
_cell_length_a   9.85587700
_cell_length_b   9.85587701
_cell_length_c   3.89847800
_cell_angle_alpha   90.00000000
_cell_angle_beta   90.00000000
_cell_angle_gamma   120.00001005
_symmetry_Int_Tables_number   1
_chemical_formula_structural   Nd2Ga(SiRh2)6
_chemical_formula_sum   'Nd2 Ga1 Si6 Rh12'
_cell_volume   327.95648692
_cell_formula_units_Z   1
loop_
 _symmetry_equiv_pos_site_id
 _symmetry_equiv_pos_as_xyz
  1  'x, y, z'
loop_
 _atom_site_type_symbol
 _atom_site_label
 _atom_site_symmetry_multiplicity
 _atom_site_fract_x
 _atom_site_fract_y
 _atom_site_fract_z
 _atom_site_occupancy
  Nd  Nd0  1  0.333333  0.666667  0.749790  1
  Nd  Nd1  1  0.666667  0.333333  0.250210  1
  Ga  Ga2  1  0.000000  0.000000  0.500000  1
  Si  Si3  1  0.893521  0.603374  0.748620  1
  Si  Si4  1  0.396626  0.290148  0.748620  1
  Si  Si5  1  0.709852  0.106479  0.748620  1
  Si  Si6  1  0.106479  0.396626  0.251380  1
  Si  Si7  1  0.603374  0.709852  0.251380  1
  Si  Si8  1  0.290148  0.893521  0.251380  1
  Rh  Rh9  1  0.617908  0.555620  0.750838  1
  Rh  Rh10  1  0.444380  0.062289  0.750838  1
  Rh  Rh11  1  0.937711  0.382092  0.750838  1
  Rh  Rh12  1  0.382092  0.444380  0.249162  1
  Rh  Rh13  1  0.555620  0.937711  0.249162  1
  Rh  Rh14  1  0.062289  0.617908  0.249162  1
  Rh  Rh15  1  0.124824  0.854311  0.748438  1
  Rh  Rh16  1  0.145689  0.270512  0.748438  1
  Rh  Rh17  1  0.729488  0.875176  0.748438  1
  Rh  Rh18  1  0.875176  0.145689  0.251562  1
  Rh  Rh19  1  0.854311  0.729488  0.251562  1
  Rh  Rh20  1  0.270512  0.124824  0.251562  1
