# generated using pymatgen
data_LiNd3Rh8
_symmetry_space_group_name_H-M   'P 1'
_cell_length_a   5.37266100
_cell_length_b   5.37239969
_cell_length_c   17.35233300
_cell_angle_alpha   90.00097329
_cell_angle_beta   89.99899042
_cell_angle_gamma   120.00768020
_symmetry_Int_Tables_number   1
_chemical_formula_structural   LiNd3Rh8
_chemical_formula_sum   'Li2 Nd6 Rh16'
_cell_volume   433.72318987
_cell_formula_units_Z   2
loop_
 _symmetry_equiv_pos_site_id
 _symmetry_equiv_pos_as_xyz
  1  'x, y, z'
loop_
 _atom_site_type_symbol
 _atom_site_label
 _atom_site_symmetry_multiplicity
 _atom_site_fract_x
 _atom_site_fract_y
 _atom_site_fract_z
 _atom_site_occupancy
  Li  Li0  1  0.000048  0.999998  0.250056  1
  Li  Li1  1  0.999974  0.999988  0.749982  1
  Nd  Nd2  1  0.333306  0.666678  0.539536  1
  Nd  Nd3  1  0.666674  0.333302  0.039480  1
  Nd  Nd4  1  0.666641  0.333316  0.460461  1
  Nd  Nd5  1  0.333341  0.666677  0.960470  1
  Nd  Nd6  1  0.333334  0.666688  0.749988  1
  Nd  Nd7  1  0.666677  0.333330  0.250024  1
  Rh  Rh8  1  0.166427  0.332732  0.127170  1
  Rh  Rh9  1  0.833543  0.667207  0.627186  1
  Rh  Rh10  1  0.667230  0.833653  0.127164  1
  Rh  Rh11  1  0.166368  0.833551  0.127171  1
  Rh  Rh12  1  0.833573  0.166474  0.627192  1
  Rh  Rh13  1  0.332825  0.166370  0.627184  1
  Rh  Rh14  1  0.833576  0.667227  0.872836  1
  Rh  Rh15  1  0.833604  0.166440  0.872833  1
  Rh  Rh16  1  0.332805  0.166362  0.872838  1
  Rh  Rh17  1  0.667156  0.833630  0.372804  1
  Rh  Rh18  1  0.166426  0.833552  0.372810  1
  Rh  Rh19  1  0.166391  0.332799  0.372796  1
  Rh  Rh20  1  0.333356  0.666677  0.249962  1
  Rh  Rh21  1  0.666651  0.333345  0.750062  1
  Rh  Rh22  1  0.000016  0.999985  0.999981  1
  Rh  Rh23  1  0.999968  0.000023  0.500013  1
