# generated using pymatgen
data_Pm6H13
_symmetry_space_group_name_H-M   'P 1'
_cell_length_a   6.64953199
_cell_length_b   6.64218977
_cell_length_c   7.65041227
_cell_angle_alpha   73.08038249
_cell_angle_beta   106.94366694
_cell_angle_gamma   131.76439824
_symmetry_Int_Tables_number   1
_chemical_formula_structural   Pm6H13
_chemical_formula_sum   'Pm6 H13'
_cell_volume   238.86080178
_cell_formula_units_Z   1
loop_
 _symmetry_equiv_pos_site_id
 _symmetry_equiv_pos_as_xyz
  1  'x, y, z'
loop_
 _atom_site_type_symbol
 _atom_site_label
 _atom_site_symmetry_multiplicity
 _atom_site_fract_x
 _atom_site_fract_y
 _atom_site_fract_z
 _atom_site_occupancy
  Pm  Pm0  1  0.488403  0.729783  0.467990  1
  Pm  Pm1  1  0.160945  0.058497  0.799322  1
  Pm  Pm2  1  0.834542  0.404639  0.635370  1
  Pm  Pm3  1  0.823625  0.393560  0.135344  1
  Pm  Pm4  1  0.490136  0.730138  0.963837  1
  Pm  Pm5  1  0.159443  0.060483  0.303633  1
  H  H6  1  0.583297  0.152075  0.887604  1
  H  H7  1  0.242725  0.478949  0.216811  1
  H  H8  1  0.908049  0.813405  0.049545  1
  H  H9  1  0.066375  0.634846  0.892911  1
  H  H10  1  0.753218  0.983958  0.718461  1
  H  H11  1  0.303190  0.875829  0.639732  1
  H  H12  1  0.407077  0.312226  0.050022  1
  H  H13  1  0.239136  0.464317  0.719612  1
  H  H14  1  0.892685  0.807901  0.547463  1
  H  H15  1  0.413238  0.323077  0.548762  1
  H  H16  1  0.741108  0.976615  0.217538  1
  H  H17  1  0.068128  0.638921  0.379224  1
  H  H18  1  0.580938  0.151646  0.383120  1
