# generated using pymatgen
data_Ca3Sm(OsC2)2
_symmetry_space_group_name_H-M   'P 1'
_cell_length_a   5.19294600
_cell_length_b   6.51332774
_cell_length_c   10.43516555
_cell_angle_alpha   90.30632761
_cell_angle_beta   90.00000000
_cell_angle_gamma   90.00000000
_symmetry_Int_Tables_number   1
_chemical_formula_structural   Ca3Sm(OsC2)2
_chemical_formula_sum   'Ca6 Sm2 Os4 C8'
_cell_volume   352.94730841
_cell_formula_units_Z   2
loop_
 _symmetry_equiv_pos_site_id
 _symmetry_equiv_pos_as_xyz
  1  'x, y, z'
loop_
 _atom_site_type_symbol
 _atom_site_label
 _atom_site_symmetry_multiplicity
 _atom_site_fract_x
 _atom_site_fract_y
 _atom_site_fract_z
 _atom_site_occupancy
  Ca  Ca0  1  0.750000  0.806886  0.051088  1
  Ca  Ca1  1  0.250000  0.193114  0.948912  1
  Ca  Ca2  1  0.250000  0.536338  0.216619  1
  Ca  Ca3  1  0.750000  0.463662  0.783381  1
  Ca  Ca4  1  0.750000  0.967607  0.728390  1
  Ca  Ca5  1  0.250000  0.032393  0.271610  1
  Sm  Sm6  1  0.250000  0.691932  0.552100  1
  Sm  Sm7  1  0.750000  0.308068  0.447900  1
  Os  Os8  1  0.250000  0.731160  0.852234  1
  Os  Os9  1  0.750000  0.268840  0.147766  1
  Os  Os10  1  0.750000  0.770096  0.349710  1
  Os  Os11  1  0.250000  0.229904  0.650290  1
  C  C12  1  0.250000  0.470437  0.756703  1
  C  C13  1  0.750000  0.529563  0.243297  1
  C  C14  1  0.750000  0.033139  0.260034  1
  C  C15  1  0.250000  0.966861  0.739966  1
  C  C16  1  0.250000  0.791173  0.025540  1
  C  C17  1  0.750000  0.208827  0.974460  1
  C  C18  1  0.750000  0.697095  0.525042  1
  C  C19  1  0.250000  0.302905  0.474958  1
