# generated using pymatgen
data_Y3HfMg2Ir3
_symmetry_space_group_name_H-M   'P 1'
_cell_length_a   7.33794575
_cell_length_b   7.18981371
_cell_length_c   4.19769800
_cell_angle_alpha   90.00000000
_cell_angle_beta   90.00000000
_cell_angle_gamma   119.33441588
_symmetry_Int_Tables_number   1
_chemical_formula_structural   Y3HfMg2Ir3
_chemical_formula_sum   'Y3 Hf1 Mg2 Ir3'
_cell_volume   193.06689601
_cell_formula_units_Z   1
loop_
 _symmetry_equiv_pos_site_id
 _symmetry_equiv_pos_as_xyz
  1  'x, y, z'
loop_
 _atom_site_type_symbol
 _atom_site_label
 _atom_site_symmetry_multiplicity
 _atom_site_fract_x
 _atom_site_fract_y
 _atom_site_fract_z
 _atom_site_occupancy
  Y  Y0  1  0.579718  0.585740  0.000000  1
  Y  Y1  1  0.420282  0.006022  0.000000  1
  Y  Y2  1  0.000000  0.397819  0.000000  1
  Hf  Hf3  1  0.000000  0.752883  0.500000  1
  Mg  Mg4  1  0.248511  0.247857  0.500000  1
  Mg  Mg5  1  0.751489  0.999347  0.500000  1
  Ir  Ir6  1  0.000000  0.979253  0.000000  1
  Ir  Ir7  1  0.678940  0.355010  0.500000  1
  Ir  Ir8  1  0.321060  0.676071  0.500000  1
