# generated using pymatgen
data_Hf7Zr3Sn6P
_symmetry_space_group_name_H-M   'P 1'
_cell_length_a   5.83686300
_cell_length_b   8.51992673
_cell_length_c   8.51994600
_cell_angle_alpha   119.99992583
_cell_angle_beta   90.00003926
_cell_angle_gamma   89.99992657
_symmetry_Int_Tables_number   1
_chemical_formula_structural   Hf7Zr3Sn6P
_chemical_formula_sum   'Hf7 Zr3 Sn6 P1'
_cell_volume   366.92994704
_cell_formula_units_Z   1
loop_
 _symmetry_equiv_pos_site_id
 _symmetry_equiv_pos_as_xyz
  1  'x, y, z'
loop_
 _atom_site_type_symbol
 _atom_site_label
 _atom_site_symmetry_multiplicity
 _atom_site_fract_x
 _atom_site_fract_y
 _atom_site_fract_z
 _atom_site_occupancy
  Hf  Hf0  1  0.500204  0.333330  0.666668  1
  Hf  Hf1  1  0.500204  0.666663  0.333332  1
  Hf  Hf2  1  0.999447  0.666663  0.333329  1
  Hf  Hf3  1  0.999447  0.333335  0.666671  1
  Hf  Hf4  1  0.756016  0.250586  0.000000  1
  Hf  Hf5  1  0.756011  0.749416  0.749414  1
  Hf  Hf6  1  0.756011  0.000001  0.250586  1
  Zr  Zr7  1  0.243359  0.749700  0.000000  1
  Zr  Zr8  1  0.243363  0.250306  0.250304  1
  Zr  Zr9  1  0.243363  0.000001  0.749696  1
  Sn  Sn10  1  0.749885  0.605597  0.000000  1
  Sn  Sn11  1  0.749891  0.394401  0.394402  1
  Sn  Sn12  1  0.749891  0.999999  0.605598  1
  Sn  Sn13  1  0.249892  0.394480  0.000000  1
  Sn  Sn14  1  0.249891  0.605516  0.605514  1
  Sn  Sn15  1  0.249891  0.000002  0.394486  1
  P  P16  1  0.503235  0.000009  0.000000  1
