# generated using pymatgen
data_Nd2Er3HgPb3
_symmetry_space_group_name_H-M   'P 1'
_cell_length_a   7.97249200
_cell_length_b   8.45152300
_cell_length_c   15.73835500
_cell_angle_alpha   90.00000000
_cell_angle_beta   90.00000000
_cell_angle_gamma   90.00000000
_symmetry_Int_Tables_number   1
_chemical_formula_structural   Nd2Er3HgPb3
_chemical_formula_sum   'Nd8 Er12 Hg4 Pb12'
_cell_volume   1060.44563061
_cell_formula_units_Z   4
loop_
 _symmetry_equiv_pos_site_id
 _symmetry_equiv_pos_as_xyz
  1  'x, y, z'
loop_
 _atom_site_type_symbol
 _atom_site_label
 _atom_site_symmetry_multiplicity
 _atom_site_fract_x
 _atom_site_fract_y
 _atom_site_fract_z
 _atom_site_occupancy
  Nd  Nd0  1  0.489192  0.683535  0.593527  1
  Nd  Nd1  1  0.989192  0.816465  0.906473  1
  Nd  Nd2  1  0.510808  0.316465  0.093527  1
  Nd  Nd3  1  0.010808  0.183535  0.406473  1
  Nd  Nd4  1  0.510808  0.316465  0.406473  1
  Nd  Nd5  1  0.010808  0.183535  0.093527  1
  Nd  Nd6  1  0.489192  0.683535  0.906473  1
  Nd  Nd7  1  0.989192  0.816465  0.593527  1
  Er  Er8  1  0.652792  0.165322  0.626678  1
  Er  Er9  1  0.152792  0.334678  0.873322  1
  Er  Er10  1  0.347208  0.834678  0.126678  1
  Er  Er11  1  0.847208  0.665322  0.373322  1
  Er  Er12  1  0.347208  0.834678  0.373322  1
  Er  Er13  1  0.847208  0.665322  0.126678  1
  Er  Er14  1  0.652792  0.165322  0.873322  1
  Er  Er15  1  0.152792  0.334678  0.626678  1
  Er  Er16  1  0.805304  0.496844  0.750000  1
  Er  Er17  1  0.305304  0.003156  0.750000  1
  Er  Er18  1  0.194696  0.503156  0.250000  1
  Er  Er19  1  0.694696  0.996844  0.250000  1
  Hg  Hg20  1  0.451744  0.372474  0.750000  1
  Hg  Hg21  1  0.951744  0.127526  0.750000  1
  Hg  Hg22  1  0.548256  0.627526  0.250000  1
  Hg  Hg23  1  0.048256  0.872474  0.250000  1
  Pb  Pb24  1  0.693018  0.960758  0.458560  1
  Pb  Pb25  1  0.193018  0.539242  0.041440  1
  Pb  Pb26  1  0.306982  0.039242  0.958560  1
  Pb  Pb27  1  0.806982  0.460758  0.541440  1
  Pb  Pb28  1  0.306982  0.039242  0.541440  1
  Pb  Pb29  1  0.806982  0.460758  0.958560  1
  Pb  Pb30  1  0.693018  0.960758  0.041440  1
  Pb  Pb31  1  0.193018  0.539242  0.458560  1
  Pb  Pb32  1  0.686202  0.858954  0.750000  1
  Pb  Pb33  1  0.186202  0.641046  0.750000  1
  Pb  Pb34  1  0.313798  0.141046  0.250000  1
  Pb  Pb35  1  0.813798  0.358954  0.250000  1
