# generated using pymatgen
data_CaNdMnRh3
_symmetry_space_group_name_H-M   'P 1'
_cell_length_a   5.23144481
_cell_length_b   5.58977435
_cell_length_c   5.58977500
_cell_angle_alpha   60.00000209
_cell_angle_beta   57.70709794
_cell_angle_gamma   57.70710047
_symmetry_Int_Tables_number   1
_chemical_formula_structural   CaNdMnRh3
_chemical_formula_sum   'Ca1 Nd1 Mn1 Rh3'
_cell_volume   111.41412990
_cell_formula_units_Z   1
loop_
 _symmetry_equiv_pos_site_id
 _symmetry_equiv_pos_as_xyz
  1  'x, y, z'
loop_
 _atom_site_type_symbol
 _atom_site_label
 _atom_site_symmetry_multiplicity
 _atom_site_fract_x
 _atom_site_fract_y
 _atom_site_fract_z
 _atom_site_occupancy
  Ca  Ca0  1  0.742678  0.752440  0.752440  1
  Nd  Nd1  1  0.503525  0.498825  0.498825  1
  Mn  Mn2  1  0.626805  0.124398  0.124398  1
  Rh  Rh3  1  0.125664  0.124182  0.625972  1
  Rh  Rh4  1  0.125664  0.625972  0.124182  1
  Rh  Rh5  1  0.125664  0.124182  0.124182  1
