# generated using pymatgen
data_U4Re4Si6TcRu2
_symmetry_space_group_name_H-M   'P 1'
_cell_length_a   7.13887208
_cell_length_b   7.13677737
_cell_length_c   7.13887263
_cell_angle_alpha   109.62167621
_cell_angle_beta   109.18266900
_cell_angle_gamma   109.62169246
_symmetry_Int_Tables_number   1
_chemical_formula_structural   U4Re4Si6TcRu2
_chemical_formula_sum   'U4 Re4 Si6 Tc1 Ru2'
_cell_volume   279.94117202
_cell_formula_units_Z   1
loop_
 _symmetry_equiv_pos_site_id
 _symmetry_equiv_pos_as_xyz
  1  'x, y, z'
loop_
 _atom_site_type_symbol
 _atom_site_label
 _atom_site_symmetry_multiplicity
 _atom_site_fract_x
 _atom_site_fract_y
 _atom_site_fract_z
 _atom_site_occupancy
  U  U0  1  0.498267  0.500000  0.501733  1
  U  U1  1  0.998267  0.500000  0.001733  1
  U  U2  1  0.498295  0.000000  0.995594  1
  U  U3  1  0.004406  0.000000  0.501705  1
  Re  Re4  1  0.249803  0.749376  0.499573  1
  Re  Re5  1  0.249768  0.500000  0.750232  1
  Re  Re6  1  0.500427  0.250624  0.750197  1
  Re  Re7  1  0.749768  0.500000  0.250232  1
  Si  Si8  1  0.690444  0.000000  0.688260  1
  Si  Si9  1  0.690255  0.691562  0.001307  1
  Si  Si10  1  0.310157  0.311560  0.001403  1
  Si  Si11  1  0.998597  0.688440  0.689843  1
  Si  Si12  1  0.998693  0.308438  0.309745  1
  Si  Si13  1  0.311740  0.000000  0.309556  1
  Tc  Tc14  1  0.000073  0.000000  0.999927  1
  Ru  Ru15  1  0.500940  0.750842  0.249902  1
  Ru  Ru16  1  0.750098  0.249158  0.499060  1
