# generated using pymatgen
data_La6Al24Ru5Pt3
_symmetry_space_group_name_H-M   'P 1'
_cell_length_a   8.99471300
_cell_length_b   8.99471229
_cell_length_c   9.71679800
_cell_angle_alpha   90.00000000
_cell_angle_beta   90.00000000
_cell_angle_gamma   119.99999159
_symmetry_Int_Tables_number   1
_chemical_formula_structural   La6Al24Ru5Pt3
_chemical_formula_sum   'La6 Al24 Ru5 Pt3'
_cell_volume   680.81392443
_cell_formula_units_Z   1
loop_
 _symmetry_equiv_pos_site_id
 _symmetry_equiv_pos_as_xyz
  1  'x, y, z'
loop_
 _atom_site_type_symbol
 _atom_site_label
 _atom_site_symmetry_multiplicity
 _atom_site_fract_x
 _atom_site_fract_y
 _atom_site_fract_z
 _atom_site_occupancy
  La  La0  1  0.189996  0.379991  0.252382  1
  La  La1  1  0.810004  0.620009  0.747618  1
  La  La2  1  0.620009  0.810004  0.252382  1
  La  La3  1  0.379991  0.189996  0.747618  1
  La  La4  1  0.189996  0.810004  0.252382  1
  La  La5  1  0.810004  0.189996  0.747618  1
  Al  Al6  1  0.333333  0.666667  0.018531  1
  Al  Al7  1  0.666667  0.333333  0.981469  1
  Al  Al8  1  0.666667  0.333333  0.510893  1
  Al  Al9  1  0.333333  0.666667  0.489107  1
  Al  Al10  1  0.163296  0.326592  0.575873  1
  Al  Al11  1  0.836704  0.673408  0.424127  1
  Al  Al12  1  0.673408  0.836704  0.575873  1
  Al  Al13  1  0.838686  0.677373  0.077140  1
  Al  Al14  1  0.326592  0.163296  0.424127  1
  Al  Al15  1  0.161314  0.322627  0.922860  1
  Al  Al16  1  0.163296  0.836704  0.575873  1
  Al  Al17  1  0.322627  0.161314  0.077140  1
  Al  Al18  1  0.836704  0.163296  0.424127  1
  Al  Al19  1  0.677373  0.838686  0.922860  1
  Al  Al20  1  0.838686  0.161314  0.077140  1
  Al  Al21  1  0.161314  0.838686  0.922860  1
  Al  Al22  1  0.564895  0.129791  0.251662  1
  Al  Al23  1  0.435105  0.870209  0.748338  1
  Al  Al24  1  0.870209  0.435105  0.251662  1
  Al  Al25  1  0.129791  0.564895  0.748338  1
  Al  Al26  1  0.564895  0.435105  0.251662  1
  Al  Al27  1  0.435105  0.564895  0.748338  1
  Al  Al28  1  0.000000  0.000000  0.250732  1
  Al  Al29  1  0.000000  0.000000  0.749268  1
  Ru  Ru30  1  0.500000  0.000000  0.500000  1
  Ru  Ru31  1  0.000000  0.500000  0.500000  1
  Ru  Ru32  1  0.500000  0.500000  0.500000  1
  Ru  Ru33  1  0.000000  0.000000  0.000000  1
  Ru  Ru34  1  0.000000  0.000000  0.500000  1
  Pt  Pt35  1  0.500000  0.000000  0.000000  1
  Pt  Pt36  1  0.000000  0.500000  0.000000  1
  Pt  Pt37  1  0.500000  0.500000  0.000000  1
