# generated using pymatgen
data_CePaIr2Pb
_symmetry_space_group_name_H-M   'P 1'
_cell_length_a   7.87646500
_cell_length_b   7.86542900
_cell_length_c   3.62069900
_cell_angle_alpha   90.00000000
_cell_angle_beta   90.00000000
_cell_angle_gamma   90.00000000
_symmetry_Int_Tables_number   1
_chemical_formula_structural   CePaIr2Pb
_chemical_formula_sum   'Ce2 Pa2 Ir4 Pb2'
_cell_volume   224.30873424
_cell_formula_units_Z   2
loop_
 _symmetry_equiv_pos_site_id
 _symmetry_equiv_pos_as_xyz
  1  'x, y, z'
loop_
 _atom_site_type_symbol
 _atom_site_label
 _atom_site_symmetry_multiplicity
 _atom_site_fract_x
 _atom_site_fract_y
 _atom_site_fract_z
 _atom_site_occupancy
  Ce  Ce0  1  0.330656  0.171310  0.500001  1
  Ce  Ce1  1  0.830656  0.328690  0.500001  1
  Pa  Pa2  1  0.169068  0.665077  0.500001  1
  Pa  Pa3  1  0.669069  0.834924  0.500001  1
  Ir  Ir4  1  0.630274  0.111200  0.000000  1
  Ir  Ir5  1  0.130273  0.388799  0.000000  1
  Ir  Ir6  1  0.865116  0.647542  0.000000  1
  Ir  Ir7  1  0.365115  0.852459  0.000000  1
  Pb  Pb8  1  0.004888  0.004253  0.000000  1
  Pb  Pb9  1  0.504887  0.495746  0.000000  1
