# generated using pymatgen
data_Gd2Th(B2C)3
_symmetry_space_group_name_H-M   'P 1'
_cell_length_a   5.32166214
_cell_length_b   5.32166335
_cell_length_c   5.32166351
_cell_angle_alpha   77.12111886
_cell_angle_beta   77.12111288
_cell_angle_gamma   77.12111445
_symmetry_Int_Tables_number   1
_chemical_formula_structural   Gd2Th(B2C)3
_chemical_formula_sum   'Gd2 Th1 B6 C3'
_cell_volume   140.82361409
_cell_formula_units_Z   1
loop_
 _symmetry_equiv_pos_site_id
 _symmetry_equiv_pos_as_xyz
  1  'x, y, z'
loop_
 _atom_site_type_symbol
 _atom_site_label
 _atom_site_symmetry_multiplicity
 _atom_site_fract_x
 _atom_site_fract_y
 _atom_site_fract_z
 _atom_site_occupancy
  Gd  Gd0  1  0.687906  0.687906  0.687906  1
  Gd  Gd1  1  0.312094  0.312094  0.312094  1
  Th  Th2  1  0.000000  0.000000  0.000000  1
  B  B3  1  0.500000  0.774127  0.225873  1
  B  B4  1  0.225873  0.500000  0.774127  1
  B  B5  1  0.774127  0.225873  0.500000  1
  B  B6  1  0.500000  0.225873  0.774127  1
  B  B7  1  0.225873  0.774127  0.500000  1
  B  B8  1  0.774127  0.500000  0.225873  1
  C  C9  1  0.000000  0.000000  0.500000  1
  C  C10  1  0.000000  0.500000  0.000000  1
  C  C11  1  0.500000  0.000000  0.000000  1
