# generated using pymatgen
data_OsRu2Rh3W2
_symmetry_space_group_name_H-M   'P 1'
_cell_length_a   5.51421567
_cell_length_b   5.53948371
_cell_length_c   4.39537300
_cell_angle_alpha   90.00000000
_cell_angle_beta   90.00000000
_cell_angle_gamma   120.32906830
_symmetry_Int_Tables_number   1
_chemical_formula_structural   OsRu2Rh3W2
_chemical_formula_sum   'Os1 Ru2 Rh3 W2'
_cell_volume   115.88567424
_cell_formula_units_Z   1
loop_
 _symmetry_equiv_pos_site_id
 _symmetry_equiv_pos_as_xyz
  1  'x, y, z'
loop_
 _atom_site_type_symbol
 _atom_site_label
 _atom_site_symmetry_multiplicity
 _atom_site_fract_x
 _atom_site_fract_y
 _atom_site_fract_z
 _atom_site_occupancy
  Os  Os0  1  0.163071  0.332608  0.250000  1
  Ru  Ru1  1  0.164415  0.833663  0.250000  1
  Ru  Ru2  1  0.833897  0.168792  0.750000  1
  Rh  Rh3  1  0.668503  0.833574  0.250000  1
  Rh  Rh4  1  0.834863  0.668104  0.750000  1
  Rh  Rh5  1  0.333797  0.164241  0.750000  1
  W  W6  1  0.330229  0.664294  0.750000  1
  W  W7  1  0.671225  0.334724  0.250000  1
