# generated using pymatgen
data_CsKSnS3
_symmetry_space_group_name_H-M   'P 1'
_cell_length_a   7.11592738
_cell_length_b   7.90688810
_cell_length_c   8.64877700
_cell_angle_alpha   76.34048670
_cell_angle_beta   70.57061912
_cell_angle_gamma   64.98574357
_symmetry_Int_Tables_number   1
_chemical_formula_structural   CsKSnS3
_chemical_formula_sum   'Cs2 K2 Sn2 S6'
_cell_volume   413.26096067
_cell_formula_units_Z   2
loop_
 _symmetry_equiv_pos_site_id
 _symmetry_equiv_pos_as_xyz
  1  'x, y, z'
loop_
 _atom_site_type_symbol
 _atom_site_label
 _atom_site_symmetry_multiplicity
 _atom_site_fract_x
 _atom_site_fract_y
 _atom_site_fract_z
 _atom_site_occupancy
  Cs  Cs0  1  0.337243  0.551624  0.309867  1
  Cs  Cs1  1  0.662758  0.448376  0.690132  1
  K  K2  1  0.087869  0.205123  0.124878  1
  K  K3  1  0.912132  0.794877  0.875121  1
  Sn  Sn4  1  0.641619  0.933231  0.306795  1
  Sn  Sn5  1  0.358382  0.066769  0.693206  1
  S  S6  1  0.640883  0.161771  0.076024  1
  S  S7  1  0.836429  0.614863  0.259387  1
  S  S8  1  0.266913  0.978770  0.475332  1
  S  S9  1  0.733087  0.021231  0.524667  1
  S  S10  1  0.163571  0.385138  0.740613  1
  S  S11  1  0.359116  0.838229  0.923976  1
