# generated using pymatgen
data_Dy10Ga2SnSb3
_symmetry_space_group_name_H-M   'P 1'
_cell_length_a   6.46292700
_cell_length_b   8.84863975
_cell_length_c   8.84463860
_cell_angle_alpha   120.02759041
_cell_angle_beta   89.99998365
_cell_angle_gamma   90.00008874
_symmetry_Int_Tables_number   1
_chemical_formula_structural   Dy10Ga2SnSb3
_chemical_formula_sum   'Dy10 Ga2 Sn1 Sb3'
_cell_volume   437.92090659
_cell_formula_units_Z   1
loop_
 _symmetry_equiv_pos_site_id
 _symmetry_equiv_pos_as_xyz
  1  'x, y, z'
loop_
 _atom_site_type_symbol
 _atom_site_label
 _atom_site_symmetry_multiplicity
 _atom_site_fract_x
 _atom_site_fract_y
 _atom_site_fract_z
 _atom_site_occupancy
  Dy  Dy0  1  0.504538  0.341686  0.669018  1
  Dy  Dy1  1  0.504783  0.657433  0.326132  1
  Dy  Dy2  1  0.995218  0.657432  0.326133  1
  Dy  Dy3  1  0.995464  0.341688  0.669021  1
  Dy  Dy4  1  0.749999  0.248728  0.012254  1
  Dy  Dy5  1  0.750001  0.750994  0.763841  1
  Dy  Dy6  1  0.750001  0.999587  0.236257  1
  Dy  Dy7  1  0.250000  0.759086  0.998297  1
  Dy  Dy8  1  0.250000  0.240911  0.237448  1
  Dy  Dy9  1  0.250001  0.001763  0.760288  1
  Ga  Ga10  1  0.749997  0.605973  0.001005  1
  Ga  Ga11  1  0.750000  0.393362  0.395403  1
  Sn  Sn12  1  0.250003  0.394933  0.997049  1
  Sb  Sb13  1  0.750001  0.999345  0.609564  1
  Sb  Sb14  1  0.250000  0.606629  0.603894  1
  Sb  Sb15  1  0.249999  0.000451  0.394395  1
