# generated using pymatgen
data_SrAsRhF
_symmetry_space_group_name_H-M   'P 1'
_cell_length_a   4.18512600
_cell_length_b   4.18512600
_cell_length_c   8.63912600
_cell_angle_alpha   90.00000000
_cell_angle_beta   90.00000000
_cell_angle_gamma   90.00000000
_symmetry_Int_Tables_number   1
_chemical_formula_structural   SrAsRhF
_chemical_formula_sum   'Sr2 As2 Rh2 F2'
_cell_volume   151.31670770
_cell_formula_units_Z   2
loop_
 _symmetry_equiv_pos_site_id
 _symmetry_equiv_pos_as_xyz
  1  'x, y, z'
loop_
 _atom_site_type_symbol
 _atom_site_label
 _atom_site_symmetry_multiplicity
 _atom_site_fract_x
 _atom_site_fract_y
 _atom_site_fract_z
 _atom_site_occupancy
  Sr  Sr0  1  0.250002  0.250002  0.160829  1
  Sr  Sr1  1  0.750001  0.750001  0.839172  1
  As  As2  1  0.750001  0.750001  0.347325  1
  As  As3  1  0.250002  0.250002  0.652674  1
  Rh  Rh4  1  0.750001  0.250000  0.500000  1
  Rh  Rh5  1  0.250000  0.750001  0.500000  1
  F  F6  1  0.750001  0.250000  0.000000  1
  F  F7  1  0.250000  0.750001  0.000000  1
