# generated using pymatgen
data_Sm3Sc(Ni4P3)2
_symmetry_space_group_name_H-M   'P 1'
_cell_length_a   3.86824600
_cell_length_b   10.83134000
_cell_length_c   12.51914500
_cell_angle_alpha   90.00000000
_cell_angle_beta   90.00000000
_cell_angle_gamma   90.00000000
_symmetry_Int_Tables_number   1
_chemical_formula_structural   Sm3Sc(Ni4P3)2
_chemical_formula_sum   'Sm6 Sc2 Ni16 P12'
_cell_volume   524.53073809
_cell_formula_units_Z   2
loop_
 _symmetry_equiv_pos_site_id
 _symmetry_equiv_pos_as_xyz
  1  'x, y, z'
loop_
 _atom_site_type_symbol
 _atom_site_label
 _atom_site_symmetry_multiplicity
 _atom_site_fract_x
 _atom_site_fract_y
 _atom_site_fract_z
 _atom_site_occupancy
  Sm  Sm0  1  0.000000  0.500000  0.526085  1
  Sm  Sm1  1  0.500000  0.000000  0.473915  1
  Sm  Sm2  1  0.500000  0.819222  0.203842  1
  Sm  Sm3  1  0.500000  0.180778  0.203842  1
  Sm  Sm4  1  0.000000  0.680778  0.796158  1
  Sm  Sm5  1  0.000000  0.319222  0.796158  1
  Sc  Sc6  1  0.500000  0.500000  0.152940  1
  Sc  Sc7  1  0.000000  0.000000  0.847060  1
  Ni  Ni8  1  0.000000  0.500000  0.984675  1
  Ni  Ni9  1  0.500000  0.000000  0.015325  1
  Ni  Ni10  1  0.500000  0.299551  0.428447  1
  Ni  Ni11  1  0.500000  0.700449  0.428447  1
  Ni  Ni12  1  0.000000  0.200449  0.571553  1
  Ni  Ni13  1  0.000000  0.799551  0.571553  1
  Ni  Ni14  1  0.500000  0.880530  0.706854  1
  Ni  Ni15  1  0.500000  0.119470  0.706854  1
  Ni  Ni16  1  0.000000  0.619470  0.293146  1
  Ni  Ni17  1  0.000000  0.380530  0.293146  1
  Ni  Ni18  1  0.500000  0.332677  0.992389  1
  Ni  Ni19  1  0.500000  0.667323  0.992389  1
  Ni  Ni20  1  0.000000  0.167323  0.007611  1
  Ni  Ni21  1  0.000000  0.832677  0.007611  1
  Ni  Ni22  1  0.500000  0.500000  0.702253  1
  Ni  Ni23  1  0.000000  0.000000  0.297747  1
  P  P24  1  0.500000  0.310215  0.614052  1
  P  P25  1  0.500000  0.689785  0.614052  1
  P  P26  1  0.000000  0.189785  0.385948  1
  P  P27  1  0.000000  0.810215  0.385948  1
  P  P28  1  0.500000  0.500000  0.882000  1
  P  P29  1  0.000000  0.000000  0.118000  1
  P  P30  1  0.500000  0.841318  0.896191  1
  P  P31  1  0.500000  0.158682  0.896191  1
  P  P32  1  0.000000  0.658682  0.103809  1
  P  P33  1  0.000000  0.341318  0.103809  1
  P  P34  1  0.500000  0.500000  0.356974  1
  P  P35  1  0.000000  0.000000  0.643026  1
