# generated using pymatgen
data_Dy4CoNi4(P4Ir5)3
_symmetry_space_group_name_H-M   'P 1'
_cell_length_a   3.93195600
_cell_length_b   10.71500061
_cell_length_c   12.34397817
_cell_angle_alpha   89.86525568
_cell_angle_beta   90.00000000
_cell_angle_gamma   90.00000000
_symmetry_Int_Tables_number   1
_chemical_formula_structural   Dy4CoNi4(P4Ir5)3
_chemical_formula_sum   'Dy4 Co1 Ni4 P12 Ir15'
_cell_volume   520.06160682
_cell_formula_units_Z   1
loop_
 _symmetry_equiv_pos_site_id
 _symmetry_equiv_pos_as_xyz
  1  'x, y, z'
loop_
 _atom_site_type_symbol
 _atom_site_label
 _atom_site_symmetry_multiplicity
 _atom_site_fract_x
 _atom_site_fract_y
 _atom_site_fract_z
 _atom_site_occupancy
  Dy  Dy0  1  0.250000  0.588152  0.708947  1
  Dy  Dy1  1  0.250000  0.912927  0.210801  1
  Dy  Dy2  1  0.750000  0.413031  0.290806  1
  Dy  Dy3  1  0.750000  0.091217  0.790863  1
  Co  Co4  1  0.250000  0.031819  0.434978  1
  Ni  Ni5  1  0.750000  0.393678  0.805712  1
  Ni  Ni6  1  0.250000  0.460880  0.934154  1
  Ni  Ni7  1  0.750000  0.534368  0.064030  1
  Ni  Ni8  1  0.750000  0.965361  0.565020  1
  P  P9  1  0.250000  0.424843  0.108372  1
  P  P10  1  0.250000  0.088671  0.604635  1
  P  P11  1  0.750000  0.578454  0.888542  1
  P  P12  1  0.750000  0.925543  0.392075  1
  P  P13  1  0.250000  0.270163  0.875629  1
  P  P14  1  0.250000  0.225046  0.370360  1
  P  P15  1  0.750000  0.729150  0.133151  1
  P  P16  1  0.750000  0.771205  0.621543  1
  P  P17  1  0.250000  0.591437  0.382842  1
  P  P18  1  0.250000  0.906399  0.883524  1
  P  P19  1  0.750000  0.403443  0.625534  1
  P  P20  1  0.750000  0.092991  0.113983  1
  Ir  Ir21  1  0.250000  0.712611  0.965455  1
  Ir  Ir22  1  0.250000  0.767964  0.490943  1
  Ir  Ir23  1  0.750000  0.278502  0.011883  1
  Ir  Ir24  1  0.750000  0.218093  0.529438  1
  Ir  Ir25  1  0.250000  0.402719  0.475520  1
  Ir  Ir26  1  0.250000  0.088294  0.981643  1
  Ir  Ir27  1  0.750000  0.582898  0.523004  1
  Ir  Ir28  1  0.750000  0.901299  0.020755  1
  Ir  Ir29  1  0.250000  0.230881  0.177050  1
  Ir  Ir30  1  0.250000  0.282229  0.687019  1
  Ir  Ir31  1  0.750000  0.771837  0.810408  1
  Ir  Ir32  1  0.750000  0.728103  0.326596  1
  Ir  Ir33  1  0.250000  0.901687  0.698931  1
  Ir  Ir34  1  0.250000  0.618844  0.193962  1
  Ir  Ir35  1  0.750000  0.115257  0.301890  1
