# generated using pymatgen
data_Cs3La(PO4)2
_symmetry_space_group_name_H-M   'P 1'
_cell_length_a   10.53033500
_cell_length_b   10.36975841
_cell_length_c   10.73144000
_cell_angle_alpha   72.49867036
_cell_angle_beta   90.00000000
_cell_angle_gamma   90.00000000
_symmetry_Int_Tables_number   1
_chemical_formula_structural   Cs3La(PO4)2
_chemical_formula_sum   'Cs12 La4 P8 O32'
_cell_volume   1117.59680446
_cell_formula_units_Z   4
loop_
 _symmetry_equiv_pos_site_id
 _symmetry_equiv_pos_as_xyz
  1  'x, y, z'
loop_
 _atom_site_type_symbol
 _atom_site_label
 _atom_site_symmetry_multiplicity
 _atom_site_fract_x
 _atom_site_fract_y
 _atom_site_fract_z
 _atom_site_occupancy
  Cs  Cs0  1  0.312630  0.010318  0.710399  1
  Cs  Cs1  1  0.812630  0.989682  0.289601  1
  Cs  Cs2  1  0.461802  0.965763  0.161441  1
  Cs  Cs3  1  0.961802  0.034237  0.838559  1
  Cs  Cs4  1  0.330881  0.716496  0.524188  1
  Cs  Cs5  1  0.830881  0.283504  0.475812  1
  Cs  Cs6  1  0.415218  0.477330  0.275981  1
  Cs  Cs7  1  0.915218  0.522670  0.724019  1
  Cs  Cs8  1  0.250631  0.272541  0.936196  1
  Cs  Cs9  1  0.750631  0.727459  0.063804  1
  Cs  Cs10  1  0.214302  0.666117  0.955941  1
  Cs  Cs11  1  0.714302  0.333883  0.044059  1
  La  La12  1  0.523549  0.341733  0.668497  1
  La  La13  1  0.023549  0.658267  0.331503  1
  La  La14  1  0.666296  0.839523  0.666317  1
  La  La15  1  0.166296  0.160477  0.333683  1
  P  P16  1  0.647702  0.093807  0.866484  1
  P  P17  1  0.147702  0.906193  0.133516  1
  P  P18  1  0.171989  0.361270  0.584612  1
  P  P19  1  0.671989  0.638730  0.415388  1
  P  P20  1  0.019306  0.865469  0.585214  1
  P  P21  1  0.519306  0.134531  0.414786  1
  P  P22  1  0.530105  0.596826  0.860213  1
  P  P23  1  0.030105  0.403174  0.139787  1
  O  O24  1  0.115739  0.503844  0.512701  1
  O  O25  1  0.615739  0.496156  0.487299  1
  O  O26  1  0.086293  0.286116  0.698910  1
  O  O27  1  0.586293  0.713884  0.301090  1
  O  O28  1  0.306181  0.385244  0.636264  1
  O  O29  1  0.806181  0.614756  0.363736  1
  O  O30  1  0.188010  0.283546  0.483228  1
  O  O31  1  0.688010  0.716454  0.516772  1
  O  O32  1  0.066119  0.011770  0.513625  1
  O  O33  1  0.566119  0.988230  0.486375  1
  O  O34  1  0.883966  0.880329  0.639462  1
  O  O35  1  0.383966  0.119671  0.360538  1
  O  O36  1  0.109580  0.794944  0.697166  1
  O  O37  1  0.609580  0.205056  0.302834  1
  O  O38  1  0.009444  0.786298  0.483037  1
  O  O39  1  0.509444  0.213702  0.516963  1
  O  O40  1  0.464163  0.726458  0.767943  1
  O  O41  1  0.964163  0.273542  0.232057  1
  O  O42  1  0.493075  0.569239  0.003748  1
  O  O43  1  0.993075  0.430761  0.996252  1
  O  O44  1  0.498005  0.472688  0.812325  1
  O  O45  1  0.998005  0.527312  0.187675  1
  O  O46  1  0.677160  0.625126  0.841220  1
  O  O47  1  0.177160  0.374874  0.158780  1
  O  O48  1  0.665877  0.972341  0.810897  1
  O  O49  1  0.165877  0.027659  0.189103  1
  O  O50  1  0.503453  0.133583  0.860322  1
  O  O51  1  0.003453  0.866417  0.139678  1
  O  O52  1  0.716337  0.221905  0.773010  1
  O  O53  1  0.216337  0.778095  0.226990  1
  O  O54  1  0.701667  0.056359  0.005762  1
  O  O55  1  0.201667  0.943641  0.994238  1
