# generated using pymatgen
data_Tb4InRu
_symmetry_space_group_name_H-M   'P 1'
_cell_length_a   9.69755973
_cell_length_b   9.69755969
_cell_length_c   9.69756000
_cell_angle_alpha   59.99999893
_cell_angle_beta   59.99999907
_cell_angle_gamma   59.99999530
_symmetry_Int_Tables_number   1
_chemical_formula_structural   Tb4InRu
_chemical_formula_sum   'Tb16 In4 Ru4'
_cell_volume   644.87030625
_cell_formula_units_Z   4
loop_
 _symmetry_equiv_pos_site_id
 _symmetry_equiv_pos_as_xyz
  1  'x, y, z'
loop_
 _atom_site_type_symbol
 _atom_site_label
 _atom_site_symmetry_multiplicity
 _atom_site_fract_x
 _atom_site_fract_y
 _atom_site_fract_z
 _atom_site_occupancy
  Tb  Tb0  1  0.097412  0.707765  0.097412  1
  Tb  Tb1  1  0.942175  0.942175  0.557825  1
  Tb  Tb2  1  0.942175  0.557825  0.942175  1
  Tb  Tb3  1  0.307839  0.692161  0.307839  1
  Tb  Tb4  1  0.942175  0.557825  0.557825  1
  Tb  Tb5  1  0.307839  0.307839  0.692161  1
  Tb  Tb6  1  0.097412  0.097412  0.097412  1
  Tb  Tb7  1  0.557825  0.557825  0.942175  1
  Tb  Tb8  1  0.097412  0.097412  0.707765  1
  Tb  Tb9  1  0.692161  0.307839  0.692161  1
  Tb  Tb10  1  0.692161  0.692161  0.307839  1
  Tb  Tb11  1  0.692161  0.307839  0.307839  1
  Tb  Tb12  1  0.307839  0.692161  0.692161  1
  Tb  Tb13  1  0.557825  0.942175  0.557825  1
  Tb  Tb14  1  0.707765  0.097412  0.097412  1
  Tb  Tb15  1  0.557825  0.942175  0.942175  1
  In  In16  1  0.332092  0.332092  0.332092  1
  In  In17  1  0.003722  0.332092  0.332092  1
  In  In18  1  0.332092  0.003722  0.332092  1
  In  In19  1  0.332092  0.332092  0.003722  1
  Ru  Ru20  1  0.888283  0.888283  0.888283  1
  Ru  Ru21  1  0.888283  0.888283  0.335151  1
  Ru  Ru22  1  0.335151  0.888283  0.888283  1
  Ru  Ru23  1  0.888283  0.335151  0.888283  1
