# generated using pymatgen
data_Y5Lu3(Si4W3)4
_symmetry_space_group_name_H-M   'P 1'
_cell_length_a   6.74955314
_cell_length_b   6.92842919
_cell_length_c   12.88126939
_cell_angle_alpha   89.96111668
_cell_angle_beta   90.00856679
_cell_angle_gamma   89.95146281
_symmetry_Int_Tables_number   1
_chemical_formula_structural   Y5Lu3(Si4W3)4
_chemical_formula_sum   'Y5 Lu3 Si16 W12'
_cell_volume   602.37675652
_cell_formula_units_Z   1
loop_
 _symmetry_equiv_pos_site_id
 _symmetry_equiv_pos_as_xyz
  1  'x, y, z'
loop_
 _atom_site_type_symbol
 _atom_site_label
 _atom_site_symmetry_multiplicity
 _atom_site_fract_x
 _atom_site_fract_y
 _atom_site_fract_z
 _atom_site_occupancy
  Y  Y0  1  0.496955  0.332693  0.093293  1
  Y  Y1  1  0.997311  0.167497  0.407304  1
  Y  Y2  1  0.502672  0.667543  0.592703  1
  Y  Y3  1  0.002681  0.832749  0.907286  1
  Y  Y4  1  0.502612  0.668029  0.906662  1
  Lu  Lu5  1  0.003451  0.830548  0.593913  1
  Lu  Lu6  1  0.496299  0.331086  0.405720  1
  Lu  Lu7  1  0.996096  0.168567  0.094648  1
  Si  Si8  1  0.663017  0.041431  0.546427  1
  Si  Si9  1  0.160414  0.457023  0.953653  1
  Si  Si10  1  0.337108  0.959580  0.047561  1
  Si  Si11  1  0.837071  0.541452  0.453235  1
  Si  Si12  1  0.339464  0.959490  0.453150  1
  Si  Si13  1  0.840175  0.540185  0.047519  1
  Si  Si14  1  0.661068  0.042281  0.953471  1
  Si  Si15  1  0.160948  0.459531  0.546275  1
  Si  Si16  1  0.535229  0.370470  0.749908  1
  Si  Si17  1  0.035085  0.127423  0.748786  1
  Si  Si18  1  0.465295  0.628729  0.250685  1
  Si  Si19  1  0.965506  0.872271  0.249679  1
  Si  Si20  1  0.802374  0.632980  0.749472  1
  Si  Si21  1  0.300669  0.867192  0.749134  1
  Si  Si22  1  0.198244  0.366676  0.250218  1
  Si  Si23  1  0.698513  0.134318  0.250261  1
  W  W24  1  0.831307  0.335817  0.625251  1
  W  W25  1  0.330529  0.163794  0.874208  1
  W  W26  1  0.168748  0.664316  0.126133  1
  W  W27  1  0.669492  0.836466  0.374294  1
  W  W28  1  0.168775  0.664213  0.375073  1
  W  W29  1  0.669580  0.837211  0.125603  1
  W  W30  1  0.832539  0.334703  0.874639  1
  W  W31  1  0.331213  0.163739  0.624425  1
  W  W32  1  0.666116  0.999987  0.749363  1
  W  W33  1  0.165076  0.499341  0.749366  1
  W  W34  1  0.334241  0.001100  0.250338  1
  W  W35  1  0.834126  0.499571  0.250344  1
