# generated using pymatgen
data_Y6ZnP5Ru6
_symmetry_space_group_name_H-M   'P 1'
_cell_length_a   7.85872211
_cell_length_b   7.87080281
_cell_length_c   7.85872123
_cell_angle_alpha   128.01683663
_cell_angle_beta   122.02984741
_cell_angle_gamma   81.54834091
_symmetry_Int_Tables_number   1
_chemical_formula_structural   Y6ZnP5Ru6
_chemical_formula_sum   'Y6 Zn1 P5 Ru6'
_cell_volume   312.69629093
_cell_formula_units_Z   1
loop_
 _symmetry_equiv_pos_site_id
 _symmetry_equiv_pos_as_xyz
  1  'x, y, z'
loop_
 _atom_site_type_symbol
 _atom_site_label
 _atom_site_symmetry_multiplicity
 _atom_site_fract_x
 _atom_site_fract_y
 _atom_site_fract_z
 _atom_site_occupancy
  Y  Y0  1  0.449940  0.656317  0.706377  1
  Y  Y1  1  0.539476  0.252091  0.212615  1
  Y  Y2  1  0.749265  0.843451  0.594185  1
  Y  Y3  1  0.249664  0.844027  0.094362  1
  Y  Y4  1  0.052419  0.254836  0.702416  1
  Y  Y5  1  0.958816  0.670103  0.211287  1
  Zn  Zn6  1  0.252872  0.249359  0.496488  1
  P  P7  1  0.748669  0.256669  0.008000  1
  P  P8  1  0.332584  0.585542  0.251858  1
  P  P9  1  0.666582  0.919912  0.253602  1
  P  P10  1  0.166310  0.919912  0.753330  1
  P  P11  1  0.833685  0.585542  0.752958  1
  Ru  Ru12  1  0.520278  0.494989  0.015515  1
  Ru  Ru13  1  0.979475  0.494989  0.474712  1
  Ru  Ru14  1  0.094808  0.253665  0.106459  1
  Ru  Ru15  1  0.856874  0.012265  0.111188  1
  Ru  Ru16  1  0.401076  0.012265  0.655392  1
  Ru  Ru17  1  0.647206  0.253665  0.658858  1
