# generated using pymatgen
data_Tm10Lu2In2Fe2Os
_symmetry_space_group_name_H-M   'P 1'
_cell_length_a   8.25433906
_cell_length_b   8.25860741
_cell_length_c   8.25433931
_cell_angle_alpha   108.66398470
_cell_angle_beta   108.64804360
_cell_angle_gamma   111.09264401
_symmetry_Int_Tables_number   1
_chemical_formula_structural   Tm10Lu2In2Fe2Os
_chemical_formula_sum   'Tm10 Lu2 In2 Fe2 Os1'
_cell_volume   433.01205442
_cell_formula_units_Z   1
loop_
 _symmetry_equiv_pos_site_id
 _symmetry_equiv_pos_as_xyz
  1  'x, y, z'
loop_
 _atom_site_type_symbol
 _atom_site_label
 _atom_site_symmetry_multiplicity
 _atom_site_fract_x
 _atom_site_fract_y
 _atom_site_fract_z
 _atom_site_occupancy
  Tm  Tm0  1  0.191982  0.954163  0.762180  1
  Tm  Tm1  1  0.954417  0.192365  0.762427  1
  Tm  Tm2  1  0.808018  0.045837  0.237820  1
  Tm  Tm3  1  0.045583  0.807635  0.237573  1
  Tm  Tm4  1  0.429939  0.192365  0.237949  1
  Tm  Tm5  1  0.570061  0.807635  0.762051  1
  Tm  Tm6  1  0.308400  0.308355  0.616403  1
  Tm  Tm7  1  0.691600  0.691645  0.383597  1
  Tm  Tm8  1  0.691950  0.308355  0.999954  1
  Tm  Tm9  1  0.308050  0.691645  0.000046  1
  Lu  Lu10  1  0.191958  0.429558  0.237599  1
  Lu  Lu11  1  0.808042  0.570442  0.762401  1
  In  In12  1  0.000000  0.500000  0.500000  1
  In  In13  1  0.500000  0.000000  0.500000  1
  Fe  Fe14  1  0.384595  0.384639  0.000044  1
  Fe  Fe15  1  0.615405  0.615361  0.999956  1
  Os  Os16  1  0.000000  0.000000  0.000000  1
