# generated using pymatgen
data_Hf6Al8Si8Ir6Ru
_symmetry_space_group_name_H-M   'P 1'
_cell_length_a   8.57961247
_cell_length_b   8.57961162
_cell_length_c   8.57191000
_cell_angle_alpha   60.02969007
_cell_angle_beta   60.02969338
_cell_angle_gamma   59.94239700
_symmetry_Int_Tables_number   1
_chemical_formula_structural   Hf6Al8Si8Ir6Ru
_chemical_formula_sum   'Hf6 Al8 Si8 Ir6 Ru1'
_cell_volume   446.17278605
_cell_formula_units_Z   1
loop_
 _symmetry_equiv_pos_site_id
 _symmetry_equiv_pos_as_xyz
  1  'x, y, z'
loop_
 _atom_site_type_symbol
 _atom_site_label
 _atom_site_symmetry_multiplicity
 _atom_site_fract_x
 _atom_site_fract_y
 _atom_site_fract_z
 _atom_site_occupancy
  Hf  Hf0  1  0.691270  0.308730  0.309528  1
  Hf  Hf1  1  0.308730  0.691270  0.690472  1
  Hf  Hf2  1  0.308730  0.691270  0.309528  1
  Hf  Hf3  1  0.691270  0.308730  0.690472  1
  Hf  Hf4  1  0.308489  0.308489  0.691511  1
  Hf  Hf5  1  0.691511  0.691511  0.308489  1
  Al  Al6  1  0.118740  0.118740  0.123867  1
  Al  Al7  1  0.881260  0.881260  0.876133  1
  Al  Al8  1  0.118740  0.118740  0.638654  1
  Al  Al9  1  0.119137  0.639712  0.120575  1
  Al  Al10  1  0.881260  0.881260  0.361346  1
  Al  Al11  1  0.880863  0.360288  0.879425  1
  Al  Al12  1  0.639712  0.119137  0.120575  1
  Al  Al13  1  0.360288  0.880863  0.879425  1
  Si  Si14  1  0.343066  0.343066  0.343556  1
  Si  Si15  1  0.656934  0.656934  0.656444  1
  Si  Si16  1  0.343066  0.343066  0.970312  1
  Si  Si17  1  0.339875  0.970950  0.344588  1
  Si  Si18  1  0.656934  0.656934  0.029688  1
  Si  Si19  1  0.660125  0.029050  0.655412  1
  Si  Si20  1  0.970950  0.339875  0.344588  1
  Si  Si21  1  0.029050  0.660125  0.655412  1
  Ir  Ir22  1  0.500000  0.000000  0.000000  1
  Ir  Ir23  1  0.000000  0.500000  0.500000  1
  Ir  Ir24  1  0.000000  0.500000  0.000000  1
  Ir  Ir25  1  0.500000  0.000000  0.500000  1
  Ir  Ir26  1  0.500000  0.500000  0.000000  1
  Ir  Ir27  1  0.000000  0.000000  0.000000  1
  Ru  Ru28  1  0.000000  0.000000  0.500000  1
