# generated using pymatgen
data_DyHo2Co8TcP6
_symmetry_space_group_name_H-M   'P 1'
_cell_length_a   3.70793100
_cell_length_b   10.51498900
_cell_length_c   12.20791700
_cell_angle_alpha   90.00000000
_cell_angle_beta   90.00000000
_cell_angle_gamma   90.00000000
_symmetry_Int_Tables_number   1
_chemical_formula_structural   DyHo2Co8TcP6
_chemical_formula_sum   'Dy2 Ho4 Co16 Tc2 P12'
_cell_volume   475.97268962
_cell_formula_units_Z   2
loop_
 _symmetry_equiv_pos_site_id
 _symmetry_equiv_pos_as_xyz
  1  'x, y, z'
loop_
 _atom_site_type_symbol
 _atom_site_label
 _atom_site_symmetry_multiplicity
 _atom_site_fract_x
 _atom_site_fract_y
 _atom_site_fract_z
 _atom_site_occupancy
  Dy  Dy0  1  0.000000  0.500000  0.524371  1
  Dy  Dy1  1  0.500000  0.000000  0.475629  1
  Ho  Ho2  1  0.500000  0.818044  0.205995  1
  Ho  Ho3  1  0.500000  0.181956  0.205995  1
  Ho  Ho4  1  0.000000  0.681956  0.794005  1
  Ho  Ho5  1  0.000000  0.318044  0.794005  1
  Co  Co6  1  0.000000  0.500000  0.987327  1
  Co  Co7  1  0.500000  0.000000  0.012673  1
  Co  Co8  1  0.500000  0.296626  0.431138  1
  Co  Co9  1  0.500000  0.703374  0.431138  1
  Co  Co10  1  0.000000  0.203374  0.568862  1
  Co  Co11  1  0.000000  0.796626  0.568862  1
  Co  Co12  1  0.500000  0.878771  0.707656  1
  Co  Co13  1  0.500000  0.121229  0.707656  1
  Co  Co14  1  0.000000  0.621229  0.292344  1
  Co  Co15  1  0.000000  0.378771  0.292344  1
  Co  Co16  1  0.500000  0.332318  0.989680  1
  Co  Co17  1  0.500000  0.667682  0.989680  1
  Co  Co18  1  0.000000  0.167682  0.010320  1
  Co  Co19  1  0.000000  0.832318  0.010320  1
  Co  Co20  1  0.500000  0.500000  0.702710  1
  Co  Co21  1  0.000000  0.000000  0.297290  1
  Tc  Tc22  1  0.500000  0.500000  0.156893  1
  Tc  Tc23  1  0.000000  0.000000  0.843107  1
  P  P24  1  0.500000  0.311954  0.616288  1
  P  P25  1  0.500000  0.688046  0.616288  1
  P  P26  1  0.000000  0.188046  0.383712  1
  P  P27  1  0.000000  0.811954  0.383712  1
  P  P28  1  0.500000  0.500000  0.880735  1
  P  P29  1  0.000000  0.000000  0.119265  1
  P  P30  1  0.500000  0.845914  0.892494  1
  P  P31  1  0.500000  0.154086  0.892494  1
  P  P32  1  0.000000  0.654086  0.107506  1
  P  P33  1  0.000000  0.345914  0.107506  1
  P  P34  1  0.500000  0.500000  0.349085  1
  P  P35  1  0.000000  0.000000  0.650915  1
