# generated using pymatgen
data_SiF18
_symmetry_space_group_name_H-M   'P 1'
_cell_length_a   6.78597091
_cell_length_b   9.54340775
_cell_length_c   10.16914300
_cell_angle_alpha   95.16171004
_cell_angle_beta   97.56601399
_cell_angle_gamma   69.57748820
_symmetry_Int_Tables_number   1
_chemical_formula_structural   SiF18
_chemical_formula_sum   'Si2 F36'
_cell_volume   611.11201773
_cell_formula_units_Z   2
loop_
 _symmetry_equiv_pos_site_id
 _symmetry_equiv_pos_as_xyz
  1  'x, y, z'
loop_
 _atom_site_type_symbol
 _atom_site_label
 _atom_site_symmetry_multiplicity
 _atom_site_fract_x
 _atom_site_fract_y
 _atom_site_fract_z
 _atom_site_occupancy
  Si  Si0  1  0.674697  0.835845  0.834225  1
  Si  Si1  1  0.325303  0.164155  0.165775  1
  F  F2  1  0.381445  0.374428  0.891709  1
  F  F3  1  0.618555  0.625572  0.108291  1
  F  F4  1  0.267838  0.293135  0.591812  1
  F  F5  1  0.732162  0.706865  0.408188  1
  F  F6  1  0.967552  0.222059  0.803127  1
  F  F7  1  0.032448  0.777941  0.196873  1
  F  F8  1  0.592931  0.892316  0.998851  1
  F  F9  1  0.407069  0.107684  0.001149  1
  F  F10  1  0.774373  0.675908  0.907208  1
  F  F11  1  0.225627  0.324092  0.092792  1
  F  F12  1  0.491702  0.423737  0.806361  1
  F  F13  1  0.508298  0.576263  0.193639  1
  F  F14  1  0.739304  0.750487  0.689594  1
  F  F15  1  0.260696  0.249513  0.310406  1
  F  F16  1  0.732956  0.025359  0.503155  1
  F  F17  1  0.267044  0.974641  0.496845  1
  F  F18  1  0.337788  0.160824  0.664944  1
  F  F19  1  0.662212  0.839176  0.335056  1
  F  F20  1  0.795492  0.113477  0.610759  1
  F  F21  1  0.204508  0.886523  0.389241  1
  F  F22  1  0.812366  0.943013  0.848547  1
  F  F23  1  0.187634  0.056987  0.151453  1
  F  F24  1  0.924407  0.379151  0.802650  1
  F  F25  1  0.075593  0.620849  0.197350  1
  F  F26  1  0.193037  0.681881  0.948439  1
  F  F27  1  0.806963  0.318119  0.051561  1
  F  F28  1  0.429737  0.915478  0.775321  1
  F  F29  1  0.570263  0.084522  0.224679  1
  F  F30  1  0.114052  0.737720  0.564780  1
  F  F31  1  0.885948  0.262280  0.435220  1
  F  F32  1  0.133691  0.612106  0.636504  1
  F  F33  1  0.866309  0.387894  0.363496  1
  F  F34  1  0.265282  0.774935  0.879032  1
  F  F35  1  0.734718  0.225065  0.120968  1
  F  F36  1  0.489067  0.433610  0.519735  1
  F  F37  1  0.510933  0.566390  0.480265  1
