# generated using pymatgen
data_Er8Ta3Ti8Si16Pd
_symmetry_space_group_name_H-M   'P 1'
_cell_length_a   7.01986432
_cell_length_b   7.01986438
_cell_length_c   12.83551992
_cell_angle_alpha   90.18622634
_cell_angle_beta   89.81377179
_cell_angle_gamma   89.64340453
_symmetry_Int_Tables_number   1
_chemical_formula_structural   Er8Ta3Ti8Si16Pd
_chemical_formula_sum   'Er8 Ta3 Ti8 Si16 Pd1'
_cell_volume   632.49613655
_cell_formula_units_Z   1
loop_
 _symmetry_equiv_pos_site_id
 _symmetry_equiv_pos_as_xyz
  1  'x, y, z'
loop_
 _atom_site_type_symbol
 _atom_site_label
 _atom_site_symmetry_multiplicity
 _atom_site_fract_x
 _atom_site_fract_y
 _atom_site_fract_z
 _atom_site_occupancy
  Er  Er0  1  0.341085  0.002049  0.467501  1
  Er  Er1  1  0.497641  0.841184  0.718152  1
  Er  Er2  1  0.501575  0.158332  0.215117  1
  Er  Er3  1  0.841184  0.497641  0.281848  1
  Er  Er4  1  0.158332  0.501575  0.784883  1
  Er  Er5  1  0.657172  0.999620  0.968392  1
  Er  Er6  1  0.002049  0.341085  0.532499  1
  Er  Er7  1  0.999620  0.657172  0.031608  1
  Ta  Ta8  1  0.174556  0.826216  0.248778  1
  Ta  Ta9  1  0.826216  0.174556  0.751222  1
  Ta  Ta10  1  0.673172  0.673172  0.500000  1
  Ti  Ti11  1  0.147939  0.004805  0.875847  1
  Ti  Ti12  1  0.493541  0.654177  0.124442  1
  Ti  Ti13  1  0.508157  0.349945  0.626463  1
  Ti  Ti14  1  0.654177  0.493541  0.875558  1
  Ti  Ti15  1  0.349945  0.508157  0.373537  1
  Ti  Ti16  1  0.849118  0.991606  0.374301  1
  Ti  Ti17  1  0.004805  0.147939  0.124153  1
  Ti  Ti18  1  0.991606  0.849118  0.625699  1
  Si  Si19  1  0.203022  0.133009  0.684018  1
  Si  Si20  1  0.372208  0.710271  0.931627  1
  Si  Si21  1  0.631541  0.295680  0.433125  1
  Si  Si22  1  0.710271  0.372208  0.068373  1
  Si  Si23  1  0.295680  0.631541  0.566875  1
  Si  Si24  1  0.797451  0.867101  0.182819  1
  Si  Si25  1  0.133009  0.203022  0.315982  1
  Si  Si26  1  0.867101  0.797451  0.817181  1
  Si  Si27  1  0.288276  0.946159  0.063004  1
  Si  Si28  1  0.546754  0.793520  0.314300  1
  Si  Si29  1  0.450868  0.208525  0.814095  1
  Si  Si30  1  0.793520  0.546754  0.685700  1
  Si  Si31  1  0.208525  0.450868  0.185905  1
  Si  Si32  1  0.707123  0.047140  0.564348  1
  Si  Si33  1  0.946159  0.288276  0.936996  1
  Si  Si34  1  0.047140  0.707123  0.435652  1
  Pd  Pd35  1  0.329464  0.329464  0.000000  1
