# generated using pymatgen
data_Lu2Ga2CuRu
_symmetry_space_group_name_H-M   'P 1'
_cell_length_a   4.29873200
_cell_length_b   6.74068200
_cell_length_c   7.54289300
_cell_angle_alpha   90.00000000
_cell_angle_beta   90.00000000
_cell_angle_gamma   90.00000000
_symmetry_Int_Tables_number   1
_chemical_formula_structural   Lu2Ga2CuRu
_chemical_formula_sum   'Lu4 Ga4 Cu2 Ru2'
_cell_volume   218.56577471
_cell_formula_units_Z   2
loop_
 _symmetry_equiv_pos_site_id
 _symmetry_equiv_pos_as_xyz
  1  'x, y, z'
loop_
 _atom_site_type_symbol
 _atom_site_label
 _atom_site_symmetry_multiplicity
 _atom_site_fract_x
 _atom_site_fract_y
 _atom_site_fract_z
 _atom_site_occupancy
  Lu  Lu0  1  0.250000  0.021693  0.813602  1
  Lu  Lu1  1  0.250000  0.521693  0.686398  1
  Lu  Lu2  1  0.750000  0.991964  0.200198  1
  Lu  Lu3  1  0.750000  0.491964  0.299802  1
  Ga  Ga4  1  0.250000  0.172066  0.433908  1
  Ga  Ga5  1  0.250000  0.672066  0.066092  1
  Ga  Ga6  1  0.750000  0.824781  0.577468  1
  Ga  Ga7  1  0.750000  0.324781  0.922532  1
  Cu  Cu8  1  0.750000  0.214805  0.604449  1
  Cu  Cu9  1  0.750000  0.714805  0.895551  1
  Ru  Ru10  1  0.250000  0.774691  0.395442  1
  Ru  Ru11  1  0.250000  0.274691  0.104558  1
