# generated using pymatgen
data_Tm8In4Pd7Au
_symmetry_space_group_name_H-M   'P 1'
_cell_length_a   7.73086128
_cell_length_b   7.73086128
_cell_length_c   7.30322654
_cell_angle_alpha   89.96942129
_cell_angle_beta   89.96942129
_cell_angle_gamma   89.82505952
_symmetry_Int_Tables_number   1
_chemical_formula_structural   Tm8In4Pd7Au
_chemical_formula_sum   'Tm8 In4 Pd7 Au1'
_cell_volume   436.48405646
_cell_formula_units_Z   1
loop_
 _symmetry_equiv_pos_site_id
 _symmetry_equiv_pos_as_xyz
  1  'x, y, z'
loop_
 _atom_site_type_symbol
 _atom_site_label
 _atom_site_symmetry_multiplicity
 _atom_site_fract_x
 _atom_site_fract_y
 _atom_site_fract_z
 _atom_site_occupancy
  Tm  Tm0  1  0.832625  0.161959  0.503399  1
  Tm  Tm1  1  0.161959  0.832625  0.503399  1
  Tm  Tm2  1  0.340928  0.340928  0.996836  1
  Tm  Tm3  1  0.664127  0.664127  0.999786  1
  Tm  Tm4  1  0.680370  0.680370  0.500479  1
  Tm  Tm5  1  0.323198  0.323198  0.502564  1
  Tm  Tm6  1  0.179415  0.815386  0.997302  1
  Tm  Tm7  1  0.815386  0.179415  0.997302  1
  In  In8  1  0.503754  0.998121  0.250298  1
  In  In9  1  0.999892  0.498677  0.750078  1
  In  In10  1  0.498677  0.999892  0.750078  1
  In  In11  1  0.998121  0.503754  0.250298  1
  Pd  Pd12  1  0.628609  0.372582  0.268139  1
  Pd  Pd13  1  0.372582  0.628609  0.268139  1
  Pd  Pd14  1  0.128415  0.128415  0.767924  1
  Pd  Pd15  1  0.872191  0.872191  0.768251  1
  Pd  Pd16  1  0.373467  0.628492  0.731495  1
  Pd  Pd17  1  0.628492  0.373467  0.731495  1
  Pd  Pd18  1  0.871485  0.871485  0.231620  1
  Au  Au19  1  0.126306  0.126306  0.231117  1
