# generated using pymatgen
data_LiTiNb2(Co4P3)2
_symmetry_space_group_name_H-M   'P 1'
_cell_length_a   11.91861605
_cell_length_b   11.91861506
_cell_length_c   3.56452000
_cell_angle_alpha   90.00000000
_cell_angle_beta   90.00000000
_cell_angle_gamma   119.90558480
_symmetry_Int_Tables_number   1
_chemical_formula_structural   LiTiNb2(Co4P3)2
_chemical_formula_sum   'Li2 Ti2 Nb4 Co16 P12'
_cell_volume   438.93044791
_cell_formula_units_Z   2
loop_
 _symmetry_equiv_pos_site_id
 _symmetry_equiv_pos_as_xyz
  1  'x, y, z'
loop_
 _atom_site_type_symbol
 _atom_site_label
 _atom_site_symmetry_multiplicity
 _atom_site_fract_x
 _atom_site_fract_y
 _atom_site_fract_z
 _atom_site_occupancy
  Li  Li0  1  0.332489  0.666589  0.000000  1
  Li  Li1  1  0.666589  0.332489  0.000000  1
  Ti  Ti2  1  0.442028  0.999601  0.000000  1
  Ti  Ti3  1  0.999601  0.442028  0.000000  1
  Nb  Nb4  1  0.819877  0.001148  0.500000  1
  Nb  Nb5  1  0.001148  0.819877  0.500000  1
  Nb  Nb6  1  0.179572  0.179572  0.500000  1
  Nb  Nb7  1  0.555757  0.555757  0.000000  1
  Co  Co8  1  0.280034  0.999914  0.500000  1
  Co  Co9  1  0.999914  0.280034  0.500000  1
  Co  Co10  1  0.723357  0.723357  0.500000  1
  Co  Co11  1  0.632856  0.807622  0.000000  1
  Co  Co12  1  0.194857  0.825961  0.000000  1
  Co  Co13  1  0.173345  0.368475  0.000000  1
  Co  Co14  1  0.368475  0.173345  0.000000  1
  Co  Co15  1  0.807622  0.632856  0.000000  1
  Co  Co16  1  0.825961  0.194857  0.000000  1
  Co  Co17  1  0.522079  0.875858  0.500000  1
  Co  Co18  1  0.124121  0.647483  0.500000  1
  Co  Co19  1  0.350545  0.476595  0.500000  1
  Co  Co20  1  0.476595  0.350545  0.500000  1
  Co  Co21  1  0.875858  0.522079  0.500000  1
  Co  Co22  1  0.647483  0.124121  0.500000  1
  Co  Co23  1  0.000561  0.000561  0.000000  1
  P  P24  1  0.174211  0.999734  0.000000  1
  P  P25  1  0.999734  0.174211  0.000000  1
  P  P26  1  0.827080  0.827080  0.000000  1
  P  P27  1  0.511033  0.686914  0.500000  1
  P  P28  1  0.314761  0.826799  0.500000  1
  P  P29  1  0.172208  0.488286  0.500000  1
  P  P30  1  0.488286  0.172208  0.500000  1
  P  P31  1  0.686914  0.511033  0.500000  1
  P  P32  1  0.826799  0.314761  0.500000  1
  P  P33  1  0.648118  0.000876  0.000000  1
  P  P34  1  0.000876  0.648118  0.000000  1
  P  P35  1  0.349257  0.349257  0.000000  1
