# generated using pymatgen
data_Ce2ScIrF14
_symmetry_space_group_name_H-M   'P 1'
_cell_length_a   5.76461126
_cell_length_b   6.04948766
_cell_length_c   8.26514975
_cell_angle_alpha   101.18654066
_cell_angle_beta   89.98932215
_cell_angle_gamma   90.07609392
_symmetry_Int_Tables_number   1
_chemical_formula_structural   Ce2ScIrF14
_chemical_formula_sum   'Ce2 Sc1 Ir1 F14'
_cell_volume   282.75370567
_cell_formula_units_Z   1
loop_
 _symmetry_equiv_pos_site_id
 _symmetry_equiv_pos_as_xyz
  1  'x, y, z'
loop_
 _atom_site_type_symbol
 _atom_site_label
 _atom_site_symmetry_multiplicity
 _atom_site_fract_x
 _atom_site_fract_y
 _atom_site_fract_z
 _atom_site_occupancy
  Ce  Ce0  1  0.701623  0.667421  0.690534  1
  Ce  Ce1  1  0.202715  0.335104  0.303441  1
  Sc  Sc2  1  0.708412  0.807128  0.222464  1
  Ir  Ir3  1  0.209835  0.192300  0.772584  1
  F  F4  1  0.886119  0.446306  0.483958  1
  F  F5  1  0.381727  0.547193  0.521791  1
  F  F6  1  0.415889  0.929098  0.767101  1
  F  F7  1  0.926796  0.075450  0.232056  1
  F  F8  1  0.943220  0.980433  0.763310  1
  F  F9  1  0.447378  0.039000  0.241052  1
  F  F10  1  0.005647  0.460655  0.791018  1
  F  F11  1  0.498407  0.535909  0.212081  1
  F  F12  1  0.702770  0.756691  0.973807  1
  F  F13  1  0.204638  0.238956  0.015995  1
  F  F14  1  0.710296  0.855366  0.474645  1
  F  F15  1  0.215821  0.132722  0.528947  1
  F  F16  1  0.490457  0.386460  0.785160  1
  F  F17  1  0.000967  0.613806  0.220055  1
