# generated using pymatgen
data_LuScP7Ru12
_symmetry_space_group_name_H-M   'P 1'
_cell_length_a   9.38233700
_cell_length_b   9.38233609
_cell_length_c   3.93285000
_cell_angle_alpha   90.00000000
_cell_angle_beta   90.00000000
_cell_angle_gamma   119.99999264
_symmetry_Int_Tables_number   1
_chemical_formula_structural   LuScP7Ru12
_chemical_formula_sum   'Lu1 Sc1 P7 Ru12'
_cell_volume   299.81962764
_cell_formula_units_Z   1
loop_
 _symmetry_equiv_pos_site_id
 _symmetry_equiv_pos_as_xyz
  1  'x, y, z'
loop_
 _atom_site_type_symbol
 _atom_site_label
 _atom_site_symmetry_multiplicity
 _atom_site_fract_x
 _atom_site_fract_y
 _atom_site_fract_z
 _atom_site_occupancy
  Lu  Lu0  1  0.333333  0.666667  0.000000  1
  Sc  Sc1  1  0.666667  0.333333  0.500000  1
  P  P2  1  0.598513  0.718275  0.500000  1
  P  P3  1  0.000000  0.000000  0.000000  1
  P  P4  1  0.281725  0.880238  0.500000  1
  P  P5  1  0.119762  0.401487  0.500000  1
  P  P6  1  0.882404  0.572947  0.000000  1
  P  P7  1  0.427053  0.309458  0.000000  1
  P  P8  1  0.690542  0.117596  0.000000  1
  Ru  Ru9  1  0.554894  0.948305  0.500000  1
  Ru  Ru10  1  0.393411  0.445106  0.500000  1
  Ru  Ru11  1  0.913992  0.122700  0.500000  1
  Ru  Ru12  1  0.208708  0.086008  0.500000  1
  Ru  Ru13  1  0.877300  0.791292  0.500000  1
  Ru  Ru14  1  0.726789  0.891282  0.000000  1
  Ru  Ru15  1  0.108718  0.835506  0.000000  1
  Ru  Ru16  1  0.164494  0.273211  0.000000  1
  Ru  Ru17  1  0.427061  0.068645  0.000000  1
  Ru  Ru18  1  0.931355  0.358418  0.000000  1
  Ru  Ru19  1  0.641582  0.572939  0.000000  1
  Ru  Ru20  1  0.051695  0.606589  0.500000  1
