# generated using pymatgen
data_Be8V2RuW
_symmetry_space_group_name_H-M   'P 1'
_cell_length_a   4.35224100
_cell_length_b   4.35223965
_cell_length_c   7.14376100
_cell_angle_alpha   90.00000000
_cell_angle_beta   90.00000000
_cell_angle_gamma   120.00000266
_symmetry_Int_Tables_number   1
_chemical_formula_structural   Be8V2RuW
_chemical_formula_sum   'Be8 V2 Ru1 W1'
_cell_volume   117.18803542
_cell_formula_units_Z   1
loop_
 _symmetry_equiv_pos_site_id
 _symmetry_equiv_pos_as_xyz
  1  'x, y, z'
loop_
 _atom_site_type_symbol
 _atom_site_label
 _atom_site_symmetry_multiplicity
 _atom_site_fract_x
 _atom_site_fract_y
 _atom_site_fract_z
 _atom_site_occupancy
  Be  Be0  1  0.000000  0.000000  0.001386  1
  Be  Be1  1  0.000000  0.000000  0.498361  1
  Be  Be2  1  0.830284  0.660571  0.248416  1
  Be  Be3  1  0.169292  0.830708  0.751569  1
  Be  Be4  1  0.661417  0.830708  0.751569  1
  Be  Be5  1  0.339429  0.169716  0.248416  1
  Be  Be6  1  0.830284  0.169716  0.248416  1
  Be  Be7  1  0.169292  0.338583  0.751569  1
  V  V8  1  0.666667  0.333333  0.938596  1
  V  V9  1  0.333333  0.666667  0.433563  1
  Ru  Ru10  1  0.333333  0.666667  0.064193  1
  W  W11  1  0.666667  0.333333  0.563950  1
