# generated using pymatgen
data_Ti3Ga3Co2Pt
_symmetry_space_group_name_H-M   'P 1'
_cell_length_a   7.01971300
_cell_length_b   7.01971480
_cell_length_c   3.05641900
_cell_angle_alpha   90.00000000
_cell_angle_beta   90.00000000
_cell_angle_gamma   120.00000565
_symmetry_Int_Tables_number   1
_chemical_formula_structural   Ti3Ga3Co2Pt
_chemical_formula_sum   'Ti3 Ga3 Co2 Pt1'
_cell_volume   130.43144993
_cell_formula_units_Z   1
loop_
 _symmetry_equiv_pos_site_id
 _symmetry_equiv_pos_as_xyz
  1  'x, y, z'
loop_
 _atom_site_type_symbol
 _atom_site_label
 _atom_site_symmetry_multiplicity
 _atom_site_fract_x
 _atom_site_fract_y
 _atom_site_fract_z
 _atom_site_occupancy
  Ti  Ti0  1  0.375028  0.395815  0.500000  1
  Ti  Ti1  1  0.604185  0.979213  0.500000  1
  Ti  Ti2  1  0.020787  0.624972  0.500000  1
  Ga  Ga3  1  0.726605  0.726879  0.000000  1
  Ga  Ga4  1  0.273121  0.999726  0.000000  1
  Ga  Ga5  1  0.000274  0.273395  0.000000  1
  Co  Co6  1  0.333333  0.666667  0.000000  1
  Co  Co7  1  0.000000  0.000000  0.500000  1
  Pt  Pt8  1  0.666667  0.333333  0.000000  1
