# generated using pymatgen
data_Pr2Ho9In9Ru4
_symmetry_space_group_name_H-M   'P 1'
_cell_length_a   13.08381374
_cell_length_b   13.08098196
_cell_length_c   3.74073000
_cell_angle_alpha   90.00000000
_cell_angle_beta   90.00000000
_cell_angle_gamma   112.64833863
_symmetry_Int_Tables_number   1
_chemical_formula_structural   Pr2Ho9In9Ru4
_chemical_formula_sum   'Pr2 Ho9 In9 Ru4'
_cell_volume   590.85234715
_cell_formula_units_Z   1
loop_
 _symmetry_equiv_pos_site_id
 _symmetry_equiv_pos_as_xyz
  1  'x, y, z'
loop_
 _atom_site_type_symbol
 _atom_site_label
 _atom_site_symmetry_multiplicity
 _atom_site_fract_x
 _atom_site_fract_y
 _atom_site_fract_z
 _atom_site_occupancy
  Pr  Pr0  1  0.338822  0.661203  0.500000  1
  Pr  Pr1  1  0.661178  0.338797  0.500000  1
  Ho  Ho2  1  0.500000  0.500000  0.500000  1
  Ho  Ho3  1  0.813605  0.813471  0.500000  1
  Ho  Ho4  1  0.186395  0.186529  0.500000  1
  Ho  Ho5  1  0.583244  0.916493  0.500000  1
  Ho  Ho6  1  0.416756  0.083507  0.500000  1
  Ho  Ho7  1  0.916549  0.583384  0.500000  1
  Ho  Ho8  1  0.083451  0.416616  0.500000  1
  Ho  Ho9  1  0.124279  0.875549  0.500000  1
  Ho  Ho10  1  0.875721  0.124451  0.500000  1
  In  In11  1  0.341271  0.873092  0.000000  1
  In  In12  1  0.658729  0.126908  0.000000  1
  In  In13  1  0.873064  0.341167  0.000000  1
  In  In14  1  0.126936  0.658833  0.000000  1
  In  In15  1  0.579569  0.720266  0.000000  1
  In  In16  1  0.420431  0.279734  0.000000  1
  In  In17  1  0.720402  0.579699  0.000000  1
  In  In18  1  0.279598  0.420301  0.000000  1
  In  In19  1  0.000000  0.000000  0.000000  1
  Ru  Ru20  1  0.752517  0.949201  0.000000  1
  Ru  Ru21  1  0.247483  0.050799  0.000000  1
  Ru  Ru22  1  0.949275  0.752690  0.000000  1
  Ru  Ru23  1  0.050725  0.247310  0.000000  1
