# generated using pymatgen
data_Tb2Nd9In9Pd4
_symmetry_space_group_name_H-M   'P 1'
_cell_length_a   13.47270364
_cell_length_b   13.47270328
_cell_length_c   3.77017600
_cell_angle_alpha   90.00000000
_cell_angle_beta   90.00000000
_cell_angle_gamma   111.14114129
_symmetry_Int_Tables_number   1
_chemical_formula_structural   Tb2Nd9In9Pd4
_chemical_formula_sum   'Tb2 Nd9 In9 Pd4'
_cell_volume   638.27918366
_cell_formula_units_Z   1
loop_
 _symmetry_equiv_pos_site_id
 _symmetry_equiv_pos_as_xyz
  1  'x, y, z'
loop_
 _atom_site_type_symbol
 _atom_site_label
 _atom_site_symmetry_multiplicity
 _atom_site_fract_x
 _atom_site_fract_y
 _atom_site_fract_z
 _atom_site_occupancy
  Tb  Tb0  1  0.310049  0.310049  0.000000  1
  Tb  Tb1  1  0.689951  0.689951  0.000000  1
  Nd  Nd2  1  0.417005  0.070318  0.000000  1
  Nd  Nd3  1  0.582995  0.929682  0.000000  1
  Nd  Nd4  1  0.070318  0.417005  0.000000  1
  Nd  Nd5  1  0.929682  0.582995  0.000000  1
  Nd  Nd6  1  0.158562  0.841438  0.000000  1
  Nd  Nd7  1  0.841438  0.158562  0.000000  1
  Nd  Nd8  1  0.371101  0.628899  0.000000  1
  Nd  Nd9  1  0.628899  0.371101  0.000000  1
  Nd  Nd10  1  0.000000  0.000000  0.000000  1
  In  In11  1  0.366734  0.839487  0.500000  1
  In  In12  1  0.633266  0.160513  0.500000  1
  In  In13  1  0.839487  0.366734  0.500000  1
  In  In14  1  0.160513  0.633266  0.500000  1
  In  In15  1  0.219897  0.079383  0.500000  1
  In  In16  1  0.780103  0.920617  0.500000  1
  In  In17  1  0.079383  0.219897  0.500000  1
  In  In18  1  0.920617  0.780103  0.500000  1
  In  In19  1  0.500000  0.500000  0.500000  1
  Pd  Pd20  1  0.446831  0.250253  0.500000  1
  Pd  Pd21  1  0.553169  0.749747  0.500000  1
  Pd  Pd22  1  0.250253  0.446831  0.500000  1
  Pd  Pd23  1  0.749747  0.553169  0.500000  1
