# generated using pymatgen
data_Er5Fe3(P3Rh4)4
_symmetry_space_group_name_H-M   'P 1'
_cell_length_a   12.59746800
_cell_length_b   12.59746823
_cell_length_c   3.85704700
_cell_angle_alpha   90.00000000
_cell_angle_beta   90.00000000
_cell_angle_gamma   120.00000465
_symmetry_Int_Tables_number   1
_chemical_formula_structural   Er5Fe3(P3Rh4)4
_chemical_formula_sum   'Er5 Fe3 P12 Rh16'
_cell_volume   530.09301057
_cell_formula_units_Z   1
loop_
 _symmetry_equiv_pos_site_id
 _symmetry_equiv_pos_as_xyz
  1  'x, y, z'
loop_
 _atom_site_type_symbol
 _atom_site_label
 _atom_site_symmetry_multiplicity
 _atom_site_fract_x
 _atom_site_fract_y
 _atom_site_fract_z
 _atom_site_occupancy
  Er  Er0  1  0.666667  0.333333  0.000000  1
  Er  Er1  1  0.333333  0.666667  0.000000  1
  Er  Er2  1  0.817425  0.817425  0.500000  1
  Er  Er3  1  0.182575  0.000000  0.500000  1
  Er  Er4  1  0.000000  0.182575  0.500000  1
  Fe  Fe5  1  0.283005  0.283005  0.500000  1
  Fe  Fe6  1  0.716995  0.000000  0.500000  1
  Fe  Fe7  1  0.000000  0.716995  0.500000  1
  P  P8  1  0.683203  0.159682  0.500000  1
  P  P9  1  0.840318  0.523521  0.500000  1
  P  P10  1  0.476479  0.316797  0.500000  1
  P  P11  1  0.159682  0.683203  0.500000  1
  P  P12  1  0.523521  0.840318  0.500000  1
  P  P13  1  0.316797  0.476479  0.500000  1
  P  P14  1  0.638005  0.638005  0.000000  1
  P  P15  1  0.361995  0.000000  0.000000  1
  P  P16  1  0.000000  0.361995  0.000000  1
  P  P17  1  0.183202  0.183202  0.000000  1
  P  P18  1  0.816798  0.000000  0.000000  1
  P  P19  1  0.000000  0.816798  0.000000  1
  Rh  Rh20  1  0.804158  0.177668  0.000000  1
  Rh  Rh21  1  0.822332  0.626490  0.000000  1
  Rh  Rh22  1  0.373510  0.195842  0.000000  1
  Rh  Rh23  1  0.177668  0.804158  0.000000  1
  Rh  Rh24  1  0.626490  0.822332  0.000000  1
  Rh  Rh25  1  0.195842  0.373510  0.000000  1
  Rh  Rh26  1  0.452055  0.452055  0.000000  1
  Rh  Rh27  1  0.547945  0.000000  0.000000  1
  Rh  Rh28  1  0.000000  0.547945  0.000000  1
  Rh  Rh29  1  0.867661  0.356558  0.500000  1
  Rh  Rh30  1  0.643442  0.511104  0.500000  1
  Rh  Rh31  1  0.488896  0.132339  0.500000  1
  Rh  Rh32  1  0.356558  0.867661  0.500000  1
  Rh  Rh33  1  0.511104  0.643442  0.500000  1
  Rh  Rh34  1  0.132339  0.488896  0.500000  1
  Rh  Rh35  1  0.000000  0.000000  0.000000  1
