# generated using pymatgen
data_Ca2HoBe(PPd4)5
_symmetry_space_group_name_H-M   'P 1'
_cell_length_a   8.68587712
_cell_length_b   8.64582675
_cell_length_c   8.64582507
_cell_angle_alpha   60.30670991
_cell_angle_beta   59.84664257
_cell_angle_gamma   59.84663544
_symmetry_Int_Tables_number   1
_chemical_formula_structural   Ca2HoBe(PPd4)5
_chemical_formula_sum   'Ca2 Ho1 Be1 P5 Pd20'
_cell_volume   459.08477521
_cell_formula_units_Z   1
loop_
 _symmetry_equiv_pos_site_id
 _symmetry_equiv_pos_as_xyz
  1  'x, y, z'
loop_
 _atom_site_type_symbol
 _atom_site_label
 _atom_site_symmetry_multiplicity
 _atom_site_fract_x
 _atom_site_fract_y
 _atom_site_fract_z
 _atom_site_occupancy
  Ca  Ca0  1  0.249670  0.250330  0.250330  1
  Ca  Ca1  1  0.749670  0.750330  0.750330  1
  Ho  Ho2  1  0.995869  0.004131  0.004131  1
  Be  Be3  1  0.732041  0.267959  0.267959  1
  P  P4  1  0.262842  0.737158  0.737158  1
  P  P5  1  0.265851  0.734149  0.264350  1
  P  P6  1  0.735650  0.264350  0.734149  1
  P  P7  1  0.265851  0.264350  0.734149  1
  P  P8  1  0.735650  0.734149  0.264350  1
  Pd  Pd9  1  0.388614  0.383778  0.383778  1
  Pd  Pd10  1  0.614585  0.613904  0.613904  1
  Pd  Pd11  1  0.386096  0.385415  0.842394  1
  Pd  Pd12  1  0.386096  0.842394  0.385415  1
  Pd  Pd13  1  0.616222  0.611386  0.156170  1
  Pd  Pd14  1  0.616222  0.156170  0.611386  1
  Pd  Pd15  1  0.843830  0.383778  0.383778  1
  Pd  Pd16  1  0.157606  0.613904  0.613904  1
  Pd  Pd17  1  0.343073  0.001227  0.001227  1
  Pd  Pd18  1  0.654474  0.001227  0.001227  1
  Pd  Pd19  1  0.998773  0.345526  0.656927  1
  Pd  Pd20  1  0.998773  0.656927  0.345526  1
  Pd  Pd21  1  0.997057  0.341519  0.002943  1
  Pd  Pd22  1  0.658481  0.002943  0.341519  1
  Pd  Pd23  1  0.999868  0.654130  0.000132  1
  Pd  Pd24  1  0.345870  0.000132  0.654130  1
  Pd  Pd25  1  0.997057  0.002943  0.341519  1
  Pd  Pd26  1  0.999868  0.000132  0.654130  1
  Pd  Pd27  1  0.658481  0.341519  0.002943  1
  Pd  Pd28  1  0.345870  0.654130  0.000132  1
