# generated using pymatgen
data_Ba2AlCrFe2(SeO3)8
_symmetry_space_group_name_H-M   'P 1'
_cell_length_a   10.30514426
_cell_length_b   5.26022441
_cell_length_c   10.68977500
_cell_angle_alpha   90.21395734
_cell_angle_beta   95.63135912
_cell_angle_gamma   89.88776709
_symmetry_Int_Tables_number   1
_chemical_formula_structural   Ba2AlCrFe2(SeO3)8
_chemical_formula_sum   'Ba2 Al1 Cr1 Fe2 Se8 O24'
_cell_volume   576.66325645
_cell_formula_units_Z   1
loop_
 _symmetry_equiv_pos_site_id
 _symmetry_equiv_pos_as_xyz
  1  'x, y, z'
loop_
 _atom_site_type_symbol
 _atom_site_label
 _atom_site_symmetry_multiplicity
 _atom_site_fract_x
 _atom_site_fract_y
 _atom_site_fract_z
 _atom_site_occupancy
  Ba  Ba0  1  0.252603  0.939228  0.248975  1
  Ba  Ba1  1  0.747398  0.060772  0.751025  1
  Al  Al2  1  0.500000  0.000000  0.000000  1
  Cr  Cr3  1  0.500000  0.500000  0.500000  1
  Fe  Fe4  1  0.000000  0.500000  0.000000  1
  Fe  Fe5  1  0.000000  0.000000  0.500000  1
  Se  Se6  1  0.833493  0.988471  0.095702  1
  Se  Se7  1  0.525064  0.496405  0.178392  1
  Se  Se8  1  0.977040  0.494946  0.317572  1
  Se  Se9  1  0.658191  0.989334  0.402847  1
  Se  Se10  1  0.341809  0.010666  0.597153  1
  Se  Se11  1  0.022960  0.505054  0.682428  1
  Se  Se12  1  0.474936  0.503595  0.821608  1
  Se  Se13  1  0.166507  0.011529  0.904298  1
  O  O14  1  0.123308  0.188244  0.032691  1
  O  O15  1  0.843421  0.293569  0.036931  1
  O  O16  1  0.434384  0.708882  0.080770  1
  O  O17  1  0.667313  0.950808  0.091924  1
  O  O18  1  0.446713  0.211176  0.139322  1
  O  O19  1  0.048523  0.589670  0.184098  1
  O  O20  1  0.451433  0.577395  0.313739  1
  O  O21  1  0.055097  0.206933  0.348563  1
  O  O22  1  0.823286  0.943101  0.400744  1
  O  O23  1  0.070591  0.692153  0.420492  1
  O  O24  1  0.657019  0.291865  0.466889  1
  O  O25  1  0.380793  0.190313  0.468139  1
  O  O26  1  0.619207  0.809686  0.531862  1
  O  O27  1  0.342982  0.708134  0.533111  1
  O  O28  1  0.929410  0.307846  0.579507  1
  O  O29  1  0.176714  0.056900  0.599255  1
  O  O30  1  0.944902  0.793067  0.651437  1
  O  O31  1  0.548567  0.422604  0.686260  1
  O  O32  1  0.951477  0.410329  0.815903  1
  O  O33  1  0.553287  0.788824  0.860677  1
  O  O34  1  0.332687  0.049193  0.908075  1
  O  O35  1  0.565617  0.291117  0.919229  1
  O  O36  1  0.156580  0.706430  0.963070  1
  O  O37  1  0.876692  0.811755  0.967309  1
