# generated using pymatgen
data_EuLu(PPt)2
_symmetry_space_group_name_H-M   'P 1'
_cell_length_a   4.12419131
_cell_length_b   4.12348926
_cell_length_c   8.07658853
_cell_angle_alpha   90.00145423
_cell_angle_beta   89.99761471
_cell_angle_gamma   120.00081303
_symmetry_Int_Tables_number   1
_chemical_formula_structural   EuLu(PPt)2
_chemical_formula_sum   'Eu1 Lu1 P2 Pt2'
_cell_volume   118.94842657
_cell_formula_units_Z   1
loop_
 _symmetry_equiv_pos_site_id
 _symmetry_equiv_pos_as_xyz
  1  'x, y, z'
loop_
 _atom_site_type_symbol
 _atom_site_label
 _atom_site_symmetry_multiplicity
 _atom_site_fract_x
 _atom_site_fract_y
 _atom_site_fract_z
 _atom_site_occupancy
  Eu  Eu0  1  0.000000  0.000000  0.500001  1
  Lu  Lu1  1  0.000000  0.000000  0.999999  1
  P  P2  1  0.333249  0.666612  0.757889  1
  P  P3  1  0.666751  0.333388  0.242111  1
  Pt  Pt4  1  0.666610  0.333329  0.773377  1
  Pt  Pt5  1  0.333390  0.666671  0.226623  1
