# generated using pymatgen
data_ZrSc9(Sn3Ge)2
_symmetry_space_group_name_H-M   'P 1'
_cell_length_a   6.04632900
_cell_length_b   8.73001195
_cell_length_c   8.73001277
_cell_angle_alpha   59.90877672
_cell_angle_beta   90.00000000
_cell_angle_gamma   90.00000000
_symmetry_Int_Tables_number   1
_chemical_formula_structural   ZrSc9(Sn3Ge)2
_chemical_formula_sum   'Zr1 Sc9 Sn6 Ge2'
_cell_volume   398.70545191
_cell_formula_units_Z   1
loop_
 _symmetry_equiv_pos_site_id
 _symmetry_equiv_pos_as_xyz
  1  'x, y, z'
loop_
 _atom_site_type_symbol
 _atom_site_label
 _atom_site_symmetry_multiplicity
 _atom_site_fract_x
 _atom_site_fract_y
 _atom_site_fract_z
 _atom_site_occupancy
  Zr  Zr0  1  0.750000  0.254734  0.745266  1
  Sc  Sc1  1  0.250000  0.258843  0.999357  1
  Sc  Sc2  1  0.750000  0.743348  0.999202  1
  Sc  Sc3  1  0.250000  0.744141  0.255859  1
  Sc  Sc4  1  0.750000  0.000798  0.256652  1
  Sc  Sc5  1  0.999569  0.333085  0.334564  1
  Sc  Sc6  1  0.500431  0.333085  0.334564  1
  Sc  Sc7  1  0.999569  0.665435  0.666914  1
  Sc  Sc8  1  0.500431  0.665435  0.666914  1
  Sc  Sc9  1  0.250000  0.000643  0.741157  1
  Sn  Sn10  1  0.750000  0.392790  0.999557  1
  Sn  Sn11  1  0.250000  0.608802  0.998734  1
  Sn  Sn12  1  0.250000  0.001266  0.391198  1
  Sn  Sn13  1  0.750000  0.608354  0.391646  1
  Sn  Sn14  1  0.750000  0.000443  0.607210  1
  Sn  Sn15  1  0.250000  0.391076  0.608924  1
  Ge  Ge16  1  0.001879  0.998861  0.001139  1
  Ge  Ge17  1  0.498121  0.998861  0.001139  1
