# generated using pymatgen
data_K8TiSiS8
_symmetry_space_group_name_H-M   'P 1'
_cell_length_a   8.11177695
_cell_length_b   9.54955800
_cell_length_c   14.19887100
_cell_angle_alpha   90.00000000
_cell_angle_beta   89.68325957
_cell_angle_gamma   90.00000000
_symmetry_Int_Tables_number   1
_chemical_formula_structural   K8TiSiS8
_chemical_formula_sum   'K16 Ti2 Si2 S16'
_cell_volume   1099.88289596
_cell_formula_units_Z   2
loop_
 _symmetry_equiv_pos_site_id
 _symmetry_equiv_pos_as_xyz
  1  'x, y, z'
loop_
 _atom_site_type_symbol
 _atom_site_label
 _atom_site_symmetry_multiplicity
 _atom_site_fract_x
 _atom_site_fract_y
 _atom_site_fract_z
 _atom_site_occupancy
  K  K0  1  0.000000  0.000000  0.000000  1
  K  K1  1  0.500000  0.000000  0.500000  1
  K  K2  1  0.000000  0.500000  0.000000  1
  K  K3  1  0.500000  0.500000  0.500000  1
  K  K4  1  0.985647  0.750000  0.425428  1
  K  K5  1  0.486336  0.250000  0.073966  1
  K  K6  1  0.014353  0.250000  0.574572  1
  K  K7  1  0.513664  0.750000  0.926034  1
  K  K8  1  0.839350  0.054857  0.278309  1
  K  K9  1  0.339193  0.949071  0.222812  1
  K  K10  1  0.160650  0.554857  0.721691  1
  K  K11  1  0.660807  0.449071  0.777188  1
  K  K12  1  0.160650  0.945143  0.721691  1
  K  K13  1  0.660807  0.050929  0.777188  1
  K  K14  1  0.839350  0.445143  0.278309  1
  K  K15  1  0.339193  0.550929  0.222812  1
  Ti  Ti16  1  0.741562  0.750000  0.165919  1
  Ti  Ti17  1  0.258438  0.250000  0.834081  1
  Si  Si18  1  0.760346  0.750000  0.665675  1
  Si  Si19  1  0.239654  0.250000  0.334325  1
  S  S20  1  0.976734  0.250000  0.825116  1
  S  S21  1  0.507027  0.250000  0.324713  1
  S  S22  1  0.492973  0.750000  0.675287  1
  S  S23  1  0.023266  0.750000  0.174884  1
  S  S24  1  0.656339  0.554606  0.090142  1
  S  S25  1  0.156864  0.434213  0.407072  1
  S  S26  1  0.343661  0.054606  0.909858  1
  S  S27  1  0.843136  0.934213  0.592928  1
  S  S28  1  0.343661  0.445394  0.909858  1
  S  S29  1  0.843136  0.565787  0.592928  1
  S  S30  1  0.656339  0.945394  0.090142  1
  S  S31  1  0.156864  0.065787  0.407072  1
  S  S32  1  0.631221  0.750000  0.315182  1
  S  S33  1  0.138256  0.250000  0.192699  1
  S  S34  1  0.368779  0.250000  0.684818  1
  S  S35  1  0.861744  0.750000  0.807301  1
