# generated using pymatgen
data_Er3PaPt4
_symmetry_space_group_name_H-M   'P 1'
_cell_length_a   4.53417800
_cell_length_b   5.57858949
_cell_length_c   6.93984301
_cell_angle_alpha   89.28395124
_cell_angle_beta   90.00000000
_cell_angle_gamma   90.00000000
_symmetry_Int_Tables_number   1
_chemical_formula_structural   Er3PaPt4
_chemical_formula_sum   'Er3 Pa1 Pt4'
_cell_volume   175.52488611
_cell_formula_units_Z   1
loop_
 _symmetry_equiv_pos_site_id
 _symmetry_equiv_pos_as_xyz
  1  'x, y, z'
loop_
 _atom_site_type_symbol
 _atom_site_label
 _atom_site_symmetry_multiplicity
 _atom_site_fract_x
 _atom_site_fract_y
 _atom_site_fract_z
 _atom_site_occupancy
  Er  Er0  1  0.750000  0.357018  0.815718  1
  Er  Er1  1  0.750000  0.142509  0.321242  1
  Er  Er2  1  0.250000  0.859826  0.682706  1
  Pa  Pa3  1  0.250000  0.642013  0.182481  1
  Pt  Pt4  1  0.250000  0.161203  0.047992  1
  Pt  Pt5  1  0.750000  0.834958  0.959846  1
  Pt  Pt6  1  0.750000  0.657132  0.449335  1
  Pt  Pt7  1  0.250000  0.345342  0.540681  1
