# generated using pymatgen
data_Tb8Pr2Cd3In(HgPd)4
_symmetry_space_group_name_H-M   'P 1'
_cell_length_a   8.05120800
_cell_length_b   18.61279800
_cell_length_c   3.68198700
_cell_angle_alpha   90.00000000
_cell_angle_beta   90.00000000
_cell_angle_gamma   90.00000000
_symmetry_Int_Tables_number   1
_chemical_formula_structural   Tb8Pr2Cd3In(HgPd)4
_chemical_formula_sum   'Tb8 Pr2 Cd3 In1 Hg4 Pd4'
_cell_volume   551.76603292
_cell_formula_units_Z   1
loop_
 _symmetry_equiv_pos_site_id
 _symmetry_equiv_pos_as_xyz
  1  'x, y, z'
loop_
 _atom_site_type_symbol
 _atom_site_label
 _atom_site_symmetry_multiplicity
 _atom_site_fract_x
 _atom_site_fract_y
 _atom_site_fract_z
 _atom_site_occupancy
  Tb  Tb0  1  0.744034  0.284117  0.000000  1
  Tb  Tb1  1  0.256059  0.715543  0.000000  1
  Tb  Tb2  1  0.755035  0.784011  0.000000  1
  Tb  Tb3  1  0.244293  0.215766  0.000000  1
  Tb  Tb4  1  0.613576  0.084708  0.000000  1
  Tb  Tb5  1  0.386441  0.915387  0.000000  1
  Tb  Tb6  1  0.886464  0.584588  0.000000  1
  Tb  Tb7  1  0.113477  0.415341  0.000000  1
  Pr  Pr8  1  0.499470  0.500165  0.000000  1
  Pr  Pr9  1  0.000526  0.999786  0.000000  1
  Cd  Cd10  1  0.580913  0.652889  0.500000  1
  Cd  Cd11  1  0.419745  0.347095  0.500000  1
  Cd  Cd12  1  0.919976  0.152982  0.500000  1
  In  In13  1  0.080130  0.847080  0.500000  1
  Hg  Hg14  1  0.706555  0.930788  0.500000  1
  Hg  Hg15  1  0.293533  0.069353  0.500000  1
  Hg  Hg16  1  0.793216  0.430826  0.500000  1
  Hg  Hg17  1  0.206410  0.569165  0.500000  1
  Pd  Pd18  1  0.534575  0.197339  0.500000  1
  Pd  Pd19  1  0.465291  0.802785  0.500000  1
  Pd  Pd20  1  0.965745  0.697544  0.500000  1
  Pd  Pd21  1  0.034536  0.302743  0.500000  1
