# generated using pymatgen
data_Nd4InPd4Au
_symmetry_space_group_name_H-M   'P 1'
_cell_length_a   7.80428100
_cell_length_b   7.80428100
_cell_length_c   3.88597300
_cell_angle_alpha   90.00000000
_cell_angle_beta   90.00000000
_cell_angle_gamma   90.00000000
_symmetry_Int_Tables_number   1
_chemical_formula_structural   Nd4InPd4Au
_chemical_formula_sum   'Nd4 In1 Pd4 Au1'
_cell_volume   236.68218780
_cell_formula_units_Z   1
loop_
 _symmetry_equiv_pos_site_id
 _symmetry_equiv_pos_as_xyz
  1  'x, y, z'
loop_
 _atom_site_type_symbol
 _atom_site_label
 _atom_site_symmetry_multiplicity
 _atom_site_fract_x
 _atom_site_fract_y
 _atom_site_fract_z
 _atom_site_occupancy
  Nd  Nd0  1  0.309817  0.841238  0.500000  1
  Nd  Nd1  1  0.841238  0.690183  0.500000  1
  Nd  Nd2  1  0.158762  0.309817  0.500000  1
  Nd  Nd3  1  0.690183  0.158762  0.500000  1
  In  In4  1  0.500000  0.500000  0.000000  1
  Pd  Pd5  1  0.383901  0.138952  0.000000  1
  Pd  Pd6  1  0.861048  0.383901  0.000000  1
  Pd  Pd7  1  0.138952  0.616099  0.000000  1
  Pd  Pd8  1  0.616099  0.861048  0.000000  1
  Au  Au9  1  0.000000  0.000000  0.000000  1
