# generated using pymatgen
data_Os(Se4Br)2
_symmetry_space_group_name_H-M   'P 1'
_cell_length_a   8.73469576
_cell_length_b   8.73469654
_cell_length_c   9.81703539
_cell_angle_alpha   78.73217269
_cell_angle_beta   78.73216958
_cell_angle_gamma   119.24654945
_symmetry_Int_Tables_number   1
_chemical_formula_structural   Os(Se4Br)2
_chemical_formula_sum   'Os2 Se16 Br4'
_cell_volume   602.75554760
_cell_formula_units_Z   2
loop_
 _symmetry_equiv_pos_site_id
 _symmetry_equiv_pos_as_xyz
  1  'x, y, z'
loop_
 _atom_site_type_symbol
 _atom_site_label
 _atom_site_symmetry_multiplicity
 _atom_site_fract_x
 _atom_site_fract_y
 _atom_site_fract_z
 _atom_site_occupancy
  Os  Os0  1  0.000000  0.000000  0.000000  1
  Os  Os1  1  0.000000  0.000000  0.500000  1
  Se  Se2  1  0.791518  0.064065  0.156042  1
  Se  Se3  1  0.935935  0.208482  0.343958  1
  Se  Se4  1  0.208482  0.935935  0.843958  1
  Se  Se5  1  0.064065  0.791518  0.656042  1
  Se  Se6  1  0.975775  0.773618  0.212586  1
  Se  Se7  1  0.226382  0.024225  0.287414  1
  Se  Se8  1  0.024225  0.226382  0.787414  1
  Se  Se9  1  0.773618  0.975775  0.712586  1
  Se  Se10  1  0.758078  0.723912  0.457082  1
  Se  Se11  1  0.276088  0.241922  0.042918  1
  Se  Se12  1  0.241922  0.276088  0.542918  1
  Se  Se13  1  0.723912  0.758078  0.957082  1
  Se  Se14  1  0.556614  0.793316  0.362213  1
  Se  Se15  1  0.206684  0.443386  0.137787  1
  Se  Se16  1  0.443386  0.206684  0.637787  1
  Se  Se17  1  0.793316  0.556614  0.862213  1
  Br  Br18  1  0.596653  0.403347  0.250000  1
  Br  Br19  1  0.403347  0.596653  0.750000  1
  Br  Br20  1  0.000000  0.500000  0.500000  1
  Br  Br21  1  0.500000  0.000000  0.000000  1
