# generated using pymatgen
data_SrHgPt2O7
_symmetry_space_group_name_H-M   'P 1'
_cell_length_a   7.40507729
_cell_length_b   7.40507741
_cell_length_c   7.33354800
_cell_angle_alpha   60.31901394
_cell_angle_beta   60.31901342
_cell_angle_gamma   60.66420228
_symmetry_Int_Tables_number   1
_chemical_formula_structural   SrHgPt2O7
_chemical_formula_sum   'Sr2 Hg2 Pt4 O14'
_cell_volume   287.13719835
_cell_formula_units_Z   2
loop_
 _symmetry_equiv_pos_site_id
 _symmetry_equiv_pos_as_xyz
  1  'x, y, z'
loop_
 _atom_site_type_symbol
 _atom_site_label
 _atom_site_symmetry_multiplicity
 _atom_site_fract_x
 _atom_site_fract_y
 _atom_site_fract_z
 _atom_site_occupancy
  Sr  Sr0  1  0.625000  0.125000  0.125000  1
  Sr  Sr1  1  0.125000  0.625000  0.125000  1
  Hg  Hg2  1  0.125000  0.125000  0.125000  1
  Hg  Hg3  1  0.125000  0.125000  0.625000  1
  Pt  Pt4  1  0.625000  0.625000  0.125000  1
  Pt  Pt5  1  0.625000  0.625000  0.625000  1
  Pt  Pt6  1  0.625000  0.125000  0.625000  1
  Pt  Pt7  1  0.125000  0.625000  0.625000  1
  O  O8  1  0.699065  0.301007  0.299160  1
  O  O9  1  0.699065  0.301007  0.700768  1
  O  O10  1  0.025791  0.025791  0.974209  1
  O  O11  1  0.301007  0.699065  0.299160  1
  O  O12  1  0.704421  0.704421  0.295579  1
  O  O13  1  0.948993  0.550935  0.549232  1
  O  O14  1  0.301007  0.699065  0.700768  1
  O  O15  1  0.224209  0.224209  0.275791  1
  O  O16  1  0.948993  0.550935  0.950840  1
  O  O17  1  0.550935  0.948993  0.549232  1
  O  O18  1  0.545579  0.545579  0.954421  1
  O  O19  1  0.948393  0.948393  0.551607  1
  O  O20  1  0.550935  0.948993  0.950840  1
  O  O21  1  0.301607  0.301607  0.698393  1
