# generated using pymatgen
data_Nd4Hg2IrAu3
_symmetry_space_group_name_H-M   'P 1'
_cell_length_a   3.85928700
_cell_length_b   8.08706839
_cell_length_c   8.08706892
_cell_angle_alpha   90.12319895
_cell_angle_beta   90.00000000
_cell_angle_gamma   90.00000000
_symmetry_Int_Tables_number   1
_chemical_formula_structural   Nd4Hg2IrAu3
_chemical_formula_sum   'Nd4 Hg2 Ir1 Au3'
_cell_volume   252.39940835
_cell_formula_units_Z   1
loop_
 _symmetry_equiv_pos_site_id
 _symmetry_equiv_pos_as_xyz
  1  'x, y, z'
loop_
 _atom_site_type_symbol
 _atom_site_label
 _atom_site_symmetry_multiplicity
 _atom_site_fract_x
 _atom_site_fract_y
 _atom_site_fract_z
 _atom_site_occupancy
  Nd  Nd0  1  0.500000  0.171225  0.671225  1
  Nd  Nd1  1  0.500000  0.810940  0.310940  1
  Nd  Nd2  1  0.500000  0.348977  0.181061  1
  Nd  Nd3  1  0.500000  0.681061  0.848977  1
  Hg  Hg4  1  0.000000  0.999155  0.001763  1
  Hg  Hg5  1  0.000000  0.501763  0.499155  1
  Ir  Ir6  1  0.000000  0.622438  0.122438  1
  Au  Au7  1  0.000000  0.373005  0.873005  1
  Au  Au8  1  0.000000  0.869901  0.621535  1
  Au  Au9  1  0.000000  0.121535  0.369901  1
