# generated using pymatgen
data_Er2Th(P2Rh3)3
_symmetry_space_group_name_H-M   'P 1'
_cell_length_a   3.95846100
_cell_length_b   11.23684000
_cell_length_c   12.81260200
_cell_angle_alpha   90.00000000
_cell_angle_beta   90.00000000
_cell_angle_gamma   90.00000000
_symmetry_Int_Tables_number   1
_chemical_formula_structural   Er2Th(P2Rh3)3
_chemical_formula_sum   'Er4 Th2 P12 Rh18'
_cell_volume   569.91213359
_cell_formula_units_Z   2
loop_
 _symmetry_equiv_pos_site_id
 _symmetry_equiv_pos_as_xyz
  1  'x, y, z'
loop_
 _atom_site_type_symbol
 _atom_site_label
 _atom_site_symmetry_multiplicity
 _atom_site_fract_x
 _atom_site_fract_y
 _atom_site_fract_z
 _atom_site_occupancy
  Er  Er0  1  0.250000  0.936919  0.795186  1
  Er  Er1  1  0.250000  0.563081  0.795186  1
  Er  Er2  1  0.750000  0.063081  0.204814  1
  Er  Er3  1  0.750000  0.436919  0.204814  1
  Th  Th4  1  0.750000  0.250000  0.474978  1
  Th  Th5  1  0.250000  0.750000  0.525022  1
  P  P6  1  0.250000  0.250000  0.120823  1
  P  P7  1  0.750000  0.750000  0.879177  1
  P  P8  1  0.250000  0.250000  0.651516  1
  P  P9  1  0.750000  0.750000  0.348484  1
  P  P10  1  0.250000  0.437220  0.378847  1
  P  P11  1  0.250000  0.062780  0.378847  1
  P  P12  1  0.750000  0.562780  0.621153  1
  P  P13  1  0.750000  0.937220  0.621153  1
  P  P14  1  0.250000  0.903977  0.106427  1
  P  P15  1  0.250000  0.596023  0.106427  1
  P  P16  1  0.750000  0.096023  0.893573  1
  P  P17  1  0.750000  0.403977  0.893573  1
  Rh  Rh18  1  0.250000  0.250000  0.831527  1
  Rh  Rh19  1  0.750000  0.750000  0.168473  1
  Rh  Rh20  1  0.250000  0.250000  0.296775  1
  Rh  Rh21  1  0.750000  0.750000  0.703225  1
  Rh  Rh22  1  0.750000  0.250000  0.021990  1
  Rh  Rh23  1  0.250000  0.750000  0.978010  1
  Rh  Rh24  1  0.250000  0.416074  0.006502  1
  Rh  Rh25  1  0.250000  0.083926  0.006502  1
  Rh  Rh26  1  0.750000  0.583926  0.993498  1
  Rh  Rh27  1  0.750000  0.916074  0.993498  1
  Rh  Rh28  1  0.250000  0.452294  0.568689  1
  Rh  Rh29  1  0.250000  0.047706  0.568689  1
  Rh  Rh30  1  0.750000  0.547706  0.431311  1
  Rh  Rh31  1  0.750000  0.952294  0.431311  1
  Rh  Rh32  1  0.250000  0.878354  0.287128  1
  Rh  Rh33  1  0.250000  0.621646  0.287128  1
  Rh  Rh34  1  0.750000  0.121646  0.712872  1
  Rh  Rh35  1  0.750000  0.378354  0.712872  1
