# generated using pymatgen
data_Tb7Y2HoIn8IrPd3
_symmetry_space_group_name_H-M   'P 1'
_cell_length_a   3.66205600
_cell_length_b   8.16021954
_cell_length_c   18.31566748
_cell_angle_alpha   90.05369781
_cell_angle_beta   90.00000000
_cell_angle_gamma   90.00000000
_symmetry_Int_Tables_number   1
_chemical_formula_structural   Tb7Y2HoIn8IrPd3
_chemical_formula_sum   'Tb7 Y2 Ho1 In8 Ir1 Pd3'
_cell_volume   547.33016485
_cell_formula_units_Z   1
loop_
 _symmetry_equiv_pos_site_id
 _symmetry_equiv_pos_as_xyz
  1  'x, y, z'
loop_
 _atom_site_type_symbol
 _atom_site_label
 _atom_site_symmetry_multiplicity
 _atom_site_fract_x
 _atom_site_fract_y
 _atom_site_fract_z
 _atom_site_occupancy
  Tb  Tb0  1  0.000000  0.729075  0.278014  1
  Tb  Tb1  1  0.000000  0.260677  0.719106  1
  Tb  Tb2  1  0.000000  0.760042  0.780231  1
  Tb  Tb3  1  0.000000  0.253329  0.219864  1
  Tb  Tb4  1  0.000000  0.612939  0.086946  1
  Tb  Tb5  1  0.000000  0.384514  0.916846  1
  Tb  Tb6  1  0.000000  0.884085  0.582911  1
  Y  Y7  1  0.000000  0.500580  0.499556  1
  Y  Y8  1  0.000000  0.999935  0.000737  1
  Ho  Ho9  1  0.000000  0.115545  0.414668  1
  In  In10  1  0.500000  0.709737  0.932207  1
  In  In11  1  0.500000  0.290731  0.068340  1
  In  In12  1  0.500000  0.792590  0.431885  1
  In  In13  1  0.500000  0.208623  0.566900  1
  In  In14  1  0.500000  0.579520  0.649380  1
  In  In15  1  0.500000  0.420821  0.351655  1
  In  In16  1  0.500000  0.923387  0.150371  1
  In  In17  1  0.500000  0.078980  0.850091  1
  Ir  Ir18  1  0.500000  0.519135  0.195919  1
  Pd  Pd19  1  0.500000  0.476982  0.803933  1
  Pd  Pd20  1  0.500000  0.977514  0.695910  1
  Pd  Pd21  1  0.500000  0.021259  0.304529  1
