# generated using pymatgen
data_Dy4SnPd4Pb
_symmetry_space_group_name_H-M   'P 1'
_cell_length_a   7.87136600
_cell_length_b   7.87136600
_cell_length_c   3.63310200
_cell_angle_alpha   90.00000000
_cell_angle_beta   90.00000000
_cell_angle_gamma   90.00000000
_symmetry_Int_Tables_number   1
_chemical_formula_structural   Dy4SnPd4Pb
_chemical_formula_sum   'Dy4 Sn1 Pd4 Pb1'
_cell_volume   225.10119679
_cell_formula_units_Z   1
loop_
 _symmetry_equiv_pos_site_id
 _symmetry_equiv_pos_as_xyz
  1  'x, y, z'
loop_
 _atom_site_type_symbol
 _atom_site_label
 _atom_site_symmetry_multiplicity
 _atom_site_fract_x
 _atom_site_fract_y
 _atom_site_fract_z
 _atom_site_occupancy
  Dy  Dy0  1  0.674450  0.166555  0.500000  1
  Dy  Dy1  1  0.166555  0.325550  0.500000  1
  Dy  Dy2  1  0.833445  0.674450  0.500000  1
  Dy  Dy3  1  0.325550  0.833445  0.500000  1
  Sn  Sn4  1  0.000000  0.000000  0.000000  1
  Pd  Pd5  1  0.370648  0.123733  0.000000  1
  Pd  Pd6  1  0.123733  0.629352  0.000000  1
  Pd  Pd7  1  0.629352  0.876267  0.000000  1
  Pd  Pd8  1  0.876267  0.370648  0.000000  1
  Pb  Pb9  1  0.500000  0.500000  0.000000  1
