# generated using pymatgen
data_La4Cd(Ga2Cu)5
_symmetry_space_group_name_H-M   'P 1'
_cell_length_a   8.60236926
_cell_length_b   8.60236923
_cell_length_c   8.60236900
_cell_angle_alpha   137.87869307
_cell_angle_beta   105.63933331
_cell_angle_gamma   89.35211025
_symmetry_Int_Tables_number   1
_chemical_formula_structural   La4Cd(Ga2Cu)5
_chemical_formula_sum   'La4 Cd1 Ga10 Cu5'
_cell_volume   393.22112550
_cell_formula_units_Z   1
loop_
 _symmetry_equiv_pos_site_id
 _symmetry_equiv_pos_as_xyz
  1  'x, y, z'
loop_
 _atom_site_type_symbol
 _atom_site_label
 _atom_site_symmetry_multiplicity
 _atom_site_fract_x
 _atom_site_fract_y
 _atom_site_fract_z
 _atom_site_occupancy
  La  La0  1  0.633384  0.875349  0.763436  1
  La  La1  1  0.366616  0.130051  0.241965  1
  La  La2  1  0.111914  0.369949  0.736564  1
  La  La3  1  0.888086  0.624651  0.258035  1
  Cd  Cd4  1  0.500000  0.250000  0.750000  1
  Ga  Ga5  1  0.256199  0.006199  0.750000  1
  Ga  Ga6  1  0.741027  0.991027  0.250000  1
  Ga  Ga7  1  0.743801  0.493801  0.750000  1
  Ga  Ga8  1  0.258973  0.508973  0.250000  1
  Ga  Ga9  1  0.467856  0.635258  0.864722  1
  Ga  Ga10  1  0.532144  0.396866  0.167404  1
  Ga  Ga11  1  0.770537  0.103134  0.635278  1
  Ga  Ga12  1  0.229463  0.864742  0.332596  1
  Ga  Ga13  1  0.000000  0.750000  0.750000  1
  Ga  Ga14  1  0.000000  0.250000  0.250000  1
  Cu  Cu15  1  0.244430  0.629079  0.614883  1
  Cu  Cu16  1  0.755570  0.370453  0.384649  1
  Cu  Cu17  1  0.014196  0.129547  0.885117  1
  Cu  Cu18  1  0.985804  0.870921  0.115351  1
  Cu  Cu19  1  0.500000  0.750000  0.250000  1
