# generated using pymatgen
data_Nd7Y(TmBi)12
_symmetry_space_group_name_H-M   'P 1'
_cell_length_a   8.32060001
_cell_length_b   9.52868600
_cell_length_c   12.28275200
_cell_angle_alpha   90.00000000
_cell_angle_beta   89.99779648
_cell_angle_gamma   90.00000000
_symmetry_Int_Tables_number   1
_chemical_formula_structural   Nd7Y(TmBi)12
_chemical_formula_sum   'Nd7 Y1 Tm12 Bi12'
_cell_volume   973.83043513
_cell_formula_units_Z   1
loop_
 _symmetry_equiv_pos_site_id
 _symmetry_equiv_pos_as_xyz
  1  'x, y, z'
loop_
 _atom_site_type_symbol
 _atom_site_label
 _atom_site_symmetry_multiplicity
 _atom_site_fract_x
 _atom_site_fract_y
 _atom_site_fract_z
 _atom_site_occupancy
  Nd  Nd0  1  0.184749  0.750000  0.720117  1
  Nd  Nd1  1  0.685772  0.750000  0.779689  1
  Nd  Nd2  1  0.816316  0.250000  0.280807  1
  Nd  Nd3  1  0.315078  0.250000  0.220553  1
  Nd  Nd4  1  0.352707  0.750000  0.215535  1
  Nd  Nd5  1  0.853033  0.750000  0.283999  1
  Nd  Nd6  1  0.646348  0.250000  0.784158  1
  Y  Y7  1  0.147848  0.250000  0.716524  1
  Tm  Tm8  1  0.025035  0.750000  0.987710  1
  Tm  Tm9  1  0.524216  0.750000  0.512054  1
  Tm  Tm10  1  0.975381  0.250000  0.010332  1
  Tm  Tm11  1  0.475002  0.250000  0.488829  1
  Tm  Tm12  1  0.307895  0.434478  0.940448  1
  Tm  Tm13  1  0.807540  0.065045  0.559517  1
  Tm  Tm14  1  0.692240  0.934739  0.058299  1
  Tm  Tm15  1  0.191980  0.565263  0.441331  1
  Tm  Tm16  1  0.692240  0.565261  0.058299  1
  Tm  Tm17  1  0.191980  0.934737  0.441331  1
  Tm  Tm18  1  0.307895  0.065522  0.940448  1
  Tm  Tm19  1  0.807540  0.434955  0.559517  1
  Bi  Bi20  1  0.432277  0.005893  0.667799  1
  Bi  Bi21  1  0.937453  0.493414  0.829971  1
  Bi  Bi22  1  0.565022  0.504386  0.332842  1
  Bi  Bi23  1  0.065192  0.995820  0.167216  1
  Bi  Bi24  1  0.565022  0.995614  0.332842  1
  Bi  Bi25  1  0.065192  0.504180  0.167216  1
  Bi  Bi26  1  0.432277  0.494107  0.667799  1
  Bi  Bi27  1  0.937453  0.006586  0.829971  1
  Bi  Bi28  1  0.405774  0.750000  0.957306  1
  Bi  Bi29  1  0.905332  0.750000  0.542340  1
  Bi  Bi30  1  0.594143  0.250000  0.042715  1
  Bi  Bi31  1  0.094065  0.250000  0.462484  1
