# generated using pymatgen
data_K17Al5O16
_symmetry_space_group_name_H-M   'P 1'
_cell_length_a   17.73050762
_cell_length_b   17.73050832
_cell_length_c   6.74624280
_cell_angle_alpha   84.60569121
_cell_angle_beta   84.60568404
_cell_angle_gamma   157.97097390
_symmetry_Int_Tables_number   1
_chemical_formula_structural   K17Al5O16
_chemical_formula_sum   'K17 Al5 O16'
_cell_volume   692.51102890
_cell_formula_units_Z   1
loop_
 _symmetry_equiv_pos_site_id
 _symmetry_equiv_pos_as_xyz
  1  'x, y, z'
loop_
 _atom_site_type_symbol
 _atom_site_label
 _atom_site_symmetry_multiplicity
 _atom_site_fract_x
 _atom_site_fract_y
 _atom_site_fract_z
 _atom_site_occupancy
  K  K0  1  0.397666  0.675217  0.058334  1
  K  K1  1  0.484522  0.577112  0.075378  1
  K  K2  1  0.317609  0.784825  0.066365  1
  K  K3  1  0.081940  0.912207  0.199416  1
  K  K4  1  0.168827  0.831948  0.465092  1
  K  K5  1  0.324206  0.597627  0.595758  1
  K  K6  1  0.223362  0.674875  0.613518  1
  K  K7  1  0.416873  0.508084  0.609640  1
  K  K8  1  0.675217  0.397666  0.058334  1
  K  K9  1  0.577112  0.484522  0.075378  1
  K  K10  1  0.784825  0.317609  0.066365  1
  K  K11  1  0.912207  0.081940  0.199416  1
  K  K12  1  0.831948  0.168827  0.465092  1
  K  K13  1  0.597627  0.324206  0.595758  1
  K  K14  1  0.674875  0.223362  0.613518  1
  K  K15  1  0.508084  0.416873  0.609640  1
  K  K16  1  0.997966  0.997966  0.479763  1
  Al  Al17  1  0.996607  0.996607  0.986165  1
  Al  Al18  1  0.085538  0.908101  0.693977  1
  Al  Al19  1  0.175704  0.821054  0.980531  1
  Al  Al20  1  0.908101  0.085538  0.693977  1
  Al  Al21  1  0.821054  0.175704  0.980531  1
  O  O22  1  0.067645  0.434953  0.001837  1
  O  O23  1  0.157427  0.340034  0.422859  1
  O  O24  1  0.434953  0.067645  0.001837  1
  O  O25  1  0.250171  0.250171  0.004910  1
  O  O26  1  0.561863  0.928692  0.251588  1
  O  O27  1  0.212706  0.788848  0.781198  1
  O  O28  1  0.039738  0.953565  0.830574  1
  O  O29  1  0.127538  0.870687  0.869830  1
  O  O30  1  0.340034  0.157427  0.422859  1
  O  O31  1  0.652708  0.835718  0.673719  1
  O  O32  1  0.928692  0.561863  0.251588  1
  O  O33  1  0.743839  0.743839  0.256432  1
  O  O34  1  0.788848  0.212706  0.781198  1
  O  O35  1  0.953565  0.039738  0.830574  1
  O  O36  1  0.870687  0.127538  0.869830  1
  O  O37  1  0.835718  0.652708  0.673719  1
