# generated using pymatgen
data_Tc2Os(Se2Cl)2
_symmetry_space_group_name_H-M   'P 1'
_cell_length_a   9.25215263
_cell_length_b   9.35745741
_cell_length_c   12.13515810
_cell_angle_alpha   95.07029748
_cell_angle_beta   88.32298634
_cell_angle_gamma   118.00999631
_symmetry_Int_Tables_number   1
_chemical_formula_structural   Tc2Os(Se2Cl)2
_chemical_formula_sum   'Tc8 Os4 Se16 Cl8'
_cell_volume   923.83823003
_cell_formula_units_Z   4
loop_
 _symmetry_equiv_pos_site_id
 _symmetry_equiv_pos_as_xyz
  1  'x, y, z'
loop_
 _atom_site_type_symbol
 _atom_site_label
 _atom_site_symmetry_multiplicity
 _atom_site_fract_x
 _atom_site_fract_y
 _atom_site_fract_z
 _atom_site_occupancy
  Tc  Tc0  1  0.349833  0.367577  0.389184  1
  Tc  Tc1  1  0.650167  0.632423  0.610816  1
  Tc  Tc2  1  0.415080  0.330386  0.591113  1
  Tc  Tc3  1  0.584920  0.669614  0.408887  1
  Tc  Tc4  1  0.120887  0.040615  0.869035  1
  Tc  Tc5  1  0.879113  0.959385  0.130965  1
  Tc  Tc6  1  0.171828  0.992584  0.071555  1
  Tc  Tc7  1  0.828172  0.007416  0.928445  1
  Os  Os8  1  0.650495  0.431552  0.443279  1
  Os  Os9  1  0.349505  0.568448  0.556721  1
  Os  Os10  1  0.093218  0.224282  0.038422  1
  Os  Os11  1  0.906782  0.775718  0.961578  1
  Se  Se12  1  0.364420  0.244404  0.980360  1
  Se  Se13  1  0.635580  0.755596  0.019640  1
  Se  Se14  1  0.579241  0.469544  0.252790  1
  Se  Se15  1  0.420759  0.530456  0.747210  1
  Se  Se16  1  0.039833  0.258265  0.844349  1
  Se  Se17  1  0.960167  0.741735  0.155651  1
  Se  Se18  1  0.813868  0.183331  0.092803  1
  Se  Se19  1  0.186132  0.816669  0.907197  1
  Se  Se20  1  0.867742  0.722652  0.465208  1
  Se  Se21  1  0.132258  0.277348  0.534792  1
  Se  Se22  1  0.705937  0.398648  0.637782  1
  Se  Se23  1  0.294063  0.601352  0.362218  1
  Se  Se24  1  0.142531  0.173126  0.230763  1
  Se  Se25  1  0.857469  0.826874  0.769237  1
  Se  Se26  1  0.421164  0.146903  0.427655  1
  Se  Se27  1  0.578836  0.853097  0.572345  1
  Cl  Cl28  1  0.389151  0.978024  0.162004  1
  Cl  Cl29  1  0.610849  0.021976  0.837996  1
  Cl  Cl30  1  0.295672  0.088211  0.701034  1
  Cl  Cl31  1  0.704328  0.911789  0.298966  1
  Cl  Cl32  1  0.208616  0.508543  0.085316  1
  Cl  Cl33  1  0.791384  0.491457  0.914684  1
  Cl  Cl34  1  0.841926  0.347195  0.372278  1
  Cl  Cl35  1  0.158074  0.652805  0.627722  1
