# generated using pymatgen
data_Y2ErTm5(MoO6)4
_symmetry_space_group_name_H-M   'P 1'
_cell_length_a   5.34075000
_cell_length_b   7.64626344
_cell_length_c   11.37164903
_cell_angle_alpha   75.35505749
_cell_angle_beta   90.00000000
_cell_angle_gamma   90.00000000
_symmetry_Int_Tables_number   1
_chemical_formula_structural   Y2ErTm5(MoO6)4
_chemical_formula_sum   'Y2 Er1 Tm5 Mo4 O24'
_cell_volume   449.29432440
_cell_formula_units_Z   1
loop_
 _symmetry_equiv_pos_site_id
 _symmetry_equiv_pos_as_xyz
  1  'x, y, z'
loop_
 _atom_site_type_symbol
 _atom_site_label
 _atom_site_symmetry_multiplicity
 _atom_site_fract_x
 _atom_site_fract_y
 _atom_site_fract_z
 _atom_site_occupancy
  Y  Y0  1  0.682135  0.500000  0.750000  1
  Y  Y1  1  0.317451  0.500000  0.250000  1
  Er  Er2  1  0.740017  0.000000  0.750000  1
  Tm  Tm3  1  0.260420  0.000000  0.250000  1
  Tm  Tm4  1  0.183772  0.798333  0.578641  1
  Tm  Tm5  1  0.816511  0.798397  0.079046  1
  Tm  Tm6  1  0.183772  0.201667  0.921359  1
  Tm  Tm7  1  0.816511  0.201603  0.420954  1
  Mo  Mo8  1  0.254739  0.722533  0.886780  1
  Mo  Mo9  1  0.745161  0.723094  0.386464  1
  Mo  Mo10  1  0.254739  0.277467  0.613220  1
  Mo  Mo11  1  0.745161  0.276906  0.113536  1
  O  O12  1  0.037397  0.940271  0.897520  1
  O  O13  1  0.531778  0.847221  0.930807  1
  O  O14  1  0.963803  0.940543  0.396663  1
  O  O15  1  0.463036  0.790111  0.724611  1
  O  O16  1  0.468017  0.848243  0.430197  1
  O  O17  1  0.983998  0.714278  0.768899  1
  O  O18  1  0.535971  0.791086  0.224506  1
  O  O19  1  0.850106  0.635477  0.548839  1
  O  O20  1  0.354304  0.488979  0.887450  1
  O  O21  1  0.016098  0.714753  0.268640  1
  O  O22  1  0.354304  0.511021  0.612550  1
  O  O23  1  0.850106  0.364523  0.951161  1
  O  O24  1  0.149304  0.634618  0.049062  1
  O  O25  1  0.645994  0.489506  0.386981  1
  O  O26  1  0.983998  0.285722  0.731101  1
  O  O27  1  0.645994  0.510494  0.113019  1
  O  O28  1  0.149304  0.365382  0.450938  1
  O  O29  1  0.463036  0.209889  0.775389  1
  O  O30  1  0.016098  0.285247  0.231360  1
  O  O31  1  0.531778  0.152779  0.569193  1
  O  O32  1  0.535971  0.208914  0.275494  1
  O  O33  1  0.037397  0.059729  0.602480  1
  O  O34  1  0.468017  0.151757  0.069803  1
  O  O35  1  0.963803  0.059457  0.103337  1
