# generated using pymatgen
data_H7RuF12
_symmetry_space_group_name_H-M   'P 1'
_cell_length_a   8.01804661
_cell_length_b   8.01804775
_cell_length_c   5.23507892
_cell_angle_alpha   73.83112572
_cell_angle_beta   73.83111885
_cell_angle_gamma   48.47945527
_symmetry_Int_Tables_number   1
_chemical_formula_structural   H7RuF12
_chemical_formula_sum   'H7 Ru1 F12'
_cell_volume   239.94891368
_cell_formula_units_Z   1
loop_
 _symmetry_equiv_pos_site_id
 _symmetry_equiv_pos_as_xyz
  1  'x, y, z'
loop_
 _atom_site_type_symbol
 _atom_site_label
 _atom_site_symmetry_multiplicity
 _atom_site_fract_x
 _atom_site_fract_y
 _atom_site_fract_z
 _atom_site_occupancy
  H  H0  1  0.801554  0.825457  0.806984  1
  H  H1  1  0.174543  0.198446  0.193016  1
  H  H2  1  0.717843  0.737461  0.571113  1
  H  H3  1  0.262539  0.282157  0.428887  1
  H  H4  1  0.632949  0.634770  0.362580  1
  H  H5  1  0.365230  0.367051  0.637420  1
  H  H6  1  0.500784  0.499216  0.500000  1
  Ru  Ru7  1  0.000940  0.999060  0.000000  1
  F  F8  1  0.913116  0.910376  0.789544  1
  F  F9  1  0.089624  0.086884  0.210456  1
  F  F10  1  0.569015  0.567156  0.316925  1
  F  F11  1  0.432844  0.430985  0.683075  1
  F  F12  1  0.716335  0.719425  0.385941  1
  F  F13  1  0.280575  0.283665  0.614059  1
  F  F14  1  0.873566  0.274707  0.773272  1
  F  F15  1  0.725293  0.126434  0.226728  1
  F  F16  1  0.128600  0.723774  0.227354  1
  F  F17  1  0.276226  0.871400  0.772646  1
  F  F18  1  0.724272  0.765850  0.809573  1
  F  F19  1  0.234150  0.275728  0.190427  1
