# generated using pymatgen
data_Ho5PaAl24(Os3Ru)2
_symmetry_space_group_name_H-M   'P 1'
_cell_length_a   8.82853529
_cell_length_b   8.82853390
_cell_length_c   9.53299500
_cell_angle_alpha   90.00000000
_cell_angle_beta   90.00000000
_cell_angle_gamma   120.22119389
_symmetry_Int_Tables_number   1
_chemical_formula_structural   Ho5PaAl24(Os3Ru)2
_chemical_formula_sum   'Ho5 Pa1 Al24 Os6 Ru2'
_cell_volume   642.04419566
_cell_formula_units_Z   1
loop_
 _symmetry_equiv_pos_site_id
 _symmetry_equiv_pos_as_xyz
  1  'x, y, z'
loop_
 _atom_site_type_symbol
 _atom_site_label
 _atom_site_symmetry_multiplicity
 _atom_site_fract_x
 _atom_site_fract_y
 _atom_site_fract_z
 _atom_site_occupancy
  Ho  Ho0  1  0.195790  0.387250  0.250000  1
  Ho  Ho1  1  0.808016  0.607004  0.750000  1
  Ho  Ho2  1  0.612750  0.804210  0.250000  1
  Ho  Ho3  1  0.392996  0.191984  0.750000  1
  Ho  Ho4  1  0.190905  0.809095  0.250000  1
  Pa  Pa5  1  0.802913  0.197087  0.750000  1
  Al  Al6  1  0.331929  0.668071  0.016258  1
  Al  Al7  1  0.664051  0.335949  0.984247  1
  Al  Al8  1  0.664051  0.335949  0.515753  1
  Al  Al9  1  0.331929  0.668071  0.483742  1
  Al  Al10  1  0.163234  0.324435  0.577941  1
  Al  Al11  1  0.839020  0.676018  0.423452  1
  Al  Al12  1  0.675565  0.836766  0.577941  1
  Al  Al13  1  0.839020  0.676018  0.076548  1
  Al  Al14  1  0.323982  0.160980  0.423452  1
  Al  Al15  1  0.163234  0.324435  0.922059  1
  Al  Al16  1  0.161965  0.838035  0.576527  1
  Al  Al17  1  0.323982  0.160980  0.076548  1
  Al  Al18  1  0.838028  0.161972  0.421525  1
  Al  Al19  1  0.675565  0.836766  0.922059  1
  Al  Al20  1  0.838028  0.161972  0.078475  1
  Al  Al21  1  0.161965  0.838035  0.923473  1
  Al  Al22  1  0.559468  0.118105  0.250000  1
  Al  Al23  1  0.436465  0.872727  0.750000  1
  Al  Al24  1  0.881895  0.440532  0.250000  1
  Al  Al25  1  0.127273  0.563535  0.750000  1
  Al  Al26  1  0.561051  0.438949  0.250000  1
  Al  Al27  1  0.440503  0.559497  0.750000  1
  Al  Al28  1  0.998292  0.001708  0.250000  1
  Al  Al29  1  0.000682  0.999318  0.750000  1
  Os  Os30  1  0.502626  0.003216  0.995919  1
  Os  Os31  1  0.996784  0.497374  0.995919  1
  Os  Os32  1  0.502626  0.003216  0.504081  1
  Os  Os33  1  0.498135  0.501865  0.003151  1
  Os  Os34  1  0.996784  0.497374  0.504081  1
  Os  Os35  1  0.498135  0.501865  0.496849  1
  Ru  Ru36  1  0.000181  0.999819  0.000368  1
  Ru  Ru37  1  0.000181  0.999819  0.499632  1
