# generated using pymatgen
data_TaNi6W
_symmetry_space_group_name_H-M   'P 1'
_cell_length_a   4.26179300
_cell_length_b   4.50168300
_cell_length_c   5.09266300
_cell_angle_alpha   90.00000000
_cell_angle_beta   90.00000000
_cell_angle_gamma   90.00000000
_symmetry_Int_Tables_number   1
_chemical_formula_structural   TaNi6W
_chemical_formula_sum   'Ta1 Ni6 W1'
_cell_volume   97.70396748
_cell_formula_units_Z   1
loop_
 _symmetry_equiv_pos_site_id
 _symmetry_equiv_pos_as_xyz
  1  'x, y, z'
loop_
 _atom_site_type_symbol
 _atom_site_label
 _atom_site_symmetry_multiplicity
 _atom_site_fract_x
 _atom_site_fract_y
 _atom_site_fract_z
 _atom_site_occupancy
  Ta  Ta0  1  0.000000  0.345507  0.000000  1
  Ni  Ni1  1  0.000000  0.333749  0.500000  1
  Ni  Ni2  1  0.500000  0.676564  0.000000  1
  Ni  Ni3  1  0.500000  0.157819  0.746757  1
  Ni  Ni4  1  0.500000  0.157819  0.253243  1
  Ni  Ni5  1  0.000000  0.838778  0.744321  1
  Ni  Ni6  1  0.000000  0.838778  0.255679  1
  W  W7  1  0.500000  0.650984  0.500000  1
