# generated using pymatgen
data_Cs4Tb9Lu3Te20
_symmetry_space_group_name_H-M   'P 1'
_cell_length_a   4.41636000
_cell_length_b   13.42493669
_cell_length_c   23.71300994
_cell_angle_alpha   89.92676173
_cell_angle_beta   90.00000000
_cell_angle_gamma   90.00000000
_symmetry_Int_Tables_number   1
_chemical_formula_structural   Cs4Tb9Lu3Te20
_chemical_formula_sum   'Cs4 Tb9 Lu3 Te20'
_cell_volume   1405.92787767
_cell_formula_units_Z   1
loop_
 _symmetry_equiv_pos_site_id
 _symmetry_equiv_pos_as_xyz
  1  'x, y, z'
loop_
 _atom_site_type_symbol
 _atom_site_label
 _atom_site_symmetry_multiplicity
 _atom_site_fract_x
 _atom_site_fract_y
 _atom_site_fract_z
 _atom_site_occupancy
  Cs  Cs0  1  0.250000  0.353336  0.088987  1
  Cs  Cs1  1  0.750000  0.647026  0.911078  1
  Cs  Cs2  1  0.750000  0.854019  0.410868  1
  Cs  Cs3  1  0.250000  0.146232  0.589446  1
  Tb  Tb4  1  0.250000  0.454866  0.698400  1
  Tb  Tb5  1  0.750000  0.545817  0.302461  1
  Tb  Tb6  1  0.750000  0.954437  0.802601  1
  Tb  Tb7  1  0.250000  0.045361  0.197338  1
  Tb  Tb8  1  0.250000  0.796109  0.674186  1
  Tb  Tb9  1  0.750000  0.203482  0.325522  1
  Tb  Tb10  1  0.750000  0.295915  0.826157  1
  Tb  Tb11  1  0.250000  0.703847  0.173922  1
  Tb  Tb12  1  0.250000  0.392779  0.444554  1
  Lu  Lu13  1  0.750000  0.606842  0.555742  1
  Lu  Lu14  1  0.750000  0.893609  0.055517  1
  Lu  Lu15  1  0.250000  0.106397  0.944555  1
  Te  Te16  1  0.250000  0.448907  0.569000  1
  Te  Te17  1  0.750000  0.556539  0.432101  1
  Te  Te18  1  0.750000  0.947920  0.932343  1
  Te  Te19  1  0.250000  0.052091  0.067564  1
  Te  Te20  1  0.250000  0.761954  0.545299  1
  Te  Te21  1  0.750000  0.232190  0.454558  1
  Te  Te22  1  0.750000  0.261379  0.954935  1
  Te  Te23  1  0.250000  0.738588  0.045020  1
  Te  Te24  1  0.250000  0.799122  0.803852  1
  Te  Te25  1  0.750000  0.200640  0.195933  1
  Te  Te26  1  0.750000  0.299458  0.696424  1
  Te  Te27  1  0.250000  0.701270  0.303447  1
  Te  Te28  1  0.250000  0.453070  0.828284  1
  Te  Te29  1  0.750000  0.546944  0.172259  1
  Te  Te30  1  0.750000  0.953156  0.672423  1
  Te  Te31  1  0.250000  0.046584  0.327318  1
  Te  Te32  1  0.250000  0.374954  0.312592  1
  Te  Te33  1  0.750000  0.625163  0.685413  1
  Te  Te34  1  0.750000  0.875109  0.185081  1
  Te  Te35  1  0.250000  0.124888  0.814819  1
