# generated using pymatgen
data_Tb3Zr4NpF28
_symmetry_space_group_name_H-M   'P 1'
_cell_length_a   5.80724939
_cell_length_b   9.21462693
_cell_length_c   12.37953133
_cell_angle_alpha   62.19403700
_cell_angle_beta   89.96575502
_cell_angle_gamma   90.02719274
_symmetry_Int_Tables_number   1
_chemical_formula_structural   Tb3Zr4NpF28
_chemical_formula_sum   'Tb3 Zr4 Np1 F28'
_cell_volume   585.95729177
_cell_formula_units_Z   1
loop_
 _symmetry_equiv_pos_site_id
 _symmetry_equiv_pos_as_xyz
  1  'x, y, z'
loop_
 _atom_site_type_symbol
 _atom_site_label
 _atom_site_symmetry_multiplicity
 _atom_site_fract_x
 _atom_site_fract_y
 _atom_site_fract_z
 _atom_site_occupancy
  Tb  Tb0  1  0.743631  0.817196  0.266580  1
  Tb  Tb1  1  0.243575  0.185223  0.233793  1
  Tb  Tb2  1  0.257113  0.190997  0.733037  1
  Zr  Zr3  1  0.743866  0.277790  0.452480  1
  Zr  Zr4  1  0.244891  0.724746  0.049874  1
  Zr  Zr5  1  0.254592  0.726247  0.540843  1
  Zr  Zr6  1  0.755111  0.270706  0.957148  1
  Np  Np7  1  0.757932  0.817423  0.767378  1
  F  F8  1  0.456621  0.708419  0.924737  1
  F  F9  1  0.965149  0.287846  0.577094  1
  F  F10  1  0.532433  0.286103  0.078685  1
  F  F11  1  0.032468  0.711242  0.418725  1
  F  F12  1  0.457279  0.281498  0.549471  1
  F  F13  1  0.954968  0.714024  0.958919  1
  F  F14  1  0.544799  0.719004  0.447948  1
  F  F15  1  0.042882  0.278535  0.051393  1
  F  F16  1  0.768870  0.518453  0.860251  1
  F  F17  1  0.266361  0.475663  0.638955  1
  F  F18  1  0.235541  0.474632  0.143799  1
  F  F19  1  0.733037  0.526512  0.357180  1
  F  F20  1  0.759487  0.021986  0.059488  1
  F  F21  1  0.259255  0.975307  0.439684  1
  F  F22  1  0.240036  0.973091  0.942026  1
  F  F23  1  0.738590  0.028596  0.553740  1
  F  F24  1  0.984638  0.732886  0.643194  1
  F  F25  1  0.486318  0.265222  0.852112  1
  F  F26  1  0.011349  0.265703  0.349587  1
  F  F27  1  0.514465  0.734811  0.151958  1
  F  F28  1  0.032882  0.747040  0.174345  1
  F  F29  1  0.531347  0.254539  0.328115  1
  F  F30  1  0.966369  0.250859  0.830209  1
  F  F31  1  0.462329  0.741637  0.668595  1
  F  F32  1  0.431574  0.975451  0.235434  1
  F  F33  1  0.932434  0.026239  0.264437  1
  F  F34  1  0.572204  0.036893  0.766071  1
  F  F35  1  0.085605  0.977482  0.732714  1
