# generated using pymatgen
data_Sc4Co10P12(IrRu)5
_symmetry_space_group_name_H-M   'P 1'
_cell_length_a   3.74644400
_cell_length_b   10.46064601
_cell_length_c   11.96524502
_cell_angle_alpha   89.99416582
_cell_angle_beta   90.00000000
_cell_angle_gamma   90.00000000
_symmetry_Int_Tables_number   1
_chemical_formula_structural   Sc4Co10P12(IrRu)5
_chemical_formula_sum   'Sc4 Co10 P12 Ir5 Ru5'
_cell_volume   468.92063585
_cell_formula_units_Z   1
loop_
 _symmetry_equiv_pos_site_id
 _symmetry_equiv_pos_as_xyz
  1  'x, y, z'
loop_
 _atom_site_type_symbol
 _atom_site_label
 _atom_site_symmetry_multiplicity
 _atom_site_fract_x
 _atom_site_fract_y
 _atom_site_fract_z
 _atom_site_occupancy
  Sc  Sc0  1  0.250000  0.588311  0.711652  1
  Sc  Sc1  1  0.250000  0.910044  0.213727  1
  Sc  Sc2  1  0.750000  0.419525  0.293429  1
  Sc  Sc3  1  0.750000  0.081167  0.789988  1
  Co  Co4  1  0.750000  0.774832  0.822916  1
  Co  Co5  1  0.750000  0.725798  0.321763  1
  Co  Co6  1  0.250000  0.878211  0.698246  1
  Co  Co7  1  0.250000  0.621243  0.199668  1
  Co  Co8  1  0.750000  0.107551  0.299791  1
  Co  Co9  1  0.750000  0.392453  0.798028  1
  Co  Co10  1  0.250000  0.462751  0.932084  1
  Co  Co11  1  0.250000  0.038498  0.431138  1
  Co  Co12  1  0.750000  0.537668  0.068008  1
  Co  Co13  1  0.750000  0.961900  0.567120  1
  P  P14  1  0.250000  0.432719  0.114461  1
  P  P15  1  0.250000  0.066542  0.613222  1
  P  P16  1  0.750000  0.578039  0.886411  1
  P  P17  1  0.750000  0.921527  0.386310  1
  P  P18  1  0.250000  0.270932  0.870022  1
  P  P19  1  0.250000  0.233284  0.372705  1
  P  P20  1  0.750000  0.727668  0.139114  1
  P  P21  1  0.750000  0.772230  0.639315  1
  P  P22  1  0.250000  0.602516  0.380451  1
  P  P23  1  0.250000  0.894450  0.877969  1
  P  P24  1  0.750000  0.405109  0.613857  1
  P  P25  1  0.750000  0.095273  0.118555  1
  Ir  Ir26  1  0.250000  0.087523  0.976303  1
  Ir  Ir27  1  0.750000  0.600510  0.520687  1
  Ir  Ir28  1  0.750000  0.902236  0.022145  1
  Ir  Ir29  1  0.250000  0.227996  0.181040  1
  Ir  Ir30  1  0.250000  0.270385  0.680088  1
  Ru  Ru31  1  0.250000  0.709208  0.983243  1
  Ru  Ru32  1  0.250000  0.792553  0.480720  1
  Ru  Ru33  1  0.750000  0.282806  0.007080  1
  Ru  Ru34  1  0.750000  0.214094  0.507010  1
  Ru  Ru35  1  0.250000  0.412451  0.481731  1
