# generated using pymatgen
data_Be8VW3
_symmetry_space_group_name_H-M   'P 1'
_cell_length_a   4.43536700
_cell_length_b   4.43536545
_cell_length_c   7.26232500
_cell_angle_alpha   90.00000000
_cell_angle_beta   90.00000000
_cell_angle_gamma   120.00000408
_symmetry_Int_Tables_number   1
_chemical_formula_structural   Be8VW3
_chemical_formula_sum   'Be8 V1 W3'
_cell_volume   123.72722275
_cell_formula_units_Z   1
loop_
 _symmetry_equiv_pos_site_id
 _symmetry_equiv_pos_as_xyz
  1  'x, y, z'
loop_
 _atom_site_type_symbol
 _atom_site_label
 _atom_site_symmetry_multiplicity
 _atom_site_fract_x
 _atom_site_fract_y
 _atom_site_fract_z
 _atom_site_occupancy
  Be  Be0  1  0.000000  0.000000  0.499088  1
  Be  Be1  1  0.000000  0.000000  0.002849  1
  Be  Be2  1  0.829653  0.170347  0.252144  1
  Be  Be3  1  0.829653  0.659306  0.252144  1
  Be  Be4  1  0.340694  0.170347  0.252144  1
  Be  Be5  1  0.170352  0.829648  0.747735  1
  Be  Be6  1  0.170352  0.340702  0.747735  1
  Be  Be7  1  0.659298  0.829648  0.747735  1
  V  V8  1  0.333333  0.666667  0.433922  1
  W  W9  1  0.666667  0.333333  0.563010  1
  W  W10  1  0.666667  0.333333  0.936168  1
  W  W11  1  0.333333  0.666667  0.065327  1
