# generated using pymatgen
data_Zr5V3(Co4P3)4
_symmetry_space_group_name_H-M   'P 1'
_cell_length_a   11.89619200
_cell_length_b   11.89619245
_cell_length_c   3.63688300
_cell_angle_alpha   90.00000000
_cell_angle_beta   90.00000000
_cell_angle_gamma   119.99999875
_symmetry_Int_Tables_number   1
_chemical_formula_structural   Zr5V3(Co4P3)4
_chemical_formula_sum   'Zr5 V3 Co16 P12'
_cell_volume   445.73415450
_cell_formula_units_Z   1
loop_
 _symmetry_equiv_pos_site_id
 _symmetry_equiv_pos_as_xyz
  1  'x, y, z'
loop_
 _atom_site_type_symbol
 _atom_site_label
 _atom_site_symmetry_multiplicity
 _atom_site_fract_x
 _atom_site_fract_y
 _atom_site_fract_z
 _atom_site_occupancy
  Zr  Zr0  1  0.666667  0.333333  0.000000  1
  Zr  Zr1  1  0.333333  0.666667  0.000000  1
  Zr  Zr2  1  0.817876  0.817876  0.500000  1
  Zr  Zr3  1  0.182124  0.000000  0.500000  1
  Zr  Zr4  1  0.000000  0.182124  0.500000  1
  V  V5  1  0.446227  0.446227  0.000000  1
  V  V6  1  0.553773  0.000000  0.000000  1
  V  V7  1  0.000000  0.553773  0.000000  1
  Co  Co8  1  0.197122  0.375363  0.000000  1
  Co  Co9  1  0.178240  0.802878  0.000000  1
  Co  Co10  1  0.821760  0.624637  0.000000  1
  Co  Co11  1  0.802878  0.178240  0.000000  1
  Co  Co12  1  0.375363  0.197122  0.000000  1
  Co  Co13  1  0.127553  0.482781  0.500000  1
  Co  Co14  1  0.355228  0.872447  0.500000  1
  Co  Co15  1  0.517219  0.644772  0.500000  1
  Co  Co16  1  0.644772  0.517219  0.500000  1
  Co  Co17  1  0.872447  0.355228  0.500000  1
  Co  Co18  1  0.482781  0.127553  0.500000  1
  Co  Co19  1  0.000000  0.000000  0.000000  1
  Co  Co20  1  0.718403  0.000000  0.500000  1
  Co  Co21  1  0.000000  0.718403  0.500000  1
  Co  Co22  1  0.624637  0.821760  0.000000  1
  Co  Co23  1  0.281597  0.281597  0.500000  1
  P  P24  1  0.640609  0.640609  0.000000  1
  P  P25  1  0.359391  0.000000  0.000000  1
  P  P26  1  0.000000  0.359391  0.000000  1
  P  P27  1  0.481586  0.315704  0.500000  1
  P  P28  1  0.684296  0.165881  0.500000  1
  P  P29  1  0.834119  0.518414  0.500000  1
  P  P30  1  0.518414  0.834119  0.500000  1
  P  P31  1  0.165881  0.684296  0.500000  1
  P  P32  1  0.823268  0.000000  0.000000  1
  P  P33  1  0.000000  0.823268  0.000000  1
  P  P34  1  0.315704  0.481586  0.500000  1
  P  P35  1  0.176732  0.176732  0.000000  1
