# generated using pymatgen
data_Er14Lu2ZnIn3Rh4
_symmetry_space_group_name_H-M   'P 1'
_cell_length_a   9.54136719
_cell_length_b   9.51485130
_cell_length_c   9.53114366
_cell_angle_alpha   59.85060583
_cell_angle_beta   59.86881696
_cell_angle_gamma   59.77621494
_symmetry_Int_Tables_number   1
_chemical_formula_structural   Er14Lu2ZnIn3Rh4
_chemical_formula_sum   'Er14 Lu2 Zn1 In3 Rh4'
_cell_volume   609.51117581
_cell_formula_units_Z   1
loop_
 _symmetry_equiv_pos_site_id
 _symmetry_equiv_pos_as_xyz
  1  'x, y, z'
loop_
 _atom_site_type_symbol
 _atom_site_label
 _atom_site_symmetry_multiplicity
 _atom_site_fract_x
 _atom_site_fract_y
 _atom_site_fract_z
 _atom_site_occupancy
  Er  Er0  1  0.435236  0.057590  0.435442  1
  Er  Er1  1  0.062923  0.435765  0.061861  1
  Er  Er2  1  0.647458  0.051668  0.648773  1
  Er  Er3  1  0.191769  0.810181  0.808393  1
  Er  Er4  1  0.067945  0.055597  0.437483  1
  Er  Er5  1  0.809618  0.191811  0.191151  1
  Er  Er6  1  0.807248  0.809815  0.192259  1
  Er  Er7  1  0.647084  0.649108  0.052553  1
  Er  Er8  1  0.650214  0.650564  0.651104  1
  Er  Er9  1  0.063651  0.434188  0.438732  1
  Er  Er10  1  0.053926  0.647921  0.647586  1
  Er  Er11  1  0.808706  0.192365  0.809105  1
  Er  Er12  1  0.437685  0.433450  0.063977  1
  Er  Er13  1  0.190183  0.812038  0.189672  1
  Lu  Lu14  1  0.191769  0.191795  0.809426  1
  Lu  Lu15  1  0.437850  0.055851  0.065970  1
  Zn  Zn16  1  0.416420  0.753575  0.415767  1
  In  In17  1  0.416926  0.421221  0.746335  1
  In  In18  1  0.745952  0.421601  0.416920  1
  In  In19  1  0.416300  0.421259  0.416325  1
  Rh  Rh20  1  0.860460  0.425923  0.857727  1
  Rh  Rh21  1  0.858462  0.857974  0.426248  1
  Rh  Rh22  1  0.424790  0.861035  0.858556  1
  Rh  Rh23  1  0.857429  0.857708  0.858638  1
