# generated using pymatgen
data_Ho2CdCuNi
_symmetry_space_group_name_H-M   'P 1'
_cell_length_a   7.40791691
_cell_length_b   7.40791691
_cell_length_c   3.62919200
_cell_angle_alpha   90.00000000
_cell_angle_beta   90.00000000
_cell_angle_gamma   90.74345104
_symmetry_Int_Tables_number   1
_chemical_formula_structural   Ho2CdCuNi
_chemical_formula_sum   'Ho4 Cd2 Cu2 Ni2'
_cell_volume   199.14324875
_cell_formula_units_Z   2
loop_
 _symmetry_equiv_pos_site_id
 _symmetry_equiv_pos_as_xyz
  1  'x, y, z'
loop_
 _atom_site_type_symbol
 _atom_site_label
 _atom_site_symmetry_multiplicity
 _atom_site_fract_x
 _atom_site_fract_y
 _atom_site_fract_z
 _atom_site_occupancy
  Ho  Ho0  1  0.683923  0.183923  0.500000  1
  Ho  Ho1  1  0.316077  0.816077  0.500000  1
  Ho  Ho2  1  0.167386  0.332614  0.500000  1
  Ho  Ho3  1  0.832614  0.667386  0.500000  1
  Cd  Cd4  1  0.000000  0.000000  0.000000  1
  Cd  Cd5  1  0.500000  0.500000  0.000000  1
  Cu  Cu6  1  0.618957  0.881043  0.000000  1
  Cu  Cu7  1  0.381043  0.118957  0.000000  1
  Ni  Ni8  1  0.118770  0.618770  0.000000  1
  Ni  Ni9  1  0.881230  0.381230  0.000000  1
