# generated using pymatgen
data_Tm2PS
_symmetry_space_group_name_H-M   'P 1'
_cell_length_a   6.76322475
_cell_length_b   6.76322474
_cell_length_c   6.76322438
_cell_angle_alpha   131.91335029
_cell_angle_beta   131.91335289
_cell_angle_gamma   70.36591274
_symmetry_Int_Tables_number   1
_chemical_formula_structural   Tm2PS
_chemical_formula_sum   'Tm4 P2 S2'
_cell_volume   167.88498818
_cell_formula_units_Z   2
loop_
 _symmetry_equiv_pos_site_id
 _symmetry_equiv_pos_as_xyz
  1  'x, y, z'
loop_
 _atom_site_type_symbol
 _atom_site_label
 _atom_site_symmetry_multiplicity
 _atom_site_fract_x
 _atom_site_fract_y
 _atom_site_fract_z
 _atom_site_occupancy
  Tm  Tm0  1  0.494989  0.994989  0.500000  1
  Tm  Tm1  1  0.005011  0.505011  0.500000  1
  Tm  Tm2  1  0.744989  0.744989  0.000000  1
  Tm  Tm3  1  0.255011  0.255011  0.000000  1
  P  P4  1  0.250000  0.750000  0.500000  1
  P  P5  1  0.500000  0.500000  0.000000  1
  S  S6  1  0.000000  0.000000  0.000000  1
  S  S7  1  0.750000  0.250000  0.500000  1
