# generated using pymatgen
data_Pr5YAl24Os5Rh3
_symmetry_space_group_name_H-M   'P 1'
_cell_length_a   8.90589211
_cell_length_b   8.88845091
_cell_length_c   9.70466860
_cell_angle_alpha   90.12614501
_cell_angle_beta   89.96653086
_cell_angle_gamma   119.56635280
_symmetry_Int_Tables_number   1
_chemical_formula_structural   Pr5YAl24Os5Rh3
_chemical_formula_sum   'Pr5 Y1 Al24 Os5 Rh3'
_cell_volume   668.18224363
_cell_formula_units_Z   1
loop_
 _symmetry_equiv_pos_site_id
 _symmetry_equiv_pos_as_xyz
  1  'x, y, z'
loop_
 _atom_site_type_symbol
 _atom_site_label
 _atom_site_symmetry_multiplicity
 _atom_site_fract_x
 _atom_site_fract_y
 _atom_site_fract_z
 _atom_site_occupancy
  Pr  Pr0  1  0.185675  0.381643  0.251135  1
  Pr  Pr1  1  0.814291  0.618049  0.748752  1
  Pr  Pr2  1  0.620370  0.813614  0.250406  1
  Pr  Pr3  1  0.379574  0.186280  0.749880  1
  Pr  Pr4  1  0.190298  0.806151  0.250409  1
  Y  Y5  1  0.808247  0.196646  0.748857  1
  Al  Al6  1  0.331859  0.665329  0.015834  1
  Al  Al7  1  0.668479  0.333234  0.979042  1
  Al  Al8  1  0.667706  0.331782  0.520301  1
  Al  Al9  1  0.333046  0.667659  0.484300  1
  Al  Al10  1  0.160599  0.325934  0.576054  1
  Al  Al11  1  0.837434  0.672426  0.425956  1
  Al  Al12  1  0.674668  0.840399  0.576009  1
  Al  Al13  1  0.837569  0.672385  0.074033  1
  Al  Al14  1  0.327331  0.161979  0.426239  1
  Al  Al15  1  0.160036  0.325628  0.923818  1
  Al  Al16  1  0.165445  0.836121  0.574654  1
  Al  Al17  1  0.326794  0.164020  0.075267  1
  Al  Al18  1  0.834967  0.163973  0.428738  1
  Al  Al19  1  0.674815  0.838216  0.922795  1
  Al  Al20  1  0.837759  0.166356  0.072092  1
  Al  Al21  1  0.162085  0.833271  0.924245  1
  Al  Al22  1  0.562922  0.127096  0.250780  1
  Al  Al23  1  0.441130  0.876036  0.749769  1
  Al  Al24  1  0.871793  0.436628  0.249496  1
  Al  Al25  1  0.125978  0.560036  0.750257  1
  Al  Al26  1  0.562148  0.437611  0.249757  1
  Al  Al27  1  0.438069  0.562434  0.750440  1
  Al  Al28  1  0.999033  0.000096  0.250119  1
  Al  Al29  1  0.998513  0.002041  0.749807  1
  Os  Os30  1  0.998891  0.498081  0.998609  1
  Os  Os31  1  0.501834  0.000945  0.501363  1
  Os  Os32  1  0.999346  0.498567  0.501149  1
  Os  Os33  1  0.999773  0.999741  0.999546  1
  Os  Os34  1  0.000135  0.999944  0.500464  1
  Rh  Rh35  1  0.501234  0.000242  0.999410  1
  Rh  Rh36  1  0.500093  0.499564  0.999671  1
  Rh  Rh37  1  0.500061  0.499842  0.500548  1
