# generated using pymatgen
data_LiNd17(DyIr6)2
_symmetry_space_group_name_H-M   'P 1'
_cell_length_a   11.22751300
_cell_length_b   11.22751300
_cell_length_c   6.44671600
_cell_angle_alpha   90.00000000
_cell_angle_beta   90.00000000
_cell_angle_gamma   90.00000000
_symmetry_Int_Tables_number   1
_chemical_formula_structural   LiNd17(DyIr6)2
_chemical_formula_sum   'Li1 Nd17 Dy2 Ir12'
_cell_volume   812.65398932
_cell_formula_units_Z   1
loop_
 _symmetry_equiv_pos_site_id
 _symmetry_equiv_pos_as_xyz
  1  'x, y, z'
loop_
 _atom_site_type_symbol
 _atom_site_label
 _atom_site_symmetry_multiplicity
 _atom_site_fract_x
 _atom_site_fract_y
 _atom_site_fract_z
 _atom_site_occupancy
  Li  Li0  1  0.000000  0.000000  0.500000  1
  Nd  Nd1  1  0.278487  0.083666  0.383695  1
  Nd  Nd2  1  0.291453  0.911367  0.882248  1
  Nd  Nd3  1  0.708547  0.088633  0.882248  1
  Nd  Nd4  1  0.721513  0.916334  0.383695  1
  Nd  Nd5  1  0.589669  0.789607  0.882783  1
  Nd  Nd6  1  0.585606  0.210004  0.380682  1
  Nd  Nd7  1  0.414394  0.789996  0.380682  1
  Nd  Nd8  1  0.410331  0.210393  0.882783  1
  Nd  Nd9  1  0.210004  0.414394  0.619318  1
  Nd  Nd10  1  0.210393  0.589669  0.117217  1
  Nd  Nd11  1  0.789607  0.410331  0.117217  1
  Nd  Nd12  1  0.789996  0.585606  0.619318  1
  Nd  Nd13  1  0.911367  0.708547  0.117752  1
  Nd  Nd14  1  0.916334  0.278487  0.616305  1
  Nd  Nd15  1  0.083666  0.721513  0.616305  1
  Nd  Nd16  1  0.088633  0.291453  0.117752  1
  Nd  Nd17  1  0.000000  0.000000  0.000000  1
  Dy  Dy18  1  0.500000  0.500000  0.000000  1
  Dy  Dy19  1  0.500000  0.500000  0.500000  1
  Ir  Ir20  1  0.845532  0.155999  0.243657  1
  Ir  Ir21  1  0.844001  0.845532  0.756343  1
  Ir  Ir22  1  0.155999  0.154468  0.756343  1
  Ir  Ir23  1  0.154468  0.844001  0.243657  1
  Ir  Ir24  1  0.649389  0.350580  0.747417  1
  Ir  Ir25  1  0.649420  0.649389  0.252583  1
  Ir  Ir26  1  0.350580  0.350611  0.252583  1
  Ir  Ir27  1  0.350611  0.649420  0.747417  1
  Ir  Ir28  1  0.500000  0.000000  0.121886  1
  Ir  Ir29  1  0.500000  0.000000  0.614007  1
  Ir  Ir30  1  0.000000  0.500000  0.878114  1
  Ir  Ir31  1  0.000000  0.500000  0.385993  1
