# generated using pymatgen
data_Tm2(ThOs)3
_symmetry_space_group_name_H-M   'P 1'
_cell_length_a   8.33619300
_cell_length_b   8.33619419
_cell_length_c   6.35645100
_cell_angle_alpha   90.00000000
_cell_angle_beta   90.00000000
_cell_angle_gamma   119.99999923
_symmetry_Int_Tables_number   1
_chemical_formula_structural   Tm2(ThOs)3
_chemical_formula_sum   'Tm4 Th6 Os6'
_cell_volume   382.54358417
_cell_formula_units_Z   2
loop_
 _symmetry_equiv_pos_site_id
 _symmetry_equiv_pos_as_xyz
  1  'x, y, z'
loop_
 _atom_site_type_symbol
 _atom_site_label
 _atom_site_symmetry_multiplicity
 _atom_site_fract_x
 _atom_site_fract_y
 _atom_site_fract_z
 _atom_site_occupancy
  Tm  Tm0  1  0.333333  0.666667  0.000000  1
  Tm  Tm1  1  0.666667  0.333333  0.000000  1
  Tm  Tm2  1  0.666667  0.333333  0.500000  1
  Tm  Tm3  1  0.333333  0.666667  0.500000  1
  Th  Th4  1  0.256351  0.000000  0.250000  1
  Th  Th5  1  0.743649  0.000000  0.750000  1
  Th  Th6  1  0.000000  0.256351  0.250000  1
  Th  Th7  1  0.000000  0.743649  0.750000  1
  Th  Th8  1  0.743649  0.743649  0.250000  1
  Th  Th9  1  0.256351  0.256351  0.750000  1
  Os  Os10  1  0.616248  0.000000  0.250000  1
  Os  Os11  1  0.383752  0.000000  0.750000  1
  Os  Os12  1  0.000000  0.616248  0.250000  1
  Os  Os13  1  0.000000  0.383752  0.750000  1
  Os  Os14  1  0.383752  0.383752  0.250000  1
  Os  Os15  1  0.616248  0.616248  0.750000  1
