# generated using pymatgen
data_YZr(Si7Ir3)2
_symmetry_space_group_name_H-M   'P 1'
_cell_length_a   8.01718471
_cell_length_b   8.01718491
_cell_length_c   8.01718346
_cell_angle_alpha   56.65429803
_cell_angle_beta   56.65428990
_cell_angle_gamma   56.65429230
_symmetry_Int_Tables_number   1
_chemical_formula_structural   YZr(Si7Ir3)2
_chemical_formula_sum   'Y1 Zr1 Si14 Ir6'
_cell_volume   336.21972700
_cell_formula_units_Z   1
loop_
 _symmetry_equiv_pos_site_id
 _symmetry_equiv_pos_as_xyz
  1  'x, y, z'
loop_
 _atom_site_type_symbol
 _atom_site_label
 _atom_site_symmetry_multiplicity
 _atom_site_fract_x
 _atom_site_fract_y
 _atom_site_fract_z
 _atom_site_occupancy
  Y  Y0  1  0.500000  0.500000  0.500000  1
  Zr  Zr1  1  0.000000  0.000000  0.000000  1
  Si  Si2  1  0.852082  0.061914  0.675666  1
  Si  Si3  1  0.675666  0.852082  0.061914  1
  Si  Si4  1  0.061914  0.675666  0.852082  1
  Si  Si5  1  0.649829  0.828771  0.433500  1
  Si  Si6  1  0.250246  0.250246  0.250246  1
  Si  Si7  1  0.749754  0.749754  0.749754  1
  Si  Si8  1  0.171229  0.566500  0.350171  1
  Si  Si9  1  0.566500  0.350171  0.171229  1
  Si  Si10  1  0.350171  0.171229  0.566500  1
  Si  Si11  1  0.938086  0.324334  0.147918  1
  Si  Si12  1  0.324334  0.147918  0.938086  1
  Si  Si13  1  0.147918  0.938086  0.324334  1
  Si  Si14  1  0.828771  0.433500  0.649829  1
  Si  Si15  1  0.433500  0.649829  0.828771  1
  Ir  Ir16  1  0.751495  0.070027  0.428076  1
  Ir  Ir17  1  0.428076  0.751495  0.070027  1
  Ir  Ir18  1  0.070027  0.428076  0.751495  1
  Ir  Ir19  1  0.248505  0.929973  0.571924  1
  Ir  Ir20  1  0.571924  0.248505  0.929973  1
  Ir  Ir21  1  0.929973  0.571924  0.248505  1
