# generated using pymatgen
data_Dy7Lu(InRh)2
_symmetry_space_group_name_H-M   'P 1'
_cell_length_a   9.64077016
_cell_length_b   9.65227195
_cell_length_c   9.64438221
_cell_angle_alpha   59.97293652
_cell_angle_beta   60.08097813
_cell_angle_gamma   59.96051990
_symmetry_Int_Tables_number   1
_chemical_formula_structural   Dy7Lu(InRh)2
_chemical_formula_sum   'Dy14 Lu2 In4 Rh4'
_cell_volume   634.66844356
_cell_formula_units_Z   2
loop_
 _symmetry_equiv_pos_site_id
 _symmetry_equiv_pos_as_xyz
  1  'x, y, z'
loop_
 _atom_site_type_symbol
 _atom_site_label
 _atom_site_symmetry_multiplicity
 _atom_site_fract_x
 _atom_site_fract_y
 _atom_site_fract_z
 _atom_site_occupancy
  Dy  Dy0  1  0.313017  0.688449  0.310085  1
  Dy  Dy1  1  0.935461  0.939340  0.561715  1
  Dy  Dy2  1  0.148131  0.151334  0.549200  1
  Dy  Dy3  1  0.561206  0.939780  0.559235  1
  Dy  Dy4  1  0.148924  0.152499  0.151435  1
  Dy  Dy5  1  0.311925  0.309593  0.689354  1
  Dy  Dy6  1  0.935461  0.563484  0.561715  1
  Dy  Dy7  1  0.561324  0.561199  0.939208  1
  Dy  Dy8  1  0.561324  0.938269  0.939208  1
  Dy  Dy9  1  0.934895  0.562877  0.939352  1
  Dy  Dy10  1  0.148924  0.547142  0.151435  1
  Dy  Dy11  1  0.311925  0.689128  0.689354  1
  Dy  Dy12  1  0.689172  0.311538  0.687753  1
  Dy  Dy13  1  0.552444  0.149662  0.148230  1
  Lu  Lu14  1  0.689955  0.311165  0.310690  1
  Lu  Lu15  1  0.689955  0.688190  0.310690  1
  In  In16  1  0.918316  0.916902  0.247879  1
  In  In17  1  0.248757  0.916718  0.917807  1
  In  In18  1  0.917501  0.248876  0.917669  1
  In  In19  1  0.917501  0.915953  0.917669  1
  Rh  Rh20  1  0.361344  0.355249  0.357687  1
  Rh  Rh21  1  0.923116  0.359619  0.357647  1
  Rh  Rh22  1  0.358076  0.357313  0.927300  1
  Rh  Rh23  1  0.361344  0.925721  0.357687  1
