# generated using pymatgen
data_HoLu(Bi3O7)2
_symmetry_space_group_name_H-M   'P 1'
_cell_length_a   6.62484102
_cell_length_b   6.83380621
_cell_length_c   7.81803214
_cell_angle_alpha   106.70820410
_cell_angle_beta   89.43393795
_cell_angle_gamma   99.26516634
_symmetry_Int_Tables_number   1
_chemical_formula_structural   HoLu(Bi3O7)2
_chemical_formula_sum   'Ho1 Lu1 Bi6 O14'
_cell_volume   334.33079647
_cell_formula_units_Z   1
loop_
 _symmetry_equiv_pos_site_id
 _symmetry_equiv_pos_as_xyz
  1  'x, y, z'
loop_
 _atom_site_type_symbol
 _atom_site_label
 _atom_site_symmetry_multiplicity
 _atom_site_fract_x
 _atom_site_fract_y
 _atom_site_fract_z
 _atom_site_occupancy
  Ho  Ho0  1  0.538624  0.995533  0.750943  1
  Lu  Lu1  1  0.462354  0.005210  0.249776  1
  Bi  Bi2  1  0.000509  0.000161  0.499486  1
  Bi  Bi3  1  0.000157  0.000167  0.001728  1
  Bi  Bi4  1  0.260271  0.520668  0.879692  1
  Bi  Bi5  1  0.737764  0.481539  0.120310  1
  Bi  Bi6  1  0.722468  0.460712  0.607152  1
  Bi  Bi7  1  0.276367  0.537311  0.388918  1
  O  O8  1  0.465274  0.666745  0.185428  1
  O  O9  1  0.535944  0.339309  0.816501  1
  O  O10  1  0.306324  0.944027  0.955604  1
  O  O11  1  0.694172  0.053886  0.051024  1
  O  O12  1  0.300306  0.921288  0.511396  1
  O  O13  1  0.700381  0.078357  0.483016  1
  O  O14  1  0.527782  0.344952  0.348573  1
  O  O15  1  0.468600  0.649694  0.648090  1
  O  O16  1  0.917162  0.673637  0.958762  1
  O  O17  1  0.082756  0.326332  0.041641  1
  O  O18  1  0.093990  0.325899  0.623977  1
  O  O19  1  0.903791  0.674143  0.376981  1
  O  O20  1  0.876129  0.935124  0.733885  1
  O  O21  1  0.128874  0.065306  0.267118  1
