# generated using pymatgen
data_TbEr2Fe9
_symmetry_space_group_name_H-M   'P 1'
_cell_length_a   8.58371147
_cell_length_b   8.58371163
_cell_length_c   8.58371017
_cell_angle_alpha   34.45060171
_cell_angle_beta   34.45059924
_cell_angle_gamma   34.45059841
_symmetry_Int_Tables_number   1
_chemical_formula_structural   TbEr2Fe9
_chemical_formula_sum   'Tb1 Er2 Fe9'
_cell_volume   180.54244604
_cell_formula_units_Z   1
loop_
 _symmetry_equiv_pos_site_id
 _symmetry_equiv_pos_as_xyz
  1  'x, y, z'
loop_
 _atom_site_type_symbol
 _atom_site_label
 _atom_site_symmetry_multiplicity
 _atom_site_fract_x
 _atom_site_fract_y
 _atom_site_fract_z
 _atom_site_occupancy
  Tb  Tb0  1  0.000000  0.000000  0.000000  1
  Er  Er1  1  0.141955  0.141955  0.141955  1
  Er  Er2  1  0.858045  0.858045  0.858045  1
  Fe  Fe3  1  0.418078  0.418078  0.917989  1
  Fe  Fe4  1  0.917989  0.418078  0.418078  1
  Fe  Fe5  1  0.581922  0.082011  0.581922  1
  Fe  Fe6  1  0.581922  0.581922  0.082011  1
  Fe  Fe7  1  0.418078  0.917989  0.418078  1
  Fe  Fe8  1  0.082011  0.581922  0.581922  1
  Fe  Fe9  1  0.332764  0.332764  0.332764  1
  Fe  Fe10  1  0.667236  0.667236  0.667236  1
  Fe  Fe11  1  0.500000  0.500000  0.500000  1
