# generated using pymatgen
data_BaPr6IrI12
_symmetry_space_group_name_H-M   'P 1'
_cell_length_a   10.17379106
_cell_length_b   10.17379167
_cell_length_c   10.17379345
_cell_angle_alpha   105.95777378
_cell_angle_beta   105.95776537
_cell_angle_gamma   105.95777505
_symmetry_Int_Tables_number   1
_chemical_formula_structural   BaPr6IrI12
_chemical_formula_sum   'Ba1 Pr6 Ir1 I12'
_cell_volume   900.76076469
_cell_formula_units_Z   1
loop_
 _symmetry_equiv_pos_site_id
 _symmetry_equiv_pos_as_xyz
  1  'x, y, z'
loop_
 _atom_site_type_symbol
 _atom_site_label
 _atom_site_symmetry_multiplicity
 _atom_site_fract_x
 _atom_site_fract_y
 _atom_site_fract_z
 _atom_site_occupancy
  Ba  Ba0  1  0.500000  0.500000  0.500000  1
  Pr  Pr1  1  0.985076  0.907114  0.702454  1
  Pr  Pr2  1  0.014924  0.092886  0.297546  1
  Pr  Pr3  1  0.092886  0.297546  0.014924  1
  Pr  Pr4  1  0.297546  0.014924  0.092886  1
  Pr  Pr5  1  0.907114  0.702454  0.985076  1
  Pr  Pr6  1  0.702454  0.985076  0.907114  1
  Ir  Ir7  1  0.000000  0.000000  0.000000  1
  I  I8  1  0.556959  0.639945  0.870277  1
  I  I9  1  0.443041  0.360055  0.129723  1
  I  I10  1  0.323489  0.926302  0.775172  1
  I  I11  1  0.360055  0.129723  0.443041  1
  I  I12  1  0.926302  0.775172  0.323489  1
  I  I13  1  0.676511  0.073698  0.224828  1
  I  I14  1  0.073698  0.224828  0.676511  1
  I  I15  1  0.775172  0.323489  0.926302  1
  I  I16  1  0.224828  0.676511  0.073698  1
  I  I17  1  0.870277  0.556959  0.639945  1
  I  I18  1  0.129723  0.443041  0.360055  1
  I  I19  1  0.639945  0.870277  0.556959  1
