# generated using pymatgen
data_Hf16Nb3Si16Tc
_symmetry_space_group_name_H-M   'P 1'
_cell_length_a   6.98692265
_cell_length_b   6.98692265
_cell_length_c   12.76030256
_cell_angle_alpha   89.79080000
_cell_angle_beta   89.79080000
_cell_angle_gamma   90.00723875
_symmetry_Int_Tables_number   1
_chemical_formula_structural   Hf16Nb3Si16Tc
_chemical_formula_sum   'Hf16 Nb3 Si16 Tc1'
_cell_volume   622.91250413
_cell_formula_units_Z   1
loop_
 _symmetry_equiv_pos_site_id
 _symmetry_equiv_pos_as_xyz
  1  'x, y, z'
loop_
 _atom_site_type_symbol
 _atom_site_label
 _atom_site_symmetry_multiplicity
 _atom_site_fract_x
 _atom_site_fract_y
 _atom_site_fract_z
 _atom_site_occupancy
  Hf  Hf0  1  0.498346  0.153439  0.531700  1
  Hf  Hf1  1  0.502838  0.846713  0.030773  1
  Hf  Hf2  1  0.653203  0.002581  0.282241  1
  Hf  Hf3  1  0.345628  0.995211  0.780671  1
  Hf  Hf4  1  0.846561  0.501654  0.968300  1
  Hf  Hf5  1  0.153287  0.497162  0.469227  1
  Hf  Hf6  1  0.004789  0.654372  0.719329  1
  Hf  Hf7  1  0.997419  0.346797  0.217759  1
  Hf  Hf8  1  0.498849  0.355772  0.124798  1
  Hf  Hf9  1  0.503882  0.645174  0.627403  1
  Hf  Hf10  1  0.855988  0.001640  0.875418  1
  Hf  Hf11  1  0.144189  0.996902  0.376295  1
  Hf  Hf12  1  0.644228  0.501151  0.375202  1
  Hf  Hf13  1  0.354826  0.496118  0.872597  1
  Hf  Hf14  1  0.003098  0.855811  0.123705  1
  Hf  Hf15  1  0.998360  0.144012  0.624582  1
  Nb  Nb16  1  0.325689  0.674311  0.250000  1
  Nb  Nb17  1  0.824324  0.825630  0.501330  1
  Nb  Nb18  1  0.174370  0.175676  0.998670  1
  Si  Si19  1  0.795588  0.146232  0.071839  1
  Si  Si20  1  0.203734  0.852856  0.572156  1
  Si  Si21  1  0.647064  0.703408  0.822534  1
  Si  Si22  1  0.353202  0.295951  0.321991  1
  Si  Si23  1  0.853768  0.204412  0.428161  1
  Si  Si24  1  0.147144  0.796266  0.927844  1
  Si  Si25  1  0.704049  0.646798  0.178009  1
  Si  Si26  1  0.296592  0.352936  0.677466  1
  Si  Si27  1  0.551289  0.199723  0.932575  1
  Si  Si28  1  0.452883  0.802855  0.435321  1
  Si  Si29  1  0.696523  0.956826  0.686173  1
  Si  Si30  1  0.302646  0.048389  0.184710  1
  Si  Si31  1  0.800277  0.448711  0.567425  1
  Si  Si32  1  0.197145  0.547117  0.064679  1
  Si  Si33  1  0.951611  0.697354  0.315290  1
  Si  Si34  1  0.043174  0.303477  0.813827  1
  Tc  Tc35  1  0.673437  0.326563  0.750000  1
