# generated using pymatgen
data_K2Np(PO4)2
_symmetry_space_group_name_H-M   'P 1'
_cell_length_a   5.34724500
_cell_length_b   5.34724359
_cell_length_c   9.31471100
_cell_angle_alpha   90.00000000
_cell_angle_beta   90.00000000
_cell_angle_gamma   119.99998468
_symmetry_Int_Tables_number   1
_chemical_formula_structural   K2Np(PO4)2
_chemical_formula_sum   'K2 Np1 P2 O8'
_cell_volume   230.65354581
_cell_formula_units_Z   1
loop_
 _symmetry_equiv_pos_site_id
 _symmetry_equiv_pos_as_xyz
  1  'x, y, z'
loop_
 _atom_site_type_symbol
 _atom_site_label
 _atom_site_symmetry_multiplicity
 _atom_site_fract_x
 _atom_site_fract_y
 _atom_site_fract_z
 _atom_site_occupancy
  K  K0  1  0.333333  0.666667  0.649284  1
  K  K1  1  0.666667  0.333333  0.350716  1
  Np  Np2  1  0.000000  0.000000  0.000000  1
  P  P3  1  0.333333  0.666667  0.203636  1
  P  P4  1  0.666667  0.333333  0.796364  1
  O  O5  1  0.333333  0.666667  0.366990  1
  O  O6  1  0.666667  0.333333  0.633010  1
  O  O7  1  0.284341  0.913199  0.144699  1
  O  O8  1  0.086801  0.371140  0.144699  1
  O  O9  1  0.628860  0.715659  0.144699  1
  O  O10  1  0.715659  0.086801  0.855301  1
  O  O11  1  0.913199  0.628860  0.855301  1
  O  O12  1  0.371140  0.284341  0.855301  1
