# generated using pymatgen
data_Er8Ta3Ti9Ge16
_symmetry_space_group_name_H-M   'P 1'
_cell_length_a   7.13712111
_cell_length_b   7.13712131
_cell_length_c   13.12661003
_cell_angle_alpha   89.97590545
_cell_angle_beta   90.02409679
_cell_angle_gamma   89.94825357
_symmetry_Int_Tables_number   1
_chemical_formula_structural   Er8Ta3Ti9Ge16
_chemical_formula_sum   'Er8 Ta3 Ti9 Ge16'
_cell_volume   668.64942380
_cell_formula_units_Z   1
loop_
 _symmetry_equiv_pos_site_id
 _symmetry_equiv_pos_as_xyz
  1  'x, y, z'
loop_
 _atom_site_type_symbol
 _atom_site_label
 _atom_site_symmetry_multiplicity
 _atom_site_fract_x
 _atom_site_fract_y
 _atom_site_fract_z
 _atom_site_occupancy
  Er  Er0  1  0.340249  0.000018  0.468112  1
  Er  Er1  1  0.499348  0.840186  0.719227  1
  Er  Er2  1  0.500014  0.158533  0.218600  1
  Er  Er3  1  0.840186  0.499348  0.280773  1
  Er  Er4  1  0.158533  0.500014  0.781400  1
  Er  Er5  1  0.659711  0.000253  0.968516  1
  Er  Er6  1  0.000018  0.340249  0.531888  1
  Er  Er7  1  0.000253  0.659711  0.031484  1
  Ta  Ta8  1  0.327996  0.327996  0.000000  1
  Ta  Ta9  1  0.172270  0.828126  0.250025  1
  Ta  Ta10  1  0.828126  0.172270  0.749975  1
  Ti  Ti11  1  0.672739  0.672739  0.500000  1
  Ti  Ti12  1  0.155962  0.008740  0.874382  1
  Ti  Ti13  1  0.491299  0.656115  0.124787  1
  Ti  Ti14  1  0.508633  0.343010  0.625590  1
  Ti  Ti15  1  0.656115  0.491299  0.875213  1
  Ti  Ti16  1  0.343010  0.508633  0.374410  1
  Ti  Ti17  1  0.844950  0.992432  0.373826  1
  Ti  Ti18  1  0.008740  0.155962  0.125618  1
  Ti  Ti19  1  0.992432  0.844950  0.626174  1
  Ge  Ge20  1  0.198265  0.127903  0.678554  1
  Ge  Ge21  1  0.372175  0.698924  0.928441  1
  Ge  Ge22  1  0.628395  0.303013  0.429091  1
  Ge  Ge23  1  0.698924  0.372175  0.071559  1
  Ge  Ge24  1  0.303013  0.628395  0.570909  1
  Ge  Ge25  1  0.801274  0.871973  0.178612  1
  Ge  Ge26  1  0.127903  0.198265  0.321446  1
  Ge  Ge27  1  0.871973  0.801274  0.821388  1
  Ge  Ge28  1  0.292941  0.960487  0.066711  1
  Ge  Ge29  1  0.541044  0.792205  0.318393  1
  Ge  Ge30  1  0.460258  0.206663  0.817197  1
  Ge  Ge31  1  0.792205  0.541044  0.681607  1
  Ge  Ge32  1  0.206663  0.460258  0.182803  1
  Ge  Ge33  1  0.706696  0.037202  0.566640  1
  Ge  Ge34  1  0.960487  0.292941  0.933289  1
  Ge  Ge35  1  0.037202  0.706696  0.433360  1
