# generated using pymatgen
data_Yb3Sm(MnOs3)2
_symmetry_space_group_name_H-M   'P 1'
_cell_length_a   5.31983500
_cell_length_b   5.31983453
_cell_length_c   8.68498900
_cell_angle_alpha   90.00000000
_cell_angle_beta   90.00000000
_cell_angle_gamma   119.99999670
_symmetry_Int_Tables_number   1
_chemical_formula_structural   Yb3Sm(MnOs3)2
_chemical_formula_sum   'Yb3 Sm1 Mn2 Os6'
_cell_volume   212.86105256
_cell_formula_units_Z   1
loop_
 _symmetry_equiv_pos_site_id
 _symmetry_equiv_pos_as_xyz
  1  'x, y, z'
loop_
 _atom_site_type_symbol
 _atom_site_label
 _atom_site_symmetry_multiplicity
 _atom_site_fract_x
 _atom_site_fract_y
 _atom_site_fract_z
 _atom_site_occupancy
  Yb  Yb0  1  0.666667  0.333333  0.571197  1
  Yb  Yb1  1  0.666667  0.333333  0.932366  1
  Yb  Yb2  1  0.333333  0.666667  0.063447  1
  Sm  Sm3  1  0.333333  0.666667  0.429674  1
  Mn  Mn4  1  0.000000  0.000000  0.501587  1
  Mn  Mn5  1  0.000000  0.000000  0.001717  1
  Os  Os6  1  0.829713  0.170287  0.248929  1
  Os  Os7  1  0.829713  0.659426  0.248929  1
  Os  Os8  1  0.340574  0.170287  0.248929  1
  Os  Os9  1  0.170027  0.829973  0.751074  1
  Os  Os10  1  0.170027  0.340054  0.751074  1
  Os  Os11  1  0.659946  0.829973  0.751074  1
