# generated using pymatgen
data_Tm2Pa(InPd)3
_symmetry_space_group_name_H-M   'P 1'
_cell_length_a   7.73642299
_cell_length_b   7.73642292
_cell_length_c   3.77663800
_cell_angle_alpha   90.00000000
_cell_angle_beta   90.00000000
_cell_angle_gamma   120.08221459
_symmetry_Int_Tables_number   1
_chemical_formula_structural   Tm2Pa(InPd)3
_chemical_formula_sum   'Tm2 Pa1 In3 Pd3'
_cell_volume   195.59421816
_cell_formula_units_Z   1
loop_
 _symmetry_equiv_pos_site_id
 _symmetry_equiv_pos_as_xyz
  1  'x, y, z'
loop_
 _atom_site_type_symbol
 _atom_site_label
 _atom_site_symmetry_multiplicity
 _atom_site_fract_x
 _atom_site_fract_y
 _atom_site_fract_z
 _atom_site_occupancy
  Tm  Tm0  1  0.595805  0.998862  0.500000  1
  Tm  Tm1  1  0.998862  0.595805  0.500000  1
  Pa  Pa2  1  0.406876  0.406876  0.500000  1
  In  In3  1  0.745135  0.745135  0.000000  1
  In  In4  1  0.262625  0.992065  0.000000  1
  In  In5  1  0.992065  0.262625  0.000000  1
  Pd  Pd6  1  0.006927  0.006927  0.500000  1
  Pd  Pd7  1  0.657093  0.334612  0.000000  1
  Pd  Pd8  1  0.334612  0.657093  0.000000  1
