# generated using pymatgen
data_PrLu2Ni9
_symmetry_space_group_name_H-M   'P 1'
_cell_length_a   8.56229057
_cell_length_b   8.56229103
_cell_length_c   8.56229148
_cell_angle_alpha   33.86703886
_cell_angle_beta   33.86703731
_cell_angle_gamma   33.86703289
_symmetry_Int_Tables_number   1
_chemical_formula_structural   PrLu2Ni9
_chemical_formula_sum   'Pr1 Lu2 Ni9'
_cell_volume   173.72504781
_cell_formula_units_Z   1
loop_
 _symmetry_equiv_pos_site_id
 _symmetry_equiv_pos_as_xyz
  1  'x, y, z'
loop_
 _atom_site_type_symbol
 _atom_site_label
 _atom_site_symmetry_multiplicity
 _atom_site_fract_x
 _atom_site_fract_y
 _atom_site_fract_z
 _atom_site_occupancy
  Pr  Pr0  1  0.000000  0.000000  0.000000  1
  Lu  Lu1  1  0.859429  0.859429  0.859429  1
  Lu  Lu2  1  0.140571  0.140571  0.140571  1
  Ni  Ni3  1  0.081922  0.585745  0.585745  1
  Ni  Ni4  1  0.918078  0.414255  0.414255  1
  Ni  Ni5  1  0.666793  0.666793  0.666793  1
  Ni  Ni6  1  0.585745  0.585745  0.081922  1
  Ni  Ni7  1  0.414255  0.918078  0.414255  1
  Ni  Ni8  1  0.333207  0.333207  0.333207  1
  Ni  Ni9  1  0.500000  0.500000  0.500000  1
  Ni  Ni10  1  0.414255  0.414255  0.918078  1
  Ni  Ni11  1  0.585745  0.081922  0.585745  1
