# generated using pymatgen
data_Dy3Y9Zn(InFe)2
_symmetry_space_group_name_H-M   'P 1'
_cell_length_a   8.44254655
_cell_length_b   8.44254976
_cell_length_c   8.45961105
_cell_angle_alpha   109.71197397
_cell_angle_beta   109.71190372
_cell_angle_gamma   108.90894986
_symmetry_Int_Tables_number   1
_chemical_formula_structural   Dy3Y9Zn(InFe)2
_chemical_formula_sum   'Dy3 Y9 Zn1 In2 Fe2'
_cell_volume   464.60813549
_cell_formula_units_Z   1
loop_
 _symmetry_equiv_pos_site_id
 _symmetry_equiv_pos_as_xyz
  1  'x, y, z'
loop_
 _atom_site_type_symbol
 _atom_site_label
 _atom_site_symmetry_multiplicity
 _atom_site_fract_x
 _atom_site_fract_y
 _atom_site_fract_z
 _atom_site_occupancy
  Dy  Dy0  1  0.693316  0.693314  0.386648  1
  Dy  Dy1  1  0.307077  0.692913  0.000004  1
  Dy  Dy2  1  0.692912  0.307076  0.000004  1
  Y  Y3  1  0.445019  0.200409  0.243616  1
  Y  Y4  1  0.555658  0.799994  0.756094  1
  Y  Y5  1  0.956123  0.200439  0.756110  1
  Y  Y6  1  0.200438  0.956123  0.756111  1
  Y  Y7  1  0.043228  0.798601  0.243638  1
  Y  Y8  1  0.798600  0.043227  0.243636  1
  Y  Y9  1  0.200408  0.445018  0.243616  1
  Y  Y10  1  0.799994  0.555658  0.756094  1
  Y  Y11  1  0.305424  0.305423  0.610852  1
  Zn  Zn12  1  0.000421  0.000421  0.000863  1
  In  In13  1  0.499693  0.000236  0.499913  1
  In  In14  1  0.000235  0.499693  0.499911  1
  Fe  Fe15  1  0.388598  0.388597  0.001448  1
  Fe  Fe16  1  0.612853  0.612853  0.001440  1
