# generated using pymatgen
data_YEr(Tm4Bi3)2
_symmetry_space_group_name_H-M   'P 1'
_cell_length_a   8.17743000
_cell_length_b   9.43626200
_cell_length_c   11.89940700
_cell_angle_alpha   90.00000000
_cell_angle_beta   90.00000000
_cell_angle_gamma   90.00000000
_symmetry_Int_Tables_number   1
_chemical_formula_structural   YEr(Tm4Bi3)2
_chemical_formula_sum   'Y2 Er2 Tm16 Bi12'
_cell_volume   918.21026793
_cell_formula_units_Z   2
loop_
 _symmetry_equiv_pos_site_id
 _symmetry_equiv_pos_as_xyz
  1  'x, y, z'
loop_
 _atom_site_type_symbol
 _atom_site_label
 _atom_site_symmetry_multiplicity
 _atom_site_fract_x
 _atom_site_fract_y
 _atom_site_fract_z
 _atom_site_occupancy
  Y  Y0  1  0.313544  0.250000  0.217909  1
  Y  Y1  1  0.813544  0.250000  0.282091  1
  Er  Er2  1  0.687023  0.750000  0.782574  1
  Er  Er3  1  0.187023  0.750000  0.717426  1
  Tm  Tm4  1  0.352754  0.750000  0.217291  1
  Tm  Tm5  1  0.852754  0.750000  0.282709  1
  Tm  Tm6  1  0.647186  0.250000  0.782570  1
  Tm  Tm7  1  0.147186  0.250000  0.717430  1
  Tm  Tm8  1  0.691622  0.566171  0.058951  1
  Tm  Tm9  1  0.191622  0.933829  0.441049  1
  Tm  Tm10  1  0.308288  0.066094  0.940671  1
  Tm  Tm11  1  0.808288  0.433906  0.559329  1
  Tm  Tm12  1  0.308288  0.433906  0.940671  1
  Tm  Tm13  1  0.808288  0.066094  0.559329  1
  Tm  Tm14  1  0.691622  0.933829  0.058951  1
  Tm  Tm15  1  0.191622  0.566171  0.441049  1
  Tm  Tm16  1  0.477222  0.250000  0.489847  1
  Tm  Tm17  1  0.977222  0.250000  0.010153  1
  Tm  Tm18  1  0.522696  0.750000  0.511017  1
  Tm  Tm19  1  0.022696  0.750000  0.988983  1
  Bi  Bi20  1  0.403517  0.750000  0.957436  1
  Bi  Bi21  1  0.903517  0.750000  0.542564  1
  Bi  Bi22  1  0.596717  0.250000  0.041582  1
  Bi  Bi23  1  0.096717  0.250000  0.458418  1
  Bi  Bi24  1  0.565100  0.994840  0.325890  1
  Bi  Bi25  1  0.065100  0.505160  0.174110  1
  Bi  Bi26  1  0.434660  0.495786  0.674570  1
  Bi  Bi27  1  0.934660  0.004214  0.825430  1
  Bi  Bi28  1  0.434660  0.004214  0.674570  1
  Bi  Bi29  1  0.934660  0.495786  0.825430  1
  Bi  Bi30  1  0.565100  0.505160  0.325890  1
  Bi  Bi31  1  0.065100  0.994840  0.174110  1
