# generated using pymatgen
data_Lu3Pa(Nb3Si4)2
_symmetry_space_group_name_H-M   'P 1'
_cell_length_a   7.03282700
_cell_length_b   7.03534462
_cell_length_c   12.95779300
_cell_angle_alpha   90.00000000
_cell_angle_beta   90.00000000
_cell_angle_gamma   90.04942588
_symmetry_Int_Tables_number   1
_chemical_formula_structural   Lu3Pa(Nb3Si4)2
_chemical_formula_sum   'Lu6 Pa2 Nb12 Si16'
_cell_volume   641.13012880
_cell_formula_units_Z   2
loop_
 _symmetry_equiv_pos_site_id
 _symmetry_equiv_pos_as_xyz
  1  'x, y, z'
loop_
 _atom_site_type_symbol
 _atom_site_label
 _atom_site_symmetry_multiplicity
 _atom_site_fract_x
 _atom_site_fract_y
 _atom_site_fract_z
 _atom_site_occupancy
  Lu  Lu0  1  0.159375  0.501273  0.468234  1
  Lu  Lu1  1  0.499293  0.841634  0.032041  1
  Lu  Lu2  1  0.840625  0.498727  0.968234  1
  Lu  Lu3  1  0.500707  0.158366  0.532041  1
  Lu  Lu4  1  0.340581  0.999142  0.783288  1
  Lu  Lu5  1  0.659419  0.000858  0.283288  1
  Pa  Pa6  1  0.997799  0.341093  0.216473  1
  Pa  Pa7  1  0.002201  0.658907  0.716473  1
  Nb  Nb8  1  0.169450  0.170744  0.001879  1
  Nb  Nb9  1  0.830550  0.829256  0.501879  1
  Nb  Nb10  1  0.326907  0.668039  0.249394  1
  Nb  Nb11  1  0.673093  0.331961  0.749394  1
  Nb  Nb12  1  0.153063  0.997853  0.374601  1
  Nb  Nb13  1  0.846937  0.002147  0.874601  1
  Nb  Nb14  1  0.504426  0.651033  0.625814  1
  Nb  Nb15  1  0.345208  0.494837  0.873597  1
  Nb  Nb16  1  0.495574  0.348967  0.125814  1
  Nb  Nb17  1  0.654792  0.505163  0.373597  1
  Nb  Nb18  1  0.993828  0.151076  0.624527  1
  Nb  Nb19  1  0.006172  0.848924  0.124527  1
  Si  Si20  1  0.300228  0.042589  0.186645  1
  Si  Si21  1  0.699772  0.957411  0.686645  1
  Si  Si22  1  0.456925  0.795885  0.436211  1
  Si  Si23  1  0.206215  0.546736  0.061448  1
  Si  Si24  1  0.543075  0.204115  0.936211  1
  Si  Si25  1  0.793785  0.453264  0.561448  1
  Si  Si26  1  0.044290  0.291075  0.815757  1
  Si  Si27  1  0.955710  0.708925  0.315757  1
  Si  Si28  1  0.368465  0.295785  0.319914  1
  Si  Si29  1  0.631535  0.704215  0.819914  1
  Si  Si30  1  0.208834  0.868916  0.566996  1
  Si  Si31  1  0.134522  0.795426  0.931821  1
  Si  Si32  1  0.791166  0.131084  0.066996  1
  Si  Si33  1  0.865478  0.204574  0.431821  1
  Si  Si34  1  0.296075  0.362400  0.681357  1
  Si  Si35  1  0.703925  0.637600  0.181357  1
