# generated using pymatgen
data_Lu2CoCuSb2
_symmetry_space_group_name_H-M   'P 1'
_cell_length_a   7.70263194
_cell_length_b   7.70263259
_cell_length_c   7.70263261
_cell_angle_alpha   33.62841532
_cell_angle_beta   33.62842279
_cell_angle_gamma   33.62841687
_symmetry_Int_Tables_number   1
_chemical_formula_structural   Lu2CoCuSb2
_chemical_formula_sum   'Lu2 Co1 Cu1 Sb2'
_cell_volume   124.86030846
_cell_formula_units_Z   1
loop_
 _symmetry_equiv_pos_site_id
 _symmetry_equiv_pos_as_xyz
  1  'x, y, z'
loop_
 _atom_site_type_symbol
 _atom_site_label
 _atom_site_symmetry_multiplicity
 _atom_site_fract_x
 _atom_site_fract_y
 _atom_site_fract_z
 _atom_site_occupancy
  Lu  Lu0  1  0.254248  0.254248  0.254248  1
  Lu  Lu1  1  0.746236  0.746236  0.746236  1
  Co  Co2  1  0.373516  0.373516  0.373516  1
  Cu  Cu3  1  0.875584  0.875584  0.875584  1
  Sb  Sb4  1  0.003703  0.003703  0.003703  1
  Sb  Sb5  1  0.496715  0.496715  0.496715  1
