# generated using pymatgen
data_Sr6CeRh3
_symmetry_space_group_name_H-M   'P 1'
_cell_length_a   7.27104900
_cell_length_b   10.53598761
_cell_length_c   10.53598737
_cell_angle_alpha   120.00081869
_cell_angle_beta   90.00000000
_cell_angle_gamma   90.00000000
_symmetry_Int_Tables_number   1
_chemical_formula_structural   Sr6CeRh3
_chemical_formula_sum   'Sr12 Ce2 Rh6'
_cell_volume   698.99587485
_cell_formula_units_Z   2
loop_
 _symmetry_equiv_pos_site_id
 _symmetry_equiv_pos_as_xyz
  1  'x, y, z'
loop_
 _atom_site_type_symbol
 _atom_site_label
 _atom_site_symmetry_multiplicity
 _atom_site_fract_x
 _atom_site_fract_y
 _atom_site_fract_z
 _atom_site_occupancy
  Sr  Sr0  1  0.256788  0.124960  0.875040  1
  Sr  Sr1  1  0.257003  0.750090  0.875052  1
  Sr  Sr2  1  0.257003  0.124948  0.249910  1
  Sr  Sr3  1  0.756788  0.875040  0.124960  1
  Sr  Sr4  1  0.757003  0.249910  0.124948  1
  Sr  Sr5  1  0.757003  0.875052  0.750090  1
  Sr  Sr6  1  0.451784  0.535836  0.464164  1
  Sr  Sr7  1  0.451665  0.928323  0.464176  1
  Sr  Sr8  1  0.451665  0.535824  0.071677  1
  Sr  Sr9  1  0.951784  0.464164  0.535836  1
  Sr  Sr10  1  0.951665  0.071677  0.535824  1
  Sr  Sr11  1  0.951665  0.464176  0.928323  1
  Ce  Ce12  1  0.540274  0.333347  0.666653  1
  Ce  Ce13  1  0.040274  0.666653  0.333347  1
  Rh  Rh14  1  0.142238  0.794760  0.205240  1
  Rh  Rh15  1  0.142289  0.410496  0.205306  1
  Rh  Rh16  1  0.142289  0.794694  0.589504  1
  Rh  Rh17  1  0.642238  0.205240  0.794760  1
  Rh  Rh18  1  0.642289  0.589504  0.794694  1
  Rh  Rh19  1  0.642289  0.205306  0.410496  1
