# generated using pymatgen
data_Nd7GaNi2
_symmetry_space_group_name_H-M   'P 1'
_cell_length_a   3.77964800
_cell_length_b   12.12266700
_cell_length_c   12.12266700
_cell_angle_alpha   90.00000000
_cell_angle_beta   90.00000000
_cell_angle_gamma   90.00000000
_symmetry_Int_Tables_number   1
_chemical_formula_structural   Nd7GaNi2
_chemical_formula_sum   'Nd14 Ga2 Ni4'
_cell_volume   555.45349904
_cell_formula_units_Z   2
loop_
 _symmetry_equiv_pos_site_id
 _symmetry_equiv_pos_as_xyz
  1  'x, y, z'
loop_
 _atom_site_type_symbol
 _atom_site_label
 _atom_site_symmetry_multiplicity
 _atom_site_fract_x
 _atom_site_fract_y
 _atom_site_fract_z
 _atom_site_occupancy
  Nd  Nd0  1  0.500000  0.000000  0.500000  1
  Nd  Nd1  1  0.500000  0.500000  0.000000  1
  Nd  Nd2  1  0.000000  0.319052  0.819052  1
  Nd  Nd3  1  0.000000  0.680948  0.180948  1
  Nd  Nd4  1  0.000000  0.180948  0.319052  1
  Nd  Nd5  1  0.000000  0.819052  0.680948  1
  Nd  Nd6  1  0.500000  0.560272  0.704657  1
  Nd  Nd7  1  0.500000  0.439728  0.295343  1
  Nd  Nd8  1  0.500000  0.939728  0.204657  1
  Nd  Nd9  1  0.500000  0.060272  0.795343  1
  Nd  Nd10  1  0.500000  0.704657  0.439728  1
  Nd  Nd11  1  0.500000  0.295343  0.560272  1
  Nd  Nd12  1  0.500000  0.204657  0.060272  1
  Nd  Nd13  1  0.500000  0.795343  0.939728  1
  Ga  Ga14  1  0.000000  0.500000  0.500000  1
  Ga  Ga15  1  0.000000  0.000000  0.000000  1
  Ni  Ni16  1  0.000000  0.126994  0.626994  1
  Ni  Ni17  1  0.000000  0.873006  0.373006  1
  Ni  Ni18  1  0.000000  0.373006  0.126994  1
  Ni  Ni19  1  0.000000  0.626994  0.873006  1
