# generated using pymatgen
data_AcAg4Hg
_symmetry_space_group_name_H-M   'P 1'
_cell_length_a   5.76993500
_cell_length_b   5.76993516
_cell_length_c   5.76993500
_cell_angle_alpha   59.99999516
_cell_angle_beta   59.99999427
_cell_angle_gamma   59.99999376
_symmetry_Int_Tables_number   1
_chemical_formula_structural   AcAg4Hg
_chemical_formula_sum   'Ac1 Ag4 Hg1'
_cell_volume   135.83063184
_cell_formula_units_Z   1
loop_
 _symmetry_equiv_pos_site_id
 _symmetry_equiv_pos_as_xyz
  1  'x, y, z'
loop_
 _atom_site_type_symbol
 _atom_site_label
 _atom_site_symmetry_multiplicity
 _atom_site_fract_x
 _atom_site_fract_y
 _atom_site_fract_z
 _atom_site_occupancy
  Ac  Ac0  1  0.250000  0.250000  0.250000  1
  Ag  Ag1  1  0.625785  0.625785  0.122646  1
  Ag  Ag2  1  0.625785  0.122646  0.625785  1
  Ag  Ag3  1  0.122646  0.625785  0.625785  1
  Ag  Ag4  1  0.625785  0.625785  0.625785  1
  Hg  Hg5  1  0.000000  0.000000  0.000000  1
