# generated using pymatgen
data_Pa4MnFeO12
_symmetry_space_group_name_H-M   'P 1'
_cell_length_a   5.37147300
_cell_length_b   5.40301700
_cell_length_c   15.98998200
_cell_angle_alpha   90.00000000
_cell_angle_beta   90.00000000
_cell_angle_gamma   90.00000000
_symmetry_Int_Tables_number   1
_chemical_formula_structural   Pa4MnFeO12
_chemical_formula_sum   'Pa8 Mn2 Fe2 O24'
_cell_volume   464.06381495
_cell_formula_units_Z   2
loop_
 _symmetry_equiv_pos_site_id
 _symmetry_equiv_pos_as_xyz
  1  'x, y, z'
loop_
 _atom_site_type_symbol
 _atom_site_label
 _atom_site_symmetry_multiplicity
 _atom_site_fract_x
 _atom_site_fract_y
 _atom_site_fract_z
 _atom_site_occupancy
  Pa  Pa0  1  0.964140  0.493063  0.658715  1
  Pa  Pa1  1  0.464140  0.506937  0.841285  1
  Pa  Pa2  1  0.535860  0.506937  0.158715  1
  Pa  Pa3  1  0.035860  0.493063  0.341285  1
  Pa  Pa4  1  0.535029  0.004784  0.341174  1
  Pa  Pa5  1  0.035029  0.995216  0.158826  1
  Pa  Pa6  1  0.964971  0.995216  0.841174  1
  Pa  Pa7  1  0.464971  0.004784  0.658826  1
  Mn  Mn8  1  0.500000  0.044632  0.000000  1
  Mn  Mn9  1  0.000000  0.955368  0.500000  1
  Fe  Fe10  1  0.000000  0.455938  0.000000  1
  Fe  Fe11  1  0.500000  0.544062  0.500000  1
  O  O12  1  0.246306  0.699272  0.587055  1
  O  O13  1  0.746306  0.300728  0.912945  1
  O  O14  1  0.253694  0.300728  0.087055  1
  O  O15  1  0.753694  0.699272  0.412945  1
  O  O16  1  0.256555  0.793247  0.411990  1
  O  O17  1  0.756555  0.206753  0.088010  1
  O  O18  1  0.243445  0.206753  0.911990  1
  O  O19  1  0.743445  0.793247  0.588010  1
  O  O20  1  0.274699  0.724264  0.250068  1
  O  O21  1  0.774699  0.275736  0.249932  1
  O  O22  1  0.225301  0.275736  0.750068  1
  O  O23  1  0.725301  0.724264  0.749932  1
  O  O24  1  0.224724  0.775571  0.749734  1
  O  O25  1  0.724724  0.224429  0.750266  1
  O  O26  1  0.275276  0.224429  0.249734  1
  O  O27  1  0.775276  0.775571  0.250266  1
  O  O28  1  0.154812  0.697022  0.908833  1
  O  O29  1  0.654812  0.302978  0.591167  1
  O  O30  1  0.345188  0.302978  0.408833  1
  O  O31  1  0.845188  0.697022  0.091167  1
  O  O32  1  0.344157  0.806693  0.092583  1
  O  O33  1  0.844157  0.193307  0.407417  1
  O  O34  1  0.155843  0.193307  0.592583  1
  O  O35  1  0.655843  0.806693  0.907417  1
