# generated using pymatgen
data_Lu2Al9RePd2
_symmetry_space_group_name_H-M   'P 1'
_cell_length_a   7.57987600
_cell_length_b   7.57997952
_cell_length_c   9.49322300
_cell_angle_alpha   90.00000000
_cell_angle_beta   90.00000000
_cell_angle_gamma   118.23740928
_symmetry_Int_Tables_number   1
_chemical_formula_structural   Lu2Al9RePd2
_chemical_formula_sum   'Lu4 Al18 Re2 Pd4'
_cell_volume   480.52625966
_cell_formula_units_Z   2
loop_
 _symmetry_equiv_pos_site_id
 _symmetry_equiv_pos_as_xyz
  1  'x, y, z'
loop_
 _atom_site_type_symbol
 _atom_site_label
 _atom_site_symmetry_multiplicity
 _atom_site_fract_x
 _atom_site_fract_y
 _atom_site_fract_z
 _atom_site_occupancy
  Lu  Lu0  1  0.993740  0.686721  0.250000  1
  Lu  Lu1  1  0.006260  0.313279  0.750000  1
  Lu  Lu2  1  0.686723  0.993755  0.250000  1
  Lu  Lu3  1  0.313277  0.006245  0.750000  1
  Al  Al4  1  0.134530  0.134539  0.250000  1
  Al  Al5  1  0.865470  0.865461  0.750000  1
  Al  Al6  1  0.001518  0.337023  0.078035  1
  Al  Al7  1  0.998482  0.662977  0.921965  1
  Al  Al8  1  0.998482  0.662977  0.578035  1
  Al  Al9  1  0.337024  0.001501  0.421966  1
  Al  Al10  1  0.001518  0.337023  0.421965  1
  Al  Al11  1  0.662976  0.998499  0.578034  1
  Al  Al12  1  0.662976  0.998499  0.921966  1
  Al  Al13  1  0.337024  0.001501  0.078034  1
  Al  Al14  1  0.328835  0.328816  0.548807  1
  Al  Al15  1  0.671165  0.671184  0.451193  1
  Al  Al16  1  0.671165  0.671184  0.048807  1
  Al  Al17  1  0.328835  0.328816  0.951193  1
  Al  Al18  1  0.345045  0.555595  0.250000  1
  Al  Al19  1  0.654955  0.444405  0.750000  1
  Al  Al20  1  0.555560  0.345112  0.250000  1
  Al  Al21  1  0.444440  0.654888  0.750000  1
  Re  Re22  1  0.000000  0.000000  0.000000  1
  Re  Re23  1  0.000000  0.000000  0.500000  1
  Pd  Pd24  1  0.672067  0.328116  0.999980  1
  Pd  Pd25  1  0.327933  0.671884  0.000020  1
  Pd  Pd26  1  0.327933  0.671884  0.499980  1
  Pd  Pd27  1  0.672067  0.328116  0.500020  1
