# generated using pymatgen
data_LuTc6GeO24
_symmetry_space_group_name_H-M   'P 1'
_cell_length_a   10.53013680
_cell_length_b   10.53013593
_cell_length_c   10.53013600
_cell_angle_alpha   48.97700293
_cell_angle_beta   48.97701426
_cell_angle_gamma   48.97701006
_symmetry_Int_Tables_number   1
_chemical_formula_structural   LuTc6GeO24
_chemical_formula_sum   'Lu1 Tc6 Ge1 O24'
_cell_volume   610.19023744
_cell_formula_units_Z   1
loop_
 _symmetry_equiv_pos_site_id
 _symmetry_equiv_pos_as_xyz
  1  'x, y, z'
loop_
 _atom_site_type_symbol
 _atom_site_label
 _atom_site_symmetry_multiplicity
 _atom_site_fract_x
 _atom_site_fract_y
 _atom_site_fract_z
 _atom_site_occupancy
  Lu  Lu0  1  0.000000  0.000000  0.000000  1
  Tc  Tc1  1  0.567005  0.897088  0.274812  1
  Tc  Tc2  1  0.275125  0.566908  0.896955  1
  Tc  Tc3  1  0.897199  0.274893  0.566842  1
  Tc  Tc4  1  0.724875  0.433092  0.103045  1
  Tc  Tc5  1  0.102801  0.725107  0.433158  1
  Tc  Tc6  1  0.432995  0.102912  0.725188  1
  Ge  Ge7  1  0.500000  0.500000  0.500000  1
  O  O8  1  0.774050  0.915951  0.169667  1
  O  O9  1  0.169715  0.773920  0.916059  1
  O  O10  1  0.916032  0.169799  0.773897  1
  O  O11  1  0.668768  0.381554  0.331552  1
  O  O12  1  0.331290  0.668808  0.381803  1
  O  O13  1  0.381664  0.331314  0.669106  1
  O  O14  1  0.225950  0.084049  0.830333  1
  O  O15  1  0.830285  0.226080  0.083941  1
  O  O16  1  0.083968  0.830201  0.226103  1
  O  O17  1  0.331232  0.618446  0.668448  1
  O  O18  1  0.668710  0.331192  0.618197  1
  O  O19  1  0.618336  0.668686  0.330894  1
  O  O20  1  0.429663  0.936987  0.470063  1
  O  O21  1  0.470396  0.429616  0.936814  1
  O  O22  1  0.937321  0.470053  0.429202  1
  O  O23  1  0.869829  0.543450  0.946075  1
  O  O24  1  0.945882  0.870342  0.543204  1
  O  O25  1  0.543204  0.945935  0.870277  1
  O  O26  1  0.570337  0.063013  0.529937  1
  O  O27  1  0.529604  0.570384  0.063186  1
  O  O28  1  0.062679  0.529947  0.570798  1
  O  O29  1  0.130171  0.456550  0.053925  1
  O  O30  1  0.054118  0.129658  0.456796  1
  O  O31  1  0.456796  0.054065  0.129723  1
