# generated using pymatgen
data_Er8Tm2OsRh3
_symmetry_space_group_name_H-M   'P 1'
_cell_length_a   6.43193362
_cell_length_b   7.21130621
_cell_length_c   8.34696600
_cell_angle_alpha   96.45206991
_cell_angle_beta   112.39255846
_cell_angle_gamma   89.98080716
_symmetry_Int_Tables_number   1
_chemical_formula_structural   Er8Tm2OsRh3
_chemical_formula_sum   'Er8 Tm2 Os1 Rh3'
_cell_volume   355.31362062
_cell_formula_units_Z   1
loop_
 _symmetry_equiv_pos_site_id
 _symmetry_equiv_pos_as_xyz
  1  'x, y, z'
loop_
 _atom_site_type_symbol
 _atom_site_label
 _atom_site_symmetry_multiplicity
 _atom_site_fract_x
 _atom_site_fract_y
 _atom_site_fract_z
 _atom_site_occupancy
  Er  Er0  1  0.972221  0.917458  0.184933  1
  Er  Er1  1  0.789672  0.581670  0.821966  1
  Er  Er2  1  0.027169  0.082214  0.816565  1
  Er  Er3  1  0.211524  0.418864  0.185177  1
  Er  Er4  1  0.657086  0.814984  0.438547  1
  Er  Er5  1  0.208762  0.682411  0.556173  1
  Er  Er6  1  0.346759  0.182533  0.559807  1
  Er  Er7  1  0.786743  0.319192  0.439327  1
  Tm  Tm8  1  0.426522  0.749016  0.000762  1
  Tm  Tm9  1  0.576246  0.251450  0.000811  1
  Os  Os10  1  0.824352  0.573512  0.214889  1
  Rh  Rh11  1  0.606583  0.928092  0.780702  1
  Rh  Rh12  1  0.174586  0.425856  0.782170  1
  Rh  Rh13  1  0.391776  0.072752  0.218173  1
