# generated using pymatgen
data_Y5Tm15(Ag3Rh)2
_symmetry_space_group_name_H-M   'P 1'
_cell_length_a   9.40777800
_cell_length_b   9.41008923
_cell_length_c   9.53115900
_cell_angle_alpha   90.00257555
_cell_angle_beta   89.99829473
_cell_angle_gamma   120.00926968
_symmetry_Int_Tables_number   1
_chemical_formula_structural   Y5Tm15(Ag3Rh)2
_chemical_formula_sum   'Y5 Tm15 Ag6 Rh2'
_cell_volume   730.66208900
_cell_formula_units_Z   1
loop_
 _symmetry_equiv_pos_site_id
 _symmetry_equiv_pos_as_xyz
  1  'x, y, z'
loop_
 _atom_site_type_symbol
 _atom_site_label
 _atom_site_symmetry_multiplicity
 _atom_site_fract_x
 _atom_site_fract_y
 _atom_site_fract_z
 _atom_site_occupancy
  Y  Y0  1  0.541425  0.083836  0.250002  1
  Y  Y1  1  0.916172  0.458584  0.250005  1
  Y  Y2  1  0.458260  0.541728  0.749993  1
  Y  Y3  1  0.458574  0.917219  0.749997  1
  Y  Y4  1  0.082794  0.541427  0.750000  1
  Tm  Tm5  1  0.000069  0.999942  0.499702  1
  Tm  Tm6  1  0.000069  0.999942  0.000299  1
  Tm  Tm7  1  0.208475  0.791521  0.442203  1
  Tm  Tm8  1  0.208933  0.416370  0.441818  1
  Tm  Tm9  1  0.583665  0.791085  0.441820  1
  Tm  Tm10  1  0.791834  0.208171  0.557691  1
  Tm  Tm11  1  0.790885  0.583039  0.557122  1
  Tm  Tm12  1  0.416926  0.209105  0.557119  1
  Tm  Tm13  1  0.791842  0.208167  0.942300  1
  Tm  Tm14  1  0.790881  0.583030  0.942885  1
  Tm  Tm15  1  0.416937  0.209106  0.942885  1
  Tm  Tm16  1  0.208474  0.791531  0.057810  1
  Tm  Tm17  1  0.208937  0.416385  0.058174  1
  Tm  Tm18  1  0.583657  0.791082  0.058175  1
  Tm  Tm19  1  0.540892  0.459118  0.250002  1
  Ag  Ag20  1  0.884948  0.115039  0.249999  1
  Ag  Ag21  1  0.882780  0.768118  0.250001  1
  Ag  Ag22  1  0.231894  0.117211  0.250001  1
  Ag  Ag23  1  0.115005  0.884967  0.749999  1
  Ag  Ag24  1  0.114793  0.229873  0.749999  1
  Ag  Ag25  1  0.770132  0.885196  0.749999  1
  Rh  Rh26  1  0.333927  0.666050  0.250014  1
  Rh  Rh27  1  0.666821  0.333159  0.749988  1
