# generated using pymatgen
data_Ba4NdPN5
_symmetry_space_group_name_H-M   'P 1'
_cell_length_a   7.87076191
_cell_length_b   7.87076136
_cell_length_c   8.64369500
_cell_angle_alpha   76.10577875
_cell_angle_beta   76.10577973
_cell_angle_gamma   93.52687237
_symmetry_Int_Tables_number   1
_chemical_formula_structural   Ba4NdPN5
_chemical_formula_sum   'Ba8 Nd2 P2 N10'
_cell_volume   500.53916341
_cell_formula_units_Z   2
loop_
 _symmetry_equiv_pos_site_id
 _symmetry_equiv_pos_as_xyz
  1  'x, y, z'
loop_
 _atom_site_type_symbol
 _atom_site_label
 _atom_site_symmetry_multiplicity
 _atom_site_fract_x
 _atom_site_fract_y
 _atom_site_fract_z
 _atom_site_occupancy
  Ba  Ba0  1  0.683763  0.683763  0.992520  1
  Ba  Ba1  1  0.316237  0.316237  0.007480  1
  Ba  Ba2  1  0.926028  0.926028  0.219672  1
  Ba  Ba3  1  0.073972  0.073972  0.780328  1
  Ba  Ba4  1  0.565247  0.082160  0.739932  1
  Ba  Ba5  1  0.917840  0.434753  0.260068  1
  Ba  Ba6  1  0.434753  0.917840  0.260068  1
  Ba  Ba7  1  0.082160  0.565247  0.739932  1
  Nd  Nd8  1  0.421951  0.421951  0.355354  1
  Nd  Nd9  1  0.578049  0.578049  0.644646  1
  P  P10  1  0.752968  0.247032  0.000000  1
  P  P11  1  0.247032  0.752968  0.000000  1
  N  N12  1  0.637401  0.637401  0.348270  1
  N  N13  1  0.362599  0.362599  0.651730  1
  N  N14  1  0.717988  0.036978  0.995043  1
  N  N15  1  0.963022  0.282012  0.004957  1
  N  N16  1  0.282012  0.963022  0.004957  1
  N  N17  1  0.036978  0.717988  0.995043  1
  N  N18  1  0.385721  0.714835  0.831022  1
  N  N19  1  0.285165  0.614279  0.168977  1
  N  N20  1  0.614279  0.285165  0.168977  1
  N  N21  1  0.714835  0.385721  0.831022  1
