# generated using pymatgen
data_Er8Ga(Pd7Pt5)2
_symmetry_space_group_name_H-M   'P 1'
_cell_length_a   8.31726522
_cell_length_b   8.32434239
_cell_length_c   8.32262420
_cell_angle_alpha   90.02380441
_cell_angle_beta   90.00731618
_cell_angle_gamma   89.97449406
_symmetry_Int_Tables_number   1
_chemical_formula_structural   Er8Ga(Pd7Pt5)2
_chemical_formula_sum   'Er8 Ga1 Pd14 Pt10'
_cell_volume   576.22312847
_cell_formula_units_Z   1
loop_
 _symmetry_equiv_pos_site_id
 _symmetry_equiv_pos_as_xyz
  1  'x, y, z'
loop_
 _atom_site_type_symbol
 _atom_site_label
 _atom_site_symmetry_multiplicity
 _atom_site_fract_x
 _atom_site_fract_y
 _atom_site_fract_z
 _atom_site_occupancy
  Er  Er0  1  0.252020  0.252327  0.747361  1
  Er  Er1  1  0.252562  0.748011  0.252953  1
  Er  Er2  1  0.747659  0.252469  0.252411  1
  Er  Er3  1  0.747981  0.747219  0.747391  1
  Er  Er4  1  0.747413  0.747502  0.252673  1
  Er  Er5  1  0.748028  0.252759  0.747643  1
  Er  Er6  1  0.251991  0.747717  0.747046  1
  Er  Er7  1  0.252385  0.251975  0.252612  1
  Ga  Ga8  1  0.000168  0.000318  0.999831  1
  Pd  Pd9  1  0.999766  0.999741  0.708662  1
  Pd  Pd10  1  0.999966  0.291557  0.000185  1
  Pd  Pd11  1  0.291655  0.999800  0.000029  1
  Pd  Pd12  1  0.999762  0.999795  0.291343  1
  Pd  Pd13  1  0.999959  0.708522  0.000140  1
  Pd  Pd14  1  0.708391  0.999779  0.000031  1
  Pd  Pd15  1  0.500124  0.000079  0.739999  1
  Pd  Pd16  1  0.260032  0.500178  0.999883  1
  Pd  Pd17  1  0.999948  0.500188  0.259901  1
  Pd  Pd18  1  0.500047  0.739826  0.000052  1
  Pd  Pd19  1  0.000097  0.740140  0.499827  1
  Pd  Pd20  1  0.500152  0.000044  0.259906  1
  Pd  Pd21  1  0.739824  0.000063  0.499960  1
  Pd  Pd22  1  0.740044  0.500208  0.999907  1
  Pt  Pt23  1  0.500083  0.499995  0.747585  1
  Pt  Pt24  1  0.499910  0.252455  0.499914  1
  Pt  Pt25  1  0.252599  0.500041  0.500020  1
  Pt  Pt26  1  0.500086  0.499965  0.252555  1
  Pt  Pt27  1  0.499890  0.747291  0.499939  1
  Pt  Pt28  1  0.747292  0.500020  0.500026  1
  Pt  Pt29  1  0.999937  0.500115  0.740319  1
  Pt  Pt30  1  0.500047  0.260076  0.000031  1
  Pt  Pt31  1  0.260085  0.000021  0.499937  1
  Pt  Pt32  1  0.000098  0.259807  0.499928  1
