# generated using pymatgen
data_Tb2Er4Al19Si5Os8
_symmetry_space_group_name_H-M   'P 1'
_cell_length_a   8.69468215
_cell_length_b   8.68005803
_cell_length_c   9.58531100
_cell_angle_alpha   90.00000000
_cell_angle_beta   90.00000000
_cell_angle_gamma   120.07713548
_symmetry_Int_Tables_number   1
_chemical_formula_structural   Tb2Er4Al19Si5Os8
_chemical_formula_sum   'Tb2 Er4 Al19 Si5 Os8'
_cell_volume   626.00109173
_cell_formula_units_Z   1
loop_
 _symmetry_equiv_pos_site_id
 _symmetry_equiv_pos_as_xyz
  1  'x, y, z'
loop_
 _atom_site_type_symbol
 _atom_site_label
 _atom_site_symmetry_multiplicity
 _atom_site_fract_x
 _atom_site_fract_y
 _atom_site_fract_z
 _atom_site_occupancy
  Tb  Tb0  1  0.806654  0.613071  0.750000  1
  Tb  Tb1  1  0.388129  0.194185  0.750000  1
  Er  Er2  1  0.195106  0.390337  0.250000  1
  Er  Er3  1  0.607179  0.805982  0.250000  1
  Er  Er4  1  0.199083  0.805896  0.250000  1
  Er  Er5  1  0.804970  0.195697  0.750000  1
  Al  Al6  1  0.164542  0.329533  0.577786  1
  Al  Al7  1  0.834949  0.669598  0.421281  1
  Al  Al8  1  0.669769  0.835631  0.576399  1
  Al  Al9  1  0.834949  0.669598  0.078719  1
  Al  Al10  1  0.328868  0.165347  0.421456  1
  Al  Al11  1  0.164542  0.329533  0.922214  1
  Al  Al12  1  0.165651  0.835110  0.576093  1
  Al  Al13  1  0.328868  0.165347  0.078544  1
  Al  Al14  1  0.836516  0.165256  0.421831  1
  Al  Al15  1  0.669769  0.835631  0.923601  1
  Al  Al16  1  0.836516  0.165256  0.078169  1
  Al  Al17  1  0.165651  0.835110  0.923907  1
  Al  Al18  1  0.437433  0.874166  0.750000  1
  Al  Al19  1  0.873091  0.433448  0.250000  1
  Al  Al20  1  0.127895  0.564274  0.750000  1
  Al  Al21  1  0.560603  0.433618  0.250000  1
  Al  Al22  1  0.436473  0.564875  0.750000  1
  Al  Al23  1  0.999778  0.999448  0.250000  1
  Al  Al24  1  0.999357  0.002028  0.750000  1
  Si  Si25  1  0.332661  0.664888  0.038870  1
  Si  Si26  1  0.667577  0.334280  0.961301  1
  Si  Si27  1  0.667577  0.334280  0.538699  1
  Si  Si28  1  0.332661  0.664888  0.461130  1
  Si  Si29  1  0.563757  0.127343  0.250000  1
  Os  Os30  1  0.500748  0.000907  0.006972  1
  Os  Os31  1  0.999496  0.498858  0.000979  1
  Os  Os32  1  0.500748  0.000907  0.493028  1
  Os  Os33  1  0.499868  0.499227  0.001185  1
  Os  Os34  1  0.999496  0.498858  0.499021  1
  Os  Os35  1  0.499868  0.499227  0.498815  1
  Os  Os36  1  0.999603  0.999181  0.000139  1
  Os  Os37  1  0.999603  0.999181  0.499861  1
