# generated using pymatgen
data_Er2Pa(AlRh)3
_symmetry_space_group_name_H-M   'P 1'
_cell_length_a   7.26564900
_cell_length_b   7.13480051
_cell_length_c   3.86221500
_cell_angle_alpha   90.00000000
_cell_angle_beta   90.00000000
_cell_angle_gamma   120.60852815
_symmetry_Int_Tables_number   1
_chemical_formula_structural   Er2Pa(AlRh)3
_chemical_formula_sum   'Er2 Pa1 Al3 Rh3'
_cell_volume   172.31673905
_cell_formula_units_Z   1
loop_
 _symmetry_equiv_pos_site_id
 _symmetry_equiv_pos_as_xyz
  1  'x, y, z'
loop_
 _atom_site_type_symbol
 _atom_site_label
 _atom_site_symmetry_multiplicity
 _atom_site_fract_x
 _atom_site_fract_y
 _atom_site_fract_z
 _atom_site_occupancy
  Er  Er0  1  0.994744  0.412166  0.500000  1
  Er  Er1  1  0.582578  0.587834  0.500000  1
  Pa  Pa2  1  0.423020  0.000000  0.500000  1
  Al  Al3  1  0.773759  0.000000  0.000000  1
  Al  Al4  1  0.989348  0.746684  0.000000  1
  Al  Al5  1  0.242663  0.253316  0.000000  1
  Rh  Rh6  1  0.336063  0.695603  0.000000  1
  Rh  Rh7  1  0.640461  0.304397  0.000000  1
  Rh  Rh8  1  0.017365  0.000000  0.500000  1
