# generated using pymatgen
data_U8PtSe17
_symmetry_space_group_name_H-M   'P 1'
_cell_length_a   8.24486073
_cell_length_b   8.24486110
_cell_length_c   10.90747321
_cell_angle_alpha   79.70097188
_cell_angle_beta   79.70097237
_cell_angle_gamma   64.51100748
_symmetry_Int_Tables_number   1
_chemical_formula_structural   U8PtSe17
_chemical_formula_sum   'U8 Pt1 Se17'
_cell_volume   654.16898420
_cell_formula_units_Z   1
loop_
 _symmetry_equiv_pos_site_id
 _symmetry_equiv_pos_as_xyz
  1  'x, y, z'
loop_
 _atom_site_type_symbol
 _atom_site_label
 _atom_site_symmetry_multiplicity
 _atom_site_fract_x
 _atom_site_fract_y
 _atom_site_fract_z
 _atom_site_occupancy
  U  U0  1  0.821430  0.307230  0.300551  1
  U  U1  1  0.307230  0.821430  0.300551  1
  U  U2  1  0.178570  0.692770  0.699449  1
  U  U3  1  0.692770  0.178570  0.699449  1
  U  U4  1  0.202219  0.202219  0.542074  1
  U  U5  1  0.797781  0.797781  0.457926  1
  U  U6  1  0.674901  0.674901  0.988659  1
  U  U7  1  0.325099  0.325099  0.011341  1
  Pt  Pt8  1  0.000000  0.000000  0.000000  1
  Se  Se9  1  0.819249  0.434090  0.537391  1
  Se  Se10  1  0.434090  0.819249  0.537391  1
  Se  Se11  1  0.180751  0.565910  0.462609  1
  Se  Se12  1  0.565910  0.180751  0.462609  1
  Se  Se13  1  0.953859  0.327216  0.026620  1
  Se  Se14  1  0.327216  0.953859  0.026620  1
  Se  Se15  1  0.046141  0.672784  0.973380  1
  Se  Se16  1  0.672784  0.046141  0.973380  1
  Se  Se17  1  0.216787  0.216787  0.277056  1
  Se  Se18  1  0.783213  0.783213  0.722944  1
  Se  Se19  1  0.050068  0.050068  0.769578  1
  Se  Se20  1  0.949932  0.949932  0.230422  1
  Se  Se21  1  0.296822  0.296822  0.755792  1
  Se  Se22  1  0.703178  0.703178  0.244208  1
  Se  Se23  1  0.518965  0.518965  0.829334  1
  Se  Se24  1  0.481035  0.481035  0.170666  1
  Se  Se25  1  0.000000  0.000000  0.500000  1
