# generated using pymatgen
data_LiEu2CoN2
_symmetry_space_group_name_H-M   'P 1'
_cell_length_a   5.33263500
_cell_length_b   5.33263500
_cell_length_c   7.03539000
_cell_angle_alpha   90.00000000
_cell_angle_beta   90.00000000
_cell_angle_gamma   90.00000000
_symmetry_Int_Tables_number   1
_chemical_formula_structural   LiEu2CoN2
_chemical_formula_sum   'Li2 Eu4 Co2 N4'
_cell_volume   200.06535759
_cell_formula_units_Z   2
loop_
 _symmetry_equiv_pos_site_id
 _symmetry_equiv_pos_as_xyz
  1  'x, y, z'
loop_
 _atom_site_type_symbol
 _atom_site_label
 _atom_site_symmetry_multiplicity
 _atom_site_fract_x
 _atom_site_fract_y
 _atom_site_fract_z
 _atom_site_occupancy
  Li  Li0  1  0.000000  0.000000  0.500000  1
  Li  Li1  1  0.500000  0.500000  0.000000  1
  Eu  Eu2  1  0.000000  0.500000  0.750000  1
  Eu  Eu3  1  0.000000  0.500000  0.250000  1
  Eu  Eu4  1  0.500000  0.000000  0.250000  1
  Eu  Eu5  1  0.500000  0.000000  0.750000  1
  Co  Co6  1  0.500000  0.500000  0.500000  1
  Co  Co7  1  0.000000  0.000000  0.000000  1
  N  N8  1  0.740937  0.740937  0.500000  1
  N  N9  1  0.759063  0.240937  0.000000  1
  N  N10  1  0.259063  0.259063  0.500000  1
  N  N11  1  0.240937  0.759063  0.000000  1
