# generated using pymatgen
data_Nd2Hg(SeO5)2
_symmetry_space_group_name_H-M   'P 1'
_cell_length_a   6.18540975
_cell_length_b   6.35439098
_cell_length_c   6.73012084
_cell_angle_alpha   103.15389701
_cell_angle_beta   77.85742949
_cell_angle_gamma   106.85013231
_symmetry_Int_Tables_number   1
_chemical_formula_structural   Nd2Hg(SeO5)2
_chemical_formula_sum   'Nd2 Hg1 Se2 O10'
_cell_volume   243.54822630
_cell_formula_units_Z   1
loop_
 _symmetry_equiv_pos_site_id
 _symmetry_equiv_pos_as_xyz
  1  'x, y, z'
loop_
 _atom_site_type_symbol
 _atom_site_label
 _atom_site_symmetry_multiplicity
 _atom_site_fract_x
 _atom_site_fract_y
 _atom_site_fract_z
 _atom_site_occupancy
  Nd  Nd0  1  0.190171  0.802158  0.398782  1
  Nd  Nd1  1  0.809829  0.197842  0.601218  1
  Hg  Hg2  1  0.000000  0.000000  0.000000  1
  Se  Se3  1  0.374396  0.648283  0.768947  1
  Se  Se4  1  0.625604  0.351717  0.231053  1
  O  O5  1  0.484574  0.867435  0.641636  1
  O  O6  1  0.515426  0.132565  0.358364  1
  O  O7  1  0.133979  0.525731  0.659470  1
  O  O8  1  0.866021  0.474269  0.340530  1
  O  O9  1  0.548624  0.487936  0.737989  1
  O  O10  1  0.451376  0.512064  0.262011  1
  O  O11  1  0.297216  0.746696  0.015590  1
  O  O12  1  0.702784  0.253304  0.984410  1
  O  O13  1  0.984841  0.006641  0.305673  1
  O  O14  1  0.015159  0.993359  0.694327  1
