# generated using pymatgen
data_Dy2Th3(U3S10)2
_symmetry_space_group_name_H-M   'P 1'
_cell_length_a   10.31771130
_cell_length_b   10.30964277
_cell_length_c   6.49097136
_cell_angle_alpha   89.96527058
_cell_angle_beta   90.22308630
_cell_angle_gamma   89.89994675
_symmetry_Int_Tables_number   1
_chemical_formula_structural   Dy2Th3(U3S10)2
_chemical_formula_sum   'Dy2 Th3 U6 S20'
_cell_volume   690.45065563
_cell_formula_units_Z   1
loop_
 _symmetry_equiv_pos_site_id
 _symmetry_equiv_pos_as_xyz
  1  'x, y, z'
loop_
 _atom_site_type_symbol
 _atom_site_label
 _atom_site_symmetry_multiplicity
 _atom_site_fract_x
 _atom_site_fract_y
 _atom_site_fract_z
 _atom_site_occupancy
  Dy  Dy0  1  0.843648  0.648987  0.249429  1
  Dy  Dy1  1  0.834023  0.355486  0.752179  1
  Th  Th2  1  0.159293  0.645060  0.749436  1
  Th  Th3  1  0.152709  0.350210  0.250788  1
  Th  Th4  1  0.647710  0.836817  0.751892  1
  U  U5  1  0.651560  0.157625  0.253115  1
  U  U6  1  0.351037  0.845605  0.251284  1
  U  U7  1  0.355777  0.162313  0.751147  1
  U  U8  1  0.503893  0.498438  0.143317  1
  U  U9  1  0.000585  0.998140  0.357598  1
  U  U10  1  0.001715  0.003794  0.857686  1
  S  S11  1  0.291711  0.589609  0.371217  1
  S  S12  1  0.294666  0.410267  0.890970  1
  S  S13  1  0.705741  0.587316  0.894427  1
  S  S14  1  0.706973  0.409033  0.373311  1
  S  S15  1  0.588099  0.288587  0.899069  1
  S  S16  1  0.586495  0.710581  0.373318  1
  S  S17  1  0.413304  0.290769  0.381406  1
  S  S18  1  0.410356  0.709967  0.899464  1
  S  S19  1  0.208658  0.910597  0.611035  1
  S  S20  1  0.207408  0.086473  0.110079  1
  S  S21  1  0.795926  0.912345  0.112286  1
  S  S22  1  0.794836  0.090471  0.610582  1
  S  S23  1  0.911124  0.204562  0.115783  1
  S  S24  1  0.912456  0.793744  0.615916  1
  S  S25  1  0.092892  0.203327  0.616764  1
  S  S26  1  0.090868  0.796484  0.112585  1
  S  S27  1  0.993919  0.498040  0.503244  1
  S  S28  1  0.995237  0.500643  0.997942  1
  S  S29  1  0.499534  0.001847  0.005884  1
  S  S30  1  0.497850  0.002864  0.501046  1
