# generated using pymatgen
data_K2SiTe4
_symmetry_space_group_name_H-M   'P 1'
_cell_length_a   8.76981800
_cell_length_b   10.05339788
_cell_length_c   12.90992536
_cell_angle_alpha   75.59799905
_cell_angle_beta   90.00000000
_cell_angle_gamma   90.00000000
_symmetry_Int_Tables_number   1
_chemical_formula_structural   K2SiTe4
_chemical_formula_sum   'K8 Si4 Te16'
_cell_volume   1102.45330235
_cell_formula_units_Z   4
loop_
 _symmetry_equiv_pos_site_id
 _symmetry_equiv_pos_as_xyz
  1  'x, y, z'
loop_
 _atom_site_type_symbol
 _atom_site_label
 _atom_site_symmetry_multiplicity
 _atom_site_fract_x
 _atom_site_fract_y
 _atom_site_fract_z
 _atom_site_occupancy
  K  K0  1  0.927547  0.196639  0.656761  1
  K  K1  1  0.427547  0.303361  0.343239  1
  K  K2  1  0.072453  0.803361  0.343239  1
  K  K3  1  0.572453  0.696639  0.656761  1
  K  K4  1  0.560908  0.214644  0.955233  1
  K  K5  1  0.060908  0.285356  0.044767  1
  K  K6  1  0.439092  0.785356  0.044767  1
  K  K7  1  0.939092  0.714644  0.955233  1
  Si  Si8  1  0.639359  0.960608  0.257698  1
  Si  Si9  1  0.139359  0.539392  0.742302  1
  Si  Si10  1  0.360641  0.039392  0.742302  1
  Si  Si11  1  0.860641  0.460608  0.257698  1
  Te  Te12  1  0.725199  0.041472  0.424012  1
  Te  Te13  1  0.225199  0.458528  0.575988  1
  Te  Te14  1  0.274801  0.958528  0.575988  1
  Te  Te15  1  0.774801  0.541472  0.424012  1
  Te  Te16  1  0.336574  0.527972  0.880171  1
  Te  Te17  1  0.836574  0.972028  0.119829  1
  Te  Te18  1  0.663426  0.472028  0.119829  1
  Te  Te19  1  0.163426  0.027972  0.880171  1
  Te  Te20  1  0.371659  0.034866  0.205034  1
  Te  Te21  1  0.871659  0.465134  0.794966  1
  Te  Te22  1  0.628341  0.965134  0.794966  1
  Te  Te23  1  0.128341  0.534866  0.205034  1
  Te  Te24  1  0.533415  0.722093  0.348975  1
  Te  Te25  1  0.033415  0.777907  0.651025  1
  Te  Te26  1  0.466585  0.277907  0.651025  1
  Te  Te27  1  0.966585  0.222093  0.348975  1
