# generated using pymatgen
data_TbDy2BiO7
_symmetry_space_group_name_H-M   'P 1'
_cell_length_a   6.57516802
_cell_length_b   6.55510762
_cell_length_c   7.73005130
_cell_angle_alpha   106.90850808
_cell_angle_beta   89.73253819
_cell_angle_gamma   98.74147791
_symmetry_Int_Tables_number   1
_chemical_formula_structural   TbDy2BiO7
_chemical_formula_sum   'Tb2 Dy4 Bi2 O14'
_cell_volume   314.79129747
_cell_formula_units_Z   2
loop_
 _symmetry_equiv_pos_site_id
 _symmetry_equiv_pos_as_xyz
  1  'x, y, z'
loop_
 _atom_site_type_symbol
 _atom_site_label
 _atom_site_symmetry_multiplicity
 _atom_site_fract_x
 _atom_site_fract_y
 _atom_site_fract_z
 _atom_site_occupancy
  Tb  Tb0  1  0.733730  0.475698  0.612755  1
  Tb  Tb1  1  0.266270  0.524302  0.387245  1
  Dy  Dy2  1  0.461933  0.005529  0.251713  1
  Dy  Dy3  1  0.538067  0.994471  0.748287  1
  Dy  Dy4  1  0.272895  0.537643  0.882834  1
  Dy  Dy5  1  0.727105  0.462357  0.117166  1
  Bi  Bi6  1  0.000000  0.000000  0.500000  1
  Bi  Bi7  1  0.000000  0.000000  0.000000  1
  O  O8  1  0.446166  0.648777  0.166628  1
  O  O9  1  0.553834  0.351223  0.833372  1
  O  O10  1  0.301947  0.921366  0.951140  1
  O  O11  1  0.698053  0.078634  0.048860  1
  O  O12  1  0.298721  0.923627  0.512762  1
  O  O13  1  0.701279  0.076373  0.487238  1
  O  O14  1  0.545556  0.362518  0.344083  1
  O  O15  1  0.454444  0.637482  0.655917  1
  O  O16  1  0.925397  0.666730  0.960949  1
  O  O17  1  0.074603  0.333270  0.039051  1
  O  O18  1  0.070687  0.349656  0.621004  1
  O  O19  1  0.929313  0.650344  0.378996  1
  O  O20  1  0.874099  0.900680  0.724534  1
  O  O21  1  0.125901  0.099320  0.275466  1
