# generated using pymatgen
data_Ac2TbDy2(Sn5Rh2)2
_symmetry_space_group_name_H-M   'P 1'
_cell_length_a   14.33275000
_cell_length_b   14.33275000
_cell_length_c   4.58163100
_cell_angle_alpha   90.00000000
_cell_angle_beta   90.00000000
_cell_angle_gamma   90.00000000
_symmetry_Int_Tables_number   1
_chemical_formula_structural   Ac2TbDy2(Sn5Rh2)2
_chemical_formula_sum   'Ac4 Tb2 Dy4 Sn20 Rh8'
_cell_volume   941.19402195
_cell_formula_units_Z   2
loop_
 _symmetry_equiv_pos_site_id
 _symmetry_equiv_pos_as_xyz
  1  'x, y, z'
loop_
 _atom_site_type_symbol
 _atom_site_label
 _atom_site_symmetry_multiplicity
 _atom_site_fract_x
 _atom_site_fract_y
 _atom_site_fract_z
 _atom_site_occupancy
  Ac  Ac0  1  0.888453  0.388453  0.500000  1
  Ac  Ac1  1  0.111547  0.611547  0.500000  1
  Ac  Ac2  1  0.388453  0.111547  0.500000  1
  Ac  Ac3  1  0.611547  0.888453  0.500000  1
  Tb  Tb4  1  0.500000  0.500000  0.000000  1
  Tb  Tb5  1  0.000000  0.000000  0.000000  1
  Dy  Dy6  1  0.677454  0.177454  0.500000  1
  Dy  Dy7  1  0.322546  0.822546  0.500000  1
  Dy  Dy8  1  0.177454  0.322546  0.500000  1
  Dy  Dy9  1  0.822546  0.677454  0.500000  1
  Sn  Sn10  1  0.572507  0.072507  0.000000  1
  Sn  Sn11  1  0.427493  0.927493  0.000000  1
  Sn  Sn12  1  0.072507  0.427493  0.000000  1
  Sn  Sn13  1  0.927493  0.572507  0.000000  1
  Sn  Sn14  1  0.654679  0.696094  0.000000  1
  Sn  Sn15  1  0.345321  0.303906  0.000000  1
  Sn  Sn16  1  0.154679  0.803906  0.000000  1
  Sn  Sn17  1  0.845321  0.196094  0.000000  1
  Sn  Sn18  1  0.303906  0.654679  0.000000  1
  Sn  Sn19  1  0.696094  0.345321  0.000000  1
  Sn  Sn20  1  0.196094  0.154679  0.000000  1
  Sn  Sn21  1  0.803906  0.845321  0.000000  1
  Sn  Sn22  1  0.659889  0.507933  0.500000  1
  Sn  Sn23  1  0.340111  0.492067  0.500000  1
  Sn  Sn24  1  0.159889  0.992067  0.500000  1
  Sn  Sn25  1  0.840111  0.007933  0.500000  1
  Sn  Sn26  1  0.492067  0.659889  0.500000  1
  Sn  Sn27  1  0.507933  0.340111  0.500000  1
  Sn  Sn28  1  0.007933  0.159889  0.500000  1
  Sn  Sn29  1  0.992067  0.840111  0.500000  1
  Rh  Rh30  1  0.744974  0.528918  0.000000  1
  Rh  Rh31  1  0.255026  0.471082  0.000000  1
  Rh  Rh32  1  0.244974  0.971082  0.000000  1
  Rh  Rh33  1  0.755026  0.028918  0.000000  1
  Rh  Rh34  1  0.471082  0.744974  0.000000  1
  Rh  Rh35  1  0.528918  0.255026  0.000000  1
  Rh  Rh36  1  0.028918  0.244974  0.000000  1
  Rh  Rh37  1  0.971082  0.755026  0.000000  1
