# generated using pymatgen
data_TbYEr4Ta2O14
_symmetry_space_group_name_H-M   'P 1'
_cell_length_a   6.43370713
_cell_length_b   6.43370763
_cell_length_c   7.50394522
_cell_angle_alpha   89.97733661
_cell_angle_beta   90.02266489
_cell_angle_gamma   109.39235043
_symmetry_Int_Tables_number   1
_chemical_formula_structural   TbYEr4Ta2O14
_chemical_formula_sum   'Tb1 Y1 Er4 Ta2 O14'
_cell_volume   292.98598882
_cell_formula_units_Z   1
loop_
 _symmetry_equiv_pos_site_id
 _symmetry_equiv_pos_as_xyz
  1  'x, y, z'
loop_
 _atom_site_type_symbol
 _atom_site_label
 _atom_site_symmetry_multiplicity
 _atom_site_fract_x
 _atom_site_fract_y
 _atom_site_fract_z
 _atom_site_occupancy
  Tb  Tb0  1  0.500000  0.500000  0.500000  1
  Y  Y1  1  0.500000  0.500000  0.000000  1
  Er  Er2  1  0.534403  0.000962  0.750219  1
  Er  Er3  1  0.000962  0.534403  0.249781  1
  Er  Er4  1  0.465597  0.999038  0.249781  1
  Er  Er5  1  0.999038  0.465597  0.750219  1
  Ta  Ta6  1  0.000000  0.000000  0.500000  1
  Ta  Ta7  1  0.000000  0.000000  0.000000  1
  O  O8  1  0.676737  0.927887  0.467061  1
  O  O9  1  0.927887  0.676737  0.532939  1
  O  O10  1  0.676967  0.928242  0.032976  1
  O  O11  1  0.928242  0.676967  0.967024  1
  O  O12  1  0.323263  0.072113  0.532939  1
  O  O13  1  0.072113  0.323263  0.467061  1
  O  O14  1  0.323033  0.071758  0.967024  1
  O  O15  1  0.071758  0.323033  0.032976  1
  O  O16  1  0.931910  0.068090  0.749949  1
  O  O17  1  0.068090  0.931910  0.250051  1
  O  O18  1  0.368462  0.631538  0.750666  1
  O  O19  1  0.631538  0.368462  0.249334  1
  O  O20  1  0.639701  0.360299  0.750395  1
  O  O21  1  0.360299  0.639701  0.249605  1
