# generated using pymatgen
data_DyErTm6(Si3Rh)4
_symmetry_space_group_name_H-M   'P 1'
_cell_length_a   8.12943400
_cell_length_b   8.12943369
_cell_length_c   7.78284600
_cell_angle_alpha   90.00000000
_cell_angle_beta   90.00000000
_cell_angle_gamma   120.00000128
_symmetry_Int_Tables_number   1
_chemical_formula_structural   DyErTm6(Si3Rh)4
_chemical_formula_sum   'Dy1 Er1 Tm6 Si12 Rh4'
_cell_volume   445.44046350
_cell_formula_units_Z   1
loop_
 _symmetry_equiv_pos_site_id
 _symmetry_equiv_pos_as_xyz
  1  'x, y, z'
loop_
 _atom_site_type_symbol
 _atom_site_label
 _atom_site_symmetry_multiplicity
 _atom_site_fract_x
 _atom_site_fract_y
 _atom_site_fract_z
 _atom_site_occupancy
  Dy  Dy0  1  0.000000  0.000000  0.750000  1
  Er  Er1  1  0.000000  0.000000  0.250000  1
  Tm  Tm2  1  0.981821  0.490911  0.250000  1
  Tm  Tm3  1  0.509089  0.490911  0.250000  1
  Tm  Tm4  1  0.490904  0.981806  0.750000  1
  Tm  Tm5  1  0.018194  0.509096  0.750000  1
  Tm  Tm6  1  0.490904  0.509096  0.750000  1
  Tm  Tm7  1  0.509089  0.018179  0.250000  1
  Si  Si8  1  0.167227  0.832773  0.499581  1
  Si  Si9  1  0.167227  0.334452  0.499581  1
  Si  Si10  1  0.665548  0.832773  0.499581  1
  Si  Si11  1  0.334405  0.167204  0.000170  1
  Si  Si12  1  0.832796  0.665595  0.499830  1
  Si  Si13  1  0.832796  0.167204  0.000170  1
  Si  Si14  1  0.832796  0.665595  0.000170  1
  Si  Si15  1  0.167227  0.334452  0.000419  1
  Si  Si16  1  0.665548  0.832773  0.000419  1
  Si  Si17  1  0.334405  0.167204  0.499830  1
  Si  Si18  1  0.832796  0.167204  0.499830  1
  Si  Si19  1  0.167227  0.832773  0.000419  1
  Rh  Rh20  1  0.333333  0.666667  0.034362  1
  Rh  Rh21  1  0.666667  0.333333  0.965887  1
  Rh  Rh22  1  0.666667  0.333333  0.534113  1
  Rh  Rh23  1  0.333333  0.666667  0.465638  1
