# generated using pymatgen
data_RbTm(SO4)2
_symmetry_space_group_name_H-M   'P 1'
_cell_length_a   5.41600600
_cell_length_b   5.41600605
_cell_length_c   8.08013400
_cell_angle_alpha   90.00000000
_cell_angle_beta   90.00000000
_cell_angle_gamma   119.99997524
_symmetry_Int_Tables_number   1
_chemical_formula_structural   RbTm(SO4)2
_chemical_formula_sum   'Rb1 Tm1 S2 O8'
_cell_volume   205.26153914
_cell_formula_units_Z   1
loop_
 _symmetry_equiv_pos_site_id
 _symmetry_equiv_pos_as_xyz
  1  'x, y, z'
loop_
 _atom_site_type_symbol
 _atom_site_label
 _atom_site_symmetry_multiplicity
 _atom_site_fract_x
 _atom_site_fract_y
 _atom_site_fract_z
 _atom_site_occupancy
  Rb  Rb0  1  0.000000  0.000000  0.500000  1
  Tm  Tm1  1  0.000000  0.000000  0.000000  1
  S  S2  1  0.333333  0.666667  0.233292  1
  S  S3  1  0.666667  0.333333  0.766708  1
  O  O4  1  0.176717  0.368864  0.167250  1
  O  O5  1  0.631136  0.807853  0.167250  1
  O  O6  1  0.368864  0.176717  0.832750  1
  O  O7  1  0.192147  0.823283  0.167250  1
  O  O8  1  0.807853  0.631136  0.832750  1
  O  O9  1  0.823283  0.192147  0.832750  1
  O  O10  1  0.333333  0.666667  0.413387  1
  O  O11  1  0.666667  0.333333  0.586613  1
