# generated using pymatgen
data_Nb6Co6Re
_symmetry_space_group_name_H-M   'P 1'
_cell_length_a   9.25031561
_cell_length_b   9.25031559
_cell_length_c   9.25031594
_cell_angle_alpha   30.74177885
_cell_angle_beta   30.74178079
_cell_angle_gamma   30.74178217
_symmetry_Int_Tables_number   1
_chemical_formula_structural   Nb6Co6Re
_chemical_formula_sum   'Nb6 Co6 Re1'
_cell_volume   183.40448355
_cell_formula_units_Z   1
loop_
 _symmetry_equiv_pos_site_id
 _symmetry_equiv_pos_as_xyz
  1  'x, y, z'
loop_
 _atom_site_type_symbol
 _atom_site_label
 _atom_site_symmetry_multiplicity
 _atom_site_fract_x
 _atom_site_fract_y
 _atom_site_fract_z
 _atom_site_occupancy
  Nb  Nb0  1  0.834649  0.834649  0.834649  1
  Nb  Nb1  1  0.165351  0.165351  0.165351  1
  Nb  Nb2  1  0.652888  0.652888  0.652888  1
  Nb  Nb3  1  0.347112  0.347112  0.347112  1
  Nb  Nb4  1  0.549746  0.549746  0.549746  1
  Nb  Nb5  1  0.450254  0.450254  0.450254  1
  Co  Co6  1  0.907058  0.416053  0.907058  1
  Co  Co7  1  0.907058  0.907058  0.416053  1
  Co  Co8  1  0.416053  0.907058  0.907058  1
  Co  Co9  1  0.092942  0.583947  0.092942  1
  Co  Co10  1  0.092942  0.092942  0.583947  1
  Co  Co11  1  0.583947  0.092942  0.092942  1
  Re  Re12  1  0.000000  0.000000  0.000000  1
