# generated using pymatgen
data_Pr4Al18HgRh5
_symmetry_space_group_name_H-M   'P 1'
_cell_length_a   7.69417360
_cell_length_b   7.69417410
_cell_length_c   9.64880488
_cell_angle_alpha   89.91364087
_cell_angle_beta   89.91364099
_cell_angle_gamma   119.20203664
_symmetry_Int_Tables_number   1
_chemical_formula_structural   Pr4Al18HgRh5
_chemical_formula_sum   'Pr4 Al18 Hg1 Rh5'
_cell_volume   498.61166741
_cell_formula_units_Z   1
loop_
 _symmetry_equiv_pos_site_id
 _symmetry_equiv_pos_as_xyz
  1  'x, y, z'
loop_
 _atom_site_type_symbol
 _atom_site_label
 _atom_site_symmetry_multiplicity
 _atom_site_fract_x
 _atom_site_fract_y
 _atom_site_fract_z
 _atom_site_occupancy
  Pr  Pr0  1  0.996220  0.678397  0.749255  1
  Pr  Pr1  1  0.003780  0.321603  0.250745  1
  Pr  Pr2  1  0.678397  0.996220  0.749255  1
  Pr  Pr3  1  0.321603  0.003780  0.250745  1
  Al  Al4  1  0.145033  0.145033  0.764811  1
  Al  Al5  1  0.854967  0.854967  0.235189  1
  Al  Al6  1  0.006046  0.352825  0.579495  1
  Al  Al7  1  0.993954  0.647175  0.420505  1
  Al  Al8  1  0.999488  0.661959  0.069945  1
  Al  Al9  1  0.338041  0.000512  0.930055  1
  Al  Al10  1  0.000512  0.338041  0.930055  1
  Al  Al11  1  0.661959  0.999488  0.069945  1
  Al  Al12  1  0.647175  0.993954  0.420505  1
  Al  Al13  1  0.352825  0.006046  0.579495  1
  Al  Al14  1  0.334257  0.334257  0.045301  1
  Al  Al15  1  0.665743  0.665743  0.954699  1
  Al  Al16  1  0.649384  0.649384  0.559110  1
  Al  Al17  1  0.350616  0.350616  0.440890  1
  Al  Al18  1  0.339652  0.551793  0.752877  1
  Al  Al19  1  0.660348  0.448207  0.247123  1
  Al  Al20  1  0.551793  0.339652  0.752877  1
  Al  Al21  1  0.448207  0.660348  0.247123  1
  Hg  Hg22  1  0.000000  0.000000  0.500000  1
  Rh  Rh23  1  0.670528  0.329472  0.500000  1
  Rh  Rh24  1  0.329472  0.670528  0.500000  1
  Rh  Rh25  1  0.329116  0.670884  0.000000  1
  Rh  Rh26  1  0.670884  0.329116  0.000000  1
  Rh  Rh27  1  0.000000  0.000000  0.000000  1
