# generated using pymatgen
data_Y3Ho17Cd3Ru2Au3
_symmetry_space_group_name_H-M   'P 1'
_cell_length_a   9.56493300
_cell_length_b   9.56493192
_cell_length_c   9.57114500
_cell_angle_alpha   90.00000000
_cell_angle_beta   90.00000000
_cell_angle_gamma   120.00000029
_symmetry_Int_Tables_number   1
_chemical_formula_structural   Y3Ho17Cd3Ru2Au3
_chemical_formula_sum   'Y3 Ho17 Cd3 Ru2 Au3'
_cell_volume   758.33018178
_cell_formula_units_Z   1
loop_
 _symmetry_equiv_pos_site_id
 _symmetry_equiv_pos_as_xyz
  1  'x, y, z'
loop_
 _atom_site_type_symbol
 _atom_site_label
 _atom_site_symmetry_multiplicity
 _atom_site_fract_x
 _atom_site_fract_y
 _atom_site_fract_z
 _atom_site_occupancy
  Y  Y0  1  0.459083  0.540917  0.750000  1
  Y  Y1  1  0.459083  0.918168  0.750000  1
  Y  Y2  1  0.081832  0.540917  0.750000  1
  Ho  Ho3  1  0.000000  0.000000  0.461665  1
  Ho  Ho4  1  0.000000  0.000000  0.038335  1
  Ho  Ho5  1  0.209315  0.790685  0.439591  1
  Ho  Ho6  1  0.209315  0.418630  0.439591  1
  Ho  Ho7  1  0.581370  0.790685  0.439591  1
  Ho  Ho8  1  0.791492  0.208508  0.558464  1
  Ho  Ho9  1  0.791492  0.582983  0.558464  1
  Ho  Ho10  1  0.417017  0.208508  0.558464  1
  Ho  Ho11  1  0.791492  0.208508  0.941536  1
  Ho  Ho12  1  0.791492  0.582983  0.941536  1
  Ho  Ho13  1  0.417017  0.208508  0.941536  1
  Ho  Ho14  1  0.209315  0.790685  0.060409  1
  Ho  Ho15  1  0.209315  0.418630  0.060409  1
  Ho  Ho16  1  0.581370  0.790685  0.060409  1
  Ho  Ho17  1  0.540881  0.459119  0.250000  1
  Ho  Ho18  1  0.540881  0.081761  0.250000  1
  Ho  Ho19  1  0.918239  0.459119  0.250000  1
  Cd  Cd20  1  0.110016  0.889984  0.750000  1
  Cd  Cd21  1  0.110016  0.220030  0.750000  1
  Cd  Cd22  1  0.779970  0.889984  0.750000  1
  Ru  Ru23  1  0.333333  0.666667  0.250000  1
  Ru  Ru24  1  0.666667  0.333333  0.750000  1
  Au  Au25  1  0.869733  0.130267  0.250000  1
  Au  Au26  1  0.869733  0.739465  0.250000  1
  Au  Au27  1  0.260535  0.130267  0.250000  1
