# generated using pymatgen
data_Hf5Al16GaPt7
_symmetry_space_group_name_H-M   'P 1'
_cell_length_a   8.71347854
_cell_length_b   8.79895465
_cell_length_c   8.79895546
_cell_angle_alpha   59.35832985
_cell_angle_beta   60.32083109
_cell_angle_gamma   60.32083559
_symmetry_Int_Tables_number   1
_chemical_formula_structural   Hf5Al16GaPt7
_chemical_formula_sum   'Hf5 Al16 Ga1 Pt7'
_cell_volume   476.93321123
_cell_formula_units_Z   1
loop_
 _symmetry_equiv_pos_site_id
 _symmetry_equiv_pos_as_xyz
  1  'x, y, z'
loop_
 _atom_site_type_symbol
 _atom_site_label
 _atom_site_symmetry_multiplicity
 _atom_site_fract_x
 _atom_site_fract_y
 _atom_site_fract_z
 _atom_site_occupancy
  Hf  Hf0  1  0.326911  0.673089  0.673089  1
  Hf  Hf1  1  0.294019  0.705981  0.298943  1
  Hf  Hf2  1  0.701057  0.298943  0.705981  1
  Hf  Hf3  1  0.294019  0.298943  0.705981  1
  Hf  Hf4  1  0.701057  0.705981  0.298943  1
  Al  Al5  1  0.369952  0.336622  0.336622  1
  Al  Al6  1  0.675813  0.656918  0.656918  1
  Al  Al7  1  0.343082  0.324187  0.989649  1
  Al  Al8  1  0.343082  0.989649  0.324187  1
  Al  Al9  1  0.663378  0.630048  0.043195  1
  Al  Al10  1  0.663378  0.043195  0.630048  1
  Al  Al11  1  0.956805  0.336622  0.336622  1
  Al  Al12  1  0.010351  0.656918  0.656918  1
  Al  Al13  1  0.116162  0.118927  0.118927  1
  Al  Al14  1  0.883044  0.871493  0.871493  1
  Al  Al15  1  0.128507  0.116956  0.626031  1
  Al  Al16  1  0.128507  0.626031  0.116956  1
  Al  Al17  1  0.881073  0.883838  0.354016  1
  Al  Al18  1  0.881073  0.354016  0.883838  1
  Al  Al19  1  0.645984  0.118927  0.118927  1
  Al  Al20  1  0.373969  0.871493  0.871493  1
  Ga  Ga21  1  0.562617  0.437383  0.437383  1
  Pt  Pt22  1  0.510501  0.989499  0.989499  1
  Pt  Pt23  1  0.010501  0.489499  0.489499  1
  Pt  Pt24  1  0.010579  0.497948  0.989421  1
  Pt  Pt25  1  0.502052  0.989421  0.497948  1
  Pt  Pt26  1  0.010579  0.989421  0.497948  1
  Pt  Pt27  1  0.502052  0.497948  0.989421  1
  Pt  Pt28  1  0.009893  0.990107  0.990107  1
