# generated using pymatgen
data_CsCrNiAs2
_symmetry_space_group_name_H-M   'P 1'
_cell_length_a   8.21493653
_cell_length_b   8.21493652
_cell_length_c   8.21493512
_cell_angle_alpha   152.20096530
_cell_angle_beta   152.20096716
_cell_angle_gamma   39.71989962
_symmetry_Int_Tables_number   1
_chemical_formula_structural   CsCrNiAs2
_chemical_formula_sum   'Cs1 Cr1 Ni1 As2'
_cell_volume   120.35415510
_cell_formula_units_Z   1
loop_
 _symmetry_equiv_pos_site_id
 _symmetry_equiv_pos_as_xyz
  1  'x, y, z'
loop_
 _atom_site_type_symbol
 _atom_site_label
 _atom_site_symmetry_multiplicity
 _atom_site_fract_x
 _atom_site_fract_y
 _atom_site_fract_z
 _atom_site_occupancy
  Cs  Cs0  1  0.000000  0.000000  0.000000  1
  Cr  Cr1  1  0.750000  0.250000  0.500000  1
  Ni  Ni2  1  0.250000  0.750000  0.500000  1
  As  As3  1  0.338065  0.338065  0.000000  1
  As  As4  1  0.661935  0.661935  0.000000  1
