# generated using pymatgen
data_DyHo15MgCo4Hg3
_symmetry_space_group_name_H-M   'P 1'
_cell_length_a   9.45159298
_cell_length_b   9.44570904
_cell_length_c   9.44570900
_cell_angle_alpha   60.00000364
_cell_angle_beta   60.02059477
_cell_angle_gamma   60.02058949
_symmetry_Int_Tables_number   1
_chemical_formula_structural   DyHo15MgCo4Hg3
_chemical_formula_sum   'Dy1 Ho15 Mg1 Co4 Hg3'
_cell_volume   596.47775898
_cell_formula_units_Z   1
loop_
 _symmetry_equiv_pos_site_id
 _symmetry_equiv_pos_as_xyz
  1  'x, y, z'
loop_
 _atom_site_type_symbol
 _atom_site_label
 _atom_site_symmetry_multiplicity
 _atom_site_fract_x
 _atom_site_fract_y
 _atom_site_fract_z
 _atom_site_occupancy
  Dy  Dy0  1  0.952615  0.349128  0.349128  1
  Ho  Ho1  1  0.810532  0.188869  0.188869  1
  Ho  Ho2  1  0.185039  0.813982  0.813982  1
  Ho  Ho3  1  0.185039  0.813982  0.186999  1
  Ho  Ho4  1  0.810532  0.188869  0.811730  1
  Ho  Ho5  1  0.185039  0.186999  0.813982  1
  Ho  Ho6  1  0.810532  0.811730  0.188869  1
  Ho  Ho7  1  0.936719  0.562555  0.562555  1
  Ho  Ho8  1  0.561559  0.937605  0.937605  1
  Ho  Ho9  1  0.561559  0.937605  0.563232  1
  Ho  Ho10  1  0.936719  0.562555  0.938170  1
  Ho  Ho11  1  0.561559  0.563232  0.937605  1
  Ho  Ho12  1  0.936719  0.938170  0.562555  1
  Ho  Ho13  1  0.347601  0.345619  0.345619  1
  Ho  Ho14  1  0.347601  0.345619  0.961160  1
  Ho  Ho15  1  0.347601  0.961160  0.345619  1
  Mg  Mg16  1  0.285506  0.571498  0.571498  1
  Co  Co17  1  0.139130  0.142010  0.142010  1
  Co  Co18  1  0.139130  0.142010  0.576850  1
  Co  Co19  1  0.139130  0.576850  0.142010  1
  Co  Co20  1  0.575620  0.141460  0.141460  1
  Hg  Hg21  1  0.581506  0.585460  0.585460  1
  Hg  Hg22  1  0.581506  0.585460  0.247574  1
  Hg  Hg23  1  0.581506  0.247574  0.585460  1
