# generated using pymatgen
data_Zr3Al2OsC
_symmetry_space_group_name_H-M   'P 1'
_cell_length_a   8.67842480
_cell_length_b   8.67842512
_cell_length_c   8.67842400
_cell_angle_alpha   59.99999663
_cell_angle_beta   59.99999544
_cell_angle_gamma   59.99999374
_symmetry_Int_Tables_number   1
_chemical_formula_structural   Zr3Al2OsC
_chemical_formula_sum   'Zr12 Al8 Os4 C4'
_cell_volume   462.17627214
_cell_formula_units_Z   4
loop_
 _symmetry_equiv_pos_site_id
 _symmetry_equiv_pos_as_xyz
  1  'x, y, z'
loop_
 _atom_site_type_symbol
 _atom_site_label
 _atom_site_symmetry_multiplicity
 _atom_site_fract_x
 _atom_site_fract_y
 _atom_site_fract_z
 _atom_site_occupancy
  Zr  Zr0  1  0.947186  0.947186  0.552814  1
  Zr  Zr1  1  0.697186  0.302814  0.302814  1
  Zr  Zr2  1  0.302814  0.697186  0.697186  1
  Zr  Zr3  1  0.697186  0.697186  0.302814  1
  Zr  Zr4  1  0.697186  0.302814  0.697186  1
  Zr  Zr5  1  0.302814  0.697186  0.302814  1
  Zr  Zr6  1  0.552814  0.947186  0.552814  1
  Zr  Zr7  1  0.552814  0.947186  0.947186  1
  Zr  Zr8  1  0.947186  0.552814  0.552814  1
  Zr  Zr9  1  0.947186  0.552814  0.947186  1
  Zr  Zr10  1  0.302814  0.302814  0.697186  1
  Zr  Zr11  1  0.552814  0.552814  0.947186  1
  Al  Al12  1  0.919190  0.242430  0.919190  1
  Al  Al13  1  0.330810  0.330810  0.007570  1
  Al  Al14  1  0.007570  0.330810  0.330810  1
  Al  Al15  1  0.330810  0.330810  0.330810  1
  Al  Al16  1  0.242430  0.919190  0.919190  1
  Al  Al17  1  0.919190  0.919190  0.919190  1
  Al  Al18  1  0.919190  0.919190  0.242430  1
  Al  Al19  1  0.330810  0.007570  0.330810  1
  Os  Os20  1  0.125000  0.625000  0.125000  1
  Os  Os21  1  0.125000  0.125000  0.625000  1
  Os  Os22  1  0.625000  0.125000  0.125000  1
  Os  Os23  1  0.125000  0.125000  0.125000  1
  C  C24  1  0.625000  0.125000  0.625000  1
  C  C25  1  0.625000  0.625000  0.125000  1
  C  C26  1  0.125000  0.625000  0.625000  1
  C  C27  1  0.625000  0.625000  0.625000  1
