# generated using pymatgen
data_TbSmU2(NiAs)4
_symmetry_space_group_name_H-M   'P 1'
_cell_length_a   4.07614000
_cell_length_b   4.07613982
_cell_length_c   15.37439300
_cell_angle_alpha   90.00000000
_cell_angle_beta   90.00000000
_cell_angle_gamma   120.00001772
_symmetry_Int_Tables_number   1
_chemical_formula_structural   TbSmU2(NiAs)4
_chemical_formula_sum   'Tb1 Sm1 U2 Ni4 As4'
_cell_volume   221.22117607
_cell_formula_units_Z   1
loop_
 _symmetry_equiv_pos_site_id
 _symmetry_equiv_pos_as_xyz
  1  'x, y, z'
loop_
 _atom_site_type_symbol
 _atom_site_label
 _atom_site_symmetry_multiplicity
 _atom_site_fract_x
 _atom_site_fract_y
 _atom_site_fract_z
 _atom_site_occupancy
  Tb  Tb0  1  0.000000  0.000000  0.500000  1
  Sm  Sm1  1  0.000000  0.000000  0.000000  1
  U  U2  1  0.000000  0.000000  0.252314  1
  U  U3  1  0.000000  0.000000  0.747686  1
  Ni  Ni4  1  0.333333  0.666667  0.156457  1
  Ni  Ni5  1  0.666667  0.333333  0.843543  1
  Ni  Ni6  1  0.666667  0.333333  0.650199  1
  Ni  Ni7  1  0.333333  0.666667  0.349801  1
  As  As8  1  0.333333  0.666667  0.618322  1
  As  As9  1  0.666667  0.333333  0.381678  1
  As  As10  1  0.666667  0.333333  0.122794  1
  As  As11  1  0.333333  0.666667  0.877206  1
