# generated using pymatgen
data_Nd4Mg2MnCoO12
_symmetry_space_group_name_H-M   'P 1'
_cell_length_a   5.46083192
_cell_length_b   5.55020787
_cell_length_c   7.76322163
_cell_angle_alpha   89.85525002
_cell_angle_beta   90.21770097
_cell_angle_gamma   90.04796774
_symmetry_Int_Tables_number   1
_chemical_formula_structural   Nd4Mg2MnCoO12
_chemical_formula_sum   'Nd4 Mg2 Mn1 Co1 O12'
_cell_volume   235.29103126
_cell_formula_units_Z   1
loop_
 _symmetry_equiv_pos_site_id
 _symmetry_equiv_pos_as_xyz
  1  'x, y, z'
loop_
 _atom_site_type_symbol
 _atom_site_label
 _atom_site_symmetry_multiplicity
 _atom_site_fract_x
 _atom_site_fract_y
 _atom_site_fract_z
 _atom_site_occupancy
  Nd  Nd0  1  0.012263  0.955120  0.751775  1
  Nd  Nd1  1  0.489762  0.451635  0.751415  1
  Nd  Nd2  1  0.510238  0.548365  0.248585  1
  Nd  Nd3  1  0.987737  0.044880  0.248225  1
  Mg  Mg4  1  0.500000  0.000000  0.500000  1
  Mg  Mg5  1  0.000000  0.500000  0.000000  1
  Mn  Mn6  1  0.000000  0.500000  0.500000  1
  Co  Co7  1  0.500000  0.000000  0.000000  1
  O  O8  1  0.719135  0.297776  0.457249  1
  O  O9  1  0.776380  0.796178  0.043995  1
  O  O10  1  0.200931  0.218758  0.544817  1
  O  O11  1  0.300102  0.724077  0.955404  1
  O  O12  1  0.280865  0.702224  0.542751  1
  O  O13  1  0.223620  0.203822  0.956005  1
  O  O14  1  0.799069  0.781242  0.455183  1
  O  O15  1  0.699898  0.275923  0.044596  1
  O  O16  1  0.080291  0.480382  0.257923  1
  O  O17  1  0.416599  0.979685  0.238660  1
  O  O18  1  0.583401  0.020315  0.761340  1
  O  O19  1  0.919709  0.519618  0.742077  1
