# generated using pymatgen
data_Mg2AlP6IN12
_symmetry_space_group_name_H-M   'P 1'
_cell_length_a   7.25649506
_cell_length_b   7.27085718
_cell_length_c   7.25649303
_cell_angle_alpha   109.54462991
_cell_angle_beta   109.56449070
_cell_angle_gamma   109.54460252
_symmetry_Int_Tables_number   1
_chemical_formula_structural   Mg2AlP6IN12
_chemical_formula_sum   'Mg2 Al1 P6 I1 N12'
_cell_volume   293.84886594
_cell_formula_units_Z   1
loop_
 _symmetry_equiv_pos_site_id
 _symmetry_equiv_pos_as_xyz
  1  'x, y, z'
loop_
 _atom_site_type_symbol
 _atom_site_label
 _atom_site_symmetry_multiplicity
 _atom_site_fract_x
 _atom_site_fract_y
 _atom_site_fract_z
 _atom_site_occupancy
  Mg  Mg0  1  0.003558  0.998380  0.374320  1
  Mg  Mg1  1  0.374320  0.998380  0.003558  1
  Al  Al2  1  0.003454  0.404348  0.003454  1
  P  P3  1  0.500929  0.253720  0.752516  1
  P  P4  1  0.259706  0.747165  0.501279  1
  P  P5  1  0.745923  0.495318  0.251762  1
  P  P6  1  0.752516  0.253720  0.500929  1
  P  P7  1  0.501279  0.747165  0.259706  1
  P  P8  1  0.251762  0.495318  0.745923  1
  I  I9  1  0.973380  0.010347  0.973380  1
  N  N10  1  0.431016  0.699584  0.431016  1
  N  N11  1  0.717758  0.430994  0.433071  1
  N  N12  1  0.433071  0.430994  0.717758  1
  N  N13  1  0.736332  0.295514  0.736332  1
  N  N14  1  0.000151  0.564095  0.266772  1
  N  N15  1  0.266772  0.564095  0.000151  1
  N  N16  1  0.285320  0.997386  0.562634  1
  N  N17  1  0.999381  0.272157  0.566577  1
  N  N18  1  0.718285  0.715889  0.275874  1
  N  N19  1  0.562634  0.997386  0.285320  1
  N  N20  1  0.275874  0.715889  0.718285  1
  N  N21  1  0.566577  0.272157  0.999381  1
