# generated using pymatgen
data_SmEu2Hf4ThO14
_symmetry_space_group_name_H-M   'P 1'
_cell_length_a   7.61048098
_cell_length_b   7.58519724
_cell_length_c   7.58519845
_cell_angle_alpha   59.46301107
_cell_angle_beta   59.61060694
_cell_angle_gamma   59.61060487
_symmetry_Int_Tables_number   1
_chemical_formula_structural   SmEu2Hf4ThO14
_chemical_formula_sum   'Sm1 Eu2 Hf4 Th1 O14'
_cell_volume   306.53275300
_cell_formula_units_Z   1
loop_
 _symmetry_equiv_pos_site_id
 _symmetry_equiv_pos_as_xyz
  1  'x, y, z'
loop_
 _atom_site_type_symbol
 _atom_site_label
 _atom_site_symmetry_multiplicity
 _atom_site_fract_x
 _atom_site_fract_y
 _atom_site_fract_z
 _atom_site_occupancy
  Sm  Sm0  1  0.625000  0.125000  0.125000  1
  Eu  Eu1  1  0.125000  0.625000  0.125000  1
  Eu  Eu2  1  0.125000  0.125000  0.625000  1
  Hf  Hf3  1  0.125000  0.625000  0.625000  1
  Hf  Hf4  1  0.625000  0.125000  0.625000  1
  Hf  Hf5  1  0.625000  0.625000  0.125000  1
  Hf  Hf6  1  0.625000  0.625000  0.625000  1
  Th  Th7  1  0.125000  0.125000  0.125000  1
  O  O8  1  0.253693  0.241611  0.241611  1
  O  O9  1  0.996307  0.008389  0.008389  1
  O  O10  1  0.703255  0.710579  0.290967  1
  O  O11  1  0.292430  0.290961  0.715142  1
  O  O12  1  0.703255  0.290967  0.710579  1
  O  O13  1  0.292430  0.715142  0.290961  1
  O  O14  1  0.294159  0.704474  0.704474  1
  O  O15  1  0.713110  0.290122  0.290122  1
  O  O16  1  0.546745  0.539421  0.959033  1
  O  O17  1  0.957570  0.959039  0.534858  1
  O  O18  1  0.546745  0.959033  0.539421  1
  O  O19  1  0.957570  0.534858  0.959039  1
  O  O20  1  0.955841  0.545526  0.545526  1
  O  O21  1  0.536890  0.959878  0.959878  1
