# generated using pymatgen
data_Pa5TiNb2Co16SiP11
_symmetry_space_group_name_H-M   'P 1'
_cell_length_a   12.14210100
_cell_length_b   12.15084736
_cell_length_c   3.77770400
_cell_angle_alpha   90.00000000
_cell_angle_beta   90.00000000
_cell_angle_gamma   119.97618341
_symmetry_Int_Tables_number   1
_chemical_formula_structural   Pa5TiNb2Co16SiP11
_chemical_formula_sum   'Pa5 Ti1 Nb2 Co16 Si1 P11'
_cell_volume   482.79541945
_cell_formula_units_Z   1
loop_
 _symmetry_equiv_pos_site_id
 _symmetry_equiv_pos_as_xyz
  1  'x, y, z'
loop_
 _atom_site_type_symbol
 _atom_site_label
 _atom_site_symmetry_multiplicity
 _atom_site_fract_x
 _atom_site_fract_y
 _atom_site_fract_z
 _atom_site_occupancy
  Pa  Pa0  1  0.814126  0.999112  0.500000  1
  Pa  Pa1  1  0.001026  0.816968  0.500000  1
  Pa  Pa2  1  0.183774  0.182878  0.500000  1
  Pa  Pa3  1  0.331544  0.667252  0.000000  1
  Pa  Pa4  1  0.665910  0.332555  0.000000  1
  Ti  Ti5  1  0.434130  0.000314  0.000000  1
  Nb  Nb6  1  0.999495  0.440250  0.000000  1
  Nb  Nb7  1  0.559997  0.558707  0.000000  1
  Co  Co8  1  0.278569  0.000318  0.500000  1
  Co  Co9  1  0.000317  0.275851  0.500000  1
  Co  Co10  1  0.727982  0.724853  0.500000  1
  Co  Co11  1  0.628926  0.811927  0.000000  1
  Co  Co12  1  0.193647  0.818155  0.000000  1
  Co  Co13  1  0.181118  0.372908  0.000000  1
  Co  Co14  1  0.375560  0.182149  0.000000  1
  Co  Co15  1  0.809362  0.625891  0.000000  1
  Co  Co16  1  0.817076  0.190777  0.000000  1
  Co  Co17  1  0.513500  0.876761  0.500000  1
  Co  Co18  1  0.127990  0.640834  0.500000  1
  Co  Co19  1  0.356717  0.483863  0.500000  1
  Co  Co20  1  0.486887  0.358111  0.500000  1
  Co  Co21  1  0.871928  0.512188  0.500000  1
  Co  Co22  1  0.639581  0.127115  0.500000  1
  Co  Co23  1  0.001122  0.000150  0.000000  1
  Si  Si24  1  0.525817  0.693734  0.500000  1
  P  P25  1  0.181221  0.999912  0.000000  1
  P  P26  1  0.999301  0.179172  0.000000  1
  P  P27  1  0.820227  0.820082  0.000000  1
  P  P28  1  0.309057  0.834285  0.500000  1
  P  P29  1  0.167183  0.474261  0.500000  1
  P  P30  1  0.475023  0.166190  0.500000  1
  P  P31  1  0.692767  0.525561  0.500000  1
  P  P32  1  0.832474  0.306666  0.500000  1
  P  P33  1  0.632920  0.000088  0.000000  1
  P  P34  1  0.000753  0.637175  0.000000  1
  P  P35  1  0.362969  0.362987  0.000000  1
