# generated using pymatgen
data_Er2InCuPd
_symmetry_space_group_name_H-M   'P 1'
_cell_length_a   7.62450600
_cell_length_b   7.60340000
_cell_length_c   3.68686600
_cell_angle_alpha   90.00000000
_cell_angle_beta   90.00000000
_cell_angle_gamma   90.00000000
_symmetry_Int_Tables_number   1
_chemical_formula_structural   Er2InCuPd
_chemical_formula_sum   'Er4 In2 Cu2 Pd2'
_cell_volume   213.73561854
_cell_formula_units_Z   2
loop_
 _symmetry_equiv_pos_site_id
 _symmetry_equiv_pos_as_xyz
  1  'x, y, z'
loop_
 _atom_site_type_symbol
 _atom_site_label
 _atom_site_symmetry_multiplicity
 _atom_site_fract_x
 _atom_site_fract_y
 _atom_site_fract_z
 _atom_site_occupancy
  Er  Er0  1  0.325738  0.822177  0.500000  1
  Er  Er1  1  0.825738  0.677823  0.500000  1
  Er  Er2  1  0.176575  0.328792  0.500000  1
  Er  Er3  1  0.676575  0.171208  0.500000  1
  In  In4  1  0.003670  0.006585  0.000000  1
  In  In5  1  0.503670  0.493415  0.000000  1
  Cu  Cu6  1  0.375258  0.123310  0.000000  1
  Cu  Cu7  1  0.875258  0.376690  0.000000  1
  Pd  Pd8  1  0.118759  0.621955  0.000000  1
  Pd  Pd9  1  0.618759  0.878045  0.000000  1
