# generated using pymatgen
data_Pr4Al18ZnIr5
_symmetry_space_group_name_H-M   'P 1'
_cell_length_a   7.65900633
_cell_length_b   7.65900570
_cell_length_c   9.62917718
_cell_angle_alpha   89.94014063
_cell_angle_beta   89.94013764
_cell_angle_gamma   119.40133461
_symmetry_Int_Tables_number   1
_chemical_formula_structural   Pr4Al18ZnIr5
_chemical_formula_sum   'Pr4 Al18 Zn1 Ir5'
_cell_volume   492.09858841
_cell_formula_units_Z   1
loop_
 _symmetry_equiv_pos_site_id
 _symmetry_equiv_pos_as_xyz
  1  'x, y, z'
loop_
 _atom_site_type_symbol
 _atom_site_label
 _atom_site_symmetry_multiplicity
 _atom_site_fract_x
 _atom_site_fract_y
 _atom_site_fract_z
 _atom_site_occupancy
  Pr  Pr0  1  0.994799  0.674591  0.248746  1
  Pr  Pr1  1  0.005201  0.325409  0.751254  1
  Pr  Pr2  1  0.674591  0.994799  0.248746  1
  Pr  Pr3  1  0.325409  0.005201  0.751254  1
  Al  Al4  1  0.137808  0.137808  0.258497  1
  Al  Al5  1  0.862192  0.862192  0.741503  1
  Al  Al6  1  0.004178  0.345538  0.076920  1
  Al  Al7  1  0.995822  0.654462  0.923080  1
  Al  Al8  1  0.999234  0.664271  0.569142  1
  Al  Al9  1  0.335729  0.000766  0.430858  1
  Al  Al10  1  0.000766  0.335729  0.430858  1
  Al  Al11  1  0.664271  0.999234  0.569142  1
  Al  Al12  1  0.654462  0.995822  0.923080  1
  Al  Al13  1  0.345538  0.004178  0.076920  1
  Al  Al14  1  0.333931  0.333931  0.546490  1
  Al  Al15  1  0.666069  0.666069  0.453510  1
  Al  Al16  1  0.655536  0.655536  0.055447  1
  Al  Al17  1  0.344464  0.344464  0.944553  1
  Al  Al18  1  0.338674  0.547773  0.251576  1
  Al  Al19  1  0.661326  0.452227  0.748424  1
  Al  Al20  1  0.547773  0.338674  0.251576  1
  Al  Al21  1  0.452227  0.661326  0.748424  1
  Zn  Zn22  1  0.000000  0.000000  0.000000  1
  Ir  Ir23  1  0.670661  0.329339  0.000000  1
  Ir  Ir24  1  0.329339  0.670661  0.000000  1
  Ir  Ir25  1  0.329661  0.670339  0.500000  1
  Ir  Ir26  1  0.670339  0.329661  0.500000  1
  Ir  Ir27  1  0.000000  0.000000  0.500000  1
