# generated using pymatgen
data_Ho8TlHg2Au
_symmetry_space_group_name_H-M   'P 1'
_cell_length_a   10.37539000
_cell_length_b   10.40466021
_cell_length_c   6.99153500
_cell_angle_alpha   89.93899079
_cell_angle_beta   90.00000000
_cell_angle_gamma   119.90698423
_symmetry_Int_Tables_number   1
_chemical_formula_structural   Ho8TlHg2Au
_chemical_formula_sum   'Ho16 Tl2 Hg4 Au2'
_cell_volume   654.24659162
_cell_formula_units_Z   2
loop_
 _symmetry_equiv_pos_site_id
 _symmetry_equiv_pos_as_xyz
  1  'x, y, z'
loop_
 _atom_site_type_symbol
 _atom_site_label
 _atom_site_symmetry_multiplicity
 _atom_site_fract_x
 _atom_site_fract_y
 _atom_site_fract_z
 _atom_site_occupancy
  Ho  Ho0  1  0.528846  0.057692  0.513321  1
  Ho  Ho1  1  0.939756  0.473398  0.516425  1
  Ho  Ho2  1  0.533640  0.473398  0.516425  1
  Ho  Ho3  1  0.472023  0.944044  0.010560  1
  Ho  Ho4  1  0.060914  0.524894  0.010692  1
  Ho  Ho5  1  0.463981  0.524894  0.010692  1
  Ho  Ho6  1  0.167123  0.334246  0.702450  1
  Ho  Ho7  1  0.664171  0.832656  0.723034  1
  Ho  Ho8  1  0.168485  0.832656  0.723034  1
  Ho  Ho9  1  0.827632  0.655264  0.199461  1
  Ho  Ho10  1  0.341585  0.176031  0.211658  1
  Ho  Ho11  1  0.834447  0.176031  0.211658  1
  Ho  Ho12  1  0.665464  0.330927  0.868989  1
  Ho  Ho13  1  0.330719  0.661440  0.371435  1
  Ho  Ho14  1  0.997176  0.994350  0.486950  1
  Ho  Ho15  1  0.002678  0.005358  0.987603  1
  Tl  Tl16  1  0.670005  0.836080  0.255130  1
  Tl  Tl17  1  0.166075  0.836080  0.255130  1
  Hg  Hg18  1  0.833897  0.667793  0.758979  1
  Hg  Hg19  1  0.332654  0.166284  0.759509  1
  Hg  Hg20  1  0.833631  0.166284  0.759509  1
  Hg  Hg21  1  0.165483  0.330966  0.259362  1
  Au  Au22  1  0.665955  0.331908  0.273093  1
  Au  Au23  1  0.333664  0.667328  0.772938  1
