# generated using pymatgen
data_Y7Th(P7Ir8)2
_symmetry_space_group_name_H-M   'P 1'
_cell_length_a   3.95945400
_cell_length_b   12.73994672
_cell_length_c   13.12816653
_cell_angle_alpha   80.88571848
_cell_angle_beta   90.00000000
_cell_angle_gamma   90.00000000
_symmetry_Int_Tables_number   1
_chemical_formula_structural   Y7Th(P7Ir8)2
_chemical_formula_sum   'Y7 Th1 P14 Ir16'
_cell_volume   653.86611746
_cell_formula_units_Z   1
loop_
 _symmetry_equiv_pos_site_id
 _symmetry_equiv_pos_as_xyz
  1  'x, y, z'
loop_
 _atom_site_type_symbol
 _atom_site_label
 _atom_site_symmetry_multiplicity
 _atom_site_fract_x
 _atom_site_fract_y
 _atom_site_fract_z
 _atom_site_occupancy
  Y  Y0  1  0.750000  0.790946  0.561427  1
  Y  Y1  1  0.250000  0.208317  0.439638  1
  Y  Y2  1  0.750000  0.479614  0.706449  1
  Y  Y3  1  0.250000  0.521896  0.294290  1
  Y  Y4  1  0.750000  0.719785  0.898615  1
  Y  Y5  1  0.250000  0.102797  0.790684  1
  Y  Y6  1  0.750000  0.896289  0.210743  1
  Th  Th7  1  0.250000  0.280133  0.104577  1
  P  P8  1  0.250000  0.906774  0.411538  1
  P  P9  1  0.750000  0.474524  0.128733  1
  P  P10  1  0.250000  0.528567  0.869604  1
  P  P11  1  0.750000  0.092827  0.589648  1
  P  P12  1  0.250000  0.742508  0.079231  1
  P  P13  1  0.750000  0.256942  0.918912  1
  P  P14  1  0.750000  0.156817  0.283697  1
  P  P15  1  0.250000  0.842711  0.717100  1
  P  P16  1  0.250000  0.049317  0.100227  1
  P  P17  1  0.750000  0.946647  0.899283  1
  P  P18  1  0.250000  0.312315  0.689180  1
  P  P19  1  0.750000  0.687929  0.310677  1
  P  P20  1  0.250000  0.607665  0.566181  1
  P  P21  1  0.750000  0.391916  0.434606  1
  Ir  Ir22  1  0.250000  0.991140  0.576331  1
  Ir  Ir23  1  0.750000  0.008743  0.423604  1
  Ir  Ir24  1  0.250000  0.663034  0.729045  1
  Ir  Ir25  1  0.750000  0.338726  0.269326  1
  Ir  Ir26  1  0.250000  0.555373  0.044419  1
  Ir  Ir27  1  0.750000  0.446264  0.954538  1
  Ir  Ir28  1  0.250000  0.060483  0.273138  1
  Ir  Ir29  1  0.750000  0.939042  0.726775  1
  Ir  Ir30  1  0.250000  0.422729  0.524463  1
  Ir  Ir31  1  0.750000  0.578084  0.475367  1
  Ir  Ir32  1  0.250000  0.915084  0.996555  1
  Ir  Ir33  1  0.750000  0.083669  0.001237  1
  Ir  Ir34  1  0.250000  0.729537  0.394908  1
  Ir  Ir35  1  0.750000  0.270714  0.604999  1
  Ir  Ir36  1  0.250000  0.341163  0.858573  1
  Ir  Ir37  1  0.750000  0.658981  0.141679  1
