# generated using pymatgen
data_YbPr3Lu4(B6Os)4
_symmetry_space_group_name_H-M   'P 1'
_cell_length_a   3.66407200
_cell_length_b   9.16892808
_cell_length_c   11.61297537
_cell_angle_alpha   89.94441555
_cell_angle_beta   90.00000000
_cell_angle_gamma   90.00000000
_symmetry_Int_Tables_number   1
_chemical_formula_structural   YbPr3Lu4(B6Os)4
_chemical_formula_sum   'Yb1 Pr3 Lu4 B24 Os4'
_cell_volume   390.14483844
_cell_formula_units_Z   1
loop_
 _symmetry_equiv_pos_site_id
 _symmetry_equiv_pos_as_xyz
  1  'x, y, z'
loop_
 _atom_site_type_symbol
 _atom_site_label
 _atom_site_symmetry_multiplicity
 _atom_site_fract_x
 _atom_site_fract_y
 _atom_site_fract_z
 _atom_site_occupancy
  Yb  Yb0  1  0.000000  0.322776  0.414294  1
  Pr  Pr1  1  0.000000  0.675861  0.584188  1
  Pr  Pr2  1  0.000000  0.822636  0.086373  1
  Pr  Pr3  1  0.000000  0.178075  0.915034  1
  Lu  Lu4  1  0.000000  0.945804  0.372191  1
  Lu  Lu5  1  0.000000  0.057383  0.626363  1
  Lu  Lu6  1  0.000000  0.443935  0.129706  1
  Lu  Lu7  1  0.000000  0.554734  0.871664  1
  B  B8  1  0.500000  0.553604  0.429659  1
  B  B9  1  0.500000  0.441951  0.567794  1
  B  B10  1  0.500000  0.057372  0.071432  1
  B  B11  1  0.500000  0.942834  0.929001  1
  B  B12  1  0.500000  0.750000  0.415945  1
  B  B13  1  0.500000  0.249669  0.580927  1
  B  B14  1  0.500000  0.251333  0.085242  1
  B  B15  1  0.500000  0.748273  0.916178  1
  B  B16  1  0.500000  0.791665  0.267056  1
  B  B17  1  0.500000  0.208838  0.732282  1
  B  B18  1  0.500000  0.292652  0.236372  1
  B  B19  1  0.500000  0.708228  0.765997  1
  B  B20  1  0.500000  0.629260  0.186396  1
  B  B21  1  0.500000  0.369791  0.814492  1
  B  B22  1  0.500000  0.132423  0.316764  1
  B  B23  1  0.500000  0.870154  0.684321  1
  B  B24  1  0.500000  0.986689  0.215552  1
  B  B25  1  0.500000  0.014881  0.784401  1
  B  B26  1  0.500000  0.482702  0.287168  1
  B  B27  1  0.500000  0.513808  0.713570  1
  B  B28  1  0.500000  0.599069  0.027113  1
  B  B29  1  0.500000  0.400721  0.973632  1
  B  B30  1  0.500000  0.102095  0.472287  1
  B  B31  1  0.500000  0.900981  0.526590  1
  Os  Os32  1  0.000000  0.639588  0.318668  1
  Os  Os33  1  0.000000  0.359392  0.680844  1
  Os  Os34  1  0.000000  0.141211  0.182567  1
  Os  Os35  1  0.000000  0.859611  0.817936  1
