# generated using pymatgen
data_Ca2Ni5P6Ru5
_symmetry_space_group_name_H-M   'P 1'
_cell_length_a   3.73271600
_cell_length_b   10.63720400
_cell_length_c   11.87433400
_cell_angle_alpha   90.00000000
_cell_angle_beta   90.00000000
_cell_angle_gamma   90.00000000
_symmetry_Int_Tables_number   1
_chemical_formula_structural   Ca2Ni5P6Ru5
_chemical_formula_sum   'Ca4 Ni10 P12 Ru10'
_cell_volume   471.47828713
_cell_formula_units_Z   2
loop_
 _symmetry_equiv_pos_site_id
 _symmetry_equiv_pos_as_xyz
  1  'x, y, z'
loop_
 _atom_site_type_symbol
 _atom_site_label
 _atom_site_symmetry_multiplicity
 _atom_site_fract_x
 _atom_site_fract_y
 _atom_site_fract_z
 _atom_site_occupancy
  Ca  Ca0  1  0.250000  0.590080  0.708066  1
  Ca  Ca1  1  0.250000  0.909920  0.208066  1
  Ca  Ca2  1  0.750000  0.413281  0.292747  1
  Ca  Ca3  1  0.750000  0.086719  0.792747  1
  Ni  Ni4  1  0.750000  0.776544  0.815841  1
  Ni  Ni5  1  0.750000  0.723456  0.315841  1
  Ni  Ni6  1  0.250000  0.883826  0.700484  1
  Ni  Ni7  1  0.250000  0.616174  0.200484  1
  Ni  Ni8  1  0.750000  0.106502  0.302035  1
  Ni  Ni9  1  0.750000  0.393498  0.802035  1
  Ni  Ni10  1  0.250000  0.463396  0.930501  1
  Ni  Ni11  1  0.250000  0.036604  0.430501  1
  Ni  Ni12  1  0.750000  0.535658  0.070657  1
  Ni  Ni13  1  0.750000  0.964342  0.570657  1
  P  P14  1  0.250000  0.419070  0.112559  1
  P  P15  1  0.250000  0.080930  0.612559  1
  P  P16  1  0.750000  0.583347  0.889135  1
  P  P17  1  0.750000  0.916653  0.389135  1
  P  P18  1  0.250000  0.269320  0.876397  1
  P  P19  1  0.250000  0.230680  0.376397  1
  P  P20  1  0.750000  0.728932  0.125933  1
  P  P21  1  0.750000  0.771068  0.625933  1
  P  P22  1  0.250000  0.601037  0.388116  1
  P  P23  1  0.250000  0.898963  0.888116  1
  P  P24  1  0.750000  0.399840  0.609931  1
  P  P25  1  0.750000  0.100160  0.109931  1
  Ru  Ru26  1  0.250000  0.706925  0.984275  1
  Ru  Ru27  1  0.250000  0.793075  0.484275  1
  Ru  Ru28  1  0.750000  0.293415  0.013289  1
  Ru  Ru29  1  0.750000  0.206585  0.513289  1
  Ru  Ru30  1  0.250000  0.408190  0.487769  1
  Ru  Ru31  1  0.250000  0.091810  0.987769  1
  Ru  Ru32  1  0.750000  0.596528  0.508782  1
  Ru  Ru33  1  0.750000  0.903472  0.008782  1
  Ru  Ru34  1  0.250000  0.220178  0.183481  1
  Ru  Ru35  1  0.250000  0.279822  0.683481  1
