# generated using pymatgen
data_Gd6SiHg7
_symmetry_space_group_name_H-M   'P 1'
_cell_length_a   8.31442639
_cell_length_b   8.31442712
_cell_length_c   8.31442600
_cell_angle_alpha   113.87649141
_cell_angle_beta   113.87648608
_cell_angle_gamma   113.87647360
_symmetry_Int_Tables_number   1
_chemical_formula_structural   Gd6SiHg7
_chemical_formula_sum   'Gd6 Si1 Hg7'
_cell_volume   352.38002723
_cell_formula_units_Z   1
loop_
 _symmetry_equiv_pos_site_id
 _symmetry_equiv_pos_as_xyz
  1  'x, y, z'
loop_
 _atom_site_type_symbol
 _atom_site_label
 _atom_site_symmetry_multiplicity
 _atom_site_fract_x
 _atom_site_fract_y
 _atom_site_fract_z
 _atom_site_occupancy
  Gd  Gd0  1  0.009177  0.374942  0.257363  1
  Gd  Gd1  1  0.374942  0.257363  0.009177  1
  Gd  Gd2  1  0.742637  0.990823  0.625058  1
  Gd  Gd3  1  0.257363  0.009177  0.374942  1
  Gd  Gd4  1  0.625058  0.742637  0.990823  1
  Gd  Gd5  1  0.990823  0.625058  0.742637  1
  Si  Si6  1  0.000000  0.000000  0.000000  1
  Hg  Hg7  1  0.500000  0.500000  0.500000  1
  Hg  Hg8  1  0.422865  0.912307  0.750317  1
  Hg  Hg9  1  0.912307  0.750317  0.422865  1
  Hg  Hg10  1  0.249683  0.577135  0.087693  1
  Hg  Hg11  1  0.750317  0.422865  0.912307  1
  Hg  Hg12  1  0.087693  0.249683  0.577135  1
  Hg  Hg13  1  0.577135  0.087693  0.249683  1
