# generated using pymatgen
data_PaTl4RhBr12
_symmetry_space_group_name_H-M   'P 1'
_cell_length_a   7.51439400
_cell_length_b   7.51439400
_cell_length_c   11.07765100
_cell_angle_alpha   90.00000000
_cell_angle_beta   90.00000000
_cell_angle_gamma   90.00000000
_symmetry_Int_Tables_number   1
_chemical_formula_structural   PaTl4RhBr12
_chemical_formula_sum   'Pa1 Tl4 Rh1 Br12'
_cell_volume   625.51193953
_cell_formula_units_Z   1
loop_
 _symmetry_equiv_pos_site_id
 _symmetry_equiv_pos_as_xyz
  1  'x, y, z'
loop_
 _atom_site_type_symbol
 _atom_site_label
 _atom_site_symmetry_multiplicity
 _atom_site_fract_x
 _atom_site_fract_y
 _atom_site_fract_z
 _atom_site_occupancy
  Pa  Pa0  1  0.500000  0.500000  0.500000  1
  Tl  Tl1  1  0.500000  0.000000  0.797318  1
  Tl  Tl2  1  0.000000  0.500000  0.202682  1
  Tl  Tl3  1  0.500000  0.000000  0.202682  1
  Tl  Tl4  1  0.000000  0.500000  0.797318  1
  Rh  Rh5  1  0.000000  0.000000  0.000000  1
  Br  Br6  1  0.000000  0.000000  0.773074  1
  Br  Br7  1  0.500000  0.500000  0.251865  1
  Br  Br8  1  0.754099  0.754099  0.500000  1
  Br  Br9  1  0.236225  0.236225  0.000000  1
  Br  Br10  1  0.754099  0.245901  0.500000  1
  Br  Br11  1  0.236225  0.763775  0.000000  1
  Br  Br12  1  0.000000  0.000000  0.226926  1
  Br  Br13  1  0.500000  0.500000  0.748135  1
  Br  Br14  1  0.245901  0.245901  0.500000  1
  Br  Br15  1  0.763775  0.763775  0.000000  1
  Br  Br16  1  0.245901  0.754099  0.500000  1
  Br  Br17  1  0.763775  0.236225  0.000000  1
