# generated using pymatgen
data_TbHo2Zr7Pb6
_symmetry_space_group_name_H-M   'P 1'
_cell_length_a   8.78864400
_cell_length_b   8.79764543
_cell_length_c   6.04097000
_cell_angle_alpha   90.00000000
_cell_angle_beta   90.00000000
_cell_angle_gamma   119.96617483
_symmetry_Int_Tables_number   1
_chemical_formula_structural   TbHo2Zr7Pb6
_chemical_formula_sum   'Tb1 Ho2 Zr7 Pb6'
_cell_volume   404.64442801
_cell_formula_units_Z   1
loop_
 _symmetry_equiv_pos_site_id
 _symmetry_equiv_pos_as_xyz
  1  'x, y, z'
loop_
 _atom_site_type_symbol
 _atom_site_label
 _atom_site_symmetry_multiplicity
 _atom_site_fract_x
 _atom_site_fract_y
 _atom_site_fract_z
 _atom_site_occupancy
  Tb  Tb0  1  0.760678  0.000000  0.750000  1
  Ho  Ho1  1  0.760379  0.757553  0.250000  1
  Ho  Ho2  1  0.002826  0.242447  0.250000  1
  Zr  Zr3  1  0.330811  0.666902  0.500585  1
  Zr  Zr4  1  0.244703  0.000000  0.250000  1
  Zr  Zr5  1  0.663909  0.333098  0.500585  1
  Zr  Zr6  1  0.002430  0.754968  0.750000  1
  Zr  Zr7  1  0.330811  0.666902  0.999415  1
  Zr  Zr8  1  0.247462  0.245032  0.750000  1
  Zr  Zr9  1  0.663909  0.333098  0.999415  1
  Pb  Pb10  1  0.605860  0.603623  0.750000  1
  Pb  Pb11  1  0.388184  0.000000  0.750000  1
  Pb  Pb12  1  0.600211  0.000000  0.250000  1
  Pb  Pb13  1  0.002237  0.396377  0.750000  1
  Pb  Pb14  1  0.393930  0.392271  0.250000  1
  Pb  Pb15  1  0.001660  0.607729  0.250000  1
