# generated using pymatgen
data_Ba11Pr4(WO6)5
_symmetry_space_group_name_H-M   'P 1'
_cell_length_a   6.10856903
_cell_length_b   6.16193058
_cell_length_c   25.25084500
_cell_angle_alpha   84.05775048
_cell_angle_beta   83.07025839
_cell_angle_gamma   60.32873745
_symmetry_Int_Tables_number   1
_chemical_formula_structural   Ba11Pr4(WO6)5
_chemical_formula_sum   'Ba11 Pr4 W5 O30'
_cell_volume   818.74194294
_cell_formula_units_Z   1
loop_
 _symmetry_equiv_pos_site_id
 _symmetry_equiv_pos_as_xyz
  1  'x, y, z'
loop_
 _atom_site_type_symbol
 _atom_site_label
 _atom_site_symmetry_multiplicity
 _atom_site_fract_x
 _atom_site_fract_y
 _atom_site_fract_z
 _atom_site_occupancy
  Ba  Ba0  1  0.252446  0.254893  0.744941  1
  Ba  Ba1  1  0.448633  0.443726  0.157278  1
  Ba  Ba2  1  0.649292  0.648888  0.554291  1
  Ba  Ba3  1  0.855534  0.852315  0.947700  1
  Ba  Ba4  1  0.051677  0.051823  0.347969  1
  Ba  Ba5  1  0.551367  0.556274  0.842722  1
  Ba  Ba6  1  0.747554  0.745107  0.255059  1
  Ba  Ba7  1  0.948323  0.948177  0.652031  1
  Ba  Ba8  1  0.144466  0.147685  0.052300  1
  Ba  Ba9  1  0.350708  0.351112  0.445709  1
  Ba  Ba10  1  0.500000  0.500000  0.000000  1
  Pr  Pr11  1  0.897788  0.905928  0.797777  1
  Pr  Pr12  1  0.301415  0.300113  0.599239  1
  Pr  Pr13  1  0.698585  0.699887  0.400761  1
  Pr  Pr14  1  0.102212  0.094072  0.202223  1
  W  W15  1  0.204284  0.205338  0.897564  1
  W  W16  1  0.400062  0.397996  0.301440  1
  W  W17  1  0.599938  0.602004  0.698560  1
  W  W18  1  0.795716  0.794662  0.102436  1
  W  W19  1  0.000000  0.000000  0.500000  1
  O  O20  1  0.714043  0.273287  0.748524  1
  O  O21  1  0.940014  0.473382  0.145099  1
  O  O22  1  0.135070  0.689104  0.545081  1
  O  O23  1  0.327972  0.901004  0.943164  1
  O  O24  1  0.514374  0.068382  0.351409  1
  O  O25  1  0.059986  0.526618  0.854901  1
  O  O26  1  0.285957  0.726713  0.251476  1
  O  O27  1  0.485626  0.931618  0.648591  1
  O  O28  1  0.672028  0.098996  0.056836  1
  O  O29  1  0.864930  0.310896  0.454919  1
  O  O30  1  0.913793  0.410660  0.643504  1
  O  O31  1  0.279526  0.831752  0.446225  1
  O  O32  1  0.714881  0.206713  0.246697  1
  O  O33  1  0.055162  0.628172  0.045299  1
  O  O34  1  0.475324  0.033222  0.841800  1
  O  O35  1  0.285119  0.793287  0.753303  1
  O  O36  1  0.720474  0.168248  0.553775  1
  O  O37  1  0.086207  0.589340  0.356496  1
  O  O38  1  0.524676  0.966778  0.158200  1
  O  O39  1  0.944838  0.371828  0.954701  1
  O  O40  1  0.382977  0.501643  0.659075  1
  O  O41  1  0.795180  0.892687  0.467451  1
  O  O42  1  0.181947  0.298414  0.261880  1
  O  O43  1  0.569179  0.707744  0.074308  1
  O  O44  1  0.990393  0.106044  0.864968  1
  O  O45  1  0.430821  0.292256  0.925692  1
  O  O46  1  0.818053  0.701586  0.738120  1
  O  O47  1  0.204820  0.107313  0.532549  1
  O  O48  1  0.617023  0.498357  0.340925  1
  O  O49  1  0.009607  0.893956  0.135032  1
