# generated using pymatgen
data_Ca6PrNd(Ge3Rh4)2
_symmetry_space_group_name_H-M   'P 1'
_cell_length_a   11.03315441
_cell_length_b   11.00043738
_cell_length_c   7.76832771
_cell_angle_alpha   72.07945093
_cell_angle_beta   71.78225056
_cell_angle_gamma   30.34870160
_symmetry_Int_Tables_number   1
_chemical_formula_structural   Ca6PrNd(Ge3Rh4)2
_chemical_formula_sum   'Ca6 Pr1 Nd1 Ge6 Rh8'
_cell_volume   451.08745746
_cell_formula_units_Z   1
loop_
 _symmetry_equiv_pos_site_id
 _symmetry_equiv_pos_as_xyz
  1  'x, y, z'
loop_
 _atom_site_type_symbol
 _atom_site_label
 _atom_site_symmetry_multiplicity
 _atom_site_fract_x
 _atom_site_fract_y
 _atom_site_fract_z
 _atom_site_occupancy
  Ca  Ca0  1  0.550450  0.791332  0.093859  1
  Ca  Ca1  1  0.448599  0.206786  0.906884  1
  Ca  Ca2  1  0.926403  0.207264  0.332255  1
  Ca  Ca3  1  0.792995  0.073512  0.164717  1
  Ca  Ca4  1  0.074040  0.792498  0.666629  1
  Ca  Ca5  1  0.205179  0.928099  0.835098  1
  Pr  Pr6  1  0.218581  0.438785  0.403360  1
  Nd  Nd7  1  0.779855  0.561679  0.598047  1
  Ge  Ge8  1  0.614749  0.384865  0.748825  1
  Ge  Ge9  1  0.386609  0.614442  0.250515  1
  Ge  Ge10  1  0.295903  0.046029  0.437429  1
  Ge  Ge11  1  0.961104  0.699799  0.053486  1
  Ge  Ge12  1  0.703556  0.955043  0.561333  1
  Ge  Ge13  1  0.041872  0.300275  0.944998  1
  Rh  Rh14  1  0.300784  0.577243  0.025351  1
  Rh  Rh15  1  0.573592  0.303258  0.523265  1
  Rh  Rh16  1  0.701479  0.421668  0.973190  1
  Rh  Rh17  1  0.066878  0.378801  0.190699  1
  Rh  Rh18  1  0.641261  0.913330  0.314458  1
  Rh  Rh19  1  0.426574  0.696817  0.476785  1
  Rh  Rh20  1  0.925078  0.629168  0.812392  1
  Rh  Rh21  1  0.364459  0.079308  0.686425  1
