# generated using pymatgen
data_AlSeI6Br
_symmetry_space_group_name_H-M   'P 1'
_cell_length_a   7.60498859
_cell_length_b   8.23809658
_cell_length_c   14.47235947
_cell_angle_alpha   77.61240631
_cell_angle_beta   91.83806791
_cell_angle_gamma   91.77014830
_symmetry_Int_Tables_number   1
_chemical_formula_structural   AlSeI6Br
_chemical_formula_sum   'Al2 Se2 I12 Br2'
_cell_volume   884.86987928
_cell_formula_units_Z   2
loop_
 _symmetry_equiv_pos_site_id
 _symmetry_equiv_pos_as_xyz
  1  'x, y, z'
loop_
 _atom_site_type_symbol
 _atom_site_label
 _atom_site_symmetry_multiplicity
 _atom_site_fract_x
 _atom_site_fract_y
 _atom_site_fract_z
 _atom_site_occupancy
  Al  Al0  1  0.992926  0.665119  0.656005  1
  Al  Al1  1  0.021878  0.668561  0.161432  1
  Se  Se2  1  0.617882  0.041474  0.501256  1
  Se  Se3  1  0.369651  0.039477  0.005748  1
  I  I4  1  0.399089  0.977817  0.370116  1
  I  I5  1  0.453095  0.267642  0.565828  1
  I  I6  1  0.119629  0.220590  0.897132  1
  I  I7  1  0.865199  0.226031  0.402165  1
  I  I8  1  0.099066  0.960822  0.197535  1
  I  I9  1  0.544183  0.275172  0.067681  1
  I  I10  1  0.146375  0.673609  0.999971  1
  I  I11  1  0.842643  0.679246  0.494570  1
  I  I12  1  0.688852  0.617240  0.162899  1
  I  I13  1  0.318974  0.589845  0.657393  1
  I  I14  1  0.175781  0.449107  0.291704  1
  I  I15  1  0.831418  0.424007  0.776098  1
  Br  Br16  1  0.554767  0.984850  0.887472  1
  Br  Br17  1  0.958593  0.909987  0.704791  1
