# generated using pymatgen
data_DyEr19(Bi3Sb)3
_symmetry_space_group_name_H-M   'P 1'
_cell_length_a   8.14835782
_cell_length_b   9.42287500
_cell_length_c   11.91058919
_cell_angle_alpha   90.00000000
_cell_angle_beta   90.03600892
_cell_angle_gamma   90.00000000
_symmetry_Int_Tables_number   1
_chemical_formula_structural   DyEr19(Bi3Sb)3
_chemical_formula_sum   'Dy1 Er19 Bi9 Sb3'
_cell_volume   914.50625838
_cell_formula_units_Z   1
loop_
 _symmetry_equiv_pos_site_id
 _symmetry_equiv_pos_as_xyz
  1  'x, y, z'
loop_
 _atom_site_type_symbol
 _atom_site_label
 _atom_site_symmetry_multiplicity
 _atom_site_fract_x
 _atom_site_fract_y
 _atom_site_fract_z
 _atom_site_occupancy
  Dy  Dy0  1  0.811306  0.250000  0.278968  1
  Er  Er1  1  0.352711  0.750000  0.213237  1
  Er  Er2  1  0.853058  0.750000  0.286350  1
  Er  Er3  1  0.647169  0.250000  0.786507  1
  Er  Er4  1  0.148124  0.250000  0.716755  1
  Er  Er5  1  0.689193  0.563267  0.057466  1
  Er  Er6  1  0.190432  0.933365  0.442486  1
  Er  Er7  1  0.310982  0.062808  0.942661  1
  Er  Er8  1  0.808257  0.439562  0.559092  1
  Er  Er9  1  0.310982  0.437192  0.942661  1
  Er  Er10  1  0.808257  0.060438  0.559092  1
  Er  Er11  1  0.689193  0.936733  0.057466  1
  Er  Er12  1  0.190432  0.566635  0.442486  1
  Er  Er13  1  0.475689  0.250000  0.488198  1
  Er  Er14  1  0.973007  0.250000  0.011688  1
  Er  Er15  1  0.528446  0.750000  0.512543  1
  Er  Er16  1  0.027611  0.750000  0.988049  1
  Er  Er17  1  0.317874  0.250000  0.215952  1
  Er  Er18  1  0.683507  0.750000  0.782372  1
  Er  Er19  1  0.184012  0.750000  0.717522  1
  Bi  Bi20  1  0.092784  0.250000  0.456869  1
  Bi  Bi21  1  0.565150  0.994947  0.325612  1
  Bi  Bi22  1  0.065981  0.504168  0.174309  1
  Bi  Bi23  1  0.433984  0.495646  0.674639  1
  Bi  Bi24  1  0.934050  0.003902  0.825826  1
  Bi  Bi25  1  0.433984  0.004354  0.674639  1
  Bi  Bi26  1  0.934050  0.496098  0.825826  1
  Bi  Bi27  1  0.565150  0.505053  0.325612  1
  Bi  Bi28  1  0.065981  0.995832  0.174309  1
  Sb  Sb29  1  0.407346  0.750000  0.958078  1
  Sb  Sb30  1  0.908022  0.750000  0.541626  1
  Sb  Sb31  1  0.593279  0.250000  0.041102  1
