# generated using pymatgen
data_Ta2Nb4CrCo6
_symmetry_space_group_name_H-M   'P 1'
_cell_length_a   4.88697633
_cell_length_b   4.88697557
_cell_length_c   9.20051330
_cell_angle_alpha   74.59848985
_cell_angle_beta   74.59849270
_cell_angle_gamma   60.00000515
_symmetry_Int_Tables_number   1
_chemical_formula_structural   Ta2Nb4CrCo6
_chemical_formula_sum   'Ta2 Nb4 Cr1 Co6'
_cell_volume   181.12420650
_cell_formula_units_Z   1
loop_
 _symmetry_equiv_pos_site_id
 _symmetry_equiv_pos_as_xyz
  1  'x, y, z'
loop_
 _atom_site_type_symbol
 _atom_site_label
 _atom_site_symmetry_multiplicity
 _atom_site_fract_x
 _atom_site_fract_y
 _atom_site_fract_z
 _atom_site_occupancy
  Ta  Ta0  1  0.449241  0.449241  0.652277  1
  Ta  Ta1  1  0.550759  0.550759  0.347723  1
  Nb  Nb2  1  0.166009  0.166009  0.501971  1
  Nb  Nb3  1  0.833991  0.833991  0.498029  1
  Nb  Nb4  1  0.346270  0.346270  0.961189  1
  Nb  Nb5  1  0.653730  0.653730  0.038811  1
  Cr  Cr6  1  0.000000  0.000000  0.000000  1
  Co  Co7  1  0.590104  0.092469  0.224956  1
  Co  Co8  1  0.092469  0.092469  0.224956  1
  Co  Co9  1  0.092469  0.590104  0.224956  1
  Co  Co10  1  0.409896  0.907531  0.775044  1
  Co  Co11  1  0.907531  0.907531  0.775044  1
  Co  Co12  1  0.907531  0.409896  0.775044  1
