# generated using pymatgen
data_HoAl5Pt3
_symmetry_space_group_name_H-M   'P 1'
_cell_length_a   4.06979600
_cell_length_b   7.40967000
_cell_length_c   20.61023400
_cell_angle_alpha   90.00000000
_cell_angle_beta   90.00000000
_cell_angle_gamma   90.00000000
_symmetry_Int_Tables_number   1
_chemical_formula_structural   HoAl5Pt3
_chemical_formula_sum   'Ho4 Al20 Pt12'
_cell_volume   621.51902866
_cell_formula_units_Z   4
loop_
 _symmetry_equiv_pos_site_id
 _symmetry_equiv_pos_as_xyz
  1  'x, y, z'
loop_
 _atom_site_type_symbol
 _atom_site_label
 _atom_site_symmetry_multiplicity
 _atom_site_fract_x
 _atom_site_fract_y
 _atom_site_fract_z
 _atom_site_occupancy
  Ho  Ho0  1  0.250000  0.116487  0.640031  1
  Ho  Ho1  1  0.750000  0.883513  0.359969  1
  Ho  Ho2  1  0.250000  0.383513  0.140031  1
  Ho  Ho3  1  0.750000  0.616487  0.859969  1
  Al  Al4  1  0.750000  0.354194  0.382223  1
  Al  Al5  1  0.750000  0.883406  0.983828  1
  Al  Al6  1  0.750000  0.685278  0.200148  1
  Al  Al7  1  0.250000  0.869876  0.491288  1
  Al  Al8  1  0.250000  0.630124  0.991288  1
  Al  Al9  1  0.250000  0.314722  0.799852  1
  Al  Al10  1  0.750000  0.075500  0.208913  1
  Al  Al11  1  0.250000  0.645806  0.617777  1
  Al  Al12  1  0.250000  0.575500  0.291087  1
  Al  Al13  1  0.250000  0.185278  0.299852  1
  Al  Al14  1  0.750000  0.145806  0.882223  1
  Al  Al15  1  0.250000  0.924500  0.791087  1
  Al  Al16  1  0.750000  0.369876  0.008712  1
  Al  Al17  1  0.750000  0.616594  0.483828  1
  Al  Al18  1  0.750000  0.130124  0.508712  1
  Al  Al19  1  0.250000  0.116594  0.016172  1
  Al  Al20  1  0.250000  0.854194  0.117777  1
  Al  Al21  1  0.250000  0.383406  0.516172  1
  Al  Al22  1  0.750000  0.424500  0.708913  1
  Al  Al23  1  0.750000  0.814722  0.700148  1
  Pt  Pt24  1  0.750000  0.382731  0.259677  1
  Pt  Pt25  1  0.250000  0.882731  0.240323  1
  Pt  Pt26  1  0.250000  0.617269  0.740323  1
  Pt  Pt27  1  0.750000  0.117269  0.759677  1
  Pt  Pt28  1  0.250000  0.159559  0.425976  1
  Pt  Pt29  1  0.750000  0.417715  0.585674  1
  Pt  Pt30  1  0.750000  0.082285  0.085674  1
  Pt  Pt31  1  0.250000  0.917715  0.914326  1
  Pt  Pt32  1  0.750000  0.840441  0.574024  1
  Pt  Pt33  1  0.250000  0.340441  0.925976  1
  Pt  Pt34  1  0.750000  0.659559  0.074024  1
  Pt  Pt35  1  0.250000  0.582285  0.414326  1
