# generated using pymatgen
data_LaNd3Cd2(CuNi)2
_symmetry_space_group_name_H-M   'P 1'
_cell_length_a   7.67489871
_cell_length_b   7.73683609
_cell_length_c   3.80495200
_cell_angle_alpha   90.00000000
_cell_angle_beta   90.00000000
_cell_angle_gamma   90.44804086
_symmetry_Int_Tables_number   1
_chemical_formula_structural   LaNd3Cd2(CuNi)2
_chemical_formula_sum   'La1 Nd3 Cd2 Cu2 Ni2'
_cell_volume   225.92898578
_cell_formula_units_Z   1
loop_
 _symmetry_equiv_pos_site_id
 _symmetry_equiv_pos_as_xyz
  1  'x, y, z'
loop_
 _atom_site_type_symbol
 _atom_site_label
 _atom_site_symmetry_multiplicity
 _atom_site_fract_x
 _atom_site_fract_y
 _atom_site_fract_z
 _atom_site_occupancy
  La  La0  1  0.325595  0.809103  0.500000  1
  Nd  Nd1  1  0.824540  0.688972  0.500000  1
  Nd  Nd2  1  0.175643  0.336303  0.500000  1
  Nd  Nd3  1  0.677767  0.162434  0.500000  1
  Cd  Cd4  1  0.003833  0.005569  0.000000  1
  Cd  Cd5  1  0.508675  0.492337  0.000000  1
  Cu  Cu6  1  0.379628  0.115913  0.000000  1
  Cu  Cu7  1  0.878780  0.388103  0.000000  1
  Ni  Ni8  1  0.113612  0.618440  0.000000  1
  Ni  Ni9  1  0.611927  0.882827  0.000000  1
