# generated using pymatgen
data_MgSc4(ReTc)12
_symmetry_space_group_name_H-M   'P 1'
_cell_length_a   8.44044403
_cell_length_b   8.44044426
_cell_length_c   8.44044400
_cell_angle_alpha   109.48726006
_cell_angle_beta   109.48726060
_cell_angle_gamma   109.48726361
_symmetry_Int_Tables_number   1
_chemical_formula_structural   MgSc4(ReTc)12
_chemical_formula_sum   'Mg1 Sc4 Re12 Tc12'
_cell_volume   462.61084412
_cell_formula_units_Z   1
loop_
 _symmetry_equiv_pos_site_id
 _symmetry_equiv_pos_as_xyz
  1  'x, y, z'
loop_
 _atom_site_type_symbol
 _atom_site_label
 _atom_site_symmetry_multiplicity
 _atom_site_fract_x
 _atom_site_fract_y
 _atom_site_fract_z
 _atom_site_occupancy
  Mg  Mg0  1  0.364294  0.364294  0.364294  1
  Sc  Sc1  1  0.002689  0.002689  0.002689  1
  Sc  Sc2  1  0.631101  0.999742  0.999742  1
  Sc  Sc3  1  0.999742  0.631101  0.999742  1
  Sc  Sc4  1  0.999742  0.999742  0.631101  1
  Re  Re5  1  0.377825  0.192573  0.001414  1
  Re  Re6  1  0.184663  0.807211  0.807211  1
  Re  Re7  1  0.377825  0.001414  0.192573  1
  Re  Re8  1  0.192573  0.377825  0.001414  1
  Re  Re9  1  0.001414  0.377825  0.192573  1
  Re  Re10  1  0.807211  0.184663  0.807211  1
  Re  Re11  1  0.807211  0.807211  0.184663  1
  Re  Re12  1  0.001414  0.192573  0.377825  1
  Re  Re13  1  0.192573  0.001414  0.377825  1
  Re  Re14  1  0.621286  0.621286  0.812716  1
  Re  Re15  1  0.812716  0.621286  0.621286  1
  Re  Re16  1  0.621286  0.812716  0.621286  1
  Tc  Tc17  1  0.398429  0.677521  0.001055  1
  Tc  Tc18  1  0.721224  0.323077  0.323077  1
  Tc  Tc19  1  0.398429  0.001055  0.677521  1
  Tc  Tc20  1  0.677521  0.398429  0.001055  1
  Tc  Tc21  1  0.001055  0.398429  0.677521  1
  Tc  Tc22  1  0.323077  0.721224  0.323077  1
  Tc  Tc23  1  0.323077  0.323077  0.721224  1
  Tc  Tc24  1  0.001055  0.677521  0.398429  1
  Tc  Tc25  1  0.677521  0.001055  0.398429  1
  Tc  Tc26  1  0.602409  0.602409  0.278227  1
  Tc  Tc27  1  0.278227  0.602409  0.602409  1
  Tc  Tc28  1  0.602409  0.278227  0.602409  1
