# generated using pymatgen
data_Ce4Be(CuRh2)4
_symmetry_space_group_name_H-M   'P 1'
_cell_length_a   7.12542310
_cell_length_b   7.06147557
_cell_length_c   7.12542327
_cell_angle_alpha   108.64813963
_cell_angle_beta   111.48318799
_cell_angle_gamma   108.64813626
_symmetry_Int_Tables_number   1
_chemical_formula_structural   Ce4Be(CuRh2)4
_chemical_formula_sum   'Ce4 Be1 Cu4 Rh8'
_cell_volume   274.56874315
_cell_formula_units_Z   1
loop_
 _symmetry_equiv_pos_site_id
 _symmetry_equiv_pos_as_xyz
  1  'x, y, z'
loop_
 _atom_site_type_symbol
 _atom_site_label
 _atom_site_symmetry_multiplicity
 _atom_site_fract_x
 _atom_site_fract_y
 _atom_site_fract_z
 _atom_site_occupancy
  Ce  Ce0  1  0.994305  0.988610  0.494305  1
  Ce  Ce1  1  0.016078  0.509976  0.016078  1
  Ce  Ce2  1  0.494305  0.988610  0.994305  1
  Ce  Ce3  1  0.493897  0.509976  0.493897  1
  Be  Be4  1  0.001144  0.002289  0.001144  1
  Cu  Cu5  1  0.751246  0.253890  0.502644  1
  Cu  Cu6  1  0.746038  0.492076  0.246038  1
  Cu  Cu7  1  0.502644  0.253890  0.751246  1
  Cu  Cu8  1  0.246038  0.492076  0.746038  1
  Rh  Rh9  1  0.246199  0.753190  0.506991  1
  Rh  Rh10  1  0.506991  0.753190  0.246199  1
  Rh  Rh11  1  0.729172  0.717316  0.988144  1
  Rh  Rh12  1  0.284217  0.022122  0.284217  1
  Rh  Rh13  1  0.988337  0.261676  0.273339  1
  Rh  Rh14  1  0.273339  0.261676  0.988337  1
  Rh  Rh15  1  0.737905  0.022122  0.737905  1
  Rh  Rh16  1  0.988144  0.717316  0.729172  1
