# generated using pymatgen
data_TbYb5Al14(Si5Os4)2
_symmetry_space_group_name_H-M   'P 1'
_cell_length_a   8.65871666
_cell_length_b   8.67192372
_cell_length_c   9.42490400
_cell_angle_alpha   90.00000000
_cell_angle_beta   90.00000000
_cell_angle_gamma   120.12334907
_symmetry_Int_Tables_number   1
_chemical_formula_structural   TbYb5Al14(Si5Os4)2
_chemical_formula_sum   'Tb1 Yb5 Al14 Si10 Os8'
_cell_volume   612.11834644
_cell_formula_units_Z   1
loop_
 _symmetry_equiv_pos_site_id
 _symmetry_equiv_pos_as_xyz
  1  'x, y, z'
loop_
 _atom_site_type_symbol
 _atom_site_label
 _atom_site_symmetry_multiplicity
 _atom_site_fract_x
 _atom_site_fract_y
 _atom_site_fract_z
 _atom_site_occupancy
  Tb  Tb0  1  0.190900  0.383293  0.250000  1
  Yb  Yb1  1  0.809963  0.614935  0.750000  1
  Yb  Yb2  1  0.617114  0.810100  0.250000  1
  Yb  Yb3  1  0.386099  0.190240  0.750000  1
  Yb  Yb4  1  0.193960  0.807919  0.250000  1
  Yb  Yb5  1  0.805335  0.193901  0.750000  1
  Al  Al6  1  0.166389  0.331228  0.580433  1
  Al  Al7  1  0.833587  0.665606  0.422877  1
  Al  Al8  1  0.667977  0.832643  0.577961  1
  Al  Al9  1  0.833587  0.665606  0.077123  1
  Al  Al10  1  0.334422  0.165797  0.421407  1
  Al  Al11  1  0.166389  0.331228  0.919567  1
  Al  Al12  1  0.164437  0.834633  0.578835  1
  Al  Al13  1  0.334422  0.165797  0.078593  1
  Al  Al14  1  0.831608  0.167219  0.423381  1
  Al  Al15  1  0.667977  0.832643  0.922039  1
  Al  Al16  1  0.831608  0.167219  0.076619  1
  Al  Al17  1  0.164437  0.834633  0.921165  1
  Al  Al18  1  0.437639  0.563757  0.750000  1
  Al  Al19  1  0.000014  0.000076  0.750000  1
  Si  Si20  1  0.335054  0.667049  0.043333  1
  Si  Si21  1  0.665850  0.334761  0.956594  1
  Si  Si22  1  0.665850  0.334761  0.543406  1
  Si  Si23  1  0.335054  0.667049  0.456667  1
  Si  Si24  1  0.561596  0.122368  0.250000  1
  Si  Si25  1  0.434592  0.874151  0.750000  1
  Si  Si26  1  0.874431  0.438652  0.250000  1
  Si  Si27  1  0.125822  0.566439  0.750000  1
  Si  Si28  1  0.565355  0.438471  0.250000  1
  Si  Si29  1  0.002546  0.000082  0.250000  1
  Os  Os30  1  0.499465  0.000272  0.000713  1
  Os  Os31  1  0.999877  0.499766  0.001506  1
  Os  Os32  1  0.499465  0.000272  0.499287  1
  Os  Os33  1  0.499742  0.498570  0.007895  1
  Os  Os34  1  0.999877  0.499766  0.498494  1
  Os  Os35  1  0.499742  0.498570  0.492105  1
  Os  Os36  1  0.998907  0.000265  0.007354  1
  Os  Os37  1  0.998907  0.000265  0.492646  1
