# generated using pymatgen
data_Tb2ErTm(Mo2O7)2
_symmetry_space_group_name_H-M   'P 1'
_cell_length_a   7.36242587
_cell_length_b   7.36242709
_cell_length_c   7.32081470
_cell_angle_alpha   60.25076858
_cell_angle_beta   60.25076620
_cell_angle_gamma   59.73693768
_symmetry_Int_Tables_number   1
_chemical_formula_structural   Tb2ErTm(Mo2O7)2
_chemical_formula_sum   'Tb2 Er1 Tm1 Mo4 O14'
_cell_volume   281.08962808
_cell_formula_units_Z   1
loop_
 _symmetry_equiv_pos_site_id
 _symmetry_equiv_pos_as_xyz
  1  'x, y, z'
loop_
 _atom_site_type_symbol
 _atom_site_label
 _atom_site_symmetry_multiplicity
 _atom_site_fract_x
 _atom_site_fract_y
 _atom_site_fract_z
 _atom_site_occupancy
  Tb  Tb0  1  0.625000  0.125000  0.125000  1
  Tb  Tb1  1  0.125000  0.625000  0.125000  1
  Er  Er2  1  0.125000  0.125000  0.625000  1
  Tm  Tm3  1  0.125000  0.125000  0.125000  1
  Mo  Mo4  1  0.625000  0.625000  0.625000  1
  Mo  Mo5  1  0.125000  0.625000  0.625000  1
  Mo  Mo6  1  0.625000  0.625000  0.125000  1
  Mo  Mo7  1  0.625000  0.125000  0.625000  1
  O  O8  1  0.003129  0.003129  0.998156  1
  O  O9  1  0.246871  0.246871  0.251844  1
  O  O10  1  0.278525  0.278525  0.722336  1
  O  O11  1  0.528851  0.528851  0.971028  1
  O  O12  1  0.713461  0.287556  0.711168  1
  O  O13  1  0.714278  0.287339  0.287496  1
  O  O14  1  0.287556  0.713461  0.711168  1
  O  O15  1  0.287339  0.714278  0.287496  1
  O  O16  1  0.721149  0.721149  0.278972  1
  O  O17  1  0.962444  0.536539  0.538832  1
  O  O18  1  0.535722  0.962661  0.962504  1
  O  O19  1  0.971475  0.971475  0.527664  1
  O  O20  1  0.962661  0.535722  0.962504  1
  O  O21  1  0.536539  0.962444  0.538832  1
