# generated using pymatgen
data_Ca3Zn8Pd
_symmetry_space_group_name_H-M   'P 1'
_cell_length_a   9.51169740
_cell_length_b   9.51169722
_cell_length_c   9.51169788
_cell_angle_alpha   32.99101955
_cell_angle_beta   32.99102145
_cell_angle_gamma   32.99102160
_symmetry_Int_Tables_number   1
_chemical_formula_structural   Ca3Zn8Pd
_chemical_formula_sum   'Ca3 Zn8 Pd1'
_cell_volume   227.05109013
_cell_formula_units_Z   1
loop_
 _symmetry_equiv_pos_site_id
 _symmetry_equiv_pos_as_xyz
  1  'x, y, z'
loop_
 _atom_site_type_symbol
 _atom_site_label
 _atom_site_symmetry_multiplicity
 _atom_site_fract_x
 _atom_site_fract_y
 _atom_site_fract_z
 _atom_site_occupancy
  Ca  Ca0  1  0.000000  0.000000  0.000000  1
  Ca  Ca1  1  0.143185  0.143185  0.143185  1
  Ca  Ca2  1  0.856815  0.856815  0.856815  1
  Zn  Zn3  1  0.584179  0.584179  0.081832  1
  Zn  Zn4  1  0.333362  0.333362  0.333362  1
  Zn  Zn5  1  0.918168  0.415820  0.415821  1
  Zn  Zn6  1  0.415820  0.918168  0.415821  1
  Zn  Zn7  1  0.584180  0.081831  0.584179  1
  Zn  Zn8  1  0.081831  0.584180  0.584179  1
  Zn  Zn9  1  0.666637  0.666637  0.666637  1
  Zn  Zn10  1  0.415821  0.415821  0.918168  1
  Pd  Pd11  1  0.500000  0.500000  0.500000  1
