# generated using pymatgen
data_Li2Ho3Tm3(Co4P3)4
_symmetry_space_group_name_H-M   'P 1'
_cell_length_a   3.69629100
_cell_length_b   10.54052602
_cell_length_c   12.13785803
_cell_angle_alpha   89.99224955
_cell_angle_beta   90.00000000
_cell_angle_gamma   90.00000000
_symmetry_Int_Tables_number   1
_chemical_formula_structural   Li2Ho3Tm3(Co4P3)4
_chemical_formula_sum   'Li2 Ho3 Tm3 Co16 P12'
_cell_volume   472.90127956
_cell_formula_units_Z   1
loop_
 _symmetry_equiv_pos_site_id
 _symmetry_equiv_pos_as_xyz
  1  'x, y, z'
loop_
 _atom_site_type_symbol
 _atom_site_label
 _atom_site_symmetry_multiplicity
 _atom_site_fract_x
 _atom_site_fract_y
 _atom_site_fract_z
 _atom_site_occupancy
  Li  Li0  1  0.500000  0.499849  0.153346  1
  Li  Li1  1  0.000000  0.000059  0.846613  1
  Ho  Ho2  1  0.000000  0.499922  0.523225  1
  Ho  Ho3  1  0.500000  0.000163  0.477069  1
  Ho  Ho4  1  0.500000  0.820144  0.206052  1
  Tm  Tm5  1  0.500000  0.180075  0.205984  1
  Tm  Tm6  1  0.000000  0.679765  0.794130  1
  Tm  Tm7  1  0.000000  0.320097  0.793772  1
  Co  Co8  1  0.500000  0.499870  0.705064  1
  Co  Co9  1  0.000000  0.000684  0.295106  1
  Co  Co10  1  0.000000  0.499671  0.986990  1
  Co  Co11  1  0.500000  0.000368  0.012242  1
  Co  Co12  1  0.500000  0.332819  0.996934  1
  Co  Co13  1  0.500000  0.666873  0.996542  1
  Co  Co14  1  0.000000  0.167509  0.002717  1
  Co  Co15  1  0.000000  0.832814  0.002624  1
  Co  Co16  1  0.500000  0.296538  0.431020  1
  Co  Co17  1  0.500000  0.703367  0.431590  1
  Co  Co18  1  0.000000  0.203614  0.569030  1
  Co  Co19  1  0.000000  0.796494  0.569531  1
  Co  Co20  1  0.500000  0.877948  0.707256  1
  Co  Co21  1  0.500000  0.122086  0.707044  1
  Co  Co22  1  0.000000  0.621470  0.293363  1
  Co  Co23  1  0.000000  0.377791  0.292844  1
  P  P24  1  0.500000  0.499760  0.884595  1
  P  P25  1  0.000000  0.000664  0.114764  1
  P  P26  1  0.500000  0.499990  0.346610  1
  P  P27  1  0.000000  0.000074  0.653572  1
  P  P28  1  0.500000  0.310383  0.616695  1
  P  P29  1  0.500000  0.689471  0.617070  1
  P  P30  1  0.000000  0.189730  0.383347  1
  P  P31  1  0.000000  0.810306  0.384164  1
  P  P32  1  0.500000  0.842490  0.892525  1
  P  P33  1  0.500000  0.157714  0.892291  1
  P  P34  1  0.000000  0.656885  0.106850  1
  P  P35  1  0.000000  0.342541  0.107431  1
