# generated using pymatgen
data_Sr2Al14Rh3
_symmetry_space_group_name_H-M   'P 1'
_cell_length_a   6.93063215
_cell_length_b   6.93063256
_cell_length_c   6.93063200
_cell_angle_alpha   83.87542486
_cell_angle_beta   83.87542450
_cell_angle_gamma   83.87541924
_symmetry_Int_Tables_number   1
_chemical_formula_structural   Sr2Al14Rh3
_chemical_formula_sum   'Sr2 Al14 Rh3'
_cell_volume   327.58129817
_cell_formula_units_Z   1
loop_
 _symmetry_equiv_pos_site_id
 _symmetry_equiv_pos_as_xyz
  1  'x, y, z'
loop_
 _atom_site_type_symbol
 _atom_site_label
 _atom_site_symmetry_multiplicity
 _atom_site_fract_x
 _atom_site_fract_y
 _atom_site_fract_z
 _atom_site_occupancy
  Sr  Sr0  1  0.344846  0.344846  0.344846  1
  Sr  Sr1  1  0.655155  0.655155  0.655155  1
  Al  Al2  1  0.704723  0.295278  0.000000  1
  Al  Al3  1  0.295278  0.704723  0.000000  1
  Al  Al4  1  0.102796  0.102796  0.102796  1
  Al  Al5  1  0.656530  0.656530  0.146588  1
  Al  Al6  1  0.704723  0.000000  0.295278  1
  Al  Al7  1  0.000000  0.704723  0.295278  1
  Al  Al8  1  0.853413  0.343470  0.343469  1
  Al  Al9  1  0.343470  0.853413  0.343469  1
  Al  Al10  1  0.656530  0.146588  0.656531  1
  Al  Al11  1  0.146588  0.656530  0.656531  1
  Al  Al12  1  0.295278  0.000000  0.704723  1
  Al  Al13  1  0.000000  0.295278  0.704723  1
  Al  Al14  1  0.343470  0.343470  0.853412  1
  Al  Al15  1  0.897204  0.897204  0.897204  1
  Rh  Rh16  1  0.500001  0.000000  0.000000  1
  Rh  Rh17  1  0.000000  0.500001  0.000000  1
  Rh  Rh18  1  0.000000  0.000000  0.500000  1
