# generated using pymatgen
data_Dy2Tm2ThFeCoB6
_symmetry_space_group_name_H-M   'P 1'
_cell_length_a   5.40149064
_cell_length_b   5.40149172
_cell_length_c   8.10182200
_cell_angle_alpha   70.52774697
_cell_angle_beta   70.52775420
_cell_angle_gamma   59.99997803
_symmetry_Int_Tables_number   1
_chemical_formula_structural   Dy2Tm2ThFeCoB6
_chemical_formula_sum   'Dy2 Tm2 Th1 Fe1 Co1 B6'
_cell_volume   188.93776942
_cell_formula_units_Z   1
loop_
 _symmetry_equiv_pos_site_id
 _symmetry_equiv_pos_as_xyz
  1  'x, y, z'
loop_
 _atom_site_type_symbol
 _atom_site_label
 _atom_site_symmetry_multiplicity
 _atom_site_fract_x
 _atom_site_fract_y
 _atom_site_fract_z
 _atom_site_occupancy
  Dy  Dy0  1  0.413573  0.413573  0.759280  1
  Dy  Dy1  1  0.586106  0.586106  0.241681  1
  Tm  Tm2  1  0.250970  0.250970  0.247089  1
  Tm  Tm3  1  0.748742  0.748742  0.753776  1
  Th  Th4  1  0.998094  0.998094  0.005717  1
  Fe  Fe5  1  0.887781  0.887781  0.336656  1
  Co  Co6  1  0.113162  0.113162  0.660513  1
  B  B7  1  0.168006  0.832007  0.499215  1
  B  B8  1  0.832007  0.500773  0.499215  1
  B  B9  1  0.500773  0.168006  0.499215  1
  B  B10  1  0.168006  0.500773  0.499215  1
  B  B11  1  0.500773  0.832007  0.499215  1
  B  B12  1  0.832007  0.168006  0.499215  1
