# generated using pymatgen
data_CaPd3Pb2
_symmetry_space_group_name_H-M   'P 1'
_cell_length_a   4.90999100
_cell_length_b   10.33653400
_cell_length_c   10.21407400
_cell_angle_alpha   90.00000000
_cell_angle_beta   90.00000000
_cell_angle_gamma   90.00000000
_symmetry_Int_Tables_number   1
_chemical_formula_structural   CaPd3Pb2
_chemical_formula_sum   'Ca4 Pd12 Pb8'
_cell_volume   518.38763461
_cell_formula_units_Z   4
loop_
 _symmetry_equiv_pos_site_id
 _symmetry_equiv_pos_as_xyz
  1  'x, y, z'
loop_
 _atom_site_type_symbol
 _atom_site_label
 _atom_site_symmetry_multiplicity
 _atom_site_fract_x
 _atom_site_fract_y
 _atom_site_fract_z
 _atom_site_occupancy
  Ca  Ca0  1  0.250000  0.435441  0.725936  1
  Ca  Ca1  1  0.250000  0.064559  0.225936  1
  Ca  Ca2  1  0.750000  0.564559  0.274064  1
  Ca  Ca3  1  0.750000  0.935441  0.774064  1
  Pd  Pd4  1  0.250000  0.153607  0.614878  1
  Pd  Pd5  1  0.250000  0.346393  0.114878  1
  Pd  Pd6  1  0.750000  0.846393  0.385122  1
  Pd  Pd7  1  0.750000  0.653607  0.885122  1
  Pd  Pd8  1  0.250000  0.732284  0.746784  1
  Pd  Pd9  1  0.250000  0.767716  0.246784  1
  Pd  Pd10  1  0.750000  0.267716  0.253216  1
  Pd  Pd11  1  0.750000  0.232284  0.753216  1
  Pd  Pd12  1  0.250000  0.898465  0.977455  1
  Pd  Pd13  1  0.250000  0.601535  0.477455  1
  Pd  Pd14  1  0.750000  0.101535  0.022545  1
  Pd  Pd15  1  0.750000  0.398465  0.522545  1
  Pb  Pb16  1  0.250000  0.882674  0.514196  1
  Pb  Pb17  1  0.250000  0.617326  0.014196  1
  Pb  Pb18  1  0.750000  0.117326  0.485804  1
  Pb  Pb19  1  0.750000  0.382674  0.985804  1
  Pb  Pb20  1  0.250000  0.152938  0.889788  1
  Pb  Pb21  1  0.250000  0.347062  0.389788  1
  Pb  Pb22  1  0.750000  0.847062  0.110212  1
  Pb  Pb23  1  0.750000  0.652938  0.610212  1
