# generated using pymatgen
data_RbMnNiP2
_symmetry_space_group_name_H-M   'P 1'
_cell_length_a   7.42585618
_cell_length_b   7.42585641
_cell_length_c   7.42585587
_cell_angle_alpha   150.69092880
_cell_angle_beta   150.69093763
_cell_angle_gamma   41.92812596
_symmetry_Int_Tables_number   1
_chemical_formula_structural   RbMnNiP2
_chemical_formula_sum   'Rb1 Mn1 Ni1 P2'
_cell_volume   97.89567871
_cell_formula_units_Z   1
loop_
 _symmetry_equiv_pos_site_id
 _symmetry_equiv_pos_as_xyz
  1  'x, y, z'
loop_
 _atom_site_type_symbol
 _atom_site_label
 _atom_site_symmetry_multiplicity
 _atom_site_fract_x
 _atom_site_fract_y
 _atom_site_fract_z
 _atom_site_occupancy
  Rb  Rb0  1  0.000000  0.000000  0.000000  1
  Mn  Mn1  1  0.250000  0.750000  0.500000  1
  Ni  Ni2  1  0.750000  0.250000  0.500000  1
  P  P3  1  0.336291  0.336291  0.000000  1
  P  P4  1  0.663709  0.663709  0.000000  1
