# generated using pymatgen
data_Nd3CdCu(PdAu)2
_symmetry_space_group_name_H-M   'P 1'
_cell_length_a   7.72183117
_cell_length_b   7.72183137
_cell_length_c   3.86452000
_cell_angle_alpha   90.00000000
_cell_angle_beta   90.00000000
_cell_angle_gamma   120.51325438
_symmetry_Int_Tables_number   1
_chemical_formula_structural   Nd3CdCu(PdAu)2
_chemical_formula_sum   'Nd3 Cd1 Cu1 Pd2 Au2'
_cell_volume   198.51684673
_cell_formula_units_Z   1
loop_
 _symmetry_equiv_pos_site_id
 _symmetry_equiv_pos_as_xyz
  1  'x, y, z'
loop_
 _atom_site_type_symbol
 _atom_site_label
 _atom_site_symmetry_multiplicity
 _atom_site_fract_x
 _atom_site_fract_y
 _atom_site_fract_z
 _atom_site_occupancy
  Nd  Nd0  1  0.597725  0.012356  0.000000  1
  Nd  Nd1  1  0.012356  0.597725  0.000000  1
  Nd  Nd2  1  0.385956  0.385956  0.000000  1
  Cd  Cd3  1  0.750343  0.750343  0.500000  1
  Cu  Cu4  1  0.996351  0.996351  0.000000  1
  Pd  Pd5  1  0.342175  0.668699  0.500000  1
  Pd  Pd6  1  0.668699  0.342175  0.500000  1
  Au  Au7  1  0.249713  0.996680  0.500000  1
  Au  Au8  1  0.996680  0.249713  0.500000  1
