# generated using pymatgen
data_KRbBa2USe6
_symmetry_space_group_name_H-M   'P 1'
_cell_length_a   9.08302146
_cell_length_b   9.13973843
_cell_length_c   9.08302271
_cell_angle_alpha   88.75858553
_cell_angle_beta   89.43160364
_cell_angle_gamma   88.75858996
_symmetry_Int_Tables_number   1
_chemical_formula_structural   KRbBa2USe6
_chemical_formula_sum   'K2 Rb2 Ba4 U2 Se12'
_cell_volume   753.65259409
_cell_formula_units_Z   2
loop_
 _symmetry_equiv_pos_site_id
 _symmetry_equiv_pos_as_xyz
  1  'x, y, z'
loop_
 _atom_site_type_symbol
 _atom_site_label
 _atom_site_symmetry_multiplicity
 _atom_site_fract_x
 _atom_site_fract_y
 _atom_site_fract_z
 _atom_site_occupancy
  K  K0  1  0.244961  0.250000  0.255039  1
  K  K1  1  0.750619  0.750000  0.749381  1
  Rb  Rb2  1  0.884050  0.616102  0.250494  1
  Rb  Rb3  1  0.249506  0.883898  0.615950  1
  Ba  Ba4  1  0.618290  0.250000  0.881710  1
  Ba  Ba5  1  0.749505  0.119627  0.377075  1
  Ba  Ba6  1  0.379948  0.750000  0.120052  1
  Ba  Ba7  1  0.122925  0.380373  0.750495  1
  U  U8  1  0.504657  0.500549  0.501908  1
  U  U9  1  0.998092  0.999451  0.995343  1
  Se  Se10  1  0.222745  0.557965  0.429270  1
  Se  Se11  1  0.434435  0.217780  0.565607  1
  Se  Se12  1  0.558978  0.420107  0.217847  1
  Se  Se13  1  0.918376  0.068681  0.713986  1
  Se  Se14  1  0.709231  0.935137  0.059200  1
  Se  Se15  1  0.065218  0.719143  0.925624  1
  Se  Se16  1  0.786014  0.431319  0.581624  1
  Se  Se17  1  0.574376  0.780857  0.434782  1
  Se  Se18  1  0.440800  0.564863  0.790769  1
  Se  Se19  1  0.070730  0.942035  0.277255  1
  Se  Se20  1  0.282153  0.079893  0.941022  1
  Se  Se21  1  0.934393  0.282220  0.065565  1
