# generated using pymatgen
data_Er8Ti7Si16Tc5
_symmetry_space_group_name_H-M   'P 1'
_cell_length_a   6.90633558
_cell_length_b   6.91547888
_cell_length_c   12.72521301
_cell_angle_alpha   89.81053527
_cell_angle_beta   89.91350149
_cell_angle_gamma   89.93875406
_symmetry_Int_Tables_number   1
_chemical_formula_structural   Er8Ti7Si16Tc5
_chemical_formula_sum   'Er8 Ti7 Si16 Tc5'
_cell_volume   607.75967597
_cell_formula_units_Z   1
loop_
 _symmetry_equiv_pos_site_id
 _symmetry_equiv_pos_as_xyz
  1  'x, y, z'
loop_
 _atom_site_type_symbol
 _atom_site_label
 _atom_site_symmetry_multiplicity
 _atom_site_fract_x
 _atom_site_fract_y
 _atom_site_fract_z
 _atom_site_occupancy
  Er  Er0  1  0.340378  0.000279  0.470015  1
  Er  Er1  1  0.498555  0.840451  0.719802  1
  Er  Er2  1  0.499581  0.159111  0.218739  1
  Er  Er3  1  0.839548  0.498497  0.279932  1
  Er  Er4  1  0.159630  0.499015  0.781973  1
  Er  Er5  1  0.658884  0.999697  0.968321  1
  Er  Er6  1  0.000652  0.340852  0.531231  1
  Er  Er7  1  0.997612  0.658259  0.029017  1
  Ti  Ti8  1  0.493794  0.657848  0.126860  1
  Ti  Ti9  1  0.501583  0.346146  0.628635  1
  Ti  Ti10  1  0.655918  0.496964  0.873397  1
  Ti  Ti11  1  0.346179  0.504796  0.373507  1
  Ti  Ti12  1  0.846206  0.996857  0.376595  1
  Ti  Ti13  1  0.003852  0.155562  0.125992  1
  Ti  Ti14  1  0.996067  0.846804  0.622843  1
  Si  Si15  1  0.196762  0.128011  0.687059  1
  Si  Si16  1  0.375239  0.702262  0.933742  1
  Si  Si17  1  0.628359  0.299716  0.434102  1
  Si  Si18  1  0.700443  0.371253  0.065837  1
  Si  Si19  1  0.299967  0.629519  0.566418  1
  Si  Si20  1  0.800176  0.870729  0.183262  1
  Si  Si21  1  0.129539  0.200669  0.317470  1
  Si  Si22  1  0.875104  0.805908  0.815982  1
  Si  Si23  1  0.290101  0.958753  0.062148  1
  Si  Si24  1  0.546993  0.791134  0.317581  1
  Si  Si25  1  0.446425  0.210411  0.819279  1
  Si  Si26  1  0.790650  0.548485  0.682881  1
  Si  Si27  1  0.209034  0.453667  0.182762  1
  Si  Si28  1  0.709197  0.046631  0.567248  1
  Si  Si29  1  0.961782  0.279835  0.931820  1
  Si  Si30  1  0.046260  0.709842  0.431791  1
  Tc  Tc31  1  0.328773  0.332156  0.001101  1
  Tc  Tc32  1  0.169858  0.830705  0.247440  1
  Tc  Tc33  1  0.825972  0.169993  0.748323  1
  Tc  Tc34  1  0.670192  0.669917  0.500470  1
  Tc  Tc35  1  0.160735  0.989264  0.876426  1
