# generated using pymatgen
data_Pr3Y2Pb3
_symmetry_space_group_name_H-M   'P 1'
_cell_length_a   9.28998100
_cell_length_b   9.28998078
_cell_length_c   6.79010700
_cell_angle_alpha   90.00000000
_cell_angle_beta   90.00000000
_cell_angle_gamma   120.00000436
_symmetry_Int_Tables_number   1
_chemical_formula_structural   Pr3Y2Pb3
_chemical_formula_sum   'Pr6 Y4 Pb6'
_cell_volume   507.50096428
_cell_formula_units_Z   2
loop_
 _symmetry_equiv_pos_site_id
 _symmetry_equiv_pos_as_xyz
  1  'x, y, z'
loop_
 _atom_site_type_symbol
 _atom_site_label
 _atom_site_symmetry_multiplicity
 _atom_site_fract_x
 _atom_site_fract_y
 _atom_site_fract_z
 _atom_site_occupancy
  Pr  Pr0  1  0.239788  0.000000  0.250000  1
  Pr  Pr1  1  0.239788  0.239788  0.750000  1
  Pr  Pr2  1  0.000000  0.760212  0.750000  1
  Pr  Pr3  1  0.000000  0.239788  0.250000  1
  Pr  Pr4  1  0.760212  0.760212  0.250000  1
  Pr  Pr5  1  0.760212  0.000000  0.750000  1
  Y  Y6  1  0.333333  0.666667  0.000000  1
  Y  Y7  1  0.666667  0.333333  0.500000  1
  Y  Y8  1  0.666667  0.333333  0.000000  1
  Y  Y9  1  0.333333  0.666667  0.500000  1
  Pb  Pb10  1  0.600883  0.000000  0.250000  1
  Pb  Pb11  1  0.600883  0.600883  0.750000  1
  Pb  Pb12  1  0.000000  0.399117  0.750000  1
  Pb  Pb13  1  0.000000  0.600883  0.250000  1
  Pb  Pb14  1  0.399117  0.399117  0.250000  1
  Pb  Pb15  1  0.399117  0.000000  0.750000  1
