# generated using pymatgen
data_Zr3Si4MoIr4
_symmetry_space_group_name_H-M   'P 1'
_cell_length_a   3.94193000
_cell_length_b   6.50765477
_cell_length_c   7.40169603
_cell_angle_alpha   89.64217002
_cell_angle_beta   90.00000000
_cell_angle_gamma   90.00000000
_symmetry_Int_Tables_number   1
_chemical_formula_structural   Zr3Si4MoIr4
_chemical_formula_sum   'Zr3 Si4 Mo1 Ir4'
_cell_volume   189.86992992
_cell_formula_units_Z   1
loop_
 _symmetry_equiv_pos_site_id
 _symmetry_equiv_pos_as_xyz
  1  'x, y, z'
loop_
 _atom_site_type_symbol
 _atom_site_label
 _atom_site_symmetry_multiplicity
 _atom_site_fract_x
 _atom_site_fract_y
 _atom_site_fract_z
 _atom_site_occupancy
  Zr  Zr0  1  0.250000  0.519945  0.185360  1
  Zr  Zr1  1  0.750000  0.979787  0.673941  1
  Zr  Zr2  1  0.750000  0.474193  0.818724  1
  Si  Si3  1  0.250000  0.269745  0.607629  1
  Si  Si4  1  0.250000  0.775735  0.880045  1
  Si  Si5  1  0.750000  0.740130  0.375722  1
  Si  Si6  1  0.750000  0.207186  0.134535  1
  Mo  Mo7  1  0.250000  0.022748  0.323621  1
  Ir  Ir8  1  0.250000  0.154051  0.942754  1
  Ir  Ir9  1  0.250000  0.651761  0.564577  1
  Ir  Ir10  1  0.750000  0.846588  0.060516  1
  Ir  Ir11  1  0.750000  0.358132  0.432576  1
