# generated using pymatgen
data_Li2Mn2(MoO4)3
_symmetry_space_group_name_H-M   'P 1'
_cell_length_a   9.48097600
_cell_length_b   9.66914100
_cell_length_c   13.21034800
_cell_angle_alpha   90.00000000
_cell_angle_beta   90.00000000
_cell_angle_gamma   90.00000000
_symmetry_Int_Tables_number   1
_chemical_formula_structural   Li2Mn2(MoO4)3
_chemical_formula_sum   'Li8 Mn8 Mo12 O48'
_cell_volume   1211.03082876
_cell_formula_units_Z   4
loop_
 _symmetry_equiv_pos_site_id
 _symmetry_equiv_pos_as_xyz
  1  'x, y, z'
loop_
 _atom_site_type_symbol
 _atom_site_label
 _atom_site_symmetry_multiplicity
 _atom_site_fract_x
 _atom_site_fract_y
 _atom_site_fract_z
 _atom_site_occupancy
  Li  Li0  1  0.232864  0.278646  0.810826  1
  Li  Li1  1  0.732864  0.221354  0.689174  1
  Li  Li2  1  0.267136  0.278646  0.189174  1
  Li  Li3  1  0.767136  0.221354  0.310826  1
  Li  Li4  1  0.767136  0.721354  0.189174  1
  Li  Li5  1  0.267136  0.778646  0.310826  1
  Li  Li6  1  0.732864  0.721354  0.810826  1
  Li  Li7  1  0.232864  0.778646  0.689174  1
  Mn  Mn8  1  0.035017  0.253506  0.621796  1
  Mn  Mn9  1  0.535017  0.246494  0.878204  1
  Mn  Mn10  1  0.464983  0.253506  0.378204  1
  Mn  Mn11  1  0.964983  0.246494  0.121796  1
  Mn  Mn12  1  0.964983  0.746494  0.378204  1
  Mn  Mn13  1  0.464983  0.753506  0.121796  1
  Mn  Mn14  1  0.535017  0.746494  0.621796  1
  Mn  Mn15  1  0.035017  0.753506  0.878204  1
  Mo  Mo16  1  0.397228  0.097214  0.643615  1
  Mo  Mo17  1  0.897228  0.402786  0.856385  1
  Mo  Mo18  1  0.102772  0.097214  0.356385  1
  Mo  Mo19  1  0.602772  0.402786  0.143615  1
  Mo  Mo20  1  0.602772  0.902786  0.356385  1
  Mo  Mo21  1  0.102772  0.597214  0.143615  1
  Mo  Mo22  1  0.897228  0.902786  0.643615  1
  Mo  Mo23  1  0.397228  0.597214  0.856385  1
  Mo  Mo24  1  0.250000  0.041598  0.000000  1
  Mo  Mo25  1  0.750000  0.458402  0.500000  1
  Mo  Mo26  1  0.750000  0.958402  0.000000  1
  Mo  Mo27  1  0.250000  0.541598  0.500000  1
  O  O28  1  0.233970  0.175978  0.682232  1
  O  O29  1  0.733970  0.324022  0.817768  1
  O  O30  1  0.266030  0.175978  0.317768  1
  O  O31  1  0.766030  0.324022  0.182232  1
  O  O32  1  0.766030  0.824022  0.317768  1
  O  O33  1  0.266030  0.675978  0.182232  1
  O  O34  1  0.733970  0.824022  0.682232  1
  O  O35  1  0.233970  0.675978  0.817768  1
  O  O36  1  0.428285  0.137609  0.514529  1
  O  O37  1  0.928285  0.362391  0.985471  1
  O  O38  1  0.071715  0.137609  0.485471  1
  O  O39  1  0.571715  0.362391  0.014529  1
  O  O40  1  0.571715  0.862391  0.485471  1
  O  O41  1  0.071715  0.637609  0.014529  1
  O  O42  1  0.928285  0.862391  0.514529  1
  O  O43  1  0.428285  0.637609  0.985471  1
  O  O44  1  0.123217  0.435410  0.560814  1
  O  O45  1  0.623217  0.064590  0.939186  1
  O  O46  1  0.376783  0.435410  0.439186  1
  O  O47  1  0.876783  0.064590  0.060814  1
  O  O48  1  0.876783  0.564590  0.439186  1
  O  O49  1  0.376783  0.935410  0.060814  1
  O  O50  1  0.623217  0.564590  0.560814  1
  O  O51  1  0.123217  0.935410  0.939186  1
  O  O52  1  0.538714  0.168497  0.718489  1
  O  O53  1  0.038714  0.331503  0.781511  1
  O  O54  1  0.961286  0.168497  0.281511  1
  O  O55  1  0.461286  0.331503  0.218489  1
  O  O56  1  0.461286  0.831503  0.281511  1
  O  O57  1  0.961286  0.668497  0.218489  1
  O  O58  1  0.038714  0.831503  0.718489  1
  O  O59  1  0.538714  0.668497  0.781511  1
  O  O60  1  0.330487  0.151718  0.904785  1
  O  O61  1  0.830487  0.348282  0.595215  1
  O  O62  1  0.169513  0.151718  0.095215  1
  O  O63  1  0.669513  0.348282  0.404785  1
  O  O64  1  0.669513  0.848282  0.095215  1
  O  O65  1  0.169513  0.651718  0.404785  1
  O  O66  1  0.830487  0.848282  0.904785  1
  O  O67  1  0.330487  0.651718  0.595215  1
  O  O68  1  0.387114  0.412480  0.835829  1
  O  O69  1  0.887114  0.087520  0.664171  1
  O  O70  1  0.112886  0.412480  0.164171  1
  O  O71  1  0.612886  0.087520  0.335829  1
  O  O72  1  0.612886  0.587520  0.164171  1
  O  O73  1  0.112886  0.912480  0.335829  1
  O  O74  1  0.887114  0.587520  0.835829  1
  O  O75  1  0.387114  0.912480  0.664171  1
