# generated using pymatgen
data_Sc5Nb3P12(IrRh7)2
_symmetry_space_group_name_H-M   'P 1'
_cell_length_a   12.69155078
_cell_length_b   12.69155122
_cell_length_c   3.87469700
_cell_angle_alpha   90.00000000
_cell_angle_beta   90.00000000
_cell_angle_gamma   120.04013008
_symmetry_Int_Tables_number   1
_chemical_formula_structural   Sc5Nb3P12(IrRh7)2
_chemical_formula_sum   'Sc5 Nb3 P12 Ir2 Rh14'
_cell_volume   540.28388705
_cell_formula_units_Z   1
loop_
 _symmetry_equiv_pos_site_id
 _symmetry_equiv_pos_as_xyz
  1  'x, y, z'
loop_
 _atom_site_type_symbol
 _atom_site_label
 _atom_site_symmetry_multiplicity
 _atom_site_fract_x
 _atom_site_fract_y
 _atom_site_fract_z
 _atom_site_occupancy
  Sc  Sc0  1  0.333220  0.666675  0.000000  1
  Sc  Sc1  1  0.666675  0.333220  0.000000  1
  Sc  Sc2  1  0.815214  0.999357  0.500000  1
  Sc  Sc3  1  0.999357  0.815214  0.500000  1
  Sc  Sc4  1  0.184628  0.184628  0.500000  1
  Nb  Nb5  1  0.450526  0.999996  0.000000  1
  Nb  Nb6  1  0.999996  0.450526  0.000000  1
  Nb  Nb7  1  0.549175  0.549175  0.000000  1
  P  P8  1  0.175275  0.999996  0.000000  1
  P  P9  1  0.999996  0.175275  0.000000  1
  P  P10  1  0.825430  0.825430  0.000000  1
  P  P11  1  0.167130  0.483956  0.500000  1
  P  P12  1  0.515784  0.683324  0.500000  1
  P  P13  1  0.316715  0.832880  0.500000  1
  P  P14  1  0.683324  0.515784  0.500000  1
  P  P15  1  0.832880  0.316715  0.500000  1
  P  P16  1  0.483956  0.167130  0.500000  1
  P  P17  1  0.644575  0.000264  0.000000  1
  P  P18  1  0.000264  0.644575  0.000000  1
  P  P19  1  0.355215  0.355215  0.000000  1
  Ir  Ir20  1  0.721943  0.721943  0.500000  1
  Ir  Ir21  1  0.000379  0.000379  0.000000  1
  Rh  Rh22  1  0.354231  0.489630  0.500000  1
  Rh  Rh23  1  0.510248  0.864606  0.500000  1
  Rh  Rh24  1  0.135250  0.645811  0.500000  1
  Rh  Rh25  1  0.864606  0.510248  0.500000  1
  Rh  Rh26  1  0.645811  0.135250  0.500000  1
  Rh  Rh27  1  0.489630  0.354231  0.500000  1
  Rh  Rh28  1  0.177681  0.371577  0.000000  1
  Rh  Rh29  1  0.628137  0.806691  0.000000  1
  Rh  Rh30  1  0.193911  0.822312  0.000000  1
  Rh  Rh31  1  0.806691  0.628137  0.000000  1
  Rh  Rh32  1  0.822312  0.193911  0.000000  1
  Rh  Rh33  1  0.371577  0.177681  0.000000  1
  Rh  Rh34  1  0.278259  0.000001  0.500000  1
  Rh  Rh35  1  0.000001  0.278259  0.500000  1
