# generated using pymatgen
data_La4Cu3Bi8
_symmetry_space_group_name_H-M   'P 1'
_cell_length_a   11.09313223
_cell_length_b   11.09313235
_cell_length_c   11.09313283
_cell_angle_alpha   145.81032717
_cell_angle_beta   145.81032568
_cell_angle_gamma   49.12857709
_symmetry_Int_Tables_number   1
_chemical_formula_structural   La4Cu3Bi8
_chemical_formula_sum   'La4 Cu3 Bi8'
_cell_volume   429.12361073
_cell_formula_units_Z   1
loop_
 _symmetry_equiv_pos_site_id
 _symmetry_equiv_pos_as_xyz
  1  'x, y, z'
loop_
 _atom_site_type_symbol
 _atom_site_label
 _atom_site_symmetry_multiplicity
 _atom_site_fract_x
 _atom_site_fract_y
 _atom_site_fract_z
 _atom_site_occupancy
  La  La0  1  0.638143  0.638143  0.505371  1
  La  La1  1  0.132771  0.132771  0.494629  1
  La  La2  1  0.361857  0.867229  0.000000  1
  La  La3  1  0.867229  0.361857  0.000000  1
  Cu  Cu4  1  0.000000  0.000000  0.000000  1
  Cu  Cu5  1  0.000000  0.500000  0.500000  1
  Cu  Cu6  1  0.500000  0.000000  0.500000  1
  Bi  Bi7  1  0.328122  0.328122  0.509007  1
  Bi  Bi8  1  0.819114  0.819114  0.490993  1
  Bi  Bi9  1  0.671878  0.180886  0.000000  1
  Bi  Bi10  1  0.180886  0.671878  0.000000  1
  Bi  Bi11  1  0.250152  0.250152  0.000000  1
  Bi  Bi12  1  0.749848  0.749848  0.000000  1
  Bi  Bi13  1  0.750000  0.250000  0.500000  1
  Bi  Bi14  1  0.250000  0.750000  0.500000  1
