# generated using pymatgen
data_CaGd4Ho3(B6Os)4
_symmetry_space_group_name_H-M   'P 1'
_cell_length_a   3.66406300
_cell_length_b   9.16893000
_cell_length_c   11.55510300
_cell_angle_alpha   90.00113888
_cell_angle_beta   90.00000000
_cell_angle_gamma   90.00000000
_symmetry_Int_Tables_number   1
_chemical_formula_structural   CaGd4Ho3(B6Os)4
_chemical_formula_sum   'Ca1 Gd4 Ho3 B24 Os4'
_cell_volume   388.19989222
_cell_formula_units_Z   1
loop_
 _symmetry_equiv_pos_site_id
 _symmetry_equiv_pos_as_xyz
  1  'x, y, z'
loop_
 _atom_site_type_symbol
 _atom_site_label
 _atom_site_symmetry_multiplicity
 _atom_site_fract_x
 _atom_site_fract_y
 _atom_site_fract_z
 _atom_site_occupancy
  Ca  Ca0  1  0.000000  0.944139  0.373010  1
  Gd  Gd1  1  0.000000  0.322387  0.412986  1
  Gd  Gd2  1  0.000000  0.677893  0.584591  1
  Gd  Gd3  1  0.000000  0.822996  0.087584  1
  Gd  Gd4  1  0.000000  0.177529  0.915167  1
  Ho  Ho5  1  0.000000  0.055901  0.626602  1
  Ho  Ho6  1  0.000000  0.443750  0.127744  1
  Ho  Ho7  1  0.000000  0.556341  0.872569  1
  B  B8  1  0.500000  0.554342  0.431967  1
  B  B9  1  0.500000  0.445473  0.567776  1
  B  B10  1  0.500000  0.054263  0.068202  1
  B  B11  1  0.500000  0.945713  0.932182  1
  B  B12  1  0.500000  0.748395  0.418753  1
  B  B13  1  0.500000  0.251270  0.580699  1
  B  B14  1  0.500000  0.248446  0.081010  1
  B  B15  1  0.500000  0.751495  0.919075  1
  B  B16  1  0.500000  0.791120  0.266805  1
  B  B17  1  0.500000  0.208965  0.733193  1
  B  B18  1  0.500000  0.290374  0.233249  1
  B  B19  1  0.500000  0.709251  0.766555  1
  B  B20  1  0.500000  0.631634  0.185935  1
  B  B21  1  0.500000  0.368513  0.814622  1
  B  B22  1  0.500000  0.131111  0.314442  1
  B  B23  1  0.500000  0.868229  0.684945  1
  B  B24  1  0.500000  0.983941  0.213347  1
  B  B25  1  0.500000  0.015966  0.786581  1
  B  B26  1  0.500000  0.483775  0.286985  1
  B  B27  1  0.500000  0.516020  0.713147  1
  B  B28  1  0.500000  0.606759  0.029403  1
  B  B29  1  0.500000  0.393472  0.970419  1
  B  B30  1  0.500000  0.106369  0.470924  1
  B  B31  1  0.500000  0.893831  0.529676  1
  Os  Os32  1  0.000000  0.637494  0.320554  1
  Os  Os33  1  0.000000  0.361833  0.679683  1
  Os  Os34  1  0.000000  0.139029  0.178557  1
  Os  Os35  1  0.000000  0.861984  0.821061  1
