# generated using pymatgen
data_Tm4Si10OsPt5
_symmetry_space_group_name_H-M   'P 1'
_cell_length_a   8.14053997
_cell_length_b   8.14054027
_cell_length_c   8.14053950
_cell_angle_alpha   137.58574229
_cell_angle_beta   103.37564758
_cell_angle_gamma   91.74079631
_symmetry_Int_Tables_number   1
_chemical_formula_structural   Tm4Si10OsPt5
_chemical_formula_sum   'Tm4 Si10 Os1 Pt5'
_cell_volume   336.94328039
_cell_formula_units_Z   1
loop_
 _symmetry_equiv_pos_site_id
 _symmetry_equiv_pos_as_xyz
  1  'x, y, z'
loop_
 _atom_site_type_symbol
 _atom_site_label
 _atom_site_symmetry_multiplicity
 _atom_site_fract_x
 _atom_site_fract_y
 _atom_site_fract_z
 _atom_site_occupancy
  Tm  Tm0  1  0.860386  0.631130  0.232149  1
  Tm  Tm1  1  0.139614  0.371763  0.770743  1
  Tm  Tm2  1  0.398981  0.128237  0.267851  1
  Tm  Tm3  1  0.601019  0.868870  0.729257  1
  Si  Si4  1  0.500000  0.750000  0.250000  1
  Si  Si5  1  0.500000  0.250000  0.750000  1
  Si  Si6  1  0.224615  0.974615  0.750000  1
  Si  Si7  1  0.775385  0.525385  0.750000  1
  Si  Si8  1  0.770681  0.020681  0.250000  1
  Si  Si9  1  0.229319  0.479319  0.250000  1
  Si  Si10  1  0.043651  0.885617  0.146967  1
  Si  Si11  1  0.956349  0.103316  0.841966  1
  Si  Si12  1  0.738649  0.396684  0.353033  1
  Si  Si13  1  0.261351  0.614383  0.658034  1
  Os  Os14  1  0.000000  0.750000  0.750000  1
  Pt  Pt15  1  0.000000  0.250000  0.250000  1
  Pt  Pt16  1  0.244525  0.863902  0.385571  1
  Pt  Pt17  1  0.755475  0.141045  0.619376  1
  Pt  Pt18  1  0.478331  0.358955  0.114429  1
  Pt  Pt19  1  0.521669  0.636098  0.880624  1
