# generated using pymatgen
data_Pr2Ho6Cd2IrPt
_symmetry_space_group_name_H-M   'P 1'
_cell_length_a   9.73774236
_cell_length_b   9.71974241
_cell_length_c   9.70506360
_cell_angle_alpha   60.17252485
_cell_angle_beta   59.98598595
_cell_angle_gamma   60.13597908
_symmetry_Int_Tables_number   1
_chemical_formula_structural   Pr2Ho6Cd2IrPt
_chemical_formula_sum   'Pr4 Ho12 Cd4 Ir2 Pt2'
_cell_volume   650.96665688
_cell_formula_units_Z   2
loop_
 _symmetry_equiv_pos_site_id
 _symmetry_equiv_pos_as_xyz
  1  'x, y, z'
loop_
 _atom_site_type_symbol
 _atom_site_label
 _atom_site_symmetry_multiplicity
 _atom_site_fract_x
 _atom_site_fract_y
 _atom_site_fract_z
 _atom_site_occupancy
  Pr  Pr0  1  0.565280  0.936422  0.563783  1
  Pr  Pr1  1  0.936426  0.565281  0.934503  1
  Pr  Pr2  1  0.564874  0.564871  0.935126  1
  Pr  Pr3  1  0.935917  0.935931  0.564078  1
  Ho  Ho4  1  0.352122  0.348069  0.343918  1
  Ho  Ho5  1  0.348062  0.352117  0.955897  1
  Ho  Ho6  1  0.353064  0.948457  0.351262  1
  Ho  Ho7  1  0.948457  0.353065  0.347212  1
  Ho  Ho8  1  0.808501  0.187363  0.187580  1
  Ho  Ho9  1  0.187363  0.808500  0.816554  1
  Ho  Ho10  1  0.188229  0.808176  0.189913  1
  Ho  Ho11  1  0.808180  0.188224  0.813681  1
  Ho  Ho12  1  0.189840  0.189835  0.810161  1
  Ho  Ho13  1  0.812187  0.812191  0.187810  1
  Ho  Ho14  1  0.946705  0.556252  0.551650  1
  Ho  Ho15  1  0.556252  0.946699  0.945394  1
  Cd  Cd16  1  0.583903  0.577872  0.578203  1
  Cd  Cd17  1  0.577866  0.583908  0.260022  1
  Cd  Cd18  1  0.577837  0.260385  0.583310  1
  Cd  Cd19  1  0.260380  0.577841  0.578468  1
  Ir  Ir20  1  0.138788  0.574212  0.147375  1
  Ir  Ir21  1  0.574211  0.138800  0.139634  1
  Pt  Pt22  1  0.145352  0.140179  0.141604  1
  Pt  Pt23  1  0.140201  0.145350  0.572858  1
