# generated using pymatgen
data_Pr3MgCd2Sn2Pd
_symmetry_space_group_name_H-M   'P 1'
_cell_length_a   7.61900193
_cell_length_b   7.61900199
_cell_length_c   4.69976100
_cell_angle_alpha   90.00000000
_cell_angle_beta   90.00000000
_cell_angle_gamma   120.31030413
_symmetry_Int_Tables_number   1
_chemical_formula_structural   Pr3MgCd2Sn2Pd
_chemical_formula_sum   'Pr3 Mg1 Cd2 Sn2 Pd1'
_cell_volume   235.52450527
_cell_formula_units_Z   1
loop_
 _symmetry_equiv_pos_site_id
 _symmetry_equiv_pos_as_xyz
  1  'x, y, z'
loop_
 _atom_site_type_symbol
 _atom_site_label
 _atom_site_symmetry_multiplicity
 _atom_site_fract_x
 _atom_site_fract_y
 _atom_site_fract_z
 _atom_site_occupancy
  Pr  Pr0  1  0.396789  0.396789  0.500000  1
  Pr  Pr1  1  0.001400  0.599229  0.500000  1
  Pr  Pr2  1  0.599229  0.001400  0.500000  1
  Mg  Mg3  1  0.775082  0.775082  0.000000  1
  Cd  Cd4  1  0.232063  0.999069  0.000000  1
  Cd  Cd5  1  0.999069  0.232063  0.000000  1
  Sn  Sn6  1  0.667109  0.337188  0.000000  1
  Sn  Sn7  1  0.337188  0.667109  0.000000  1
  Pd  Pd8  1  0.992071  0.992071  0.500000  1
