# generated using pymatgen
data_Co4Ni4RuS8
_symmetry_space_group_name_H-M   'P 1'
_cell_length_a   7.06420339
_cell_length_b   7.04655584
_cell_length_c   7.06420400
_cell_angle_alpha   59.91712628
_cell_angle_beta   60.00000653
_cell_angle_gamma   59.91712410
_symmetry_Int_Tables_number   1
_chemical_formula_structural   Co4Ni4RuS8
_chemical_formula_sum   'Co4 Ni4 Ru1 S8'
_cell_volume   248.33800709
_cell_formula_units_Z   1
loop_
 _symmetry_equiv_pos_site_id
 _symmetry_equiv_pos_as_xyz
  1  'x, y, z'
loop_
 _atom_site_type_symbol
 _atom_site_label
 _atom_site_symmetry_multiplicity
 _atom_site_fract_x
 _atom_site_fract_y
 _atom_site_fract_z
 _atom_site_occupancy
  Co  Co0  1  0.375717  0.874080  0.875100  1
  Co  Co1  1  0.875100  0.874080  0.875100  1
  Co  Co2  1  0.875100  0.874080  0.375717  1
  Co  Co3  1  0.124527  0.626422  0.124527  1
  Ni  Ni4  1  0.872159  0.383522  0.872159  1
  Ni  Ni5  1  0.126616  0.127515  0.619254  1
  Ni  Ni6  1  0.619254  0.127515  0.126616  1
  Ni  Ni7  1  0.126616  0.127515  0.126616  1
  Ru  Ru8  1  0.502389  0.492835  0.502389  1
  S  S9  1  0.745788  0.762636  0.745788  1
  S  S10  1  0.246892  0.259323  0.246892  1
  S  S11  1  0.264254  0.254227  0.740760  1
  S  S12  1  0.258745  0.735931  0.746578  1
  S  S13  1  0.740760  0.254227  0.264254  1
  S  S14  1  0.258745  0.735931  0.258745  1
  S  S15  1  0.740760  0.254227  0.740760  1
  S  S16  1  0.746578  0.735931  0.258745  1
