# generated using pymatgen
data_Zr10Sn4Ge2BiSb
_symmetry_space_group_name_H-M   'P 1'
_cell_length_a   8.74702225
_cell_length_b   8.74174817
_cell_length_c   5.92524400
_cell_angle_alpha   90.00000000
_cell_angle_beta   90.00000000
_cell_angle_gamma   119.99100874
_symmetry_Int_Tables_number   1
_chemical_formula_structural   Zr10Sn4Ge2BiSb
_chemical_formula_sum   'Zr10 Sn4 Ge2 Bi1 Sb1'
_cell_volume   392.40518213
_cell_formula_units_Z   1
loop_
 _symmetry_equiv_pos_site_id
 _symmetry_equiv_pos_as_xyz
  1  'x, y, z'
loop_
 _atom_site_type_symbol
 _atom_site_label
 _atom_site_symmetry_multiplicity
 _atom_site_fract_x
 _atom_site_fract_y
 _atom_site_fract_z
 _atom_site_occupancy
  Zr  Zr0  1  0.669840  0.335943  0.997941  1
  Zr  Zr1  1  0.331716  0.663568  0.997992  1
  Zr  Zr2  1  0.331716  0.663568  0.502008  1
  Zr  Zr3  1  0.669840  0.335943  0.502059  1
  Zr  Zr4  1  0.735890  0.735598  0.750000  1
  Zr  Zr5  1  0.263453  0.000266  0.750000  1
  Zr  Zr6  1  0.000575  0.264989  0.750000  1
  Zr  Zr7  1  0.258977  0.264514  0.250000  1
  Zr  Zr8  1  0.741573  0.000267  0.250000  1
  Zr  Zr9  1  0.994620  0.734523  0.250000  1
  Sn  Sn10  1  0.393891  0.392424  0.750000  1
  Sn  Sn11  1  0.608183  0.999283  0.750000  1
  Sn  Sn12  1  0.000789  0.609506  0.750000  1
  Sn  Sn13  1  0.604464  0.605026  0.250000  1
  Ge  Ge14  1  0.000291  0.999457  0.997653  1
  Ge  Ge15  1  0.000291  0.999457  0.502347  1
  Bi  Bi16  1  0.394352  0.000026  0.250000  1
  Sb  Sb17  1  0.999539  0.395642  0.250000  1
