# generated using pymatgen
data_SrAc(CuSn2)2
_symmetry_space_group_name_H-M   'P 1'
_cell_length_a   9.86963014
_cell_length_b   9.86962915
_cell_length_c   4.65128100
_cell_angle_alpha   90.00000000
_cell_angle_beta   90.00000000
_cell_angle_gamma   152.38773714
_symmetry_Int_Tables_number   1
_chemical_formula_structural   SrAc(CuSn2)2
_chemical_formula_sum   'Sr1 Ac1 Cu2 Sn4'
_cell_volume   209.99580824
_cell_formula_units_Z   1
loop_
 _symmetry_equiv_pos_site_id
 _symmetry_equiv_pos_as_xyz
  1  'x, y, z'
loop_
 _atom_site_type_symbol
 _atom_site_label
 _atom_site_symmetry_multiplicity
 _atom_site_fract_x
 _atom_site_fract_y
 _atom_site_fract_z
 _atom_site_occupancy
  Sr  Sr0  1  0.107644  0.892356  0.250000  1
  Ac  Ac1  1  0.891770  0.108230  0.750000  1
  Cu  Cu2  1  0.678440  0.321560  0.750000  1
  Cu  Cu3  1  0.322569  0.677431  0.250000  1
  Sn  Sn4  1  0.250072  0.749928  0.750000  1
  Sn  Sn5  1  0.748967  0.251033  0.250000  1
  Sn  Sn6  1  0.543901  0.456099  0.750000  1
  Sn  Sn7  1  0.456638  0.543362  0.250000  1
