# generated using pymatgen
data_Tm5Si9P3Rh19
_symmetry_space_group_name_H-M   'P 1'
_cell_length_a   12.76875800
_cell_length_b   12.76875817
_cell_length_c   3.90094100
_cell_angle_alpha   90.00000000
_cell_angle_beta   90.00000000
_cell_angle_gamma   119.99999956
_symmetry_Int_Tables_number   1
_chemical_formula_structural   Tm5Si9P3Rh19
_chemical_formula_sum   'Tm5 Si9 P3 Rh19'
_cell_volume   550.80431447
_cell_formula_units_Z   1
loop_
 _symmetry_equiv_pos_site_id
 _symmetry_equiv_pos_as_xyz
  1  'x, y, z'
loop_
 _atom_site_type_symbol
 _atom_site_label
 _atom_site_symmetry_multiplicity
 _atom_site_fract_x
 _atom_site_fract_y
 _atom_site_fract_z
 _atom_site_occupancy
  Tm  Tm0  1  0.666667  0.333333  0.000000  1
  Tm  Tm1  1  0.333333  0.666667  0.000000  1
  Tm  Tm2  1  0.186087  0.186087  0.500000  1
  Tm  Tm3  1  0.813913  0.000000  0.500000  1
  Tm  Tm4  1  0.000000  0.813913  0.500000  1
  Si  Si5  1  0.368446  0.368446  0.000000  1
  Si  Si6  1  0.631554  0.000000  0.000000  1
  Si  Si7  1  0.000000  0.631554  0.000000  1
  Si  Si8  1  0.836884  0.316489  0.500000  1
  Si  Si9  1  0.683511  0.520395  0.500000  1
  Si  Si10  1  0.479605  0.163116  0.500000  1
  Si  Si11  1  0.316489  0.836884  0.500000  1
  Si  Si12  1  0.520395  0.683511  0.500000  1
  Si  Si13  1  0.163116  0.479605  0.500000  1
  P  P14  1  0.821314  0.821314  0.000000  1
  P  P15  1  0.178686  0.000000  0.000000  1
  P  P16  1  0.000000  0.178686  0.000000  1
  Rh  Rh17  1  0.821158  0.192493  0.000000  1
  Rh  Rh18  1  0.807507  0.628663  0.000000  1
  Rh  Rh19  1  0.371337  0.178842  0.000000  1
  Rh  Rh20  1  0.192493  0.821158  0.000000  1
  Rh  Rh21  1  0.628663  0.807507  0.000000  1
  Rh  Rh22  1  0.178842  0.371337  0.000000  1
  Rh  Rh23  1  0.553731  0.553731  0.000000  1
  Rh  Rh24  1  0.446269  0.000000  0.000000  1
  Rh  Rh25  1  0.000000  0.446269  0.000000  1
  Rh  Rh26  1  0.642718  0.127678  0.500000  1
  Rh  Rh27  1  0.872322  0.515041  0.500000  1
  Rh  Rh28  1  0.484959  0.357282  0.500000  1
  Rh  Rh29  1  0.127678  0.642718  0.500000  1
  Rh  Rh30  1  0.515041  0.872322  0.500000  1
  Rh  Rh31  1  0.357282  0.484959  0.500000  1
  Rh  Rh32  1  0.725287  0.725287  0.500000  1
  Rh  Rh33  1  0.274713  0.000000  0.500000  1
  Rh  Rh34  1  0.000000  0.274713  0.500000  1
  Rh  Rh35  1  0.000000  0.000000  0.000000  1
