# generated using pymatgen
data_Cd2Ni3P7Ru9
_symmetry_space_group_name_H-M   'P 1'
_cell_length_a   9.47897600
_cell_length_b   9.47897512
_cell_length_c   3.66826500
_cell_angle_alpha   90.00000000
_cell_angle_beta   90.00000000
_cell_angle_gamma   119.99999703
_symmetry_Int_Tables_number   1
_chemical_formula_structural   Cd2Ni3P7Ru9
_chemical_formula_sum   'Cd2 Ni3 P7 Ru9'
_cell_volume   285.43955376
_cell_formula_units_Z   1
loop_
 _symmetry_equiv_pos_site_id
 _symmetry_equiv_pos_as_xyz
  1  'x, y, z'
loop_
 _atom_site_type_symbol
 _atom_site_label
 _atom_site_symmetry_multiplicity
 _atom_site_fract_x
 _atom_site_fract_y
 _atom_site_fract_z
 _atom_site_occupancy
  Cd  Cd0  1  0.666667  0.333333  0.500000  1
  Cd  Cd1  1  0.333333  0.666667  0.000000  1
  Ni  Ni2  1  0.726472  0.875875  0.000000  1
  Ni  Ni3  1  0.124125  0.850595  0.000000  1
  Ni  Ni4  1  0.149405  0.273528  0.000000  1
  P  P5  1  0.605820  0.706118  0.500000  1
  P  P6  1  0.000000  0.000000  0.000000  1
  P  P7  1  0.293882  0.899701  0.500000  1
  P  P8  1  0.100299  0.394180  0.500000  1
  P  P9  1  0.902732  0.603172  0.000000  1
  P  P10  1  0.396828  0.299560  0.000000  1
  P  P11  1  0.700440  0.097268  0.000000  1
  Ru  Ru12  1  0.553798  0.928096  0.500000  1
  Ru  Ru13  1  0.374300  0.446202  0.500000  1
  Ru  Ru14  1  0.909177  0.113371  0.500000  1
  Ru  Ru15  1  0.204194  0.090823  0.500000  1
  Ru  Ru16  1  0.886629  0.795806  0.500000  1
  Ru  Ru17  1  0.442381  0.080148  0.000000  1
  Ru  Ru18  1  0.919852  0.362234  0.000000  1
  Ru  Ru19  1  0.637766  0.557619  0.000000  1
  Ru  Ru20  1  0.071904  0.625700  0.500000  1
