# generated using pymatgen
data_Ba4MgRuO8
_symmetry_space_group_name_H-M   'P 1'
_cell_length_a   7.33510239
_cell_length_b   7.33510187
_cell_length_c   5.79443000
_cell_angle_alpha   90.00000000
_cell_angle_beta   90.00000000
_cell_angle_gamma   133.65903526
_symmetry_Int_Tables_number   1
_chemical_formula_structural   Ba4MgRuO8
_chemical_formula_sum   'Ba4 Mg1 Ru1 O8'
_cell_volume   225.54755724
_cell_formula_units_Z   1
loop_
 _symmetry_equiv_pos_site_id
 _symmetry_equiv_pos_as_xyz
  1  'x, y, z'
loop_
 _atom_site_type_symbol
 _atom_site_label
 _atom_site_symmetry_multiplicity
 _atom_site_fract_x
 _atom_site_fract_y
 _atom_site_fract_z
 _atom_site_occupancy
  Ba  Ba0  1  0.645982  0.354018  0.000000  1
  Ba  Ba1  1  0.144311  0.855689  0.500000  1
  Ba  Ba2  1  0.855689  0.144311  0.500000  1
  Ba  Ba3  1  0.354018  0.645982  0.000000  1
  Mg  Mg4  1  0.000000  0.000000  0.000000  1
  Ru  Ru5  1  0.500000  0.500000  0.500000  1
  O  O6  1  0.738896  0.738896  0.264242  1
  O  O7  1  0.261104  0.261104  0.735758  1
  O  O8  1  0.261104  0.261104  0.264242  1
  O  O9  1  0.738896  0.738896  0.735758  1
  O  O10  1  0.842201  0.157799  0.000000  1
  O  O11  1  0.349572  0.650428  0.500000  1
  O  O12  1  0.650428  0.349572  0.500000  1
  O  O13  1  0.157799  0.842201  0.000000  1
