# generated using pymatgen
data_Eu2BIO3
_symmetry_space_group_name_H-M   'P 1'
_cell_length_a   9.46398800
_cell_length_b   4.43255557
_cell_length_c   12.98692722
_cell_angle_alpha   79.45832542
_cell_angle_beta   90.00000000
_cell_angle_gamma   90.00000000
_symmetry_Int_Tables_number   1
_chemical_formula_structural   Eu2BIO3
_chemical_formula_sum   'Eu8 B4 I4 O12'
_cell_volume   535.60205385
_cell_formula_units_Z   4
loop_
 _symmetry_equiv_pos_site_id
 _symmetry_equiv_pos_as_xyz
  1  'x, y, z'
loop_
 _atom_site_type_symbol
 _atom_site_label
 _atom_site_symmetry_multiplicity
 _atom_site_fract_x
 _atom_site_fract_y
 _atom_site_fract_z
 _atom_site_occupancy
  Eu  Eu0  1  0.606771  0.678781  0.881604  1
  Eu  Eu1  1  0.393229  0.321219  0.118396  1
  Eu  Eu2  1  0.138195  0.704661  0.854902  1
  Eu  Eu3  1  0.893229  0.678781  0.381604  1
  Eu  Eu4  1  0.638195  0.295339  0.645098  1
  Eu  Eu5  1  0.361805  0.704661  0.354902  1
  Eu  Eu6  1  0.861805  0.295339  0.145098  1
  Eu  Eu7  1  0.106771  0.321219  0.618396  1
  B  B8  1  0.629752  0.720624  0.155043  1
  B  B9  1  0.870248  0.720624  0.655043  1
  B  B10  1  0.370248  0.279376  0.844957  1
  B  B11  1  0.129752  0.279376  0.344957  1
  I  I12  1  0.870382  0.190308  0.898401  1
  I  I13  1  0.129618  0.809692  0.101599  1
  I  I14  1  0.370382  0.809692  0.601599  1
  I  I15  1  0.629618  0.190308  0.398401  1
  O  O16  1  0.496285  0.805118  0.185871  1
  O  O17  1  0.996285  0.194882  0.314129  1
  O  O18  1  0.758269  0.783929  0.199019  1
  O  O19  1  0.633139  0.539684  0.076174  1
  O  O20  1  0.003715  0.805118  0.685871  1
  O  O21  1  0.741731  0.783929  0.699019  1
  O  O22  1  0.503715  0.194882  0.814129  1
  O  O23  1  0.258269  0.216071  0.300981  1
  O  O24  1  0.366861  0.460316  0.923826  1
  O  O25  1  0.133139  0.460316  0.423826  1
  O  O26  1  0.866861  0.539684  0.576174  1
  O  O27  1  0.241731  0.216071  0.800981  1
