# generated using pymatgen
data_LaMo2O7F
_symmetry_space_group_name_H-M   'P 1'
_cell_length_a   6.93540300
_cell_length_b   4.62349836
_cell_length_c   11.64207909
_cell_angle_alpha   89.44984652
_cell_angle_beta   90.00000000
_cell_angle_gamma   90.00000000
_symmetry_Int_Tables_number   1
_chemical_formula_structural   LaMo2O7F
_chemical_formula_sum   'La2 Mo4 O14 F2'
_cell_volume   373.29565442
_cell_formula_units_Z   2
loop_
 _symmetry_equiv_pos_site_id
 _symmetry_equiv_pos_as_xyz
  1  'x, y, z'
loop_
 _atom_site_type_symbol
 _atom_site_label
 _atom_site_symmetry_multiplicity
 _atom_site_fract_x
 _atom_site_fract_y
 _atom_site_fract_z
 _atom_site_occupancy
  La  La0  1  0.811950  0.000000  0.750000  1
  La  La1  1  0.188050  0.000000  0.250000  1
  Mo  Mo2  1  0.342345  0.898375  0.595421  1
  Mo  Mo3  1  0.342345  0.101625  0.904579  1
  Mo  Mo4  1  0.657655  0.101625  0.404579  1
  Mo  Mo5  1  0.657655  0.898375  0.095421  1
  O  O6  1  0.347374  0.525310  0.598056  1
  O  O7  1  0.347374  0.474690  0.901944  1
  O  O8  1  0.652626  0.474690  0.401944  1
  O  O9  1  0.652626  0.525310  0.098056  1
  O  O10  1  0.097955  0.985979  0.623372  1
  O  O11  1  0.097955  0.014021  0.876628  1
  O  O12  1  0.902045  0.014021  0.376628  1
  O  O13  1  0.902045  0.985979  0.123372  1
  O  O14  1  0.642250  0.001780  0.564400  1
  O  O15  1  0.642250  0.998220  0.935600  1
  O  O16  1  0.357750  0.998220  0.435600  1
  O  O17  1  0.357750  0.001780  0.064400  1
  O  O18  1  0.439046  0.000000  0.750000  1
  O  O19  1  0.560954  0.000000  0.250000  1
  F  F20  1  0.804936  0.500000  0.750000  1
  F  F21  1  0.195064  0.500000  0.250000  1
