# generated using pymatgen
data_HoHf(Si3Ni)2
_symmetry_space_group_name_H-M   'P 1'
_cell_length_a   10.46181210
_cell_length_b   10.46181140
_cell_length_c   3.83412200
_cell_angle_alpha   90.00000000
_cell_angle_beta   90.00000000
_cell_angle_gamma   158.36829316
_symmetry_Int_Tables_number   1
_chemical_formula_structural   HoHf(Si3Ni)2
_chemical_formula_sum   'Ho1 Hf1 Si6 Ni2'
_cell_volume   154.69669583
_cell_formula_units_Z   1
loop_
 _symmetry_equiv_pos_site_id
 _symmetry_equiv_pos_as_xyz
  1  'x, y, z'
loop_
 _atom_site_type_symbol
 _atom_site_label
 _atom_site_symmetry_multiplicity
 _atom_site_fract_x
 _atom_site_fract_y
 _atom_site_fract_z
 _atom_site_occupancy
  Ho  Ho0  1  0.671406  0.328594  0.500000  1
  Hf  Hf1  1  0.330873  0.669127  0.500000  1
  Si  Si2  1  0.441424  0.558576  0.000000  1
  Si  Si3  1  0.555836  0.444164  0.000000  1
  Si  Si4  1  0.222100  0.777900  0.000000  1
  Si  Si5  1  0.781562  0.218438  0.000000  1
  Si  Si6  1  0.941968  0.058032  0.500000  1
  Si  Si7  1  0.055563  0.944437  0.500000  1
  Ni  Ni8  1  0.112379  0.887621  0.000000  1
  Ni  Ni9  1  0.886889  0.113111  0.000000  1
