# generated using pymatgen
data_TmPa3Ge6Os7
_symmetry_space_group_name_H-M   'P 1'
_cell_length_a   7.26360281
_cell_length_b   7.26360358
_cell_length_c   7.26360321
_cell_angle_alpha   109.48513655
_cell_angle_beta   109.48513642
_cell_angle_gamma   109.48512690
_symmetry_Int_Tables_number   1
_chemical_formula_structural   TmPa3Ge6Os7
_chemical_formula_sum   'Tm1 Pa3 Ge6 Os7'
_cell_volume   294.85638403
_cell_formula_units_Z   1
loop_
 _symmetry_equiv_pos_site_id
 _symmetry_equiv_pos_as_xyz
  1  'x, y, z'
loop_
 _atom_site_type_symbol
 _atom_site_label
 _atom_site_symmetry_multiplicity
 _atom_site_fract_x
 _atom_site_fract_y
 _atom_site_fract_z
 _atom_site_occupancy
  Tm  Tm0  1  0.500000  0.500000  0.500000  1
  Pa  Pa1  1  0.000000  0.000000  0.500000  1
  Pa  Pa2  1  0.000000  0.500000  0.000000  1
  Pa  Pa3  1  0.500000  0.000000  0.000000  1
  Ge  Ge4  1  0.686029  0.686029  0.995555  1
  Ge  Ge5  1  0.313971  0.004445  0.313971  1
  Ge  Ge6  1  0.004445  0.313971  0.313971  1
  Ge  Ge7  1  0.313971  0.313971  0.004445  1
  Ge  Ge8  1  0.686029  0.995555  0.686029  1
  Ge  Ge9  1  0.995555  0.686029  0.686029  1
  Os  Os10  1  0.751554  0.248446  0.500000  1
  Os  Os11  1  0.751554  0.500000  0.248446  1
  Os  Os12  1  0.500000  0.248446  0.751554  1
  Os  Os13  1  0.248446  0.500000  0.751554  1
  Os  Os14  1  0.248446  0.751554  0.500000  1
  Os  Os15  1  0.500000  0.751554  0.248446  1
  Os  Os16  1  0.000000  0.000000  0.000000  1
