# generated using pymatgen
data_HoLu3(Zr3Si4)2
_symmetry_space_group_name_H-M   'P 1'
_cell_length_a   7.33330097
_cell_length_b   7.11939042
_cell_length_c   7.31201400
_cell_angle_alpha   71.93958467
_cell_angle_beta   89.88814766
_cell_angle_gamma   90.24792405
_symmetry_Int_Tables_number   1
_chemical_formula_structural   HoLu3(Zr3Si4)2
_chemical_formula_sum   'Ho1 Lu3 Zr6 Si8'
_cell_volume   362.93589786
_cell_formula_units_Z   1
loop_
 _symmetry_equiv_pos_site_id
 _symmetry_equiv_pos_as_xyz
  1  'x, y, z'
loop_
 _atom_site_type_symbol
 _atom_site_label
 _atom_site_symmetry_multiplicity
 _atom_site_fract_x
 _atom_site_fract_y
 _atom_site_fract_z
 _atom_site_occupancy
  Ho  Ho0  1  0.827523  0.425487  0.691038  1
  Lu  Lu1  1  0.673133  0.924687  0.693729  1
  Lu  Lu2  1  0.326703  0.074754  0.306909  1
  Lu  Lu3  1  0.173542  0.575638  0.306058  1
  Zr  Zr4  1  0.681679  0.750607  0.248217  1
  Zr  Zr5  1  0.317991  0.250398  0.750968  1
  Zr  Zr6  1  0.182404  0.750613  0.751755  1
  Zr  Zr7  1  0.817829  0.249080  0.250240  1
  Zr  Zr8  1  0.000643  0.999694  0.000381  1
  Zr  Zr9  1  0.500383  0.500273  0.999927  1
  Si  Si10  1  0.970511  0.868738  0.419233  1
  Si  Si11  1  0.029849  0.127541  0.581795  1
  Si  Si12  1  0.469486  0.631349  0.580362  1
  Si  Si13  1  0.527789  0.371184  0.416866  1
  Si  Si14  1  0.877233  0.627654  0.990450  1
  Si  Si15  1  0.123627  0.372142  0.011239  1
  Si  Si16  1  0.377008  0.872626  0.010392  1
  Si  Si17  1  0.622670  0.127533  0.990441  1
