# generated using pymatgen
data_PrNd7Cd2IrOs
_symmetry_space_group_name_H-M   'P 1'
_cell_length_a   9.96294940
_cell_length_b   9.96294994
_cell_length_c   10.01132400
_cell_angle_alpha   59.83926108
_cell_angle_beta   59.83925926
_cell_angle_gamma   59.69967726
_symmetry_Int_Tables_number   1
_chemical_formula_structural   PrNd7Cd2IrOs
_chemical_formula_sum   'Pr2 Nd14 Cd4 Ir2 Os2'
_cell_volume   699.36247972
_cell_formula_units_Z   2
loop_
 _symmetry_equiv_pos_site_id
 _symmetry_equiv_pos_as_xyz
  1  'x, y, z'
loop_
 _atom_site_type_symbol
 _atom_site_label
 _atom_site_symmetry_multiplicity
 _atom_site_fract_x
 _atom_site_fract_y
 _atom_site_fract_z
 _atom_site_occupancy
  Pr  Pr0  1  0.561468  0.561468  0.938532  1
  Pr  Pr1  1  0.940729  0.940729  0.559271  1
  Nd  Nd2  1  0.346396  0.346396  0.348444  1
  Nd  Nd3  1  0.346396  0.346396  0.958763  1
  Nd  Nd4  1  0.345630  0.959989  0.347191  1
  Nd  Nd5  1  0.959989  0.345630  0.347191  1
  Nd  Nd6  1  0.810459  0.190738  0.190868  1
  Nd  Nd7  1  0.190738  0.810459  0.807935  1
  Nd  Nd8  1  0.190738  0.810459  0.190868  1
  Nd  Nd9  1  0.810459  0.190738  0.807935  1
  Nd  Nd10  1  0.190877  0.190877  0.809123  1
  Nd  Nd11  1  0.808926  0.808926  0.191074  1
  Nd  Nd12  1  0.939513  0.558562  0.561753  1
  Nd  Nd13  1  0.558562  0.939513  0.940171  1
  Nd  Nd14  1  0.558562  0.939513  0.561753  1
  Nd  Nd15  1  0.939513  0.558562  0.940171  1
  Cd  Cd16  1  0.579406  0.579406  0.579722  1
  Cd  Cd17  1  0.579406  0.579406  0.261466  1
  Cd  Cd18  1  0.579075  0.260831  0.580047  1
  Cd  Cd19  1  0.260831  0.579075  0.580047  1
  Ir  Ir20  1  0.141777  0.579354  0.139435  1
  Ir  Ir21  1  0.579354  0.141777  0.139435  1
  Os  Os22  1  0.140599  0.140599  0.137323  1
  Os  Os23  1  0.140599  0.140599  0.581479  1
