# generated using pymatgen
data_Nd16Ag4Ir3Pt
_symmetry_space_group_name_H-M   'P 1'
_cell_length_a   9.86328381
_cell_length_b   9.86328365
_cell_length_c   9.86328418
_cell_angle_alpha   60.62388673
_cell_angle_beta   60.62388525
_cell_angle_gamma   60.62388766
_symmetry_Int_Tables_number   1
_chemical_formula_structural   Nd16Ag4Ir3Pt
_chemical_formula_sum   'Nd16 Ag4 Ir3 Pt1'
_cell_volume   688.05852180
_cell_formula_units_Z   1
loop_
 _symmetry_equiv_pos_site_id
 _symmetry_equiv_pos_as_xyz
  1  'x, y, z'
loop_
 _atom_site_type_symbol
 _atom_site_label
 _atom_site_symmetry_multiplicity
 _atom_site_fract_x
 _atom_site_fract_y
 _atom_site_fract_z
 _atom_site_occupancy
  Nd  Nd0  1  0.348874  0.348874  0.348874  1
  Nd  Nd1  1  0.354288  0.354288  0.940603  1
  Nd  Nd2  1  0.354288  0.940603  0.354288  1
  Nd  Nd3  1  0.940603  0.354288  0.354288  1
  Nd  Nd4  1  0.806729  0.189937  0.189937  1
  Nd  Nd5  1  0.187989  0.810501  0.810501  1
  Nd  Nd6  1  0.189937  0.806729  0.189937  1
  Nd  Nd7  1  0.810501  0.187989  0.810501  1
  Nd  Nd8  1  0.189937  0.189937  0.806729  1
  Nd  Nd9  1  0.810501  0.810501  0.187989  1
  Nd  Nd10  1  0.939819  0.562526  0.562526  1
  Nd  Nd11  1  0.564176  0.938052  0.938052  1
  Nd  Nd12  1  0.562526  0.939819  0.562526  1
  Nd  Nd13  1  0.938052  0.564176  0.938052  1
  Nd  Nd14  1  0.562526  0.562526  0.939819  1
  Nd  Nd15  1  0.938052  0.938052  0.564176  1
  Ag  Ag16  1  0.582470  0.582470  0.582470  1
  Ag  Ag17  1  0.581503  0.581503  0.256468  1
  Ag  Ag18  1  0.581503  0.256468  0.581503  1
  Ag  Ag19  1  0.256468  0.581503  0.581503  1
  Ir  Ir20  1  0.141923  0.141923  0.572181  1
  Ir  Ir21  1  0.141923  0.572181  0.141923  1
  Ir  Ir22  1  0.572181  0.141923  0.141923  1
  Pt  Pt23  1  0.143230  0.143230  0.143230  1
