# generated using pymatgen
data_Pr5Y(TiRh2)6
_symmetry_space_group_name_H-M   'P 1'
_cell_length_a   5.73054300
_cell_length_b   5.73054154
_cell_length_c   15.92094900
_cell_angle_alpha   90.00000000
_cell_angle_beta   90.00000000
_cell_angle_gamma   119.99999109
_symmetry_Int_Tables_number   1
_chemical_formula_structural   Pr5Y(TiRh2)6
_chemical_formula_sum   'Pr5 Y1 Ti6 Rh12'
_cell_volume   452.78399065
_cell_formula_units_Z   1
loop_
 _symmetry_equiv_pos_site_id
 _symmetry_equiv_pos_as_xyz
  1  'x, y, z'
loop_
 _atom_site_type_symbol
 _atom_site_label
 _atom_site_symmetry_multiplicity
 _atom_site_fract_x
 _atom_site_fract_y
 _atom_site_fract_z
 _atom_site_occupancy
  Pr  Pr0  1  0.666667  0.333333  0.960324  1
  Pr  Pr1  1  0.666667  0.333333  0.541609  1
  Pr  Pr2  1  0.333333  0.666667  0.038826  1
  Pr  Pr3  1  0.666667  0.333333  0.750923  1
  Pr  Pr4  1  0.333333  0.666667  0.248782  1
  Y  Y5  1  0.333333  0.666667  0.460177  1
  Ti  Ti6  1  0.666667  0.333333  0.251128  1
  Ti  Ti7  1  0.000000  0.000000  0.499305  1
  Ti  Ti8  1  0.000000  0.000000  0.252454  1
  Ti  Ti9  1  0.000000  0.000000  0.748004  1
  Ti  Ti10  1  0.333333  0.666667  0.748844  1
  Ti  Ti11  1  0.000000  0.000000  0.000462  1
  Rh  Rh12  1  0.166793  0.333586  0.871230  1
  Rh  Rh13  1  0.168247  0.336495  0.625578  1
  Rh  Rh14  1  0.666414  0.833207  0.871230  1
  Rh  Rh15  1  0.335757  0.167878  0.374101  1
  Rh  Rh16  1  0.832122  0.664243  0.374101  1
  Rh  Rh17  1  0.832122  0.167878  0.374101  1
  Rh  Rh18  1  0.833060  0.166940  0.128812  1
  Rh  Rh19  1  0.333881  0.166940  0.128812  1
  Rh  Rh20  1  0.663505  0.831753  0.625578  1
  Rh  Rh21  1  0.168247  0.831753  0.625578  1
  Rh  Rh22  1  0.833060  0.666119  0.128812  1
  Rh  Rh23  1  0.166793  0.833207  0.871230  1
