# generated using pymatgen
data_Y4Ho3TmC10
_symmetry_space_group_name_H-M   'P 1'
_cell_length_a   3.66143400
_cell_length_b   6.56752626
_cell_length_c   11.90952006
_cell_angle_alpha   89.84382492
_cell_angle_beta   90.00000000
_cell_angle_gamma   90.00000000
_symmetry_Int_Tables_number   1
_chemical_formula_structural   Y4Ho3TmC10
_chemical_formula_sum   'Y4 Ho3 Tm1 C10'
_cell_volume   286.38197168
_cell_formula_units_Z   1
loop_
 _symmetry_equiv_pos_site_id
 _symmetry_equiv_pos_as_xyz
  1  'x, y, z'
loop_
 _atom_site_type_symbol
 _atom_site_label
 _atom_site_symmetry_multiplicity
 _atom_site_fract_x
 _atom_site_fract_y
 _atom_site_fract_z
 _atom_site_occupancy
  Y  Y0  1  0.000000  0.751818  0.456611  1
  Y  Y1  1  0.000000  0.748056  0.955169  1
  Y  Y2  1  0.000000  0.237618  0.042230  1
  Y  Y3  1  0.500000  0.391216  0.304428  1
  Ho  Ho4  1  0.500000  0.107804  0.803527  1
  Ho  Ho5  1  0.500000  0.893866  0.195807  1
  Ho  Ho6  1  0.500000  0.604991  0.696868  1
  Tm  Tm7  1  0.000000  0.265525  0.542383  1
  C  C8  1  0.500000  0.508944  0.502781  1
  C  C9  1  0.500000  0.987683  0.000424  1
  C  C10  1  0.000000  0.363522  0.733552  1
  C  C11  1  0.000000  0.645886  0.261521  1
  C  C12  1  0.000000  0.857217  0.760163  1
  C  C13  1  0.000000  0.132957  0.237622  1
  C  C14  1  0.000000  0.384633  0.845251  1
  C  C15  1  0.000000  0.575567  0.156842  1
  C  C16  1  0.000000  0.114436  0.349503  1
  C  C17  1  0.000000  0.928260  0.655319  1
