# generated using pymatgen
data_Dy4Al18ReRh3Au2
_symmetry_space_group_name_H-M   'P 1'
_cell_length_a   7.64542115
_cell_length_b   7.64542134
_cell_length_c   9.50989474
_cell_angle_alpha   90.05772113
_cell_angle_beta   90.05772180
_cell_angle_gamma   119.49666603
_symmetry_Int_Tables_number   1
_chemical_formula_structural   Dy4Al18ReRh3Au2
_chemical_formula_sum   'Dy4 Al18 Re1 Rh3 Au2'
_cell_volume   483.82549803
_cell_formula_units_Z   1
loop_
 _symmetry_equiv_pos_site_id
 _symmetry_equiv_pos_as_xyz
  1  'x, y, z'
loop_
 _atom_site_type_symbol
 _atom_site_label
 _atom_site_symmetry_multiplicity
 _atom_site_fract_x
 _atom_site_fract_y
 _atom_site_fract_z
 _atom_site_occupancy
  Dy  Dy0  1  0.993577  0.675165  0.748688  1
  Dy  Dy1  1  0.000876  0.321617  0.251205  1
  Dy  Dy2  1  0.678383  0.999124  0.748795  1
  Dy  Dy3  1  0.324835  0.006423  0.251312  1
  Al  Al4  1  0.142943  0.144233  0.750530  1
  Al  Al5  1  0.855767  0.857057  0.249470  1
  Al  Al6  1  0.004552  0.346660  0.578009  1
  Al  Al7  1  0.998393  0.652575  0.422272  1
  Al  Al8  1  0.000428  0.656377  0.078426  1
  Al  Al9  1  0.343623  0.999572  0.921574  1
  Al  Al10  1  0.001300  0.345858  0.922302  1
  Al  Al11  1  0.654142  0.998700  0.077698  1
  Al  Al12  1  0.653340  0.995448  0.421991  1
  Al  Al13  1  0.347425  0.001607  0.577728  1
  Al  Al14  1  0.341652  0.342901  0.058011  1
  Al  Al15  1  0.657099  0.658348  0.941989  1
  Al  Al16  1  0.657902  0.655109  0.556504  1
  Al  Al17  1  0.344891  0.342098  0.443496  1
  Al  Al18  1  0.337779  0.555670  0.750317  1
  Al  Al19  1  0.661665  0.447301  0.249432  1
  Al  Al20  1  0.552699  0.338335  0.750568  1
  Al  Al21  1  0.444330  0.662221  0.249683  1
  Re  Re22  1  0.673495  0.326505  0.500000  1
  Rh  Rh23  1  0.328674  0.671326  0.500000  1
  Rh  Rh24  1  0.328165  0.671835  0.000000  1
  Rh  Rh25  1  0.671763  0.328237  0.000000  1
  Au  Au26  1  0.000318  0.999682  0.500000  1
  Au  Au27  1  0.999984  0.000016  0.000000  1
