# generated using pymatgen
data_Hf3Ga2ReSiRu2
_symmetry_space_group_name_H-M   'P 1'
_cell_length_a   7.08142377
_cell_length_b   7.10729113
_cell_length_c   3.35206800
_cell_angle_alpha   90.00000000
_cell_angle_beta   90.00000000
_cell_angle_gamma   120.12090668
_symmetry_Int_Tables_number   1
_chemical_formula_structural   Hf3Ga2ReSiRu2
_chemical_formula_sum   'Hf3 Ga2 Re1 Si1 Ru2'
_cell_volume   145.92769912
_cell_formula_units_Z   1
loop_
 _symmetry_equiv_pos_site_id
 _symmetry_equiv_pos_as_xyz
  1  'x, y, z'
loop_
 _atom_site_type_symbol
 _atom_site_label
 _atom_site_symmetry_multiplicity
 _atom_site_fract_x
 _atom_site_fract_y
 _atom_site_fract_z
 _atom_site_occupancy
  Hf  Hf0  1  0.000000  0.406953  0.500000  1
  Hf  Hf1  1  0.607474  0.601501  0.500000  1
  Hf  Hf2  1  0.392526  0.994027  0.500000  1
  Ga  Ga3  1  0.337996  0.665604  0.000000  1
  Ga  Ga4  1  0.662004  0.327608  0.000000  1
  Re  Re5  1  0.000000  0.749289  0.000000  1
  Si  Si6  1  0.000000  0.003889  0.500000  1
  Ru  Ru7  1  0.249254  0.250191  0.000000  1
  Ru  Ru8  1  0.750746  0.000937  0.000000  1
