# generated using pymatgen
data_Tm3Lu5(ScSb3)2
_symmetry_space_group_name_H-M   'P 1'
_cell_length_a   7.86802100
_cell_length_b   9.07730100
_cell_length_c   11.58756400
_cell_angle_alpha   90.00000000
_cell_angle_beta   90.00000000
_cell_angle_gamma   90.00000000
_symmetry_Int_Tables_number   1
_chemical_formula_structural   Tm3Lu5(ScSb3)2
_chemical_formula_sum   'Tm6 Lu10 Sc4 Sb12'
_cell_volume   827.58839671
_cell_formula_units_Z   2
loop_
 _symmetry_equiv_pos_site_id
 _symmetry_equiv_pos_as_xyz
  1  'x, y, z'
loop_
 _atom_site_type_symbol
 _atom_site_label
 _atom_site_symmetry_multiplicity
 _atom_site_fract_x
 _atom_site_fract_y
 _atom_site_fract_z
 _atom_site_occupancy
  Tm  Tm0  1  0.185183  0.750000  0.720631  1
  Tm  Tm1  1  0.685183  0.750000  0.779369  1
  Tm  Tm2  1  0.814854  0.250000  0.279473  1
  Tm  Tm3  1  0.314854  0.250000  0.220527  1
  Tm  Tm4  1  0.855359  0.750000  0.284765  1
  Tm  Tm5  1  0.355359  0.750000  0.215235  1
  Lu  Lu6  1  0.196909  0.562689  0.439960  1
  Lu  Lu7  1  0.696909  0.937311  0.060040  1
  Lu  Lu8  1  0.803159  0.062737  0.560241  1
  Lu  Lu9  1  0.303159  0.437263  0.939759  1
  Lu  Lu10  1  0.803159  0.437263  0.560241  1
  Lu  Lu11  1  0.303159  0.062737  0.939759  1
  Lu  Lu12  1  0.196909  0.937311  0.439960  1
  Lu  Lu13  1  0.696909  0.562689  0.060040  1
  Lu  Lu14  1  0.144486  0.250000  0.715368  1
  Lu  Lu15  1  0.644486  0.250000  0.784632  1
  Sc  Sc16  1  0.028110  0.750000  0.988367  1
  Sc  Sc17  1  0.528110  0.750000  0.511633  1
  Sc  Sc18  1  0.971991  0.250000  0.010911  1
  Sc  Sc19  1  0.471991  0.250000  0.489089  1
  Sb  Sb20  1  0.933183  0.495715  0.830828  1
  Sb  Sb21  1  0.433183  0.004285  0.669172  1
  Sb  Sb22  1  0.066801  0.996264  0.169025  1
  Sb  Sb23  1  0.566801  0.503736  0.330975  1
  Sb  Sb24  1  0.066801  0.503736  0.169025  1
  Sb  Sb25  1  0.566801  0.996264  0.330975  1
  Sb  Sb26  1  0.933183  0.004285  0.830828  1
  Sb  Sb27  1  0.433183  0.495715  0.669172  1
  Sb  Sb28  1  0.906695  0.750000  0.541310  1
  Sb  Sb29  1  0.406695  0.750000  0.958690  1
  Sb  Sb30  1  0.093219  0.250000  0.459457  1
  Sb  Sb31  1  0.593219  0.250000  0.040543  1
