# generated using pymatgen
data_Zr4TiSi4Mo2W
_symmetry_space_group_name_H-M   'P 1'
_cell_length_a   3.55215300
_cell_length_b   6.99155091
_cell_length_c   8.30151867
_cell_angle_alpha   89.69454806
_cell_angle_beta   90.00000000
_cell_angle_gamma   90.00000000
_symmetry_Int_Tables_number   1
_chemical_formula_structural   Zr4TiSi4Mo2W
_chemical_formula_sum   'Zr4 Ti1 Si4 Mo2 W1'
_cell_volume   206.16577228
_cell_formula_units_Z   1
loop_
 _symmetry_equiv_pos_site_id
 _symmetry_equiv_pos_as_xyz
  1  'x, y, z'
loop_
 _atom_site_type_symbol
 _atom_site_label
 _atom_site_symmetry_multiplicity
 _atom_site_fract_x
 _atom_site_fract_y
 _atom_site_fract_z
 _atom_site_occupancy
  Zr  Zr0  1  0.250000  0.044374  0.332754  1
  Zr  Zr1  1  0.250000  0.544374  0.166219  1
  Zr  Zr2  1  0.750000  0.955846  0.666342  1
  Zr  Zr3  1  0.750000  0.461195  0.828981  1
  Ti  Ti4  1  0.250000  0.125316  0.940225  1
  Si  Si5  1  0.250000  0.256205  0.638352  1
  Si  Si6  1  0.250000  0.756025  0.864133  1
  Si  Si7  1  0.750000  0.742985  0.361973  1
  Si  Si8  1  0.750000  0.243710  0.138856  1
  Mo  Mo9  1  0.750000  0.868685  0.060505  1
  Mo  Mo10  1  0.750000  0.371291  0.440163  1
  W  W11  1  0.250000  0.629992  0.561496  1
