# generated using pymatgen
data_SmZr2F11
_symmetry_space_group_name_H-M   'P 1'
_cell_length_a   8.42379153
_cell_length_b   8.42379080
_cell_length_c   8.42379167
_cell_angle_alpha   124.23259666
_cell_angle_beta   106.34109632
_cell_angle_gamma   98.98008127
_symmetry_Int_Tables_number   1
_chemical_formula_structural   SmZr2F11
_chemical_formula_sum   'Sm2 Zr4 F22'
_cell_volume   435.41669566
_cell_formula_units_Z   2
loop_
 _symmetry_equiv_pos_site_id
 _symmetry_equiv_pos_as_xyz
  1  'x, y, z'
loop_
 _atom_site_type_symbol
 _atom_site_label
 _atom_site_symmetry_multiplicity
 _atom_site_fract_x
 _atom_site_fract_y
 _atom_site_fract_z
 _atom_site_occupancy
  Sm  Sm0  1  0.750000  0.250000  0.500000  1
  Sm  Sm1  1  0.250000  0.750000  0.500000  1
  Zr  Zr2  1  0.681315  0.635954  0.317269  1
  Zr  Zr3  1  0.318685  0.364046  0.682731  1
  Zr  Zr4  1  0.181315  0.864046  0.045361  1
  Zr  Zr5  1  0.818685  0.135954  0.954639  1
  F  F6  1  0.707008  0.899357  0.343314  1
  F  F7  1  0.292992  0.100643  0.656686  1
  F  F8  1  0.556043  0.363694  0.656686  1
  F  F9  1  0.943957  0.600643  0.807651  1
  F  F10  1  0.443957  0.636306  0.343314  1
  F  F11  1  0.056043  0.399357  0.192349  1
  F  F12  1  0.792992  0.136306  0.192349  1
  F  F13  1  0.207008  0.863694  0.807651  1
  F  F14  1  0.500000  0.500000  0.000000  1
  F  F15  1  0.000000  0.000000  0.000000  1
  F  F16  1  0.781799  0.870894  0.652691  1
  F  F17  1  0.218201  0.129106  0.347309  1
  F  F18  1  0.281799  0.629106  0.910905  1
  F  F19  1  0.718201  0.370894  0.089095  1
  F  F20  1  0.956287  0.738629  0.418725  1
  F  F21  1  0.043713  0.261371  0.581275  1
  F  F22  1  0.319904  0.537562  0.581275  1
  F  F23  1  0.180096  0.761371  0.217657  1
  F  F24  1  0.680096  0.462438  0.418725  1
  F  F25  1  0.819904  0.238629  0.782343  1
  F  F26  1  0.543713  0.962438  0.782343  1
  F  F27  1  0.456287  0.037562  0.217657  1
