# generated using pymatgen
data_Er15Th(InOs)4
_symmetry_space_group_name_H-M   'P 1'
_cell_length_a   9.62988783
_cell_length_b   9.62988884
_cell_length_c   9.62626500
_cell_angle_alpha   60.01245093
_cell_angle_beta   60.01244749
_cell_angle_gamma   59.54687538
_symmetry_Int_Tables_number   1
_chemical_formula_structural   Er15Th(InOs)4
_chemical_formula_sum   'Er15 Th1 In4 Os4'
_cell_volume   629.15423043
_cell_formula_units_Z   1
loop_
 _symmetry_equiv_pos_site_id
 _symmetry_equiv_pos_as_xyz
  1  'x, y, z'
loop_
 _atom_site_type_symbol
 _atom_site_label
 _atom_site_symmetry_multiplicity
 _atom_site_fract_x
 _atom_site_fract_y
 _atom_site_fract_z
 _atom_site_occupancy
  Er  Er0  1  0.448054  0.052458  0.053524  1
  Er  Er1  1  0.448054  0.052458  0.445965  1
  Er  Er2  1  0.052458  0.448054  0.053524  1
  Er  Er3  1  0.658462  0.044136  0.648700  1
  Er  Er4  1  0.192453  0.804545  0.806612  1
  Er  Er5  1  0.061042  0.061042  0.438958  1
  Er  Er6  1  0.804545  0.192453  0.196390  1
  Er  Er7  1  0.807430  0.807430  0.192570  1
  Er  Er8  1  0.650405  0.650405  0.042908  1
  Er  Er9  1  0.650405  0.650405  0.656281  1
  Er  Er10  1  0.052458  0.448054  0.445965  1
  Er  Er11  1  0.044136  0.658462  0.648700  1
  Er  Er12  1  0.804545  0.192453  0.806612  1
  Er  Er13  1  0.436077  0.436077  0.063923  1
  Er  Er14  1  0.192453  0.804545  0.196390  1
  Th  Th15  1  0.188554  0.188554  0.811446  1
  In  In16  1  0.417263  0.749689  0.416525  1
  In  In17  1  0.419290  0.419290  0.748362  1
  In  In18  1  0.749689  0.417263  0.416525  1
  In  In19  1  0.419290  0.419290  0.413060  1
  Os  Os20  1  0.875326  0.413056  0.855809  1
  Os  Os21  1  0.857278  0.857278  0.418295  1
  Os  Os22  1  0.413056  0.875326  0.855809  1
  Os  Os23  1  0.857278  0.857278  0.867150  1
