# generated using pymatgen
data_TcHg2O5
_symmetry_space_group_name_H-M   'P 1'
_cell_length_a   8.27806957
_cell_length_b   9.27636771
_cell_length_c   9.29269556
_cell_angle_alpha   114.63415866
_cell_angle_beta   100.23746387
_cell_angle_gamma   91.65944885
_symmetry_Int_Tables_number   1
_chemical_formula_structural   TcHg2O5
_chemical_formula_sum   'Tc4 Hg8 O20'
_cell_volume   634.06884853
_cell_formula_units_Z   4
loop_
 _symmetry_equiv_pos_site_id
 _symmetry_equiv_pos_as_xyz
  1  'x, y, z'
loop_
 _atom_site_type_symbol
 _atom_site_label
 _atom_site_symmetry_multiplicity
 _atom_site_fract_x
 _atom_site_fract_y
 _atom_site_fract_z
 _atom_site_occupancy
  Tc  Tc0  1  0.896930  0.750608  0.466511  1
  Tc  Tc1  1  0.721584  0.342046  0.992422  1
  Tc  Tc2  1  0.278416  0.657954  0.007578  1
  Tc  Tc3  1  0.103070  0.249392  0.533489  1
  Hg  Hg4  1  0.356748  0.610172  0.417135  1
  Hg  Hg5  1  0.695090  0.674121  0.822443  1
  Hg  Hg6  1  0.643252  0.389828  0.582865  1
  Hg  Hg7  1  0.327751  0.964109  0.798048  1
  Hg  Hg8  1  0.304910  0.325879  0.177557  1
  Hg  Hg9  1  0.672249  0.035891  0.201952  1
  Hg  Hg10  1  0.000000  0.000000  0.000000  1
  Hg  Hg11  1  0.500000  0.000000  0.500000  1
  O  O12  1  0.215055  0.116528  0.588873  1
  O  O13  1  0.448745  0.851699  0.611062  1
  O  O14  1  0.076307  0.693887  0.955915  1
  O  O15  1  0.243851  0.071795  0.010684  1
  O  O16  1  0.019599  0.158303  0.324711  1
  O  O17  1  0.980401  0.841697  0.675289  1
  O  O18  1  0.350301  0.760474  0.217242  1
  O  O19  1  0.756149  0.928205  0.989316  1
  O  O20  1  0.923693  0.306113  0.044085  1
  O  O21  1  0.714654  0.544747  0.047177  1
  O  O22  1  0.058010  0.698610  0.364536  1
  O  O23  1  0.285346  0.455253  0.952823  1
  O  O24  1  0.784945  0.883472  0.411127  1
  O  O25  1  0.765891  0.580872  0.421548  1
  O  O26  1  0.234109  0.419128  0.578452  1
  O  O27  1  0.649699  0.239526  0.782758  1
  O  O28  1  0.551255  0.148301  0.388938  1
  O  O29  1  0.595438  0.271979  0.088449  1
  O  O30  1  0.941990  0.301390  0.635464  1
  O  O31  1  0.404562  0.728021  0.911551  1
