# generated using pymatgen
data_Y2V3Co9As6P
_symmetry_space_group_name_H-M   'P 1'
_cell_length_a   3.76057900
_cell_length_b   9.36767430
_cell_length_c   9.36767500
_cell_angle_alpha   119.99999896
_cell_angle_beta   90.00000000
_cell_angle_gamma   90.00000000
_symmetry_Int_Tables_number   1
_chemical_formula_structural   Y2V3Co9As6P
_chemical_formula_sum   'Y2 V3 Co9 As6 P1'
_cell_volume   285.79126460
_cell_formula_units_Z   1
loop_
 _symmetry_equiv_pos_site_id
 _symmetry_equiv_pos_as_xyz
  1  'x, y, z'
loop_
 _atom_site_type_symbol
 _atom_site_label
 _atom_site_symmetry_multiplicity
 _atom_site_fract_x
 _atom_site_fract_y
 _atom_site_fract_z
 _atom_site_occupancy
  Y  Y0  1  0.000000  0.666667  0.333333  1
  Y  Y1  1  0.500000  0.333333  0.666667  1
  V  V2  1  0.500000  0.791389  0.903283  1
  V  V3  1  0.500000  0.111893  0.208611  1
  V  V4  1  0.500000  0.096717  0.888107  1
  Co  Co5  1  0.000000  0.570874  0.942283  1
  Co  Co6  1  0.000000  0.371407  0.429126  1
  Co  Co7  1  0.000000  0.057717  0.628593  1
  Co  Co8  1  0.000000  0.883130  0.151175  1
  Co  Co9  1  0.000000  0.268045  0.116870  1
  Co  Co10  1  0.000000  0.848825  0.731955  1
  Co  Co11  1  0.500000  0.949861  0.380779  1
  Co  Co12  1  0.500000  0.430917  0.050139  1
  Co  Co13  1  0.500000  0.619221  0.569083  1
  As  As14  1  0.500000  0.708427  0.116666  1
  As  As15  1  0.500000  0.408239  0.291573  1
  As  As16  1  0.500000  0.883334  0.591761  1
  As  As17  1  0.000000  0.588528  0.703129  1
  As  As18  1  0.000000  0.114601  0.411472  1
  As  As19  1  0.000000  0.296871  0.885399  1
  P  P20  1  0.000000  0.000000  0.000000  1
