# generated using pymatgen
data_NdCr2(Sb6Os)2
_symmetry_space_group_name_H-M   'P 1'
_cell_length_a   8.20974924
_cell_length_b   8.18691368
_cell_length_c   8.18691450
_cell_angle_alpha   109.53187876
_cell_angle_beta   109.35549411
_cell_angle_gamma   109.41383163
_symmetry_Int_Tables_number   1
_chemical_formula_structural   NdCr2(Sb6Os)2
_chemical_formula_sum   'Nd1 Cr2 Sb12 Os2'
_cell_volume   424.17879294
_cell_formula_units_Z   1
loop_
 _symmetry_equiv_pos_site_id
 _symmetry_equiv_pos_as_xyz
  1  'x, y, z'
loop_
 _atom_site_type_symbol
 _atom_site_label
 _atom_site_symmetry_multiplicity
 _atom_site_fract_x
 _atom_site_fract_y
 _atom_site_fract_z
 _atom_site_occupancy
  Nd  Nd0  1  0.000000  0.000000  0.000000  1
  Cr  Cr1  1  0.000000  0.000000  0.500000  1
  Cr  Cr2  1  0.000000  0.500000  0.000000  1
  Sb  Sb3  1  0.157801  0.817276  0.663843  1
  Sb  Sb4  1  0.842199  0.182724  0.336157  1
  Sb  Sb5  1  0.842199  0.506043  0.659476  1
  Sb  Sb6  1  0.157801  0.493957  0.340524  1
  Sb  Sb7  1  0.814307  0.660008  0.154299  1
  Sb  Sb8  1  0.185693  0.339992  0.845701  1
  Sb  Sb9  1  0.505783  0.662312  0.843470  1
  Sb  Sb10  1  0.494217  0.337688  0.156530  1
  Sb  Sb11  1  0.659615  0.153636  0.816952  1
  Sb  Sb12  1  0.340385  0.846364  0.183048  1
  Sb  Sb13  1  0.659615  0.842663  0.505980  1
  Sb  Sb14  1  0.340385  0.157337  0.494020  1
  Os  Os15  1  0.500000  0.000000  0.000000  1
  Os  Os16  1  0.500000  0.500000  0.500000  1
