# generated using pymatgen
data_Nb2Si2IrRu
_symmetry_space_group_name_H-M   'P 1'
_cell_length_a   3.84222000
_cell_length_b   6.43393900
_cell_length_c   7.31293900
_cell_angle_alpha   90.00000000
_cell_angle_beta   90.00000000
_cell_angle_gamma   90.00000000
_symmetry_Int_Tables_number   1
_chemical_formula_structural   Nb2Si2IrRu
_chemical_formula_sum   'Nb4 Si4 Ir2 Ru2'
_cell_volume   180.78030642
_cell_formula_units_Z   2
loop_
 _symmetry_equiv_pos_site_id
 _symmetry_equiv_pos_as_xyz
  1  'x, y, z'
loop_
 _atom_site_type_symbol
 _atom_site_label
 _atom_site_symmetry_multiplicity
 _atom_site_fract_x
 _atom_site_fract_y
 _atom_site_fract_z
 _atom_site_occupancy
  Nb  Nb0  1  0.750000  0.521940  0.823966  1
  Nb  Nb1  1  0.250000  0.976566  0.324183  1
  Nb  Nb2  1  0.750000  0.021940  0.676034  1
  Nb  Nb3  1  0.250000  0.476566  0.175817  1
  Si  Si4  1  0.250000  0.226345  0.873552  1
  Si  Si5  1  0.250000  0.726345  0.626448  1
  Si  Si6  1  0.750000  0.772055  0.121321  1
  Si  Si7  1  0.750000  0.272055  0.378679  1
  Ir  Ir8  1  0.750000  0.650056  0.436981  1
  Ir  Ir9  1  0.750000  0.150056  0.063019  1
  Ru  Ru10  1  0.250000  0.853038  0.939049  1
  Ru  Ru11  1  0.250000  0.353038  0.560951  1
