# generated using pymatgen
data_Na4AlIn11Se20
_symmetry_space_group_name_H-M   'P 1'
_cell_length_a   10.25264859
_cell_length_b   10.35156782
_cell_length_c   10.31196002
_cell_angle_alpha   90.20173510
_cell_angle_beta   91.00135243
_cell_angle_gamma   90.25505201
_symmetry_Int_Tables_number   1
_chemical_formula_structural   Na4AlIn11Se20
_chemical_formula_sum   'Na4 Al1 In11 Se20'
_cell_volume   1094.23343179
_cell_formula_units_Z   1
loop_
 _symmetry_equiv_pos_site_id
 _symmetry_equiv_pos_as_xyz
  1  'x, y, z'
loop_
 _atom_site_type_symbol
 _atom_site_label
 _atom_site_symmetry_multiplicity
 _atom_site_fract_x
 _atom_site_fract_y
 _atom_site_fract_z
 _atom_site_occupancy
  Na  Na0  1  0.260633  0.000032  0.739659  1
  Na  Na1  1  0.738382  0.261803  0.999430  1
  Na  Na2  1  0.996337  0.740168  0.259200  1
  Na  Na3  1  0.500621  0.500849  0.498795  1
  Al  Al4  1  0.655137  0.834754  0.253704  1
  In  In5  1  0.838291  0.876289  0.569454  1
  In  In6  1  0.576552  0.844804  0.879956  1
  In  In7  1  0.875126  0.574117  0.841391  1
  In  In8  1  0.159867  0.424590  0.124963  1
  In  In9  1  0.124866  0.157050  0.426188  1
  In  In10  1  0.427676  0.122065  0.156558  1
  In  In11  1  0.741758  0.161607  0.341276  1
  In  In12  1  0.345263  0.744751  0.169789  1
  In  In13  1  0.168339  0.341071  0.746370  1
  In  In14  1  0.254482  0.659318  0.833990  1
  In  In15  1  0.832660  0.254843  0.658876  1
  Se  Se16  1  0.174734  0.827905  0.001645  1
  Se  Se17  1  0.811671  0.986599  0.175842  1
  Se  Se18  1  0.171282  0.169467  0.171482  1
  Se  Se19  1  0.830723  0.828194  0.824985  1
  Se  Se20  1  0.001854  0.172267  0.828863  1
  Se  Se21  1  0.918861  0.499039  0.080944  1
  Se  Se22  1  0.080392  0.918359  0.499846  1
  Se  Se23  1  0.498849  0.082902  0.916715  1
  Se  Se24  1  0.742809  0.694333  0.417130  1
  Se  Se25  1  0.431439  0.755315  0.687054  1
  Se  Se26  1  0.681766  0.430415  0.752927  1
  Se  Se27  1  0.246503  0.570115  0.317720  1
  Se  Se28  1  0.318059  0.244893  0.571524  1
  Se  Se29  1  0.570307  0.316159  0.241717  1
  Se  Se30  1  0.670003  0.071207  0.571913  1
  Se  Se31  1  0.582070  0.683316  0.081324  1
  Se  Se32  1  0.068639  0.568908  0.672445  1
  Se  Se33  1  0.329372  0.431191  0.932577  1
  Se  Se34  1  0.927979  0.323405  0.428012  1
  Se  Se35  1  0.446697  0.927898  0.325734  1
