# generated using pymatgen
data_DyPu2Se3
_symmetry_space_group_name_H-M   'P 1'
_cell_length_a   7.13284529
_cell_length_b   7.13284696
_cell_length_c   7.13284714
_cell_angle_alpha   146.08762353
_cell_angle_beta   131.46536114
_cell_angle_gamma   60.52400478
_symmetry_Int_Tables_number   1
_chemical_formula_structural   DyPu2Se3
_chemical_formula_sum   'Dy1 Pu2 Se3'
_cell_volume   150.28311676
_cell_formula_units_Z   1
loop_
 _symmetry_equiv_pos_site_id
 _symmetry_equiv_pos_as_xyz
  1  'x, y, z'
loop_
 _atom_site_type_symbol
 _atom_site_label
 _atom_site_symmetry_multiplicity
 _atom_site_fract_x
 _atom_site_fract_y
 _atom_site_fract_z
 _atom_site_occupancy
  Dy  Dy0  1  0.000000  0.000000  0.000000  1
  Pu  Pu1  1  0.667308  0.667308  0.000000  1
  Pu  Pu2  1  0.332692  0.332692  0.000000  1
  Se  Se3  1  0.500000  0.000000  0.500000  1
  Se  Se4  1  0.164660  0.664660  0.500000  1
  Se  Se5  1  0.835340  0.335340  0.500000  1
