# generated using pymatgen
data_Pr8Dy9Ho3Sn16
_symmetry_space_group_name_H-M   'P 1'
_cell_length_a   8.07681400
_cell_length_b   8.30198026
_cell_length_c   15.64955500
_cell_angle_alpha   90.00000000
_cell_angle_beta   90.00000000
_cell_angle_gamma   89.98572778
_symmetry_Int_Tables_number   1
_chemical_formula_structural   Pr8Dy9Ho3Sn16
_chemical_formula_sum   'Pr8 Dy9 Ho3 Sn16'
_cell_volume   1049.35819194
_cell_formula_units_Z   1
loop_
 _symmetry_equiv_pos_site_id
 _symmetry_equiv_pos_as_xyz
  1  'x, y, z'
loop_
 _atom_site_type_symbol
 _atom_site_label
 _atom_site_symmetry_multiplicity
 _atom_site_fract_x
 _atom_site_fract_y
 _atom_site_fract_z
 _atom_site_occupancy
  Pr  Pr0  1  0.508433  0.323567  0.903792  1
  Pr  Pr1  1  0.008092  0.176202  0.596223  1
  Pr  Pr2  1  0.491670  0.676260  0.403683  1
  Pr  Pr3  1  0.991791  0.823711  0.096292  1
  Pr  Pr4  1  0.491670  0.676260  0.096317  1
  Pr  Pr5  1  0.991791  0.823711  0.403708  1
  Pr  Pr6  1  0.508433  0.323567  0.596208  1
  Pr  Pr7  1  0.008092  0.176202  0.903777  1
  Dy  Dy8  1  0.348895  0.835319  0.875609  1
  Dy  Dy9  1  0.848721  0.664718  0.624344  1
  Dy  Dy10  1  0.651188  0.164684  0.375552  1
  Dy  Dy11  1  0.151332  0.335437  0.124492  1
  Dy  Dy12  1  0.651188  0.164684  0.124448  1
  Dy  Dy13  1  0.151332  0.335437  0.375508  1
  Dy  Dy14  1  0.348895  0.835319  0.624391  1
  Dy  Dy15  1  0.848721  0.664718  0.875656  1
  Dy  Dy16  1  0.181888  0.501005  0.750000  1
  Ho  Ho17  1  0.681893  0.998657  0.750000  1
  Ho  Ho18  1  0.818075  0.498877  0.250000  1
  Ho  Ho19  1  0.318157  0.001187  0.250000  1
  Sn  Sn20  1  0.314069  0.041246  0.041811  1
  Sn  Sn21  1  0.814096  0.458799  0.458160  1
  Sn  Sn22  1  0.685832  0.958805  0.541762  1
  Sn  Sn23  1  0.185829  0.541355  0.958380  1
  Sn  Sn24  1  0.685832  0.958805  0.958238  1
  Sn  Sn25  1  0.185829  0.541355  0.541620  1
  Sn  Sn26  1  0.314069  0.041246  0.458189  1
  Sn  Sn27  1  0.814096  0.458799  0.041840  1
  Sn  Sn28  1  0.547017  0.623371  0.750000  1
  Sn  Sn29  1  0.046310  0.877089  0.750000  1
  Sn  Sn30  1  0.453546  0.376863  0.250000  1
  Sn  Sn31  1  0.953532  0.123107  0.250000  1
  Sn  Sn32  1  0.315075  0.143799  0.750000  1
  Sn  Sn33  1  0.814821  0.355690  0.750000  1
  Sn  Sn34  1  0.684948  0.855817  0.250000  1
  Sn  Sn35  1  0.184844  0.644330  0.250000  1
