# generated using pymatgen
data_Eu16Mg4Ni3Pd
_symmetry_space_group_name_H-M   'P 1'
_cell_length_a   10.28593532
_cell_length_b   10.28593479
_cell_length_c   10.28593510
_cell_angle_alpha   60.35257369
_cell_angle_beta   60.35257757
_cell_angle_gamma   60.35257179
_symmetry_Int_Tables_number   1
_chemical_formula_structural   Eu16Mg4Ni3Pd
_chemical_formula_sum   'Eu16 Mg4 Ni3 Pd1'
_cell_volume   775.65113751
_cell_formula_units_Z   1
loop_
 _symmetry_equiv_pos_site_id
 _symmetry_equiv_pos_as_xyz
  1  'x, y, z'
loop_
 _atom_site_type_symbol
 _atom_site_label
 _atom_site_symmetry_multiplicity
 _atom_site_fract_x
 _atom_site_fract_y
 _atom_site_fract_z
 _atom_site_occupancy
  Eu  Eu0  1  0.690918  0.690918  0.308377  1
  Eu  Eu1  1  0.308310  0.690347  0.308310  1
  Eu  Eu2  1  0.690347  0.308310  0.308310  1
  Eu  Eu3  1  0.308310  0.308310  0.690347  1
  Eu  Eu4  1  0.690918  0.308377  0.690918  1
  Eu  Eu5  1  0.308377  0.690918  0.690918  1
  Eu  Eu6  1  0.058759  0.058759  0.446790  1
  Eu  Eu7  1  0.439433  0.060459  0.439433  1
  Eu  Eu8  1  0.060459  0.439433  0.439433  1
  Eu  Eu9  1  0.439433  0.439433  0.060459  1
  Eu  Eu10  1  0.058759  0.446790  0.058759  1
  Eu  Eu11  1  0.446790  0.058759  0.058759  1
  Eu  Eu12  1  0.903476  0.903476  0.282742  1
  Eu  Eu13  1  0.903476  0.282742  0.903476  1
  Eu  Eu14  1  0.282742  0.903476  0.903476  1
  Eu  Eu15  1  0.906725  0.906725  0.906725  1
  Mg  Mg16  1  0.672670  0.672670  0.982554  1
  Mg  Mg17  1  0.672670  0.982554  0.672670  1
  Mg  Mg18  1  0.982554  0.672670  0.672670  1
  Mg  Mg19  1  0.672500  0.672500  0.672500  1
  Ni  Ni20  1  0.110093  0.110093  0.671890  1
  Ni  Ni21  1  0.110093  0.671890  0.110093  1
  Ni  Ni22  1  0.671890  0.110093  0.110093  1
  Pd  Pd23  1  0.110303  0.110303  0.110303  1
