# generated using pymatgen
data_ErLu11(Si3Ir)4
_symmetry_space_group_name_H-M   'P 1'
_cell_length_a   4.17871400
_cell_length_b   10.46476253
_cell_length_c   12.05658261
_cell_angle_alpha   89.96366503
_cell_angle_beta   90.00000000
_cell_angle_gamma   90.00000000
_symmetry_Int_Tables_number   1
_chemical_formula_structural   ErLu11(Si3Ir)4
_chemical_formula_sum   'Er1 Lu11 Si12 Ir4'
_cell_volume   527.22520499
_cell_formula_units_Z   1
loop_
 _symmetry_equiv_pos_site_id
 _symmetry_equiv_pos_as_xyz
  1  'x, y, z'
loop_
 _atom_site_type_symbol
 _atom_site_label
 _atom_site_symmetry_multiplicity
 _atom_site_fract_x
 _atom_site_fract_y
 _atom_site_fract_z
 _atom_site_occupancy
  Er  Er0  1  0.250000  0.878553  0.019663  1
  Lu  Lu1  1  0.250000  0.621242  0.519641  1
  Lu  Lu2  1  0.750000  0.121574  0.980408  1
  Lu  Lu3  1  0.750000  0.378802  0.480376  1
  Lu  Lu4  1  0.250000  0.919797  0.603037  1
  Lu  Lu5  1  0.250000  0.579761  0.103209  1
  Lu  Lu6  1  0.750000  0.080224  0.397000  1
  Lu  Lu7  1  0.750000  0.419815  0.896953  1
  Lu  Lu8  1  0.250000  0.658837  0.799863  1
  Lu  Lu9  1  0.250000  0.840901  0.300401  1
  Lu  Lu10  1  0.750000  0.341026  0.199956  1
  Lu  Lu11  1  0.750000  0.159044  0.699888  1
  Si  Si12  1  0.250000  0.013067  0.820690  1
  Si  Si13  1  0.250000  0.487378  0.321503  1
  Si  Si14  1  0.750000  0.987698  0.178903  1
  Si  Si15  1  0.750000  0.512643  0.678568  1
  Si  Si16  1  0.250000  0.248334  0.841008  1
  Si  Si17  1  0.250000  0.251902  0.341264  1
  Si  Si18  1  0.750000  0.751383  0.159270  1
  Si  Si19  1  0.750000  0.748203  0.658722  1
  Si  Si20  1  0.250000  0.196864  0.544233  1
  Si  Si21  1  0.250000  0.303185  0.044295  1
  Si  Si22  1  0.750000  0.803145  0.455730  1
  Si  Si23  1  0.750000  0.696020  0.955559  1
  Ir  Ir24  1  0.250000  0.390342  0.678476  1
  Ir  Ir25  1  0.250000  0.110265  0.178957  1
  Ir  Ir26  1  0.750000  0.609649  0.321672  1
  Ir  Ir27  1  0.750000  0.890345  0.820755  1
