# generated using pymatgen
data_Ca4Si10OsPt5
_symmetry_space_group_name_H-M   'P 1'
_cell_length_a   8.28095448
_cell_length_b   8.28095428
_cell_length_c   8.28095410
_cell_angle_alpha   138.69710347
_cell_angle_beta   104.31314224
_cell_angle_gamma   90.08868942
_symmetry_Int_Tables_number   1
_chemical_formula_structural   Ca4Si10OsPt5
_chemical_formula_sum   'Ca4 Si10 Os1 Pt5'
_cell_volume   347.25761202
_cell_formula_units_Z   1
loop_
 _symmetry_equiv_pos_site_id
 _symmetry_equiv_pos_as_xyz
  1  'x, y, z'
loop_
 _atom_site_type_symbol
 _atom_site_label
 _atom_site_symmetry_multiplicity
 _atom_site_fract_x
 _atom_site_fract_y
 _atom_site_fract_z
 _atom_site_occupancy
  Ca  Ca0  1  0.637810  0.371843  0.269212  1
  Ca  Ca1  1  0.362190  0.631401  0.734033  1
  Ca  Ca2  1  0.102631  0.868599  0.230788  1
  Ca  Ca3  1  0.897369  0.128157  0.765967  1
  Si  Si4  1  0.455896  0.116131  0.357275  1
  Si  Si5  1  0.544104  0.901377  0.660234  1
  Si  Si6  1  0.758857  0.598623  0.142725  1
  Si  Si7  1  0.241143  0.383869  0.839766  1
  Si  Si8  1  0.272870  0.522870  0.250000  1
  Si  Si9  1  0.725118  0.475118  0.750000  1
  Si  Si10  1  0.727130  0.977130  0.250000  1
  Si  Si11  1  0.274882  0.024882  0.750000  1
  Si  Si12  1  0.000000  0.250000  0.250000  1
  Si  Si13  1  0.000000  0.750000  0.750000  1
  Os  Os14  1  0.500000  0.250000  0.750000  1
  Pt  Pt15  1  0.500000  0.750000  0.250000  1
  Pt  Pt16  1  0.253378  0.137803  0.114677  1
  Pt  Pt17  1  0.746622  0.861299  0.884426  1
  Pt  Pt18  1  0.023128  0.638701  0.385323  1
  Pt  Pt19  1  0.976872  0.362197  0.615574  1
