# generated using pymatgen
data_Ac2CdAu2
_symmetry_space_group_name_H-M   'P 1'
_cell_length_a   8.29705300
_cell_length_b   8.29705300
_cell_length_c   4.29959100
_cell_angle_alpha   90.00000000
_cell_angle_beta   90.00000000
_cell_angle_gamma   90.00000000
_symmetry_Int_Tables_number   1
_chemical_formula_structural   Ac2CdAu2
_chemical_formula_sum   'Ac4 Cd2 Au4'
_cell_volume   295.98852448
_cell_formula_units_Z   2
loop_
 _symmetry_equiv_pos_site_id
 _symmetry_equiv_pos_as_xyz
  1  'x, y, z'
loop_
 _atom_site_type_symbol
 _atom_site_label
 _atom_site_symmetry_multiplicity
 _atom_site_fract_x
 _atom_site_fract_y
 _atom_site_fract_z
 _atom_site_occupancy
  Ac  Ac0  1  0.674326  0.174326  0.500000  1
  Ac  Ac1  1  0.325674  0.825674  0.500000  1
  Ac  Ac2  1  0.174326  0.325674  0.500000  1
  Ac  Ac3  1  0.825674  0.674326  0.500000  1
  Cd  Cd4  1  0.000000  0.000000  0.000000  1
  Cd  Cd5  1  0.500000  0.500000  0.000000  1
  Au  Au6  1  0.126844  0.626844  0.000000  1
  Au  Au7  1  0.873156  0.373156  0.000000  1
  Au  Au8  1  0.626844  0.873156  0.000000  1
  Au  Au9  1  0.373156  0.126844  0.000000  1
