# generated using pymatgen
data_Lu3Cu(Ni4P3)2
_symmetry_space_group_name_H-M   'P 1'
_cell_length_a   3.74451400
_cell_length_b   10.47588500
_cell_length_c   12.20218900
_cell_angle_alpha   90.00000000
_cell_angle_beta   90.00000000
_cell_angle_gamma   90.00000000
_symmetry_Int_Tables_number   1
_chemical_formula_structural   Lu3Cu(Ni4P3)2
_chemical_formula_sum   'Lu6 Cu2 Ni16 P12'
_cell_volume   478.65646427
_cell_formula_units_Z   2
loop_
 _symmetry_equiv_pos_site_id
 _symmetry_equiv_pos_as_xyz
  1  'x, y, z'
loop_
 _atom_site_type_symbol
 _atom_site_label
 _atom_site_symmetry_multiplicity
 _atom_site_fract_x
 _atom_site_fract_y
 _atom_site_fract_z
 _atom_site_occupancy
  Lu  Lu0  1  0.000000  0.500000  0.524159  1
  Lu  Lu1  1  0.500000  0.000000  0.475841  1
  Lu  Lu2  1  0.500000  0.819873  0.205629  1
  Lu  Lu3  1  0.500000  0.180127  0.205629  1
  Lu  Lu4  1  0.000000  0.680127  0.794371  1
  Lu  Lu5  1  0.000000  0.319873  0.794371  1
  Cu  Cu6  1  0.500000  0.500000  0.158966  1
  Cu  Cu7  1  0.000000  0.000000  0.841034  1
  Ni  Ni8  1  0.500000  0.500000  0.700804  1
  Ni  Ni9  1  0.000000  0.000000  0.299196  1
  Ni  Ni10  1  0.000000  0.500000  0.986987  1
  Ni  Ni11  1  0.500000  0.000000  0.013013  1
  Ni  Ni12  1  0.500000  0.333160  0.997641  1
  Ni  Ni13  1  0.500000  0.666840  0.997641  1
  Ni  Ni14  1  0.000000  0.166840  0.002359  1
  Ni  Ni15  1  0.000000  0.833160  0.002359  1
  Ni  Ni16  1  0.500000  0.300465  0.430845  1
  Ni  Ni17  1  0.500000  0.699535  0.430845  1
  Ni  Ni18  1  0.000000  0.199535  0.569155  1
  Ni  Ni19  1  0.000000  0.800465  0.569155  1
  Ni  Ni20  1  0.500000  0.878164  0.709074  1
  Ni  Ni21  1  0.500000  0.121836  0.709074  1
  Ni  Ni22  1  0.000000  0.621836  0.290926  1
  Ni  Ni23  1  0.000000  0.378164  0.290926  1
  P  P24  1  0.500000  0.500000  0.877951  1
  P  P25  1  0.000000  0.000000  0.122049  1
  P  P26  1  0.500000  0.500000  0.351168  1
  P  P27  1  0.000000  0.000000  0.648832  1
  P  P28  1  0.500000  0.314853  0.615675  1
  P  P29  1  0.500000  0.685147  0.615675  1
  P  P30  1  0.000000  0.185147  0.384325  1
  P  P31  1  0.000000  0.814853  0.384325  1
  P  P32  1  0.500000  0.840995  0.891263  1
  P  P33  1  0.500000  0.159005  0.891263  1
  P  P34  1  0.000000  0.659005  0.108737  1
  P  P35  1  0.000000  0.340995  0.108737  1
