# generated using pymatgen
data_ZrPa3(CdNi2)2
_symmetry_space_group_name_H-M   'P 1'
_cell_length_a   7.45351221
_cell_length_b   7.45351221
_cell_length_c   3.42199900
_cell_angle_alpha   90.00000000
_cell_angle_beta   90.00000000
_cell_angle_gamma   91.49605680
_symmetry_Int_Tables_number   1
_chemical_formula_structural   ZrPa3(CdNi2)2
_chemical_formula_sum   'Zr1 Pa3 Cd2 Ni4'
_cell_volume   190.04381796
_cell_formula_units_Z   1
loop_
 _symmetry_equiv_pos_site_id
 _symmetry_equiv_pos_as_xyz
  1  'x, y, z'
loop_
 _atom_site_type_symbol
 _atom_site_label
 _atom_site_symmetry_multiplicity
 _atom_site_fract_x
 _atom_site_fract_y
 _atom_site_fract_z
 _atom_site_occupancy
  Zr  Zr0  1  0.674023  0.825978  0.499999  1
  Pa  Pa1  1  0.332559  0.167442  0.499999  1
  Pa  Pa2  1  0.826429  0.327846  0.499999  1
  Pa  Pa3  1  0.172155  0.673572  0.499999  1
  Cd  Cd4  1  0.988383  0.994691  0.000000  1
  Cd  Cd5  1  0.505309  0.511617  0.000000  1
  Ni  Ni6  1  0.623370  0.130022  0.000000  1
  Ni  Ni7  1  0.128059  0.371941  0.000000  1
  Ni  Ni8  1  0.879738  0.620263  0.000000  1
  Ni  Ni9  1  0.369978  0.876631  0.000000  1
