# generated using pymatgen
data_Pr7ThSe12
_symmetry_space_group_name_H-M   'P 1'
_cell_length_a   11.58323416
_cell_length_b   4.18967400
_cell_length_c   11.33677381
_cell_angle_alpha   90.00000000
_cell_angle_beta   89.76555277
_cell_angle_gamma   90.00000000
_symmetry_Int_Tables_number   1
_chemical_formula_structural   Pr7ThSe12
_chemical_formula_sum   'Pr7 Th1 Se12'
_cell_volume   550.16874356
_cell_formula_units_Z   1
loop_
 _symmetry_equiv_pos_site_id
 _symmetry_equiv_pos_as_xyz
  1  'x, y, z'
loop_
 _atom_site_type_symbol
 _atom_site_label
 _atom_site_symmetry_multiplicity
 _atom_site_fract_x
 _atom_site_fract_y
 _atom_site_fract_z
 _atom_site_occupancy
  Pr  Pr0  1  0.483211  0.250000  0.187285  1
  Pr  Pr1  1  0.989910  0.250000  0.315946  1
  Pr  Pr2  1  0.512780  0.750000  0.810753  1
  Pr  Pr3  1  0.011641  0.750000  0.685388  1
  Pr  Pr4  1  0.692230  0.750000  0.487953  1
  Pr  Pr5  1  0.195039  0.750000  0.999216  1
  Pr  Pr6  1  0.307274  0.250000  0.506631  1
  Th  Th7  1  0.807683  0.250000  0.005100  1
  Se  Se8  1  0.549650  0.250000  0.624740  1
  Se  Se9  1  0.040560  0.250000  0.876012  1
  Se  Se10  1  0.453569  0.750000  0.373614  1
  Se  Se11  1  0.952936  0.750000  0.124486  1
  Se  Se12  1  0.621088  0.750000  0.055238  1
  Se  Se13  1  0.123389  0.750000  0.445580  1
  Se  Se14  1  0.380572  0.250000  0.944554  1
  Se  Se15  1  0.874813  0.250000  0.555511  1
  Se  Se16  1  0.731265  0.250000  0.289308  1
  Se  Se17  1  0.225046  0.250000  0.195939  1
  Se  Se18  1  0.270209  0.750000  0.703540  1
  Se  Se19  1  0.777135  0.750000  0.813207  1
