# generated using pymatgen
data_Rb4HoLu3(Bi2Se5)4
_symmetry_space_group_name_H-M   'P 1'
_cell_length_a   4.14916200
_cell_length_b   12.34619600
_cell_length_c   22.37782400
_cell_angle_alpha   90.00138294
_cell_angle_beta   90.00000000
_cell_angle_gamma   90.00000000
_symmetry_Int_Tables_number   1
_chemical_formula_structural   Rb4HoLu3(Bi2Se5)4
_chemical_formula_sum   'Rb4 Ho1 Lu3 Bi8 Se20'
_cell_volume   1146.33463116
_cell_formula_units_Z   1
loop_
 _symmetry_equiv_pos_site_id
 _symmetry_equiv_pos_as_xyz
  1  'x, y, z'
loop_
 _atom_site_type_symbol
 _atom_site_label
 _atom_site_symmetry_multiplicity
 _atom_site_fract_x
 _atom_site_fract_y
 _atom_site_fract_z
 _atom_site_occupancy
  Rb  Rb0  1  0.250000  0.489165  0.210171  1
  Rb  Rb1  1  0.750000  0.510829  0.789877  1
  Rb  Rb2  1  0.750000  0.988998  0.289627  1
  Rb  Rb3  1  0.250000  0.010648  0.710463  1
  Ho  Ho4  1  0.250000  0.135318  0.523838  1
  Lu  Lu5  1  0.250000  0.364801  0.023769  1
  Lu  Lu6  1  0.750000  0.635205  0.976245  1
  Lu  Lu7  1  0.750000  0.864146  0.475980  1
  Bi  Bi8  1  0.250000  0.801212  0.125842  1
  Bi  Bi9  1  0.750000  0.198817  0.874189  1
  Bi  Bi10  1  0.750000  0.301701  0.373889  1
  Bi  Bi11  1  0.250000  0.698724  0.625831  1
  Bi  Bi12  1  0.250000  0.596581  0.423775  1
  Bi  Bi13  1  0.750000  0.404043  0.576605  1
  Bi  Bi14  1  0.750000  0.096679  0.076267  1
  Bi  Bi15  1  0.250000  0.903341  0.923764  1
  Se  Se16  1  0.250000  0.814856  0.392474  1
  Se  Se17  1  0.750000  0.186729  0.609603  1
  Se  Se18  1  0.750000  0.314865  0.107479  1
  Se  Se19  1  0.250000  0.685152  0.892532  1
  Se  Se20  1  0.250000  0.246699  0.295108  1
  Se  Se21  1  0.750000  0.753589  0.704696  1
  Se  Se22  1  0.750000  0.746398  0.204699  1
  Se  Se23  1  0.250000  0.253570  0.795321  1
  Se  Se24  1  0.250000  0.354612  0.480861  1
  Se  Se25  1  0.750000  0.647674  0.518599  1
  Se  Se26  1  0.750000  0.852019  0.018579  1
  Se  Se27  1  0.250000  0.147979  0.981441  1
  Se  Se28  1  0.250000  0.026924  0.159327  1
  Se  Se29  1  0.750000  0.973087  0.840695  1
  Se  Se30  1  0.750000  0.526958  0.340546  1
  Se  Se31  1  0.250000  0.472852  0.659464  1
  Se  Se32  1  0.250000  0.582470  0.057635  1
  Se  Se33  1  0.750000  0.417544  0.942377  1
  Se  Se34  1  0.750000  0.080652  0.440589  1
  Se  Se35  1  0.250000  0.915161  0.557847  1
