# generated using pymatgen
data_Er9Tm3ZnCo4Sn
_symmetry_space_group_name_H-M   'P 1'
_cell_length_a   8.25669472
_cell_length_b   8.25992349
_cell_length_c   8.25669513
_cell_angle_alpha   112.00935814
_cell_angle_beta   109.36427088
_cell_angle_gamma   107.06207567
_symmetry_Int_Tables_number   1
_chemical_formula_structural   Er9Tm3ZnCo4Sn
_chemical_formula_sum   'Er9 Tm3 Zn1 Co4 Sn1'
_cell_volume   432.75195926
_cell_formula_units_Z   1
loop_
 _symmetry_equiv_pos_site_id
 _symmetry_equiv_pos_as_xyz
  1  'x, y, z'
loop_
 _atom_site_type_symbol
 _atom_site_label
 _atom_site_symmetry_multiplicity
 _atom_site_fract_x
 _atom_site_fract_y
 _atom_site_fract_z
 _atom_site_occupancy
  Er  Er0  1  0.429502  0.228364  0.200784  1
  Er  Er1  1  0.570839  0.771529  0.799775  1
  Er  Er2  1  0.027579  0.228364  0.798863  1
  Er  Er3  1  0.971755  0.771529  0.200690  1
  Er  Er4  1  0.181958  0.283304  0.465753  1
  Er  Er5  1  0.818436  0.716595  0.534595  1
  Er  Er6  1  0.182000  0.716595  0.898157  1
  Er  Er7  1  0.817550  0.283304  0.101346  1
  Er  Er8  1  0.323554  0.634823  0.311267  1
  Tm  Tm9  1  0.676369  0.364449  0.688082  1
  Tm  Tm10  1  0.323684  0.012106  0.688422  1
  Tm  Tm11  1  0.676614  0.988538  0.311923  1
  Zn  Zn12  1  0.000053  0.000054  0.000001  1
  Co  Co13  1  0.347612  0.000485  0.347738  1
  Co  Co14  1  0.652747  0.000485  0.652873  1
  Co  Co15  1  0.114711  0.614929  0.500218  1
  Co  Co16  1  0.884889  0.384707  0.499818  1
  Sn  Sn17  1  0.500147  0.499842  0.999695  1
