# generated using pymatgen
data_Ho5Tm5AlSb5
_symmetry_space_group_name_H-M   'P 1'
_cell_length_a   8.84210600
_cell_length_b   8.84412405
_cell_length_c   6.31847100
_cell_angle_alpha   90.00000000
_cell_angle_beta   90.00000000
_cell_angle_gamma   119.99245963
_symmetry_Int_Tables_number   1
_chemical_formula_structural   Ho5Tm5AlSb5
_chemical_formula_sum   'Ho5 Tm5 Al1 Sb5'
_cell_volume   427.94323392
_cell_formula_units_Z   1
loop_
 _symmetry_equiv_pos_site_id
 _symmetry_equiv_pos_as_xyz
  1  'x, y, z'
loop_
 _atom_site_type_symbol
 _atom_site_label
 _atom_site_symmetry_multiplicity
 _atom_site_fract_x
 _atom_site_fract_y
 _atom_site_fract_z
 _atom_site_occupancy
  Ho  Ho0  1  0.755280  0.756226  0.250000  1
  Ho  Ho1  1  0.999054  0.243774  0.250000  1
  Ho  Ho2  1  0.009395  0.763574  0.750000  1
  Ho  Ho3  1  0.245821  0.236426  0.750000  1
  Ho  Ho4  1  0.242048  0.000000  0.250000  1
  Tm  Tm5  1  0.334934  0.673717  0.998587  1
  Tm  Tm6  1  0.661218  0.326283  0.501413  1
  Tm  Tm7  1  0.661218  0.326283  0.998587  1
  Tm  Tm8  1  0.334934  0.673717  0.501413  1
  Tm  Tm9  1  0.752388  0.000000  0.750000  1
  Al  Al10  1  0.397956  0.000000  0.750000  1
  Sb  Sb11  1  0.390050  0.393244  0.250000  1
  Sb  Sb12  1  0.996806  0.606756  0.250000  1
  Sb  Sb13  1  0.001473  0.390428  0.750000  1
  Sb  Sb14  1  0.611045  0.609572  0.750000  1
  Sb  Sb15  1  0.606381  0.000000  0.250000  1
