# generated using pymatgen
data_Nd(Tc2P)2
_symmetry_space_group_name_H-M   'P 1'
_cell_length_a   7.48760600
_cell_length_b   7.48760600
_cell_length_c   3.96768000
_cell_angle_alpha   90.00000000
_cell_angle_beta   90.00000000
_cell_angle_gamma   90.00000000
_symmetry_Int_Tables_number   1
_chemical_formula_structural   Nd(Tc2P)2
_chemical_formula_sum   'Nd2 Tc8 P4'
_cell_volume   222.44497809
_cell_formula_units_Z   2
loop_
 _symmetry_equiv_pos_site_id
 _symmetry_equiv_pos_as_xyz
  1  'x, y, z'
loop_
 _atom_site_type_symbol
 _atom_site_label
 _atom_site_symmetry_multiplicity
 _atom_site_fract_x
 _atom_site_fract_y
 _atom_site_fract_z
 _atom_site_occupancy
  Nd  Nd0  1  0.000000  0.000000  0.500000  1
  Nd  Nd1  1  0.500000  0.500000  0.000000  1
  Tc  Tc2  1  0.081890  0.341093  0.000000  1
  Tc  Tc3  1  0.841093  0.418110  0.500000  1
  Tc  Tc4  1  0.158907  0.581890  0.500000  1
  Tc  Tc5  1  0.918110  0.658907  0.000000  1
  Tc  Tc6  1  0.418110  0.841093  0.500000  1
  Tc  Tc7  1  0.581890  0.158907  0.500000  1
  Tc  Tc8  1  0.341093  0.081890  0.000000  1
  Tc  Tc9  1  0.658907  0.918110  0.000000  1
  P  P10  1  0.787095  0.212905  0.000000  1
  P  P11  1  0.712905  0.712905  0.500000  1
  P  P12  1  0.287095  0.287095  0.500000  1
  P  P13  1  0.212905  0.787095  0.000000  1
