# generated using pymatgen
data_Gd6Al13Mo3Os7
_symmetry_space_group_name_H-M   'P 1'
_cell_length_a   8.96584883
_cell_length_b   8.96584978
_cell_length_c   8.96585000
_cell_angle_alpha   59.53443500
_cell_angle_beta   59.53443143
_cell_angle_gamma   59.53443240
_symmetry_Int_Tables_number   1
_chemical_formula_structural   Gd6Al13Mo3Os7
_chemical_formula_sum   'Gd6 Al13 Mo3 Os7'
_cell_volume   504.24009943
_cell_formula_units_Z   1
loop_
 _symmetry_equiv_pos_site_id
 _symmetry_equiv_pos_as_xyz
  1  'x, y, z'
loop_
 _atom_site_type_symbol
 _atom_site_label
 _atom_site_symmetry_multiplicity
 _atom_site_fract_x
 _atom_site_fract_y
 _atom_site_fract_z
 _atom_site_occupancy
  Gd  Gd0  1  0.706430  0.706394  0.287457  1
  Gd  Gd1  1  0.295345  0.705859  0.295323  1
  Gd  Gd2  1  0.705909  0.295294  0.295317  1
  Gd  Gd3  1  0.295361  0.295303  0.705870  1
  Gd  Gd4  1  0.706409  0.287443  0.706399  1
  Gd  Gd5  1  0.287431  0.706405  0.706430  1
  Al  Al6  1  0.880766  0.880782  0.880786  1
  Al  Al7  1  0.120866  0.120763  0.639762  1
  Al  Al8  1  0.120860  0.639761  0.120814  1
  Al  Al9  1  0.639768  0.120786  0.120831  1
  Al  Al10  1  0.121766  0.121703  0.121742  1
  Al  Al11  1  0.670357  0.670410  0.990939  1
  Al  Al12  1  0.670337  0.990975  0.670369  1
  Al  Al13  1  0.990904  0.670424  0.670397  1
  Al  Al14  1  0.666117  0.666186  0.666128  1
  Al  Al15  1  0.330409  0.330410  0.011993  1
  Al  Al16  1  0.330424  0.011930  0.330423  1
  Al  Al17  1  0.012029  0.330411  0.330406  1
  Al  Al18  1  0.330734  0.330686  0.330714  1
  Mo  Mo19  1  0.877663  0.877670  0.361966  1
  Mo  Mo20  1  0.877682  0.361978  0.877675  1
  Mo  Mo21  1  0.361940  0.877662  0.877659  1
  Os  Os22  1  0.004540  0.004642  0.004576  1
  Os  Os23  1  0.998304  0.998459  0.496744  1
  Os  Os24  1  0.503265  0.996119  0.503098  1
  Os  Os25  1  0.996162  0.503200  0.503242  1
  Os  Os26  1  0.503276  0.503154  0.996116  1
  Os  Os27  1  0.998270  0.496842  0.998444  1
  Os  Os28  1  0.496676  0.998350  0.998383  1
