# generated using pymatgen
data_NaLaPt4
_symmetry_space_group_name_H-M   'P 1'
_cell_length_a   5.47341437
_cell_length_b   5.47341429
_cell_length_c   5.47341400
_cell_angle_alpha   60.00000173
_cell_angle_beta   60.00000225
_cell_angle_gamma   59.99999749
_symmetry_Int_Tables_number   1
_chemical_formula_structural   NaLaPt4
_chemical_formula_sum   'Na1 La1 Pt4'
_cell_volume   115.94711728
_cell_formula_units_Z   1
loop_
 _symmetry_equiv_pos_site_id
 _symmetry_equiv_pos_as_xyz
  1  'x, y, z'
loop_
 _atom_site_type_symbol
 _atom_site_label
 _atom_site_symmetry_multiplicity
 _atom_site_fract_x
 _atom_site_fract_y
 _atom_site_fract_z
 _atom_site_occupancy
  Na  Na0  1  0.750000  0.750000  0.750000  1
  La  La1  1  0.500000  0.500000  0.500000  1
  Pt  Pt2  1  0.124622  0.626135  0.124622  1
  Pt  Pt3  1  0.124622  0.124622  0.626135  1
  Pt  Pt4  1  0.626135  0.124622  0.124622  1
  Pt  Pt5  1  0.124622  0.124622  0.124622  1
