# generated using pymatgen
data_Er5Al3Ge4Pd3
_symmetry_space_group_name_H-M   'P 1'
_cell_length_a   4.27374700
_cell_length_b   19.59269800
_cell_length_c   7.02717200
_cell_angle_alpha   90.00000000
_cell_angle_beta   90.00000000
_cell_angle_gamma   90.00000000
_symmetry_Int_Tables_number   1
_chemical_formula_structural   Er5Al3Ge4Pd3
_chemical_formula_sum   'Er10 Al6 Ge8 Pd6'
_cell_volume   588.41486671
_cell_formula_units_Z   2
loop_
 _symmetry_equiv_pos_site_id
 _symmetry_equiv_pos_as_xyz
  1  'x, y, z'
loop_
 _atom_site_type_symbol
 _atom_site_label
 _atom_site_symmetry_multiplicity
 _atom_site_fract_x
 _atom_site_fract_y
 _atom_site_fract_z
 _atom_site_occupancy
  Er  Er0  1  0.249998  0.572410  0.507969  1
  Er  Er1  1  0.249998  0.927590  0.507969  1
  Er  Er2  1  0.750000  0.427590  0.492031  1
  Er  Er3  1  0.750000  0.072410  0.492031  1
  Er  Er4  1  0.249998  0.619736  0.995426  1
  Er  Er5  1  0.249998  0.880263  0.995426  1
  Er  Er6  1  0.750000  0.380264  0.004574  1
  Er  Er7  1  0.750000  0.119737  0.004574  1
  Er  Er8  1  0.249998  0.750000  0.620214  1
  Er  Er9  1  0.750000  0.250000  0.379786  1
  Al  Al10  1  0.249998  0.250000  0.029214  1
  Al  Al11  1  0.750000  0.750000  0.970787  1
  Al  Al12  1  0.249998  0.177094  0.678823  1
  Al  Al13  1  0.249998  0.322906  0.678823  1
  Al  Al14  1  0.750000  0.822905  0.321177  1
  Al  Al15  1  0.750000  0.677094  0.321177  1
  Ge  Ge16  1  0.249998  0.149341  0.290844  1
  Ge  Ge17  1  0.249998  0.350659  0.290844  1
  Ge  Ge18  1  0.750000  0.850659  0.709157  1
  Ge  Ge19  1  0.750000  0.649341  0.709157  1
  Ge  Ge20  1  0.249998  0.046064  0.777667  1
  Ge  Ge21  1  0.249998  0.453936  0.777667  1
  Ge  Ge22  1  0.750000  0.953937  0.222333  1
  Ge  Ge23  1  0.750000  0.546064  0.222333  1
  Pd  Pd24  1  0.249998  0.750000  0.206435  1
  Pd  Pd25  1  0.750000  0.250000  0.793565  1
  Pd  Pd26  1  0.249998  0.025542  0.163424  1
  Pd  Pd27  1  0.249998  0.474458  0.163424  1
  Pd  Pd28  1  0.750000  0.974458  0.836576  1
  Pd  Pd29  1  0.750000  0.525542  0.836576  1
