# generated using pymatgen
data_Er4MgU(P2Ru3)6
_symmetry_space_group_name_H-M   'P 1'
_cell_length_a   12.66170483
_cell_length_b   12.66170600
_cell_length_c   3.94850100
_cell_angle_alpha   90.00000000
_cell_angle_beta   90.00000000
_cell_angle_gamma   121.02529160
_symmetry_Int_Tables_number   1
_chemical_formula_structural   Er4MgU(P2Ru3)6
_chemical_formula_sum   'Er4 Mg1 U1 P12 Ru18'
_cell_volume   542.45911461
_cell_formula_units_Z   1
loop_
 _symmetry_equiv_pos_site_id
 _symmetry_equiv_pos_as_xyz
  1  'x, y, z'
loop_
 _atom_site_type_symbol
 _atom_site_label
 _atom_site_symmetry_multiplicity
 _atom_site_fract_x
 _atom_site_fract_y
 _atom_site_fract_z
 _atom_site_occupancy
  Er  Er0  1  0.813084  0.002393  0.500000  1
  Er  Er1  1  0.002393  0.813084  0.500000  1
  Er  Er2  1  0.329909  0.666042  0.000000  1
  Er  Er3  1  0.666042  0.329909  0.000000  1
  Mg  Mg4  1  0.562743  0.562743  0.000000  1
  U  U5  1  0.174400  0.174400  0.500000  1
  P  P6  1  0.815970  0.815970  0.000000  1
  P  P7  1  0.181413  0.993559  0.000000  1
  P  P8  1  0.993559  0.181413  0.000000  1
  P  P9  1  0.171901  0.480887  0.500000  1
  P  P10  1  0.519659  0.700590  0.500000  1
  P  P11  1  0.309504  0.831184  0.500000  1
  P  P12  1  0.700590  0.519659  0.500000  1
  P  P13  1  0.831184  0.309504  0.500000  1
  P  P14  1  0.480887  0.171901  0.500000  1
  P  P15  1  0.360728  0.360728  0.000000  1
  P  P16  1  0.625237  0.000430  0.000000  1
  P  P17  1  0.000430  0.625237  0.000000  1
  Ru  Ru18  1  0.445218  0.003410  0.000000  1
  Ru  Ru19  1  0.003410  0.445218  0.000000  1
  Ru  Ru20  1  0.720523  0.720523  0.500000  1
  Ru  Ru21  1  0.283910  0.001375  0.500000  1
  Ru  Ru22  1  0.001375  0.283910  0.500000  1
  Ru  Ru23  1  0.182318  0.371128  0.000000  1
  Ru  Ru24  1  0.621196  0.807332  0.000000  1
  Ru  Ru25  1  0.190933  0.814361  0.000000  1
  Ru  Ru26  1  0.807332  0.621196  0.000000  1
  Ru  Ru27  1  0.814361  0.190933  0.000000  1
  Ru  Ru28  1  0.371128  0.182318  0.000000  1
  Ru  Ru29  1  0.363957  0.490340  0.500000  1
  Ru  Ru30  1  0.511376  0.879934  0.500000  1
  Ru  Ru31  1  0.131308  0.636385  0.500000  1
  Ru  Ru32  1  0.879934  0.511376  0.500000  1
  Ru  Ru33  1  0.636385  0.131308  0.500000  1
  Ru  Ru34  1  0.490340  0.363957  0.500000  1
  Ru  Ru35  1  0.005367  0.005367  0.000000  1
