# generated using pymatgen
data_Na2Re(Ni3P2)3
_symmetry_space_group_name_H-M   'P 1'
_cell_length_a   3.64388500
_cell_length_b   10.41088900
_cell_length_c   11.89664900
_cell_angle_alpha   90.00000000
_cell_angle_beta   90.00000000
_cell_angle_gamma   90.00000000
_symmetry_Int_Tables_number   1
_chemical_formula_structural   Na2Re(Ni3P2)3
_chemical_formula_sum   'Na4 Re2 Ni18 P12'
_cell_volume   451.31225513
_cell_formula_units_Z   2
loop_
 _symmetry_equiv_pos_site_id
 _symmetry_equiv_pos_as_xyz
  1  'x, y, z'
loop_
 _atom_site_type_symbol
 _atom_site_label
 _atom_site_symmetry_multiplicity
 _atom_site_fract_x
 _atom_site_fract_y
 _atom_site_fract_z
 _atom_site_occupancy
  Na  Na0  1  0.250000  0.581394  0.704659  1
  Na  Na1  1  0.250000  0.918606  0.204659  1
  Na  Na2  1  0.750000  0.415382  0.294062  1
  Na  Na3  1  0.750000  0.084618  0.794062  1
  Re  Re4  1  0.250000  0.709306  0.990424  1
  Re  Re5  1  0.250000  0.790694  0.490424  1
  Ni  Ni6  1  0.750000  0.285610  0.010389  1
  Ni  Ni7  1  0.750000  0.214390  0.510389  1
  Ni  Ni8  1  0.250000  0.405998  0.486652  1
  Ni  Ni9  1  0.250000  0.094002  0.986652  1
  Ni  Ni10  1  0.750000  0.590398  0.513162  1
  Ni  Ni11  1  0.750000  0.909602  0.013162  1
  Ni  Ni12  1  0.250000  0.217528  0.177254  1
  Ni  Ni13  1  0.250000  0.282472  0.677254  1
  Ni  Ni14  1  0.750000  0.782590  0.822840  1
  Ni  Ni15  1  0.750000  0.717410  0.322840  1
  Ni  Ni16  1  0.250000  0.888287  0.702326  1
  Ni  Ni17  1  0.250000  0.611713  0.202326  1
  Ni  Ni18  1  0.750000  0.119025  0.300385  1
  Ni  Ni19  1  0.750000  0.380975  0.800385  1
  Ni  Ni20  1  0.250000  0.462859  0.930634  1
  Ni  Ni21  1  0.250000  0.037141  0.430634  1
  Ni  Ni22  1  0.750000  0.531238  0.068586  1
  Ni  Ni23  1  0.750000  0.968762  0.568586  1
  P  P24  1  0.250000  0.414205  0.113158  1
  P  P25  1  0.250000  0.085795  0.613158  1
  P  P26  1  0.750000  0.584070  0.884797  1
  P  P27  1  0.750000  0.915930  0.384797  1
  P  P28  1  0.250000  0.265843  0.868398  1
  P  P29  1  0.250000  0.234157  0.368398  1
  P  P30  1  0.750000  0.733671  0.132807  1
  P  P31  1  0.750000  0.766329  0.632807  1
  P  P32  1  0.250000  0.594474  0.390743  1
  P  P33  1  0.250000  0.905526  0.890743  1
  P  P34  1  0.750000  0.398662  0.608723  1
  P  P35  1  0.750000  0.101338  0.108723  1
