# generated using pymatgen
data_Zr2Ta3Nb(B2Ru5)2
_symmetry_space_group_name_H-M   'P 1'
_cell_length_a   9.48170782
_cell_length_b   9.48170801
_cell_length_c   3.06581200
_cell_angle_alpha   90.00000000
_cell_angle_beta   90.00000000
_cell_angle_gamma   90.25170010
_symmetry_Int_Tables_number   1
_chemical_formula_structural   Zr2Ta3Nb(B2Ru5)2
_chemical_formula_sum   'Zr2 Ta3 Nb1 B4 Ru10'
_cell_volume   275.62237739
_cell_formula_units_Z   1
loop_
 _symmetry_equiv_pos_site_id
 _symmetry_equiv_pos_as_xyz
  1  'x, y, z'
loop_
 _atom_site_type_symbol
 _atom_site_label
 _atom_site_symmetry_multiplicity
 _atom_site_fract_x
 _atom_site_fract_y
 _atom_site_fract_z
 _atom_site_occupancy
  Zr  Zr0  1  0.823614  0.676441  0.000000  1
  Zr  Zr1  1  0.176441  0.323614  0.000000  1
  Ta  Ta2  1  0.676192  0.176192  0.000000  1
  Ta  Ta3  1  0.499920  0.500017  0.000000  1
  Ta  Ta4  1  0.000017  0.999920  0.000000  1
  Nb  Nb5  1  0.323985  0.823985  0.000000  1
  B  B6  1  0.620666  0.879238  0.000000  1
  B  B7  1  0.379238  0.120666  0.000000  1
  B  B8  1  0.121598  0.621598  0.000000  1
  B  B9  1  0.878518  0.378518  0.000000  1
  Ru  Ru10  1  0.567103  0.720018  0.500000  1
  Ru  Ru11  1  0.433924  0.280081  0.500000  1
  Ru  Ru12  1  0.074257  0.783091  0.500000  1
  Ru  Ru13  1  0.924587  0.216427  0.500000  1
  Ru  Ru14  1  0.283091  0.574257  0.500000  1
  Ru  Ru15  1  0.716427  0.424587  0.500000  1
  Ru  Ru16  1  0.220018  0.067103  0.500000  1
  Ru  Ru17  1  0.780081  0.933924  0.500000  1
  Ru  Ru18  1  0.500610  0.000610  0.500000  1
  Ru  Ru19  1  0.999714  0.499714  0.500000  1
