# generated using pymatgen
data_Hf3Al2GaOsPd2
_symmetry_space_group_name_H-M   'P 1'
_cell_length_a   7.39022207
_cell_length_b   7.39719559
_cell_length_c   6.61146400
_cell_angle_alpha   89.99854425
_cell_angle_beta   90.00020467
_cell_angle_gamma   119.95243863
_symmetry_Int_Tables_number   1
_chemical_formula_structural   Hf3Al2GaOsPd2
_chemical_formula_sum   'Hf6 Al4 Ga2 Os2 Pd4'
_cell_volume   313.15604583
_cell_formula_units_Z   2
loop_
 _symmetry_equiv_pos_site_id
 _symmetry_equiv_pos_as_xyz
  1  'x, y, z'
loop_
 _atom_site_type_symbol
 _atom_site_label
 _atom_site_symmetry_multiplicity
 _atom_site_fract_x
 _atom_site_fract_y
 _atom_site_fract_z
 _atom_site_occupancy
  Hf  Hf0  1  0.598086  0.608956  0.249489  1
  Hf  Hf1  1  0.014453  0.403671  0.751041  1
  Hf  Hf2  1  0.387988  0.987884  0.249509  1
  Hf  Hf3  1  0.013219  0.403500  0.249022  1
  Hf  Hf4  1  0.386943  0.986657  0.750549  1
  Hf  Hf5  1  0.597906  0.609972  0.750468  1
  Al  Al6  1  0.269138  0.266418  0.499904  1
  Al  Al7  1  0.733018  0.003360  0.499938  1
  Al  Al8  1  0.996386  0.730583  0.499914  1
  Al  Al9  1  0.731489  0.003060  0.000075  1
  Ga  Ga10  1  0.275353  0.272336  0.000090  1
  Ga  Ga11  1  0.993590  0.723123  0.000092  1
  Os  Os12  1  0.333743  0.666979  0.499632  1
  Os  Os13  1  0.337217  0.670378  0.000417  1
  Pd  Pd14  1  0.998482  0.000139  0.751066  1
  Pd  Pd15  1  0.998513  0.000171  0.248928  1
  Pd  Pd16  1  0.667161  0.333354  0.501516  1
  Pd  Pd17  1  0.667313  0.329459  0.998349  1
