# generated using pymatgen
data_Ho2Th(InPt)3
_symmetry_space_group_name_H-M   'P 1'
_cell_length_a   7.68306600
_cell_length_b   7.67650477
_cell_length_c   3.96265900
_cell_angle_alpha   90.00000000
_cell_angle_beta   90.00000000
_cell_angle_gamma   120.02827780
_symmetry_Int_Tables_number   1
_chemical_formula_structural   Ho2Th(InPt)3
_chemical_formula_sum   'Ho2 Th1 In3 Pt3'
_cell_volume   202.34459137
_cell_formula_units_Z   1
loop_
 _symmetry_equiv_pos_site_id
 _symmetry_equiv_pos_as_xyz
  1  'x, y, z'
loop_
 _atom_site_type_symbol
 _atom_site_label
 _atom_site_symmetry_multiplicity
 _atom_site_fract_x
 _atom_site_fract_y
 _atom_site_fract_z
 _atom_site_occupancy
  Ho  Ho0  1  0.406886  0.404836  0.500000  1
  Ho  Ho1  1  0.002050  0.595164  0.500000  1
  Th  Th2  1  0.591454  0.000000  0.500000  1
  In  In3  1  0.743701  0.732246  0.000000  1
  In  In4  1  0.011455  0.267754  0.000000  1
  In  In5  1  0.247278  0.000000  0.000000  1
  Pt  Pt6  1  0.338989  0.673560  0.000000  1
  Pt  Pt7  1  0.665430  0.326440  0.000000  1
  Pt  Pt8  1  0.992756  0.000000  0.500000  1
