# generated using pymatgen
data_Er6IrO12
_symmetry_space_group_name_H-M   'P 1'
_cell_length_a   6.41750310
_cell_length_b   6.41750357
_cell_length_c   6.41750345
_cell_angle_alpha   98.70120962
_cell_angle_beta   98.70122474
_cell_angle_gamma   98.70121538
_symmetry_Int_Tables_number   1
_chemical_formula_structural   Er6IrO12
_chemical_formula_sum   'Er6 Ir1 O12'
_cell_volume   254.11614556
_cell_formula_units_Z   1
loop_
 _symmetry_equiv_pos_site_id
 _symmetry_equiv_pos_as_xyz
  1  'x, y, z'
loop_
 _atom_site_type_symbol
 _atom_site_label
 _atom_site_symmetry_multiplicity
 _atom_site_fract_x
 _atom_site_fract_y
 _atom_site_fract_z
 _atom_site_occupancy
  Er  Er0  1  0.855785  0.388819  0.684833  1
  Er  Er1  1  0.611181  0.315167  0.144215  1
  Er  Er2  1  0.315167  0.144215  0.611181  1
  Er  Er3  1  0.684833  0.855785  0.388819  1
  Er  Er4  1  0.388819  0.684833  0.855785  1
  Er  Er5  1  0.144215  0.611181  0.315167  1
  Ir  Ir6  1  0.000000  0.000000  0.000000  1
  O  O7  1  0.928170  0.035529  0.699564  1
  O  O8  1  0.964471  0.300436  0.071830  1
  O  O9  1  0.591460  0.177303  0.432885  1
  O  O10  1  0.822697  0.567115  0.408540  1
  O  O11  1  0.300436  0.071830  0.964471  1
  O  O12  1  0.567115  0.408540  0.822697  1
  O  O13  1  0.432885  0.591460  0.177303  1
  O  O14  1  0.699564  0.928170  0.035529  1
  O  O15  1  0.177303  0.432885  0.591460  1
  O  O16  1  0.408540  0.822697  0.567115  1
  O  O17  1  0.035529  0.699564  0.928170  1
  O  O18  1  0.071830  0.964471  0.300436  1
