# generated using pymatgen
data_DyHfMn12P7
_symmetry_space_group_name_H-M   'P 1'
_cell_length_a   9.23002300
_cell_length_b   9.23002204
_cell_length_c   3.56146700
_cell_angle_alpha   90.00000000
_cell_angle_beta   90.00000000
_cell_angle_gamma   120.00000702
_symmetry_Int_Tables_number   1
_chemical_formula_structural   DyHfMn12P7
_chemical_formula_sum   'Dy1 Hf1 Mn12 P7'
_cell_volume   262.76350539
_cell_formula_units_Z   1
loop_
 _symmetry_equiv_pos_site_id
 _symmetry_equiv_pos_as_xyz
  1  'x, y, z'
loop_
 _atom_site_type_symbol
 _atom_site_label
 _atom_site_symmetry_multiplicity
 _atom_site_fract_x
 _atom_site_fract_y
 _atom_site_fract_z
 _atom_site_occupancy
  Dy  Dy0  1  0.333333  0.666667  0.500000  1
  Hf  Hf1  1  0.666667  0.333333  0.000000  1
  Mn  Mn2  1  0.378418  0.953661  0.000000  1
  Mn  Mn3  1  0.046339  0.424757  0.000000  1
  Mn  Mn4  1  0.575243  0.621582  0.000000  1
  Mn  Mn5  1  0.878614  0.720966  0.000000  1
  Mn  Mn6  1  0.279034  0.157648  0.000000  1
  Mn  Mn7  1  0.842352  0.121386  0.000000  1
  Mn  Mn8  1  0.951402  0.559243  0.500000  1
  Mn  Mn9  1  0.440757  0.392160  0.500000  1
  Mn  Mn10  1  0.607840  0.048598  0.500000  1
  Mn  Mn11  1  0.125228  0.896702  0.500000  1
  Mn  Mn12  1  0.103298  0.228526  0.500000  1
  Mn  Mn13  1  0.771474  0.874772  0.500000  1
  P  P14  1  0.119871  0.709646  0.000000  1
  P  P15  1  0.290354  0.410225  0.000000  1
  P  P16  1  0.589775  0.880129  0.000000  1
  P  P17  1  0.718548  0.586354  0.500000  1
  P  P18  1  0.413646  0.132195  0.500000  1
  P  P19  1  0.867805  0.281452  0.500000  1
  P  P20  1  0.000000  0.000000  0.000000  1
