# generated using pymatgen
data_Yb3ZnIr3RhO14
_symmetry_space_group_name_H-M   'P 1'
_cell_length_a   7.09354966
_cell_length_b   7.09354914
_cell_length_c   7.09354867
_cell_angle_alpha   61.60477188
_cell_angle_beta   61.60477074
_cell_angle_gamma   61.60477585
_symmetry_Int_Tables_number   1
_chemical_formula_structural   Yb3ZnIr3RhO14
_chemical_formula_sum   'Yb3 Zn1 Ir3 Rh1 O14'
_cell_volume   261.47732810
_cell_formula_units_Z   1
loop_
 _symmetry_equiv_pos_site_id
 _symmetry_equiv_pos_as_xyz
  1  'x, y, z'
loop_
 _atom_site_type_symbol
 _atom_site_label
 _atom_site_symmetry_multiplicity
 _atom_site_fract_x
 _atom_site_fract_y
 _atom_site_fract_z
 _atom_site_occupancy
  Yb  Yb0  1  0.625000  0.125000  0.125000  1
  Yb  Yb1  1  0.125000  0.625000  0.125000  1
  Yb  Yb2  1  0.125000  0.125000  0.625000  1
  Zn  Zn3  1  0.125000  0.125000  0.125000  1
  Ir  Ir4  1  0.125000  0.625000  0.625000  1
  Ir  Ir5  1  0.625000  0.125000  0.625000  1
  Ir  Ir6  1  0.625000  0.625000  0.125000  1
  Rh  Rh7  1  0.625000  0.625000  0.625000  1
  O  O8  1  0.709604  0.709604  0.290076  1
  O  O9  1  0.304305  0.304305  0.698479  1
  O  O10  1  0.709604  0.290076  0.709604  1
  O  O11  1  0.304305  0.698479  0.304305  1
  O  O12  1  0.290076  0.709604  0.709604  1
  O  O13  1  0.698479  0.304305  0.304305  1
  O  O14  1  0.540396  0.540396  0.959924  1
  O  O15  1  0.945695  0.945695  0.551521  1
  O  O16  1  0.540396  0.959924  0.540396  1
  O  O17  1  0.945695  0.551521  0.945695  1
  O  O18  1  0.959924  0.540396  0.540396  1
  O  O19  1  0.551521  0.945695  0.945695  1
  O  O20  1  0.234604  0.234604  0.234604  1
  O  O21  1  0.015396  0.015396  0.015396  1
