# generated using pymatgen
data_Er2UFe3
_symmetry_space_group_name_H-M   'P 1'
_cell_length_a   5.01758625
_cell_length_b   5.01740797
_cell_length_c   5.01753638
_cell_angle_alpha   66.55975745
_cell_angle_beta   66.55974579
_cell_angle_gamma   66.56011141
_symmetry_Int_Tables_number   1
_chemical_formula_structural   Er2UFe3
_chemical_formula_sum   'Er2 U1 Fe3'
_cell_volume   101.93301375
_cell_formula_units_Z   1
loop_
 _symmetry_equiv_pos_site_id
 _symmetry_equiv_pos_as_xyz
  1  'x, y, z'
loop_
 _atom_site_type_symbol
 _atom_site_label
 _atom_site_symmetry_multiplicity
 _atom_site_fract_x
 _atom_site_fract_y
 _atom_site_fract_z
 _atom_site_occupancy
  Er  Er0  1  0.626140  0.626142  0.626143  1
  Er  Er1  1  0.373860  0.373858  0.373857  1
  U  U2  1  0.000000  0.000000  0.000000  1
  Fe  Fe3  1  0.000000  0.500000  0.000000  1
  Fe  Fe4  1  0.500000  0.000000  0.000000  1
  Fe  Fe5  1  0.000000  0.000000  0.500000  1
