# generated using pymatgen
data_Tb2Ce3Bi2Ir
_symmetry_space_group_name_H-M   'P 1'
_cell_length_a   8.03024900
_cell_length_b   9.02806400
_cell_length_c   12.53280900
_cell_angle_alpha   90.00000000
_cell_angle_beta   90.00000000
_cell_angle_gamma   90.00000000
_symmetry_Int_Tables_number   1
_chemical_formula_structural   Tb2Ce3Bi2Ir
_chemical_formula_sum   'Tb8 Ce12 Bi8 Ir4'
_cell_volume   908.59859767
_cell_formula_units_Z   4
loop_
 _symmetry_equiv_pos_site_id
 _symmetry_equiv_pos_as_xyz
  1  'x, y, z'
loop_
 _atom_site_type_symbol
 _atom_site_label
 _atom_site_symmetry_multiplicity
 _atom_site_fract_x
 _atom_site_fract_y
 _atom_site_fract_z
 _atom_site_occupancy
  Tb  Tb0  1  0.845524  0.750000  0.791972  1
  Tb  Tb1  1  0.154476  0.250000  0.208028  1
  Tb  Tb2  1  0.345524  0.250000  0.708028  1
  Tb  Tb3  1  0.654476  0.750000  0.291972  1
  Tb  Tb4  1  0.374965  0.750000  0.701433  1
  Tb  Tb5  1  0.625035  0.250000  0.298567  1
  Tb  Tb6  1  0.874965  0.250000  0.798567  1
  Tb  Tb7  1  0.125035  0.750000  0.201433  1
  Ce  Ce8  1  0.963324  0.750000  0.500167  1
  Ce  Ce9  1  0.036676  0.250000  0.499833  1
  Ce  Ce10  1  0.463324  0.250000  0.999833  1
  Ce  Ce11  1  0.536676  0.750000  0.000167  1
  Ce  Ce12  1  0.691285  0.039521  0.556140  1
  Ce  Ce13  1  0.308715  0.960479  0.443860  1
  Ce  Ce14  1  0.191285  0.960479  0.943860  1
  Ce  Ce15  1  0.308715  0.539521  0.443860  1
  Ce  Ce16  1  0.808715  0.039521  0.056140  1
  Ce  Ce17  1  0.691285  0.460479  0.556140  1
  Ce  Ce18  1  0.808715  0.460479  0.056140  1
  Ce  Ce19  1  0.191285  0.539521  0.943860  1
  Bi  Bi20  1  0.577521  0.491353  0.820458  1
  Bi  Bi21  1  0.422479  0.508647  0.179542  1
  Bi  Bi22  1  0.077521  0.508647  0.679542  1
  Bi  Bi23  1  0.422479  0.991353  0.179542  1
  Bi  Bi24  1  0.922479  0.491353  0.320458  1
  Bi  Bi25  1  0.577521  0.008647  0.820458  1
  Bi  Bi26  1  0.922479  0.008647  0.320458  1
  Bi  Bi27  1  0.077521  0.991353  0.679542  1
  Ir  Ir28  1  0.572598  0.750000  0.512497  1
  Ir  Ir29  1  0.427402  0.250000  0.487503  1
  Ir  Ir30  1  0.072598  0.250000  0.987503  1
  Ir  Ir31  1  0.927402  0.750000  0.012497  1
