# generated using pymatgen
data_Tb3YV3FeB16
_symmetry_space_group_name_H-M   'P 1'
_cell_length_a   3.45047000
_cell_length_b   5.99188419
_cell_length_c   11.58570307
_cell_angle_alpha   89.95780986
_cell_angle_beta   90.00000000
_cell_angle_gamma   90.00000000
_symmetry_Int_Tables_number   1
_chemical_formula_structural   Tb3YV3FeB16
_chemical_formula_sum   'Tb3 Y1 V3 Fe1 B16'
_cell_volume   239.53222156
_cell_formula_units_Z   1
loop_
 _symmetry_equiv_pos_site_id
 _symmetry_equiv_pos_as_xyz
  1  'x, y, z'
loop_
 _atom_site_type_symbol
 _atom_site_label
 _atom_site_symmetry_multiplicity
 _atom_site_fract_x
 _atom_site_fract_y
 _atom_site_fract_z
 _atom_site_occupancy
  Tb  Tb0  1  0.500000  0.376048  0.151303  1
  Tb  Tb1  1  0.500000  0.625765  0.848989  1
  Tb  Tb2  1  0.500000  0.124170  0.650398  1
  Y  Y3  1  0.500000  0.875918  0.349025  1
  V  V4  1  0.500000  0.373227  0.414323  1
  V  V5  1  0.500000  0.626759  0.582677  1
  V  V6  1  0.500000  0.126669  0.920173  1
  Fe  Fe7  1  0.500000  0.874002  0.081692  1
  B  B8  1  0.000000  0.108496  0.049493  1
  B  B9  1  0.000000  0.884038  0.956031  1
  B  B10  1  0.000000  0.385562  0.546152  1
  B  B11  1  0.000000  0.614289  0.452211  1
  B  B12  1  0.000000  0.135317  0.466657  1
  B  B13  1  0.000000  0.864304  0.532531  1
  B  B14  1  0.000000  0.364251  0.969778  1
  B  B15  1  0.000000  0.639235  0.033188  1
  B  B16  1  0.000000  0.021368  0.190668  1
  B  B17  1  0.000000  0.975225  0.809499  1
  B  B18  1  0.000000  0.474561  0.692205  1
  B  B19  1  0.000000  0.527491  0.306108  1
  B  B20  1  0.000000  0.213657  0.312616  1
  B  B21  1  0.000000  0.784842  0.686224  1
  B  B22  1  0.000000  0.283301  0.815803  1
  B  B23  1  0.000000  0.721506  0.182258  1
