# generated using pymatgen
data_Eu2Ni(PRh)6
_symmetry_space_group_name_H-M   'P 1'
_cell_length_a   11.05873300
_cell_length_b   11.05873300
_cell_length_c   4.10471900
_cell_angle_alpha   90.00000000
_cell_angle_beta   90.00000000
_cell_angle_gamma   90.00000000
_symmetry_Int_Tables_number   1
_chemical_formula_structural   Eu2Ni(PRh)6
_chemical_formula_sum   'Eu4 Ni2 P12 Rh12'
_cell_volume   501.98897264
_cell_formula_units_Z   2
loop_
 _symmetry_equiv_pos_site_id
 _symmetry_equiv_pos_as_xyz
  1  'x, y, z'
loop_
 _atom_site_type_symbol
 _atom_site_label
 _atom_site_symmetry_multiplicity
 _atom_site_fract_x
 _atom_site_fract_y
 _atom_site_fract_z
 _atom_site_occupancy
  Eu  Eu0  1  0.165671  0.665671  0.749384  1
  Eu  Eu1  1  0.334329  0.165671  0.250616  1
  Eu  Eu2  1  0.665671  0.834329  0.250616  1
  Eu  Eu3  1  0.834329  0.334329  0.749384  1
  Ni  Ni4  1  0.000000  0.000000  0.000000  1
  Ni  Ni5  1  0.500000  0.500000  0.000000  1
  P  P6  1  0.858060  0.109730  0.262320  1
  P  P7  1  0.358060  0.390270  0.737680  1
  P  P8  1  0.571616  0.071616  0.758962  1
  P  P9  1  0.641940  0.609730  0.737680  1
  P  P10  1  0.609730  0.358060  0.262320  1
  P  P11  1  0.071616  0.428384  0.241038  1
  P  P12  1  0.390270  0.641940  0.262320  1
  P  P13  1  0.928384  0.571616  0.241038  1
  P  P14  1  0.109730  0.141940  0.737680  1
  P  P15  1  0.428384  0.928384  0.758962  1
  P  P16  1  0.141940  0.890270  0.262320  1
  P  P17  1  0.890270  0.858060  0.737680  1
  Rh  Rh18  1  0.534931  0.279297  0.750726  1
  Rh  Rh19  1  0.034931  0.220703  0.249274  1
  Rh  Rh20  1  0.720703  0.534931  0.249274  1
  Rh  Rh21  1  0.279297  0.465069  0.249274  1
  Rh  Rh22  1  0.350364  0.850364  0.257527  1
  Rh  Rh23  1  0.850364  0.649636  0.742473  1
  Rh  Rh24  1  0.965069  0.779297  0.249274  1
  Rh  Rh25  1  0.220703  0.965069  0.750726  1
  Rh  Rh26  1  0.779297  0.034931  0.750726  1
  Rh  Rh27  1  0.149636  0.350364  0.742473  1
  Rh  Rh28  1  0.465069  0.720703  0.750726  1
  Rh  Rh29  1  0.649636  0.149636  0.257527  1
