# generated using pymatgen
data_Th2CoSi8Ni17
_symmetry_space_group_name_H-M   'P 1'
_cell_length_a   7.90540337
_cell_length_b   7.98224649
_cell_length_c   7.94954289
_cell_angle_alpha   121.14518292
_cell_angle_beta   120.83193775
_cell_angle_gamma   88.25395780
_symmetry_Int_Tables_number   1
_chemical_formula_structural   Th2CoSi8Ni17
_chemical_formula_sum   'Th2 Co1 Si8 Ni17'
_cell_volume   349.36644043
_cell_formula_units_Z   1
loop_
 _symmetry_equiv_pos_site_id
 _symmetry_equiv_pos_as_xyz
  1  'x, y, z'
loop_
 _atom_site_type_symbol
 _atom_site_label
 _atom_site_symmetry_multiplicity
 _atom_site_fract_x
 _atom_site_fract_y
 _atom_site_fract_z
 _atom_site_occupancy
  Th  Th0  1  0.747346  0.748019  0.996835  1
  Th  Th1  1  0.250510  0.251184  0.003165  1
  Co  Co2  1  0.319545  0.551329  0.500001  1
  Si  Si3  1  0.053030  0.553357  0.839909  1
  Si  Si4  1  0.713121  0.213448  0.160091  1
  Si  Si5  1  0.551425  0.713631  0.500000  1
  Si  Si6  1  0.212931  0.053173  0.500000  1
  Si  Si7  1  0.949396  0.446818  0.161487  1
  Si  Si8  1  0.287909  0.785330  0.838512  1
  Si  Si9  1  0.445495  0.287449  0.500000  1
  Si  Si10  1  0.787198  0.945891  0.500000  1
  Ni  Ni11  1  0.068588  0.203267  0.272421  1
  Ni  Ni12  1  0.930609  0.796793  0.727186  1
  Ni  Ni13  1  0.569278  0.296675  0.866743  1
  Ni  Ni14  1  0.431024  0.703989  0.133868  1
  Ni  Ni15  1  0.797158  0.070121  0.866133  1
  Ni  Ni16  1  0.202535  0.929933  0.133258  1
  Ni  Ni17  1  0.703425  0.569608  0.272815  1
  Ni  Ni18  1  0.296166  0.430845  0.727578  1
  Ni  Ni19  1  0.447048  0.947305  0.764904  1
  Ni  Ni20  1  0.182144  0.682401  0.235097  1
  Ni  Ni21  1  0.946975  0.181569  0.499999  1
  Ni  Ni22  1  0.681100  0.447476  0.500000  1
  Ni  Ni23  1  0.553188  0.053418  0.235137  1
  Ni  Ni24  1  0.818051  0.318281  0.764863  1
  Ni  Ni25  1  0.054908  0.817310  0.500000  1
  Ni  Ni26  1  0.999893  0.500430  0.500000  1
  Ni  Ni27  1  0.500004  0.000949  0.500000  1
