# generated using pymatgen
data_Dy4Sb6Ru3Rh4
_symmetry_space_group_name_H-M   'P 1'
_cell_length_a   7.58618423
_cell_length_b   7.58618459
_cell_length_c   7.57942403
_cell_angle_alpha   109.45831808
_cell_angle_beta   109.45831183
_cell_angle_gamma   109.53312049
_symmetry_Int_Tables_number   1
_chemical_formula_structural   Dy4Sb6Ru3Rh4
_chemical_formula_sum   'Dy4 Sb6 Ru3 Rh4'
_cell_volume   335.63507712
_cell_formula_units_Z   1
loop_
 _symmetry_equiv_pos_site_id
 _symmetry_equiv_pos_as_xyz
  1  'x, y, z'
loop_
 _atom_site_type_symbol
 _atom_site_label
 _atom_site_symmetry_multiplicity
 _atom_site_fract_x
 _atom_site_fract_y
 _atom_site_fract_z
 _atom_site_occupancy
  Dy  Dy0  1  0.499270  0.999270  0.998540  1
  Dy  Dy1  1  0.999270  0.499270  0.998540  1
  Dy  Dy2  1  0.002093  0.002093  0.501325  1
  Dy  Dy3  1  0.499232  0.499232  0.501325  1
  Sb  Sb4  1  0.315966  0.001004  0.316969  1
  Sb  Sb5  1  0.000802  0.684081  0.684883  1
  Sb  Sb6  1  0.682753  0.682753  0.997848  1
  Sb  Sb7  1  0.684081  0.000802  0.684883  1
  Sb  Sb8  1  0.001004  0.315966  0.316969  1
  Sb  Sb9  1  0.315095  0.315095  0.997848  1
  Ru  Ru10  1  0.249421  0.500067  0.749488  1
  Ru  Ru11  1  0.500067  0.249421  0.749488  1
  Ru  Ru12  1  0.000060  0.000060  0.000120  1
  Rh  Rh13  1  0.750303  0.250303  0.500607  1
  Rh  Rh14  1  0.499837  0.750443  0.250280  1
  Rh  Rh15  1  0.250303  0.750303  0.500607  1
  Rh  Rh16  1  0.750443  0.499837  0.250280  1
