# generated using pymatgen
data_Tb3DyPtAu3
_symmetry_space_group_name_H-M   'P 1'
_cell_length_a   4.69659600
_cell_length_b   5.66221347
_cell_length_c   7.18938461
_cell_angle_alpha   90.91846796
_cell_angle_beta   90.00000000
_cell_angle_gamma   90.00000000
_symmetry_Int_Tables_number   1
_chemical_formula_structural   Tb3DyPtAu3
_chemical_formula_sum   'Tb3 Dy1 Pt1 Au3'
_cell_volume   191.16366907
_cell_formula_units_Z   1
loop_
 _symmetry_equiv_pos_site_id
 _symmetry_equiv_pos_as_xyz
  1  'x, y, z'
loop_
 _atom_site_type_symbol
 _atom_site_label
 _atom_site_symmetry_multiplicity
 _atom_site_fract_x
 _atom_site_fract_y
 _atom_site_fract_z
 _atom_site_occupancy
  Tb  Tb0  1  0.250000  0.352590  0.693141  1
  Tb  Tb1  1  0.750000  0.640375  0.311947  1
  Tb  Tb2  1  0.750000  0.859148  0.819752  1
  Dy  Dy3  1  0.250000  0.151849  0.175573  1
  Pt  Pt4  1  0.750000  0.344430  0.958812  1
  Au  Au5  1  0.250000  0.844642  0.539798  1
  Au  Au6  1  0.250000  0.655319  0.043434  1
  Au  Au7  1  0.750000  0.151647  0.457544  1
