# generated using pymatgen
data_Ca2Al20ReRh3
_symmetry_space_group_name_H-M   'P 1'
_cell_length_a   6.89335468
_cell_length_b   6.90821691
_cell_length_c   9.17856277
_cell_angle_alpha   90.09758194
_cell_angle_beta   90.42296161
_cell_angle_gamma   96.89106993
_symmetry_Int_Tables_number   1
_chemical_formula_structural   Ca2Al20ReRh3
_chemical_formula_sum   'Ca2 Al20 Re1 Rh3'
_cell_volume   433.91958858
_cell_formula_units_Z   1
loop_
 _symmetry_equiv_pos_site_id
 _symmetry_equiv_pos_as_xyz
  1  'x, y, z'
loop_
 _atom_site_type_symbol
 _atom_site_label
 _atom_site_symmetry_multiplicity
 _atom_site_fract_x
 _atom_site_fract_y
 _atom_site_fract_z
 _atom_site_occupancy
  Ca  Ca0  1  0.872896  0.122867  0.749208  1
  Ca  Ca1  1  0.127104  0.877133  0.250792  1
  Al  Al2  1  0.620087  0.376002  0.548531  1
  Al  Al3  1  0.379913  0.623998  0.451469  1
  Al  Al4  1  0.379231  0.620918  0.050243  1
  Al  Al5  1  0.620769  0.379082  0.949757  1
  Al  Al6  1  0.223034  0.222326  0.498539  1
  Al  Al7  1  0.776966  0.777674  0.501461  1
  Al  Al8  1  0.775314  0.775921  0.999855  1
  Al  Al9  1  0.224686  0.224079  0.000145  1
  Al  Al10  1  0.842135  0.159265  0.102387  1
  Al  Al11  1  0.157865  0.840735  0.897613  1
  Al  Al12  1  0.158333  0.842600  0.599330  1
  Al  Al13  1  0.841667  0.157400  0.400670  1
  Al  Al14  1  0.858936  0.589366  0.749743  1
  Al  Al15  1  0.141064  0.410634  0.250257  1
  Al  Al16  1  0.410926  0.141277  0.749508  1
  Al  Al17  1  0.589074  0.858723  0.250492  1
  Al  Al18  1  0.223810  0.478850  0.751012  1
  Al  Al19  1  0.776190  0.521150  0.248988  1
  Al  Al20  1  0.521724  0.778121  0.746259  1
  Al  Al21  1  0.478276  0.221879  0.253741  1
  Re  Re22  1  0.500000  0.000000  0.500000  1
  Rh  Rh23  1  0.000000  0.500000  0.500000  1
  Rh  Rh24  1  0.000000  0.500000  0.000000  1
  Rh  Rh25  1  0.500000  0.000000  0.000000  1
