# generated using pymatgen
data_Ce4Tm15MgIr12
_symmetry_space_group_name_H-M   'P 1'
_cell_length_a   10.79423981
_cell_length_b   10.79831180
_cell_length_c   6.23659600
_cell_angle_alpha   90.00000000
_cell_angle_beta   90.00000000
_cell_angle_gamma   90.09621583
_symmetry_Int_Tables_number   1
_chemical_formula_structural   Ce4Tm15MgIr12
_chemical_formula_sum   'Ce4 Tm15 Mg1 Ir12'
_cell_volume   726.93390513
_cell_formula_units_Z   1
loop_
 _symmetry_equiv_pos_site_id
 _symmetry_equiv_pos_as_xyz
  1  'x, y, z'
loop_
 _atom_site_type_symbol
 _atom_site_label
 _atom_site_symmetry_multiplicity
 _atom_site_fract_x
 _atom_site_fract_y
 _atom_site_fract_z
 _atom_site_occupancy
  Ce  Ce0  1  0.286328  0.087917  0.382143  1
  Ce  Ce1  1  0.292099  0.907086  0.880971  1
  Ce  Ce2  1  0.707901  0.092914  0.880971  1
  Ce  Ce3  1  0.713672  0.912083  0.382143  1
  Tm  Tm4  1  0.590038  0.785932  0.878122  1
  Tm  Tm5  1  0.587017  0.213715  0.375329  1
  Tm  Tm6  1  0.412983  0.786285  0.375329  1
  Tm  Tm7  1  0.409962  0.214068  0.878122  1
  Tm  Tm8  1  0.206499  0.415101  0.623348  1
  Tm  Tm9  1  0.206617  0.586419  0.121585  1
  Tm  Tm10  1  0.793383  0.413581  0.121585  1
  Tm  Tm11  1  0.793501  0.584899  0.623348  1
  Tm  Tm12  1  0.913609  0.707548  0.117611  1
  Tm  Tm13  1  0.917683  0.285981  0.617340  1
  Tm  Tm14  1  0.082317  0.714019  0.617340  1
  Tm  Tm15  1  0.086391  0.292452  0.117611  1
  Tm  Tm16  1  0.000000  0.000000  0.000006  1
  Tm  Tm17  1  0.500000  0.500000  0.009580  1
  Tm  Tm18  1  0.500000  0.500000  0.510447  1
  Mg  Mg19  1  0.000000  0.000000  0.500975  1
  Ir  Ir20  1  0.844469  0.156039  0.241712  1
  Ir  Ir21  1  0.843337  0.845561  0.748215  1
  Ir  Ir22  1  0.156663  0.154439  0.748215  1
  Ir  Ir23  1  0.155531  0.843961  0.241712  1
  Ir  Ir24  1  0.654836  0.347178  0.752116  1
  Ir  Ir25  1  0.653485  0.653041  0.257184  1
  Ir  Ir26  1  0.346515  0.346959  0.257184  1
  Ir  Ir27  1  0.345164  0.652822  0.752116  1
  Ir  Ir28  1  0.500000  0.000000  0.120187  1
  Ir  Ir29  1  0.500000  0.000000  0.619020  1
  Ir  Ir30  1  0.000000  0.500000  0.872616  1
  Ir  Ir31  1  0.000000  0.500000  0.375816  1
