# generated using pymatgen
data_Y5AlPd4
_symmetry_space_group_name_H-M   'P 1'
_cell_length_a   7.73709900
_cell_length_b   7.73709900
_cell_length_c   3.82130900
_cell_angle_alpha   90.00000000
_cell_angle_beta   90.00000000
_cell_angle_gamma   90.00000000
_symmetry_Int_Tables_number   1
_chemical_formula_structural   Y5AlPd4
_chemical_formula_sum   'Y5 Al1 Pd4'
_cell_volume   228.75387785
_cell_formula_units_Z   1
loop_
 _symmetry_equiv_pos_site_id
 _symmetry_equiv_pos_as_xyz
  1  'x, y, z'
loop_
 _atom_site_type_symbol
 _atom_site_label
 _atom_site_symmetry_multiplicity
 _atom_site_fract_x
 _atom_site_fract_y
 _atom_site_fract_z
 _atom_site_occupancy
  Y  Y0  1  0.808917  0.641756  0.500000  1
  Y  Y1  1  0.358244  0.808917  0.500000  1
  Y  Y2  1  0.191083  0.358244  0.500000  1
  Y  Y3  1  0.641756  0.191083  0.500000  1
  Y  Y4  1  0.000000  0.000000  0.000000  1
  Al  Al5  1  0.500000  0.500000  0.000000  1
  Pd  Pd6  1  0.130529  0.636456  0.000000  1
  Pd  Pd7  1  0.636456  0.869471  0.000000  1
  Pd  Pd8  1  0.363544  0.130529  0.000000  1
  Pd  Pd9  1  0.869471  0.363544  0.000000  1
