# generated using pymatgen
data_Tb2Y5Er13Sn16
_symmetry_space_group_name_H-M   'P 1'
_cell_length_a   8.00145646
_cell_length_b   8.13345107
_cell_length_c   15.37681200
_cell_angle_alpha   90.01523717
_cell_angle_beta   90.09263761
_cell_angle_gamma   89.95262255
_symmetry_Int_Tables_number   1
_chemical_formula_structural   Tb2Y5Er13Sn16
_chemical_formula_sum   'Tb2 Y5 Er13 Sn16'
_cell_volume   1000.71285262
_cell_formula_units_Z   1
loop_
 _symmetry_equiv_pos_site_id
 _symmetry_equiv_pos_as_xyz
  1  'x, y, z'
loop_
 _atom_site_type_symbol
 _atom_site_label
 _atom_site_symmetry_multiplicity
 _atom_site_fract_x
 _atom_site_fract_y
 _atom_site_fract_z
 _atom_site_occupancy
  Tb  Tb0  1  0.519856  0.321136  0.596941  1
  Tb  Tb1  1  0.020508  0.179246  0.902938  1
  Y  Y2  1  0.020495  0.179358  0.597312  1
  Y  Y3  1  0.479743  0.679166  0.403370  1
  Y  Y4  1  0.979238  0.820629  0.096678  1
  Y  Y5  1  0.479421  0.678980  0.096650  1
  Y  Y6  1  0.979648  0.820672  0.403425  1
  Er  Er7  1  0.366836  0.837490  0.877057  1
  Er  Er8  1  0.866193  0.662593  0.623155  1
  Er  Er9  1  0.633276  0.162649  0.377192  1
  Er  Er10  1  0.132771  0.337643  0.122343  1
  Er  Er11  1  0.632633  0.162516  0.122379  1
  Er  Er12  1  0.133415  0.337334  0.377268  1
  Er  Er13  1  0.366637  0.837568  0.623355  1
  Er  Er14  1  0.867098  0.662401  0.877166  1
  Er  Er15  1  0.521665  0.321305  0.902526  1
  Er  Er16  1  0.198233  0.503787  0.750304  1
  Er  Er17  1  0.698024  0.996282  0.750251  1
  Er  Er18  1  0.801836  0.495738  0.249839  1
  Er  Er19  1  0.301841  0.003887  0.249875  1
  Sn  Sn20  1  0.294552  0.038488  0.041189  1
  Sn  Sn21  1  0.795015  0.461247  0.458747  1
  Sn  Sn22  1  0.705190  0.961377  0.541790  1
  Sn  Sn23  1  0.207832  0.537466  0.957930  1
  Sn  Sn24  1  0.705154  0.961992  0.958087  1
  Sn  Sn25  1  0.204719  0.539197  0.541661  1
  Sn  Sn26  1  0.294894  0.038676  0.458894  1
  Sn  Sn27  1  0.793492  0.460862  0.040628  1
  Sn  Sn28  1  0.563950  0.619560  0.750398  1
  Sn  Sn29  1  0.063867  0.880326  0.750208  1
  Sn  Sn30  1  0.435343  0.380658  0.249667  1
  Sn  Sn31  1  0.935615  0.119236  0.249714  1
  Sn  Sn32  1  0.331165  0.148839  0.750758  1
  Sn  Sn33  1  0.829824  0.351917  0.750268  1
  Sn  Sn34  1  0.670082  0.851686  0.249966  1
  Sn  Sn35  1  0.169935  0.648092  0.250071  1
