# generated using pymatgen
data_Ho4Co16Mo3P12W
_symmetry_space_group_name_H-M   'P 1'
_cell_length_a   3.69747900
_cell_length_b   10.38858968
_cell_length_c   11.84123788
_cell_angle_alpha   89.95142870
_cell_angle_beta   90.00000000
_cell_angle_gamma   90.00000000
_symmetry_Int_Tables_number   1
_chemical_formula_structural   Ho4Co16Mo3P12W
_chemical_formula_sum   'Ho4 Co16 Mo3 P12 W1'
_cell_volume   454.84063670
_cell_formula_units_Z   1
loop_
 _symmetry_equiv_pos_site_id
 _symmetry_equiv_pos_as_xyz
  1  'x, y, z'
loop_
 _atom_site_type_symbol
 _atom_site_label
 _atom_site_symmetry_multiplicity
 _atom_site_fract_x
 _atom_site_fract_y
 _atom_site_fract_z
 _atom_site_occupancy
  Ho  Ho0  1  0.250000  0.583249  0.704134  1
  Ho  Ho1  1  0.250000  0.917029  0.204123  1
  Ho  Ho2  1  0.750000  0.417140  0.295719  1
  Ho  Ho3  1  0.750000  0.083076  0.796203  1
  Co  Co4  1  0.250000  0.405474  0.488845  1
  Co  Co5  1  0.250000  0.093797  0.989211  1
  Co  Co6  1  0.750000  0.593798  0.510706  1
  Co  Co7  1  0.750000  0.906262  0.010728  1
  Co  Co8  1  0.250000  0.221868  0.178152  1
  Co  Co9  1  0.250000  0.277444  0.677681  1
  Co  Co10  1  0.750000  0.778196  0.821946  1
  Co  Co11  1  0.750000  0.721428  0.321930  1
  Co  Co12  1  0.250000  0.887407  0.700606  1
  Co  Co13  1  0.250000  0.612654  0.200806  1
  Co  Co14  1  0.750000  0.112519  0.299530  1
  Co  Co15  1  0.750000  0.387415  0.799378  1
  Co  Co16  1  0.250000  0.465738  0.932918  1
  Co  Co17  1  0.250000  0.034601  0.432991  1
  Co  Co18  1  0.750000  0.534289  0.067258  1
  Co  Co19  1  0.750000  0.965963  0.566860  1
  Mo  Mo20  1  0.250000  0.708836  0.987508  1
  Mo  Mo21  1  0.250000  0.791352  0.487437  1
  Mo  Mo22  1  0.750000  0.291152  0.012473  1
  P  P23  1  0.250000  0.420367  0.115523  1
  P  P24  1  0.250000  0.079437  0.615850  1
  P  P25  1  0.750000  0.579701  0.884543  1
  P  P26  1  0.750000  0.919762  0.384192  1
  P  P27  1  0.250000  0.268831  0.864955  1
  P  P28  1  0.250000  0.231580  0.364923  1
  P  P29  1  0.750000  0.731297  0.134995  1
  P  P30  1  0.750000  0.768640  0.634920  1
  P  P31  1  0.250000  0.595247  0.391090  1
  P  P32  1  0.250000  0.904738  0.891044  1
  P  P33  1  0.750000  0.405634  0.609303  1
  P  P34  1  0.750000  0.095128  0.108949  1
  W  W35  1  0.750000  0.208950  0.512566  1
