# generated using pymatgen
data_Cs16HfSnSb8
_symmetry_space_group_name_H-M   'P 1'
_cell_length_a   12.58601859
_cell_length_b   12.58601844
_cell_length_c   12.58601900
_cell_angle_alpha   60.00000114
_cell_angle_beta   60.00000155
_cell_angle_gamma   59.99999911
_symmetry_Int_Tables_number   1
_chemical_formula_structural   Cs16HfSnSb8
_chemical_formula_sum   'Cs16 Hf1 Sn1 Sb8'
_cell_volume   1409.77603447
_cell_formula_units_Z   1
loop_
 _symmetry_equiv_pos_site_id
 _symmetry_equiv_pos_as_xyz
  1  'x, y, z'
loop_
 _atom_site_type_symbol
 _atom_site_label
 _atom_site_symmetry_multiplicity
 _atom_site_fract_x
 _atom_site_fract_y
 _atom_site_fract_z
 _atom_site_occupancy
  Cs  Cs0  1  0.623771  0.128688  0.623771  1
  Cs  Cs1  1  0.623771  0.623771  0.128688  1
  Cs  Cs2  1  0.128688  0.623771  0.623771  1
  Cs  Cs3  1  0.623771  0.623771  0.623771  1
  Cs  Cs4  1  0.023370  0.023370  0.476630  1
  Cs  Cs5  1  0.774295  0.225705  0.225705  1
  Cs  Cs6  1  0.225705  0.774295  0.774295  1
  Cs  Cs7  1  0.774295  0.774295  0.225705  1
  Cs  Cs8  1  0.774295  0.225705  0.774295  1
  Cs  Cs9  1  0.225705  0.774295  0.225705  1
  Cs  Cs10  1  0.476630  0.023370  0.476630  1
  Cs  Cs11  1  0.476630  0.023370  0.023370  1
  Cs  Cs12  1  0.023370  0.476630  0.476630  1
  Cs  Cs13  1  0.023370  0.476630  0.023370  1
  Cs  Cs14  1  0.225705  0.225705  0.774295  1
  Cs  Cs15  1  0.476630  0.476630  0.023370  1
  Hf  Hf16  1  0.750000  0.750000  0.750000  1
  Sn  Sn17  1  0.500000  0.500000  0.500000  1
  Sb  Sb18  1  0.402290  0.793129  0.402290  1
  Sb  Sb19  1  0.843891  0.843891  0.468327  1
  Sb  Sb20  1  0.468327  0.843891  0.843891  1
  Sb  Sb21  1  0.843891  0.843891  0.843891  1
  Sb  Sb22  1  0.793129  0.402290  0.402290  1
  Sb  Sb23  1  0.402290  0.402290  0.402290  1
  Sb  Sb24  1  0.402290  0.402290  0.793129  1
  Sb  Sb25  1  0.843891  0.468327  0.843891  1
