# generated using pymatgen
data_Nd5Sm(CCl5)2
_symmetry_space_group_name_H-M   'P 1'
_cell_length_a   7.40956417
_cell_length_b   8.81812126
_cell_length_c   8.90104191
_cell_angle_alpha   108.35324912
_cell_angle_beta   97.10233118
_cell_angle_gamma   106.03334835
_symmetry_Int_Tables_number   1
_chemical_formula_structural   Nd5Sm(CCl5)2
_chemical_formula_sum   'Nd5 Sm1 C2 Cl10'
_cell_volume   516.19172780
_cell_formula_units_Z   1
loop_
 _symmetry_equiv_pos_site_id
 _symmetry_equiv_pos_as_xyz
  1  'x, y, z'
loop_
 _atom_site_type_symbol
 _atom_site_label
 _atom_site_symmetry_multiplicity
 _atom_site_fract_x
 _atom_site_fract_y
 _atom_site_fract_z
 _atom_site_occupancy
  Nd  Nd0  1  0.880431  0.952064  0.235102  1
  Nd  Nd1  1  0.120635  0.048811  0.765293  1
  Nd  Nd2  1  0.027427  0.711816  0.912139  1
  Nd  Nd3  1  0.973116  0.288397  0.088446  1
  Nd  Nd4  1  0.602861  0.840265  0.788925  1
  Sm  Sm5  1  0.394903  0.157714  0.208859  1
  C  C6  1  0.906334  0.965598  0.951780  1
  C  C7  1  0.095716  0.035183  0.048829  1
  Cl  Cl8  1  0.756715  0.916063  0.537787  1
  Cl  Cl9  1  0.247104  0.085676  0.459596  1
  Cl  Cl10  1  0.456991  0.828200  0.081268  1
  Cl  Cl11  1  0.541426  0.175427  0.923769  1
  Cl  Cl12  1  0.812596  0.261829  0.352378  1
  Cl  Cl13  1  0.180911  0.736634  0.645123  1
  Cl  Cl14  1  0.908993  0.627325  0.170808  1
  Cl  Cl15  1  0.091189  0.373034  0.829677  1
  Cl  Cl16  1  0.654093  0.533375  0.719659  1
  Cl  Cl17  1  0.348560  0.462589  0.280564  1
