# generated using pymatgen
data_Tb2NdCo(P3Ru4)2
_symmetry_space_group_name_H-M   'P 1'
_cell_length_a   3.93665200
_cell_length_b   11.15777300
_cell_length_c   12.65972000
_cell_angle_alpha   90.00000000
_cell_angle_beta   90.00000000
_cell_angle_gamma   90.00000000
_symmetry_Int_Tables_number   1
_chemical_formula_structural   Tb2NdCo(P3Ru4)2
_chemical_formula_sum   'Tb4 Nd2 Co2 P12 Ru16'
_cell_volume   556.06895176
_cell_formula_units_Z   2
loop_
 _symmetry_equiv_pos_site_id
 _symmetry_equiv_pos_as_xyz
  1  'x, y, z'
loop_
 _atom_site_type_symbol
 _atom_site_label
 _atom_site_symmetry_multiplicity
 _atom_site_fract_x
 _atom_site_fract_y
 _atom_site_fract_z
 _atom_site_occupancy
  Tb  Tb0  1  0.500000  0.819422  0.204049  1
  Tb  Tb1  1  0.500000  0.180578  0.204049  1
  Tb  Tb2  1  0.000000  0.680578  0.795951  1
  Tb  Tb3  1  0.000000  0.319422  0.795951  1
  Nd  Nd4  1  0.000000  0.500000  0.526121  1
  Nd  Nd5  1  0.500000  0.000000  0.473879  1
  Co  Co6  1  0.000000  0.500000  0.987113  1
  Co  Co7  1  0.500000  0.000000  0.012887  1
  P  P8  1  0.500000  0.500000  0.883857  1
  P  P9  1  0.000000  0.000000  0.116143  1
  P  P10  1  0.500000  0.500000  0.335456  1
  P  P11  1  0.000000  0.000000  0.664544  1
  P  P12  1  0.500000  0.300903  0.618253  1
  P  P13  1  0.500000  0.699097  0.618253  1
  P  P14  1  0.000000  0.199097  0.381747  1
  P  P15  1  0.000000  0.800903  0.381747  1
  P  P16  1  0.500000  0.849442  0.899252  1
  P  P17  1  0.500000  0.150558  0.899252  1
  P  P18  1  0.000000  0.650558  0.100748  1
  P  P19  1  0.000000  0.349442  0.100748  1
  Ru  Ru20  1  0.500000  0.500000  0.152883  1
  Ru  Ru21  1  0.000000  0.000000  0.847117  1
  Ru  Ru22  1  0.500000  0.500000  0.698028  1
  Ru  Ru23  1  0.000000  0.000000  0.301972  1
  Ru  Ru24  1  0.500000  0.334404  0.990486  1
  Ru  Ru25  1  0.500000  0.665596  0.990486  1
  Ru  Ru26  1  0.000000  0.165596  0.009514  1
  Ru  Ru27  1  0.000000  0.834404  0.009514  1
  Ru  Ru28  1  0.500000  0.300670  0.428988  1
  Ru  Ru29  1  0.500000  0.699330  0.428988  1
  Ru  Ru30  1  0.000000  0.199330  0.571012  1
  Ru  Ru31  1  0.000000  0.800670  0.571012  1
  Ru  Ru32  1  0.500000  0.878546  0.717365  1
  Ru  Ru33  1  0.500000  0.121454  0.717365  1
  Ru  Ru34  1  0.000000  0.621454  0.282635  1
  Ru  Ru35  1  0.000000  0.378546  0.282635  1
