# generated using pymatgen
data_DyCo3As3Rh2
_symmetry_space_group_name_H-M   'P 1'
_cell_length_a   3.85254100
_cell_length_b   10.93703800
_cell_length_c   12.55377600
_cell_angle_alpha   90.00000000
_cell_angle_beta   90.00000000
_cell_angle_gamma   90.00000000
_symmetry_Int_Tables_number   1
_chemical_formula_structural   DyCo3As3Rh2
_chemical_formula_sum   'Dy4 Co12 As12 Rh8'
_cell_volume   528.95821401
_cell_formula_units_Z   4
loop_
 _symmetry_equiv_pos_site_id
 _symmetry_equiv_pos_as_xyz
  1  'x, y, z'
loop_
 _atom_site_type_symbol
 _atom_site_label
 _atom_site_symmetry_multiplicity
 _atom_site_fract_x
 _atom_site_fract_y
 _atom_site_fract_z
 _atom_site_occupancy
  Dy  Dy0  1  0.250000  0.582449  0.708184  1
  Dy  Dy1  1  0.250000  0.917551  0.208184  1
  Dy  Dy2  1  0.750000  0.417551  0.291816  1
  Dy  Dy3  1  0.750000  0.082449  0.791816  1
  Co  Co4  1  0.250000  0.218175  0.177767  1
  Co  Co5  1  0.250000  0.281825  0.677767  1
  Co  Co6  1  0.750000  0.781825  0.822233  1
  Co  Co7  1  0.750000  0.718175  0.322233  1
  Co  Co8  1  0.250000  0.883584  0.695496  1
  Co  Co9  1  0.250000  0.616416  0.195496  1
  Co  Co10  1  0.750000  0.116416  0.304504  1
  Co  Co11  1  0.750000  0.383584  0.804504  1
  Co  Co12  1  0.250000  0.465115  0.931065  1
  Co  Co13  1  0.250000  0.034885  0.431065  1
  Co  Co14  1  0.750000  0.534885  0.068935  1
  Co  Co15  1  0.750000  0.965115  0.568935  1
  As  As16  1  0.250000  0.418902  0.111861  1
  As  As17  1  0.250000  0.081098  0.611861  1
  As  As18  1  0.750000  0.581098  0.888139  1
  As  As19  1  0.750000  0.918902  0.388139  1
  As  As20  1  0.250000  0.273153  0.863133  1
  As  As21  1  0.250000  0.226847  0.363133  1
  As  As22  1  0.750000  0.726847  0.136867  1
  As  As23  1  0.750000  0.773153  0.636867  1
  As  As24  1  0.250000  0.603691  0.379834  1
  As  As25  1  0.250000  0.896309  0.879834  1
  As  As26  1  0.750000  0.396309  0.620166  1
  As  As27  1  0.750000  0.103691  0.120166  1
  Rh  Rh28  1  0.250000  0.710206  0.989297  1
  Rh  Rh29  1  0.250000  0.789794  0.489297  1
  Rh  Rh30  1  0.750000  0.289794  0.010703  1
  Rh  Rh31  1  0.750000  0.210206  0.510703  1
  Rh  Rh32  1  0.250000  0.406980  0.480393  1
  Rh  Rh33  1  0.250000  0.093020  0.980393  1
  Rh  Rh34  1  0.750000  0.593020  0.519607  1
  Rh  Rh35  1  0.750000  0.906980  0.019607  1
