# generated using pymatgen
data_Er19Tm(Bi2Pt)4
_symmetry_space_group_name_H-M   'P 1'
_cell_length_a   8.01633202
_cell_length_b   8.99309343
_cell_length_c   12.33414900
_cell_angle_alpha   89.98587530
_cell_angle_beta   90.04977437
_cell_angle_gamma   89.98934708
_symmetry_Int_Tables_number   1
_chemical_formula_structural   Er19Tm(Bi2Pt)4
_chemical_formula_sum   'Er19 Tm1 Bi8 Pt4'
_cell_volume   889.18844003
_cell_formula_units_Z   1
loop_
 _symmetry_equiv_pos_site_id
 _symmetry_equiv_pos_as_xyz
  1  'x, y, z'
loop_
 _atom_site_type_symbol
 _atom_site_label
 _atom_site_symmetry_multiplicity
 _atom_site_fract_x
 _atom_site_fract_y
 _atom_site_fract_z
 _atom_site_occupancy
  Er  Er0  1  0.664899  0.750127  0.710485  1
  Er  Er1  1  0.335420  0.249884  0.289896  1
  Er  Er2  1  0.164311  0.250306  0.789799  1
  Er  Er3  1  0.835645  0.749861  0.209979  1
  Er  Er4  1  0.125792  0.749488  0.803658  1
  Er  Er5  1  0.872723  0.250569  0.195761  1
  Er  Er6  1  0.625953  0.249797  0.696525  1
  Er  Er7  1  0.372966  0.750354  0.304226  1
  Er  Er8  1  0.552406  0.749157  0.000141  1
  Er  Er9  1  0.449770  0.250611  0.999480  1
  Er  Er10  1  0.051050  0.250099  0.499496  1
  Er  Er11  1  0.949132  0.749997  0.500373  1
  Er  Er12  1  0.177558  0.547058  0.066931  1
  Er  Er13  1  0.322522  0.547016  0.567312  1
  Er  Er14  1  0.177884  0.953216  0.066745  1
  Er  Er15  1  0.677486  0.453130  0.433084  1
  Er  Er16  1  0.822543  0.046916  0.932695  1
  Er  Er17  1  0.677536  0.046904  0.432937  1
  Er  Er18  1  0.322403  0.953109  0.567312  1
  Tm  Tm19  1  0.825008  0.452256  0.932952  1
  Bi  Bi20  1  0.932365  0.010516  0.672294  1
  Bi  Bi21  1  0.066817  0.990107  0.327152  1
  Bi  Bi22  1  0.432136  0.989596  0.827926  1
  Bi  Bi23  1  0.067075  0.510192  0.327376  1
  Bi  Bi24  1  0.567106  0.010052  0.172279  1
  Bi  Bi25  1  0.932048  0.489514  0.672412  1
  Bi  Bi26  1  0.566609  0.490141  0.173019  1
  Bi  Bi27  1  0.433205  0.510219  0.827651  1
  Pt  Pt28  1  0.922379  0.749748  0.988677  1
  Pt  Pt29  1  0.077527  0.249900  0.011136  1
  Pt  Pt30  1  0.422207  0.249970  0.511239  1
  Pt  Pt31  1  0.577521  0.750190  0.489054  1
