# generated using pymatgen
data_YZr(NbSe2)8
_symmetry_space_group_name_H-M   'P 1'
_cell_length_a   7.01901430
_cell_length_b   7.01926045
_cell_length_c   13.98473180
_cell_angle_alpha   89.99999776
_cell_angle_beta   90.03342121
_cell_angle_gamma   120.00122090
_symmetry_Int_Tables_number   1
_chemical_formula_structural   YZr(NbSe2)8
_chemical_formula_sum   'Y1 Zr1 Nb8 Se16'
_cell_volume   596.68733041
_cell_formula_units_Z   1
loop_
 _symmetry_equiv_pos_site_id
 _symmetry_equiv_pos_as_xyz
  1  'x, y, z'
loop_
 _atom_site_type_symbol
 _atom_site_label
 _atom_site_symmetry_multiplicity
 _atom_site_fract_x
 _atom_site_fract_y
 _atom_site_fract_z
 _atom_site_occupancy
  Y  Y0  1  0.000000  0.000000  0.000000  1
  Zr  Zr1  1  0.000000  0.000000  0.500000  1
  Nb  Nb2  1  0.986813  0.493406  0.258082  1
  Nb  Nb3  1  0.013187  0.506594  0.741918  1
  Nb  Nb4  1  0.493376  0.506440  0.741907  1
  Nb  Nb5  1  0.506624  0.013064  0.258093  1
  Nb  Nb6  1  0.000075  0.000038  0.741695  1
  Nb  Nb7  1  0.999925  0.999962  0.258305  1
  Nb  Nb8  1  0.506624  0.493560  0.258093  1
  Nb  Nb9  1  0.493376  0.986936  0.741907  1
  Se  Se10  1  0.333389  0.666695  0.619581  1
  Se  Se11  1  0.666720  0.333359  0.134726  1
  Se  Se12  1  0.666611  0.333305  0.380419  1
  Se  Se13  1  0.333280  0.666641  0.865274  1
  Se  Se14  1  0.169883  0.339626  0.377372  1
  Se  Se15  1  0.830249  0.169663  0.860934  1
  Se  Se16  1  0.339240  0.169619  0.860950  1
  Se  Se17  1  0.660321  0.830161  0.377438  1
  Se  Se18  1  0.169883  0.830257  0.377372  1
  Se  Se19  1  0.830249  0.660586  0.860934  1
  Se  Se20  1  0.169751  0.339414  0.139066  1
  Se  Se21  1  0.830117  0.169743  0.622628  1
  Se  Se22  1  0.339679  0.169839  0.622562  1
  Se  Se23  1  0.660760  0.830381  0.139050  1
  Se  Se24  1  0.169751  0.830337  0.139066  1
  Se  Se25  1  0.830117  0.660374  0.622628  1
