# generated using pymatgen
data_Tb9TmRu4
_symmetry_space_group_name_H-M   'P 1'
_cell_length_a   8.52422326
_cell_length_b   8.52422339
_cell_length_c   7.25895080
_cell_angle_alpha   83.37195117
_cell_angle_beta   83.37194835
_cell_angle_gamma   43.95854344
_symmetry_Int_Tables_number   1
_chemical_formula_structural   Tb9TmRu4
_chemical_formula_sum   'Tb9 Tm1 Ru4'
_cell_volume   363.27756636
_cell_formula_units_Z   1
loop_
 _symmetry_equiv_pos_site_id
 _symmetry_equiv_pos_as_xyz
  1  'x, y, z'
loop_
 _atom_site_type_symbol
 _atom_site_label
 _atom_site_symmetry_multiplicity
 _atom_site_fract_x
 _atom_site_fract_y
 _atom_site_fract_z
 _atom_site_occupancy
  Tb  Tb0  1  0.206999  0.978782  0.584316  1
  Tb  Tb1  1  0.021218  0.793001  0.915684  1
  Tb  Tb2  1  0.206650  0.360165  0.314021  1
  Tb  Tb3  1  0.639835  0.793350  0.185979  1
  Tb  Tb4  1  0.793421  0.640349  0.685571  1
  Tb  Tb5  1  0.359651  0.206579  0.814429  1
  Tb  Tb6  1  0.979000  0.206641  0.085513  1
  Tb  Tb7  1  0.793359  0.021000  0.414487  1
  Tb  Tb8  1  0.577181  0.422819  0.750000  1
  Tm  Tm9  1  0.424013  0.575987  0.250000  1
  Ru  Ru10  1  0.175779  0.603745  0.573913  1
  Ru  Ru11  1  0.396255  0.824221  0.926087  1
  Ru  Ru12  1  0.823699  0.397060  0.424334  1
  Ru  Ru13  1  0.602940  0.176301  0.075666  1
