# generated using pymatgen
data_U5Re2BC6
_symmetry_space_group_name_H-M   'P 1'
_cell_length_a   8.41013837
_cell_length_b   8.40905148
_cell_length_c   3.29023800
_cell_angle_alpha   90.00000000
_cell_angle_beta   90.00000000
_cell_angle_gamma   126.01173915
_symmetry_Int_Tables_number   1
_chemical_formula_structural   U5Re2BC6
_chemical_formula_sum   'U5 Re2 B1 C6'
_cell_volume   188.22202798
_cell_formula_units_Z   1
loop_
 _symmetry_equiv_pos_site_id
 _symmetry_equiv_pos_as_xyz
  1  'x, y, z'
loop_
 _atom_site_type_symbol
 _atom_site_label
 _atom_site_symmetry_multiplicity
 _atom_site_fract_x
 _atom_site_fract_y
 _atom_site_fract_z
 _atom_site_occupancy
  U  U0  1  0.296125  0.041930  0.500000  1
  U  U1  1  0.703875  0.958070  0.500000  1
  U  U2  1  0.042433  0.296602  0.500000  1
  U  U3  1  0.957567  0.703398  0.500000  1
  U  U4  1  0.500000  0.500000  0.000000  1
  Re  Re5  1  0.294194  0.705524  0.000000  1
  Re  Re6  1  0.705806  0.294476  0.000000  1
  B  B7  1  0.000000  0.000000  0.000000  1
  C  C8  1  0.199363  0.199440  0.000000  1
  C  C9  1  0.800637  0.800560  0.000000  1
  C  C10  1  0.380502  0.619459  0.500000  1
  C  C11  1  0.619498  0.380541  0.500000  1
  C  C12  1  0.500000  0.000000  0.000000  1
  C  C13  1  0.000000  0.500000  0.000000  1
