# generated using pymatgen
data_Tb2Ho6Cd2NiOs
_symmetry_space_group_name_H-M   'P 1'
_cell_length_a   9.56730360
_cell_length_b   9.57526977
_cell_length_c   9.64941333
_cell_angle_alpha   59.68876469
_cell_angle_beta   59.77047240
_cell_angle_gamma   59.62603744
_symmetry_Int_Tables_number   1
_chemical_formula_structural   Tb2Ho6Cd2NiOs
_chemical_formula_sum   'Tb4 Ho12 Cd4 Ni2 Os2'
_cell_volume   620.73555338
_cell_formula_units_Z   2
loop_
 _symmetry_equiv_pos_site_id
 _symmetry_equiv_pos_as_xyz
  1  'x, y, z'
loop_
 _atom_site_type_symbol
 _atom_site_label
 _atom_site_symmetry_multiplicity
 _atom_site_fract_x
 _atom_site_fract_y
 _atom_site_fract_z
 _atom_site_occupancy
  Tb  Tb0  1  0.555507  0.939470  0.566109  1
  Tb  Tb1  1  0.939470  0.555507  0.938914  1
  Tb  Tb2  1  0.565681  0.565681  0.934319  1
  Tb  Tb3  1  0.941698  0.941698  0.558302  1
  Ho  Ho4  1  0.349923  0.350440  0.342223  1
  Ho  Ho5  1  0.350440  0.349923  0.957415  1
  Ho  Ho6  1  0.351774  0.955707  0.346214  1
  Ho  Ho7  1  0.955707  0.351774  0.346307  1
  Ho  Ho8  1  0.811489  0.185702  0.189810  1
  Ho  Ho9  1  0.185702  0.811489  0.813000  1
  Ho  Ho10  1  0.185905  0.811416  0.189848  1
  Ho  Ho11  1  0.811416  0.185905  0.812831  1
  Ho  Ho12  1  0.188159  0.188159  0.811841  1
  Ho  Ho13  1  0.810384  0.810384  0.189616  1
  Ho  Ho14  1  0.939975  0.555086  0.565791  1
  Ho  Ho15  1  0.555086  0.939975  0.939148  1
  Cd  Cd16  1  0.579633  0.578708  0.582472  1
  Cd  Cd17  1  0.578708  0.579633  0.259185  1
  Cd  Cd18  1  0.580015  0.256685  0.581968  1
  Cd  Cd19  1  0.256685  0.580015  0.581330  1
  Ni  Ni20  1  0.141956  0.576707  0.141080  1
  Ni  Ni21  1  0.576707  0.141956  0.140256  1
  Os  Os22  1  0.144228  0.143753  0.138079  1
  Os  Os23  1  0.143753  0.144228  0.573940  1
