# generated using pymatgen
data_CeNi2Pt2Au
_symmetry_space_group_name_H-M   'P 1'
_cell_length_a   5.16769362
_cell_length_b   5.16769386
_cell_length_c   5.16769363
_cell_angle_alpha   120.78235434
_cell_angle_beta   117.32681490
_cell_angle_gamma   91.67077199
_symmetry_Int_Tables_number   1
_chemical_formula_structural   CeNi2Pt2Au
_chemical_formula_sum   'Ce1 Ni2 Pt2 Au1'
_cell_volume   98.82364445
_cell_formula_units_Z   1
loop_
 _symmetry_equiv_pos_site_id
 _symmetry_equiv_pos_as_xyz
  1  'x, y, z'
loop_
 _atom_site_type_symbol
 _atom_site_label
 _atom_site_symmetry_multiplicity
 _atom_site_fract_x
 _atom_site_fract_y
 _atom_site_fract_z
 _atom_site_occupancy
  Ce  Ce0  1  0.997080  0.997080  0.000000  1
  Ni  Ni1  1  0.622359  0.871827  0.249469  1
  Ni  Ni2  1  0.622359  0.372890  0.750531  1
  Pt  Pt3  1  0.125433  0.374846  0.750586  1
  Pt  Pt4  1  0.624260  0.374846  0.249414  1
  Au  Au5  1  0.258511  0.758511  0.500000  1
