# generated using pymatgen
data_Tb3Dy8ErNi4
_symmetry_space_group_name_H-M   'P 1'
_cell_length_a   6.34717411
_cell_length_b   6.83472002
_cell_length_c   9.55266219
_cell_angle_alpha   89.99248987
_cell_angle_beta   89.97868693
_cell_angle_gamma   90.00138954
_symmetry_Int_Tables_number   1
_chemical_formula_structural   Tb3Dy8ErNi4
_chemical_formula_sum   'Tb3 Dy8 Er1 Ni4'
_cell_volume   414.40551459
_cell_formula_units_Z   1
loop_
 _symmetry_equiv_pos_site_id
 _symmetry_equiv_pos_as_xyz
  1  'x, y, z'
loop_
 _atom_site_type_symbol
 _atom_site_label
 _atom_site_symmetry_multiplicity
 _atom_site_fract_x
 _atom_site_fract_y
 _atom_site_fract_z
 _atom_site_occupancy
  Tb  Tb0  1  0.639916  0.034200  0.249932  1
  Tb  Tb1  1  0.139832  0.465645  0.750106  1
  Tb  Tb2  1  0.360070  0.965735  0.750051  1
  Dy  Dy3  1  0.176566  0.177795  0.434096  1
  Dy  Dy4  1  0.677042  0.322613  0.565500  1
  Dy  Dy5  1  0.823302  0.821948  0.934622  1
  Dy  Dy6  1  0.676878  0.322595  0.934572  1
  Dy  Dy7  1  0.823428  0.822108  0.565545  1
  Dy  Dy8  1  0.322843  0.677513  0.433984  1
  Dy  Dy9  1  0.176710  0.177752  0.065934  1
  Dy  Dy10  1  0.859854  0.534977  0.249820  1
  Er  Er11  1  0.322916  0.677482  0.066066  1
  Ni  Ni12  1  0.057184  0.890373  0.249848  1
  Ni  Ni13  1  0.443793  0.391744  0.249844  1
  Ni  Ni14  1  0.942332  0.108811  0.749977  1
  Ni  Ni15  1  0.557334  0.608709  0.750103  1
