# generated using pymatgen
data_La6Tm2Sc12Si15Au
_symmetry_space_group_name_H-M   'P 1'
_cell_length_a   7.28455378
_cell_length_b   7.52406121
_cell_length_c   14.30147118
_cell_angle_alpha   89.69945678
_cell_angle_beta   89.80258683
_cell_angle_gamma   90.55632605
_symmetry_Int_Tables_number   1
_chemical_formula_structural   La6Tm2Sc12Si15Au
_chemical_formula_sum   'La6 Tm2 Sc12 Si15 Au1'
_cell_volume   783.80293745
_cell_formula_units_Z   1
loop_
 _symmetry_equiv_pos_site_id
 _symmetry_equiv_pos_as_xyz
  1  'x, y, z'
loop_
 _atom_site_type_symbol
 _atom_site_label
 _atom_site_symmetry_multiplicity
 _atom_site_fract_x
 _atom_site_fract_y
 _atom_site_fract_z
 _atom_site_occupancy
  La  La0  1  0.011817  0.170921  0.099597  1
  La  La1  1  0.988990  0.830070  0.900797  1
  La  La2  1  0.488912  0.671319  0.903888  1
  La  La3  1  0.988309  0.828950  0.595374  1
  La  La4  1  0.510937  0.329651  0.095809  1
  La  La5  1  0.009822  0.172226  0.403222  1
  Tm  Tm6  1  0.508624  0.323003  0.400625  1
  Tm  Tm7  1  0.493542  0.676876  0.599373  1
  Sc  Sc8  1  0.162980  0.500989  0.748902  1
  Sc  Sc9  1  0.838153  0.499921  0.254036  1
  Sc  Sc10  1  0.339198  0.996175  0.252332  1
  Sc  Sc11  1  0.663300  0.002703  0.748275  1
  Sc  Sc12  1  0.340800  0.178653  0.625050  1
  Sc  Sc13  1  0.664229  0.822000  0.374669  1
  Sc  Sc14  1  0.173261  0.668453  0.375452  1
  Sc  Sc15  1  0.669885  0.825773  0.128440  1
  Sc  Sc16  1  0.822698  0.330631  0.622408  1
  Sc  Sc17  1  0.329346  0.172309  0.872431  1
  Sc  Sc18  1  0.828687  0.325911  0.873568  1
  Sc  Sc19  1  0.170598  0.673671  0.127578  1
  Si  Si20  1  0.033700  0.133524  0.747110  1
  Si  Si21  1  0.967653  0.869735  0.252484  1
  Si  Si22  1  0.467098  0.619804  0.251862  1
  Si  Si23  1  0.534921  0.381092  0.749306  1
  Si  Si24  1  0.292499  0.879834  0.746319  1
  Si  Si25  1  0.704908  0.122125  0.252634  1
  Si  Si26  1  0.215313  0.378558  0.252273  1
  Si  Si27  1  0.785513  0.620294  0.747640  1
  Si  Si28  1  0.828716  0.534848  0.458140  1
  Si  Si29  1  0.349800  0.961962  0.460744  1
  Si  Si30  1  0.852163  0.538407  0.039689  1
  Si  Si31  1  0.647491  0.036052  0.537445  1
  Si  Si32  1  0.147376  0.460763  0.960782  1
  Si  Si33  1  0.650022  0.037456  0.960742  1
  Si  Si34  1  0.349717  0.961274  0.039550  1
  Au  Au35  1  0.169023  0.464069  0.541455  1
