# generated using pymatgen
data_Tm12InFe2Cu2Hg
_symmetry_space_group_name_H-M   'P 1'
_cell_length_a   8.26860645
_cell_length_b   8.26860635
_cell_length_c   8.26860600
_cell_angle_alpha   111.69814760
_cell_angle_beta   109.39419879
_cell_angle_gamma   107.35058020
_symmetry_Int_Tables_number   1
_chemical_formula_structural   Tm12InFe2Cu2Hg
_chemical_formula_sum   'Tm12 In1 Fe2 Cu2 Hg1'
_cell_volume   434.55820786
_cell_formula_units_Z   1
loop_
 _symmetry_equiv_pos_site_id
 _symmetry_equiv_pos_as_xyz
  1  'x, y, z'
loop_
 _atom_site_type_symbol
 _atom_site_label
 _atom_site_symmetry_multiplicity
 _atom_site_fract_x
 _atom_site_fract_y
 _atom_site_fract_z
 _atom_site_occupancy
  Tm  Tm0  1  0.442985  0.236623  0.206361  1
  Tm  Tm1  1  0.557015  0.763377  0.793639  1
  Tm  Tm2  1  0.030262  0.236623  0.793639  1
  Tm  Tm3  1  0.969738  0.763377  0.206361  1
  Tm  Tm4  1  0.183300  0.292067  0.475368  1
  Tm  Tm5  1  0.816700  0.707933  0.524632  1
  Tm  Tm6  1  0.183300  0.707933  0.891233  1
  Tm  Tm7  1  0.816700  0.292067  0.108767  1
  Tm  Tm8  1  0.312117  0.613180  0.301062  1
  Tm  Tm9  1  0.687883  0.386820  0.698938  1
  Tm  Tm10  1  0.312117  0.011055  0.698938  1
  Tm  Tm11  1  0.687883  0.988945  0.301062  1
  In  In12  1  0.500000  0.500000  0.000000  1
  Fe  Fe13  1  0.111351  0.611351  0.500000  1
  Fe  Fe14  1  0.888649  0.388649  0.500000  1
  Cu  Cu15  1  0.363041  0.000000  0.363041  1
  Cu  Cu16  1  0.636959  0.000000  0.636959  1
  Hg  Hg17  1  0.000000  0.000000  0.000000  1
