# generated using pymatgen
data_SmDy3(SiAu2)8
_symmetry_space_group_name_H-M   'P 1'
_cell_length_a   4.41653600
_cell_length_b   4.41653600
_cell_length_c   27.03661000
_cell_angle_alpha   90.00000000
_cell_angle_beta   90.00000000
_cell_angle_gamma   90.00000000
_symmetry_Int_Tables_number   1
_chemical_formula_structural   SmDy3(SiAu2)8
_chemical_formula_sum   'Sm1 Dy3 Si8 Au16'
_cell_volume   527.37044344
_cell_formula_units_Z   1
loop_
 _symmetry_equiv_pos_site_id
 _symmetry_equiv_pos_as_xyz
  1  'x, y, z'
loop_
 _atom_site_type_symbol
 _atom_site_label
 _atom_site_symmetry_multiplicity
 _atom_site_fract_x
 _atom_site_fract_y
 _atom_site_fract_z
 _atom_site_occupancy
  Sm  Sm0  1  0.500000  0.500000  0.000000  1
  Dy  Dy1  1  0.000000  0.500000  0.749407  1
  Dy  Dy2  1  0.500000  0.000000  0.250593  1
  Dy  Dy3  1  0.500000  0.500000  0.500000  1
  Si  Si4  1  0.000000  0.000000  0.956504  1
  Si  Si5  1  0.000000  0.000000  0.456963  1
  Si  Si6  1  0.500000  0.000000  0.792727  1
  Si  Si7  1  0.500000  0.000000  0.706145  1
  Si  Si8  1  0.000000  0.500000  0.207273  1
  Si  Si9  1  0.000000  0.500000  0.293855  1
  Si  Si10  1  0.000000  0.000000  0.043496  1
  Si  Si11  1  0.000000  0.000000  0.543037  1
  Au  Au12  1  0.500000  0.000000  0.086608  1
  Au  Au13  1  0.500000  0.500000  0.663294  1
  Au  Au14  1  0.500000  0.500000  0.835656  1
  Au  Au15  1  0.000000  0.500000  0.085976  1
  Au  Au16  1  0.500000  0.000000  0.914024  1
  Au  Au17  1  0.000000  0.000000  0.664410  1
  Au  Au18  1  0.000000  0.500000  0.415255  1
  Au  Au19  1  0.500000  0.500000  0.336706  1
  Au  Au20  1  0.500000  0.000000  0.414636  1
  Au  Au21  1  0.000000  0.000000  0.335590  1
  Au  Au22  1  0.000000  0.000000  0.165517  1
  Au  Au23  1  0.500000  0.000000  0.584745  1
  Au  Au24  1  0.000000  0.000000  0.834483  1
  Au  Au25  1  0.500000  0.500000  0.164344  1
  Au  Au26  1  0.000000  0.500000  0.585364  1
  Au  Au27  1  0.000000  0.500000  0.913392  1
