# generated using pymatgen
data_Lu3Hf(SbRh5)2
_symmetry_space_group_name_H-M   'P 1'
_cell_length_a   4.21230100
_cell_length_b   5.68530809
_cell_length_c   11.18308383
_cell_angle_alpha   89.79524342
_cell_angle_beta   90.00000000
_cell_angle_gamma   90.00000000
_symmetry_Int_Tables_number   1
_chemical_formula_structural   Lu3Hf(SbRh5)2
_chemical_formula_sum   'Lu3 Hf1 Sb2 Rh10'
_cell_volume   267.81334169
_cell_formula_units_Z   1
loop_
 _symmetry_equiv_pos_site_id
 _symmetry_equiv_pos_as_xyz
  1  'x, y, z'
loop_
 _atom_site_type_symbol
 _atom_site_label
 _atom_site_symmetry_multiplicity
 _atom_site_fract_x
 _atom_site_fract_y
 _atom_site_fract_z
 _atom_site_occupancy
  Lu  Lu0  1  0.500000  0.177229  0.642369  1
  Lu  Lu1  1  0.500000  0.824365  0.358554  1
  Lu  Lu2  1  0.500000  0.676462  0.858184  1
  Hf  Hf3  1  0.500000  0.327587  0.143459  1
  Sb  Sb4  1  0.000000  0.498890  0.499459  1
  Sb  Sb5  1  0.000000  0.997835  0.000279  1
  Rh  Rh6  1  0.500000  0.192825  0.894606  1
  Rh  Rh7  1  0.500000  0.804729  0.110671  1
  Rh  Rh8  1  0.500000  0.691313  0.610545  1
  Rh  Rh9  1  0.500000  0.309204  0.384075  1
  Rh  Rh10  1  0.000000  0.434641  0.747459  1
  Rh  Rh11  1  0.000000  0.563860  0.250683  1
  Rh  Rh12  1  0.000000  0.000473  0.499260  1
  Rh  Rh13  1  0.000000  0.492523  0.003965  1
  Rh  Rh14  1  0.000000  0.072494  0.241833  1
  Rh  Rh15  1  0.000000  0.935569  0.754599  1
