# generated using pymatgen
data_Y4HfZrMoO12
_symmetry_space_group_name_H-M   'P 1'
_cell_length_a   6.31384416
_cell_length_b   6.40901746
_cell_length_c   6.60571336
_cell_angle_alpha   100.47973963
_cell_angle_beta   98.17429737
_cell_angle_gamma   99.42849572
_symmetry_Int_Tables_number   1
_chemical_formula_structural   Y4HfZrMoO12
_chemical_formula_sum   'Y4 Hf1 Zr1 Mo1 O12'
_cell_volume   255.18636277
_cell_formula_units_Z   1
loop_
 _symmetry_equiv_pos_site_id
 _symmetry_equiv_pos_as_xyz
  1  'x, y, z'
loop_
 _atom_site_type_symbol
 _atom_site_label
 _atom_site_symmetry_multiplicity
 _atom_site_fract_x
 _atom_site_fract_y
 _atom_site_fract_z
 _atom_site_occupancy
  Y  Y0  1  0.702230  0.866943  0.392068  1
  Y  Y1  1  0.385918  0.699756  0.865960  1
  Y  Y2  1  0.299563  0.134422  0.609009  1
  Y  Y3  1  0.614267  0.299169  0.133167  1
  Hf  Hf4  1  0.846979  0.397827  0.668346  1
  Zr  Zr5  1  0.152639  0.602452  0.329531  1
  Mo  Mo6  1  0.999130  0.999080  0.998735  1
  O  O7  1  0.587449  0.415598  0.820378  1
  O  O8  1  0.826631  0.567047  0.426361  1
  O  O9  1  0.411251  0.811592  0.566193  1
  O  O10  1  0.416348  0.583981  0.177511  1
  O  O11  1  0.169465  0.432195  0.577996  1
  O  O12  1  0.591988  0.189938  0.435392  1
  O  O13  1  0.016576  0.681283  0.884245  1
  O  O14  1  0.923484  0.094229  0.697349  1
  O  O15  1  0.690278  0.933103  0.057054  1
  O  O16  1  0.981355  0.315250  0.114658  1
  O  O17  1  0.075453  0.909775  0.303502  1
  O  O18  1  0.308998  0.066359  0.942544  1
