# generated using pymatgen
data_Ru(S4Cl)4
_symmetry_space_group_name_H-M   'P 1'
_cell_length_a   16.23427428
_cell_length_b   13.15374484
_cell_length_c   12.91577964
_cell_angle_alpha   77.02553394
_cell_angle_beta   52.14440349
_cell_angle_gamma   50.83005918
_symmetry_Int_Tables_number   1
_chemical_formula_structural   Ru(S4Cl)4
_chemical_formula_sum   'Ru2 S32 Cl8'
_cell_volume   1627.25203894
_cell_formula_units_Z   2
loop_
 _symmetry_equiv_pos_site_id
 _symmetry_equiv_pos_as_xyz
  1  'x, y, z'
loop_
 _atom_site_type_symbol
 _atom_site_label
 _atom_site_symmetry_multiplicity
 _atom_site_fract_x
 _atom_site_fract_y
 _atom_site_fract_z
 _atom_site_occupancy
  Ru  Ru0  1  0.248430  0.251570  0.251570  1
  Ru  Ru1  1  0.998430  0.001570  0.001570  1
  S  S2  1  0.523843  0.472574  0.257506  1
  S  S3  1  0.323539  0.873416  0.164799  1
  S  S4  1  0.746077  0.257506  0.472574  1
  S  S5  1  0.805868  0.534503  0.332190  1
  S  S6  1  0.638245  0.164799  0.873416  1
  S  S7  1  0.178517  0.314387  0.650692  1
  S  S8  1  0.596599  0.923015  0.587076  1
  S  S9  1  0.328285  0.813348  0.324124  1
  S  S10  1  0.636796  0.651042  0.341861  1
  S  S11  1  0.327439  0.332190  0.534503  1
  S  S12  1  0.715497  0.444132  0.922561  1
  S  S13  1  0.777426  0.726157  0.503923  1
  S  S14  1  0.326985  0.653401  0.356690  1
  S  S15  1  0.908139  0.879699  0.613204  1
  S  S16  1  0.599308  0.393597  0.071483  1
  S  S17  1  0.893310  0.587076  0.923015  1
  S  S18  1  0.261060  0.542841  0.730997  1
  S  S19  1  0.707159  0.988940  0.784897  1
  S  S20  1  0.436652  0.921715  0.715757  1
  S  S21  1  0.376584  0.926461  0.611755  1
  S  S22  1  0.370301  0.341861  0.651042  1
  S  S23  1  0.935613  0.071483  0.393597  1
  S  S24  1  0.085201  0.611755  0.926461  1
  S  S25  1  0.534243  0.324124  0.813348  1
  S  S26  1  0.519003  0.784897  0.988940  1
  S  S27  1  0.917810  0.922561  0.444132  1
  S  S28  1  0.662924  0.356690  0.653401  1
  S  S29  1  0.856403  0.650692  0.314387  1
  S  S30  1  0.925876  0.715757  0.921715  1
  S  S31  1  0.598958  0.613204  0.879699  1
  S  S32  1  0.465103  0.730997  0.542841  1
  S  S33  1  0.992494  0.503923  0.726157  1
  Cl  Cl34  1  0.179350  0.822995  0.980784  1
  Cl  Cl35  1  0.971416  0.182623  0.026256  1
  Cl  Cl36  1  0.016870  0.980784  0.822995  1
  Cl  Cl37  1  0.819706  0.026256  0.182623  1
  Cl  Cl38  1  0.427005  0.070650  0.233130  1
  Cl  Cl39  1  0.269216  0.233130  0.070650  1
  Cl  Cl40  1  0.223744  0.430294  0.278584  1
  Cl  Cl41  1  0.067377  0.278584  0.430294  1
