# generated using pymatgen
data_Y2Fe7Co5P7
_symmetry_space_group_name_H-M   'P 1'
_cell_length_a   3.61447500
_cell_length_b   8.97745758
_cell_length_c   8.98495903
_cell_angle_alpha   119.96949768
_cell_angle_beta   90.00000000
_cell_angle_gamma   90.00000000
_symmetry_Int_Tables_number   1
_chemical_formula_structural   Y2Fe7Co5P7
_chemical_formula_sum   'Y2 Fe7 Co5 P7'
_cell_volume   252.56823153
_cell_formula_units_Z   1
loop_
 _symmetry_equiv_pos_site_id
 _symmetry_equiv_pos_as_xyz
  1  'x, y, z'
loop_
 _atom_site_type_symbol
 _atom_site_label
 _atom_site_symmetry_multiplicity
 _atom_site_fract_x
 _atom_site_fract_y
 _atom_site_fract_z
 _atom_site_occupancy
  Y  Y0  1  0.000000  0.666581  0.333544  1
  Y  Y1  1  0.500000  0.333895  0.666770  1
  Fe  Fe2  1  0.000000  0.568514  0.626599  1
  Fe  Fe3  1  0.000000  0.881026  0.727618  1
  Fe  Fe4  1  0.000000  0.272596  0.153323  1
  Fe  Fe5  1  0.000000  0.846013  0.120383  1
  Fe  Fe6  1  0.500000  0.128285  0.897122  1
  Fe  Fe7  1  0.500000  0.101668  0.229968  1
  Fe  Fe8  1  0.500000  0.772342  0.873940  1
  Co  Co9  1  0.000000  0.372968  0.940610  1
  Co  Co10  1  0.000000  0.059289  0.432465  1
  Co  Co11  1  0.500000  0.948248  0.563976  1
  Co  Co12  1  0.500000  0.435318  0.382860  1
  Co  Co13  1  0.500000  0.614417  0.050615  1
  P  P14  1  0.000000  0.111113  0.705048  1
  P  P15  1  0.000000  0.296770  0.407249  1
  P  P16  1  0.000000  0.594648  0.887088  1
  P  P17  1  0.500000  0.709573  0.601073  1
  P  P18  1  0.500000  0.399684  0.111572  1
  P  P19  1  0.500000  0.887700  0.287889  1
  P  P20  1  0.000000  0.999352  0.000285  1
