# generated using pymatgen
data_Tm20MnCd6Pd
_symmetry_space_group_name_H-M   'P 1'
_cell_length_a   9.43404700
_cell_length_b   9.43404867
_cell_length_c   9.69973100
_cell_angle_alpha   90.00000000
_cell_angle_beta   90.00000000
_cell_angle_gamma   119.99999766
_symmetry_Int_Tables_number   1
_chemical_formula_structural   Tm20MnCd6Pd
_chemical_formula_sum   'Tm20 Mn1 Cd6 Pd1'
_cell_volume   747.62958719
_cell_formula_units_Z   1
loop_
 _symmetry_equiv_pos_site_id
 _symmetry_equiv_pos_as_xyz
  1  'x, y, z'
loop_
 _atom_site_type_symbol
 _atom_site_label
 _atom_site_symmetry_multiplicity
 _atom_site_fract_x
 _atom_site_fract_y
 _atom_site_fract_z
 _atom_site_occupancy
  Tm  Tm0  1  0.000000  0.000000  0.499747  1
  Tm  Tm1  1  0.000000  0.000000  0.000253  1
  Tm  Tm2  1  0.538890  0.461110  0.250000  1
  Tm  Tm3  1  0.538890  0.077780  0.250000  1
  Tm  Tm4  1  0.922220  0.461110  0.250000  1
  Tm  Tm5  1  0.456689  0.543311  0.750000  1
  Tm  Tm6  1  0.456689  0.913376  0.750000  1
  Tm  Tm7  1  0.086624  0.543311  0.750000  1
  Tm  Tm8  1  0.212119  0.787881  0.437300  1
  Tm  Tm9  1  0.212119  0.424238  0.437300  1
  Tm  Tm10  1  0.575762  0.787881  0.437300  1
  Tm  Tm11  1  0.792051  0.207949  0.555187  1
  Tm  Tm12  1  0.792051  0.584103  0.555187  1
  Tm  Tm13  1  0.415897  0.207949  0.555187  1
  Tm  Tm14  1  0.792051  0.207949  0.944813  1
  Tm  Tm15  1  0.792051  0.584103  0.944813  1
  Tm  Tm16  1  0.415897  0.207949  0.944813  1
  Tm  Tm17  1  0.212119  0.787881  0.062700  1
  Tm  Tm18  1  0.212119  0.424238  0.062700  1
  Tm  Tm19  1  0.575762  0.787881  0.062700  1
  Mn  Mn20  1  0.333333  0.666667  0.250000  1
  Cd  Cd21  1  0.885780  0.114220  0.250000  1
  Cd  Cd22  1  0.885780  0.771561  0.250000  1
  Cd  Cd23  1  0.228439  0.114220  0.250000  1
  Cd  Cd24  1  0.113737  0.886263  0.750000  1
  Cd  Cd25  1  0.113737  0.227473  0.750000  1
  Cd  Cd26  1  0.772527  0.886263  0.750000  1
  Pd  Pd27  1  0.666667  0.333333  0.750000  1
