# generated using pymatgen
data_Tb11Ho(InSi2)2
_symmetry_space_group_name_H-M   'P 1'
_cell_length_a   8.56094526
_cell_length_b   8.55541222
_cell_length_c   8.55535961
_cell_angle_alpha   112.22157949
_cell_angle_beta   110.87317436
_cell_angle_gamma   105.37300360
_symmetry_Int_Tables_number   1
_chemical_formula_structural   Tb11Ho(InSi2)2
_chemical_formula_sum   'Tb11 Ho1 In2 Si4'
_cell_volume   480.61801566
_cell_formula_units_Z   1
loop_
 _symmetry_equiv_pos_site_id
 _symmetry_equiv_pos_as_xyz
  1  'x, y, z'
loop_
 _atom_site_type_symbol
 _atom_site_label
 _atom_site_symmetry_multiplicity
 _atom_site_fract_x
 _atom_site_fract_y
 _atom_site_fract_z
 _atom_site_occupancy
  Tb  Tb0  1  0.557376  0.761552  0.795822  1
  Tb  Tb1  1  0.034567  0.238379  0.796179  1
  Tb  Tb2  1  0.965697  0.761535  0.204173  1
  Tb  Tb3  1  0.185860  0.278694  0.464362  1
  Tb  Tb4  1  0.813793  0.720869  0.535033  1
  Tb  Tb5  1  0.185868  0.721507  0.907168  1
  Tb  Tb6  1  0.813792  0.278760  0.092919  1
  Tb  Tb7  1  0.320025  0.616778  0.296994  1
  Tb  Tb8  1  0.679776  0.382816  0.702499  1
  Tb  Tb9  1  0.320021  0.023034  0.703249  1
  Tb  Tb10  1  0.679775  0.977274  0.296960  1
  Ho  Ho11  1  0.442598  0.238035  0.204560  1
  In  In12  1  0.500044  0.499749  0.000291  1
  In  In13  1  0.000768  0.000442  0.000328  1
  Si  Si14  1  0.369412  0.000584  0.368825  1
  Si  Si15  1  0.630803  0.000057  0.630749  1
  Si  Si16  1  0.114900  0.614907  0.499992  1
  Si  Si17  1  0.884926  0.385028  0.499897  1
