# generated using pymatgen
data_Mn5Cr15Ga(WC3)2
_symmetry_space_group_name_H-M   'P 1'
_cell_length_a   7.50613783
_cell_length_b   7.50613816
_cell_length_c   7.51919066
_cell_angle_alpha   60.05740547
_cell_angle_beta   60.05740858
_cell_angle_gamma   59.99999588
_symmetry_Int_Tables_number   1
_chemical_formula_structural   Mn5Cr15Ga(WC3)2
_chemical_formula_sum   'Mn5 Cr15 Ga1 W2 C6'
_cell_volume   299.82336263
_cell_formula_units_Z   1
loop_
 _symmetry_equiv_pos_site_id
 _symmetry_equiv_pos_as_xyz
  1  'x, y, z'
loop_
 _atom_site_type_symbol
 _atom_site_label
 _atom_site_symmetry_multiplicity
 _atom_site_fract_x
 _atom_site_fract_y
 _atom_site_fract_z
 _atom_site_occupancy
  Mn  Mn0  1  0.616666  0.616666  0.150001  1
  Mn  Mn1  1  0.616351  0.151271  0.616026  1
  Mn  Mn2  1  0.151272  0.616351  0.616026  1
  Mn  Mn3  1  0.616351  0.616351  0.616026  1
  Mn  Mn4  1  0.385254  0.385254  0.844240  1
  Cr  Cr5  1  0.385118  0.843780  0.385985  1
  Cr  Cr6  1  0.843780  0.385118  0.385985  1
  Cr  Cr7  1  0.385118  0.385118  0.385985  1
  Cr  Cr8  1  0.998371  0.998371  0.345320  1
  Cr  Cr9  1  0.657938  0.998371  0.345320  1
  Cr  Cr10  1  0.998371  0.657938  0.345320  1
  Cr  Cr11  1  0.656440  0.344659  0.999550  1
  Cr  Cr12  1  0.999350  0.344659  0.999550  1
  Cr  Cr13  1  0.999770  0.343462  0.656997  1
  Cr  Cr14  1  0.344659  0.656440  0.999550  1
  Cr  Cr15  1  0.343462  0.999770  0.656997  1
  Cr  Cr16  1  0.344659  0.999350  0.999550  1
  Cr  Cr17  1  0.999770  0.999770  0.656997  1
  Cr  Cr18  1  0.999350  0.656440  0.999550  1
  Cr  Cr19  1  0.656440  0.999350  0.999550  1
  Ga  Ga20  1  0.000002  0.000002  0.999995  1
  W  W21  1  0.750279  0.750279  0.749164  1
  W  W22  1  0.251507  0.251507  0.245480  1
  C  C23  1  0.721697  0.721697  0.278001  1
  C  C24  1  0.278606  0.721697  0.278001  1
  C  C25  1  0.721697  0.278606  0.278001  1
  C  C26  1  0.279538  0.279538  0.722277  1
  C  C27  1  0.718647  0.279538  0.722277  1
  C  C28  1  0.279538  0.718647  0.722277  1
