# generated using pymatgen
data_Yb3DyOsRu7
_symmetry_space_group_name_H-M   'P 1'
_cell_length_a   5.21680014
_cell_length_b   5.32736782
_cell_length_c   8.85785801
_cell_angle_alpha   89.99999613
_cell_angle_beta   90.09448388
_cell_angle_gamma   120.70361836
_symmetry_Int_Tables_number   1
_chemical_formula_structural   Yb3DyOsRu7
_chemical_formula_sum   'Yb3 Dy1 Os1 Ru7'
_cell_volume   211.66661016
_cell_formula_units_Z   1
loop_
 _symmetry_equiv_pos_site_id
 _symmetry_equiv_pos_as_xyz
  1  'x, y, z'
loop_
 _atom_site_type_symbol
 _atom_site_label
 _atom_site_symmetry_multiplicity
 _atom_site_fract_x
 _atom_site_fract_y
 _atom_site_fract_z
 _atom_site_occupancy
  Yb  Yb0  1  0.662803  0.331402  0.569154  1
  Yb  Yb1  1  0.660694  0.330347  0.935743  1
  Yb  Yb2  1  0.327003  0.663501  0.061895  1
  Dy  Dy3  1  0.329652  0.664826  0.432079  1
  Os  Os4  1  0.673676  0.836838  0.750989  1
  Ru  Ru5  1  0.980385  0.990192  0.500159  1
  Ru  Ru6  1  0.977548  0.988774  0.000975  1
  Ru  Ru7  1  0.832653  0.169223  0.249611  1
  Ru  Ru8  1  0.832653  0.663431  0.249611  1
  Ru  Ru9  1  0.357638  0.178819  0.251141  1
  Ru  Ru10  1  0.182646  0.831457  0.749322  1
  Ru  Ru11  1  0.182646  0.351191  0.749322  1
