# generated using pymatgen
data_Ce10ZnSn6Bi
_symmetry_space_group_name_H-M   'P 1'
_cell_length_a   6.53948329
_cell_length_b   9.57341355
_cell_length_c   9.57058500
_cell_angle_alpha   120.00978075
_cell_angle_beta   90.01698858
_cell_angle_gamma   89.96603153
_symmetry_Int_Tables_number   1
_chemical_formula_structural   Ce10ZnSn6Bi
_chemical_formula_sum   'Ce10 Zn1 Sn6 Bi1'
_cell_volume   518.84362244
_cell_formula_units_Z   1
loop_
 _symmetry_equiv_pos_site_id
 _symmetry_equiv_pos_as_xyz
  1  'x, y, z'
loop_
 _atom_site_type_symbol
 _atom_site_label
 _atom_site_symmetry_multiplicity
 _atom_site_fract_x
 _atom_site_fract_y
 _atom_site_fract_z
 _atom_site_occupancy
  Ce  Ce0  1  0.759037  0.278659  0.000000  1
  Ce  Ce1  1  0.759119  0.721360  0.721463  1
  Ce  Ce2  1  0.759119  0.999896  0.278537  1
  Ce  Ce3  1  0.240764  0.721306  0.000000  1
  Ce  Ce4  1  0.240935  0.278552  0.278640  1
  Ce  Ce5  1  0.240935  0.999913  0.721360  1
  Ce  Ce6  1  0.499831  0.333457  0.666697  1
  Ce  Ce7  1  0.499831  0.666760  0.333303  1
  Ce  Ce8  1  0.000209  0.666731  0.333296  1
  Ce  Ce9  1  0.000209  0.333435  0.666704  1
  Zn  Zn10  1  0.000092  0.000033  0.000000  1
  Sn  Sn11  1  0.746333  0.621985  0.000000  1
  Sn  Sn12  1  0.746561  0.377874  0.377818  1
  Sn  Sn13  1  0.746561  0.000057  0.622182  1
  Sn  Sn14  1  0.253581  0.377976  0.000000  1
  Sn  Sn15  1  0.253517  0.622147  0.622250  1
  Sn  Sn16  1  0.253517  0.999898  0.377750  1
  Bi  Bi17  1  0.499850  0.999959  0.000000  1
