# generated using pymatgen
data_Hf2ZrSc(FeB4)4
_symmetry_space_group_name_H-M   'P 1'
_cell_length_a   5.75421763
_cell_length_b   11.14373432
_cell_length_c   3.24540700
_cell_angle_alpha   90.00000000
_cell_angle_beta   90.00000000
_cell_angle_gamma   89.95949057
_symmetry_Int_Tables_number   1
_chemical_formula_structural   Hf2ZrSc(FeB4)4
_chemical_formula_sum   'Hf2 Zr1 Sc1 Fe4 B16'
_cell_volume   208.10671450
_cell_formula_units_Z   1
loop_
 _symmetry_equiv_pos_site_id
 _symmetry_equiv_pos_as_xyz
  1  'x, y, z'
loop_
 _atom_site_type_symbol
 _atom_site_label
 _atom_site_symmetry_multiplicity
 _atom_site_fract_x
 _atom_site_fract_y
 _atom_site_fract_z
 _atom_site_occupancy
  Hf  Hf0  1  0.371987  0.649623  0.000000  1
  Hf  Hf1  1  0.129846  0.149082  0.000000  1
  Zr  Zr2  1  0.628248  0.350775  0.000000  1
  Sc  Sc3  1  0.870645  0.850596  0.000000  1
  Fe  Fe4  1  0.633426  0.091014  0.000000  1
  Fe  Fe5  1  0.365877  0.910153  0.000000  1
  Fe  Fe6  1  0.133817  0.409085  0.000000  1
  Fe  Fe7  1  0.866246  0.590244  0.000000  1
  B  B8  1  0.789691  0.185418  0.500000  1
  B  B9  1  0.211091  0.813952  0.500000  1
  B  B10  1  0.287865  0.313135  0.500000  1
  B  B11  1  0.711117  0.686627  0.500000  1
  B  B12  1  0.865720  0.031228  0.500000  1
  B  B13  1  0.134649  0.968179  0.500000  1
  B  B14  1  0.365168  0.468545  0.500000  1
  B  B15  1  0.633856  0.532713  0.500000  1
  B  B16  1  0.887019  0.453276  0.500000  1
  B  B17  1  0.113494  0.548066  0.500000  1
  B  B18  1  0.386690  0.046368  0.500000  1
  B  B19  1  0.614984  0.952230  0.500000  1
  B  B20  1  0.976053  0.306128  0.500000  1
  B  B21  1  0.023814  0.694104  0.500000  1
  B  B22  1  0.474727  0.192807  0.500000  1
  B  B23  1  0.523972  0.806655  0.500000  1
