# generated using pymatgen
data_Ho4Lu3ThSb20
_symmetry_space_group_name_H-M   'P 1'
_cell_length_a   4.23429900
_cell_length_b   13.17898878
_cell_length_c   14.57789400
_cell_angle_alpha   78.25302557
_cell_angle_beta   90.00000000
_cell_angle_gamma   90.00000000
_symmetry_Int_Tables_number   1
_chemical_formula_structural   Ho4Lu3ThSb20
_chemical_formula_sum   'Ho4 Lu3 Th1 Sb20'
_cell_volume   796.46378102
_cell_formula_units_Z   1
loop_
 _symmetry_equiv_pos_site_id
 _symmetry_equiv_pos_as_xyz
  1  'x, y, z'
loop_
 _atom_site_type_symbol
 _atom_site_label
 _atom_site_symmetry_multiplicity
 _atom_site_fract_x
 _atom_site_fract_y
 _atom_site_fract_z
 _atom_site_occupancy
  Ho  Ho0  1  0.750000  0.337739  0.143417  1
  Ho  Ho1  1  0.750000  0.327546  0.424842  1
  Ho  Ho2  1  0.250000  0.951997  0.356261  1
  Ho  Ho3  1  0.750000  0.049474  0.642509  1
  Lu  Lu4  1  0.250000  0.393766  0.772242  1
  Lu  Lu5  1  0.750000  0.604080  0.226020  1
  Lu  Lu6  1  0.250000  0.662127  0.858269  1
  Th  Th7  1  0.250000  0.671620  0.573220  1
  Sb  Sb8  1  0.250000  0.147289  0.779917  1
  Sb  Sb9  1  0.750000  0.853089  0.219918  1
  Sb  Sb10  1  0.250000  0.140013  0.483035  1
  Sb  Sb11  1  0.750000  0.862356  0.516305  1
  Sb  Sb12  1  0.250000  0.152239  0.169214  1
  Sb  Sb13  1  0.750000  0.846316  0.834883  1
  Sb  Sb14  1  0.250000  0.421334  0.974743  1
  Sb  Sb15  1  0.750000  0.580016  0.022481  1
  Sb  Sb16  1  0.750000  0.032706  0.912071  1
  Sb  Sb17  1  0.250000  0.969063  0.089262  1
  Sb  Sb18  1  0.750000  0.138060  0.319895  1
  Sb  Sb19  1  0.250000  0.862855  0.686445  1
  Sb  Sb20  1  0.750000  0.280389  0.935912  1
  Sb  Sb21  1  0.250000  0.721206  0.060864  1
  Sb  Sb22  1  0.750000  0.285785  0.656669  1
  Sb  Sb23  1  0.250000  0.713311  0.341437  1
  Sb  Sb24  1  0.750000  0.575512  0.738274  1
  Sb  Sb25  1  0.250000  0.425729  0.264611  1
  Sb  Sb26  1  0.750000  0.567866  0.443316  1
  Sb  Sb27  1  0.250000  0.426514  0.553973  1
