# generated using pymatgen
data_Lu8Sc11Si16Ru
_symmetry_space_group_name_H-M   'P 1'
_cell_length_a   6.93182300
_cell_length_b   7.28878284
_cell_length_c   13.77206700
_cell_angle_alpha   90.00000000
_cell_angle_beta   90.00000000
_cell_angle_gamma   90.11630341
_symmetry_Int_Tables_number   1
_chemical_formula_structural   Lu8Sc11Si16Ru
_chemical_formula_sum   'Lu8 Sc11 Si16 Ru1'
_cell_volume   695.82608890
_cell_formula_units_Z   1
loop_
 _symmetry_equiv_pos_site_id
 _symmetry_equiv_pos_as_xyz
  1  'x, y, z'
loop_
 _atom_site_type_symbol
 _atom_site_label
 _atom_site_symmetry_multiplicity
 _atom_site_fract_x
 _atom_site_fract_y
 _atom_site_fract_z
 _atom_site_occupancy
  Lu  Lu0  1  0.011680  0.179309  0.093156  1
  Lu  Lu1  1  0.992626  0.816985  0.901726  1
  Lu  Lu2  1  0.489349  0.674012  0.903102  1
  Lu  Lu3  1  0.992626  0.816985  0.598274  1
  Lu  Lu4  1  0.510400  0.322538  0.094305  1
  Lu  Lu5  1  0.011680  0.179309  0.406844  1
  Lu  Lu6  1  0.510400  0.322538  0.405695  1
  Lu  Lu7  1  0.489349  0.674012  0.596898  1
  Sc  Sc8  1  0.840674  0.495292  0.250000  1
  Sc  Sc9  1  0.341564  0.004335  0.250000  1
  Sc  Sc10  1  0.657317  0.994876  0.750000  1
  Sc  Sc11  1  0.326099  0.177160  0.627166  1
  Sc  Sc12  1  0.671381  0.824664  0.374378  1
  Sc  Sc13  1  0.172218  0.674096  0.376315  1
  Sc  Sc14  1  0.671381  0.824664  0.125622  1
  Sc  Sc15  1  0.826800  0.330737  0.628409  1
  Sc  Sc16  1  0.326099  0.177160  0.872834  1
  Sc  Sc17  1  0.826800  0.330737  0.871591  1
  Sc  Sc18  1  0.172218  0.674096  0.123685  1
  Si  Si19  1  0.028341  0.111003  0.750000  1
  Si  Si20  1  0.973057  0.888819  0.250000  1
  Si  Si21  1  0.469465  0.612107  0.250000  1
  Si  Si22  1  0.515751  0.398853  0.750000  1
  Si  Si23  1  0.284269  0.858311  0.750000  1
  Si  Si24  1  0.716632  0.132770  0.250000  1
  Si  Si25  1  0.214564  0.367816  0.250000  1
  Si  Si26  1  0.794932  0.632570  0.750000  1
  Si  Si27  1  0.159199  0.466527  0.546404  1
  Si  Si28  1  0.841483  0.535133  0.463550  1
  Si  Si29  1  0.342931  0.965426  0.463182  1
  Si  Si30  1  0.841483  0.535133  0.036450  1
  Si  Si31  1  0.661010  0.034031  0.539638  1
  Si  Si32  1  0.159199  0.466527  0.953596  1
  Si  Si33  1  0.661010  0.034031  0.960362  1
  Si  Si34  1  0.342931  0.965426  0.036818  1
  Ru  Ru35  1  0.153078  0.502014  0.750000  1
