# generated using pymatgen
data_ScPa3(Co2Ge)2
_symmetry_space_group_name_H-M   'P 1'
_cell_length_a   7.01969214
_cell_length_b   7.01969284
_cell_length_c   3.50763300
_cell_angle_alpha   90.00000000
_cell_angle_beta   90.00000000
_cell_angle_gamma   87.58403995
_symmetry_Int_Tables_number   1
_chemical_formula_structural   ScPa3(Co2Ge)2
_chemical_formula_sum   'Sc1 Pa3 Co4 Ge2'
_cell_volume   172.68877848
_cell_formula_units_Z   1
loop_
 _symmetry_equiv_pos_site_id
 _symmetry_equiv_pos_as_xyz
  1  'x, y, z'
loop_
 _atom_site_type_symbol
 _atom_site_label
 _atom_site_symmetry_multiplicity
 _atom_site_fract_x
 _atom_site_fract_y
 _atom_site_fract_z
 _atom_site_occupancy
  Sc  Sc0  1  0.319381  0.819381  0.500000  1
  Pa  Pa1  1  0.675775  0.175775  0.500000  1
  Pa  Pa2  1  0.182907  0.324072  0.500000  1
  Pa  Pa3  1  0.824072  0.682907  0.500000  1
  Co  Co4  1  0.858309  0.358309  0.000000  1
  Co  Co5  1  0.375144  0.142531  0.000000  1
  Co  Co6  1  0.642531  0.875144  0.000000  1
  Co  Co7  1  0.113001  0.613001  0.000000  1
  Ge  Ge8  1  0.016505  0.992375  0.000000  1
  Ge  Ge9  1  0.492375  0.516505  0.000000  1
