# generated using pymatgen
data_Zn22RuRhAu2
_symmetry_space_group_name_H-M   'P 1'
_cell_length_a   7.97217675
_cell_length_b   7.97217651
_cell_length_c   7.95829968
_cell_angle_alpha   109.41600012
_cell_angle_beta   109.41599199
_cell_angle_gamma   109.56540695
_symmetry_Int_Tables_number   1
_chemical_formula_structural   Zn22RuRhAu2
_chemical_formula_sum   'Zn22 Ru1 Rh1 Au2'
_cell_volume   389.43826241
_cell_formula_units_Z   1
loop_
 _symmetry_equiv_pos_site_id
 _symmetry_equiv_pos_as_xyz
  1  'x, y, z'
loop_
 _atom_site_type_symbol
 _atom_site_label
 _atom_site_symmetry_multiplicity
 _atom_site_fract_x
 _atom_site_fract_y
 _atom_site_fract_z
 _atom_site_occupancy
  Zn  Zn0  1  0.991479  0.785220  0.001848  1
  Zn  Zn1  1  0.785220  0.991479  0.001848  1
  Zn  Zn2  1  0.992277  0.992277  0.770353  1
  Zn  Zn3  1  0.216055  0.216055  0.225926  1
  Zn  Zn4  1  0.358501  0.623732  0.351602  1
  Zn  Zn5  1  0.271119  0.006085  0.647124  1
  Zn  Zn6  1  0.657919  0.004740  0.284328  1
  Zn  Zn7  1  0.282443  0.651206  0.998927  1
  Zn  Zn8  1  0.731841  0.731841  0.378465  1
  Zn  Zn9  1  0.373607  0.720536  0.715323  1
  Zn  Zn10  1  0.004740  0.657919  0.284328  1
  Zn  Zn11  1  0.006085  0.271119  0.647124  1
  Zn  Zn12  1  0.651206  0.282443  0.998927  1
  Zn  Zn13  1  0.351881  0.351881  0.620992  1
  Zn  Zn14  1  0.623732  0.358501  0.351602  1
  Zn  Zn15  1  0.720536  0.373607  0.715323  1
  Zn  Zn16  1  0.358685  0.358685  0.004019  1
  Zn  Zn17  1  0.996157  0.634103  0.648698  1
  Zn  Zn18  1  0.988910  0.350033  0.353441  1
  Zn  Zn19  1  0.350033  0.988910  0.353441  1
  Zn  Zn20  1  0.634103  0.996157  0.648698  1
  Zn  Zn21  1  0.642592  0.642592  0.999417  1
  Ru  Ru22  1  0.001822  0.001822  0.347616  1
  Rh  Rh23  1  0.655587  0.655587  0.652372  1
  Au  Au24  1  0.000865  0.352606  0.999129  1
  Au  Au25  1  0.352606  0.000865  0.999129  1
