# generated using pymatgen
data_Y2TaIr2Ru
_symmetry_space_group_name_H-M   'P 1'
_cell_length_a   5.67394318
_cell_length_b   5.28518496
_cell_length_c   5.68297400
_cell_angle_alpha   57.47738476
_cell_angle_beta   59.94733534
_cell_angle_gamma   56.41841789
_symmetry_Int_Tables_number   1
_chemical_formula_structural   Y2TaIr2Ru
_chemical_formula_sum   'Y2 Ta1 Ir2 Ru1'
_cell_volume   114.58260316
_cell_formula_units_Z   1
loop_
 _symmetry_equiv_pos_site_id
 _symmetry_equiv_pos_as_xyz
  1  'x, y, z'
loop_
 _atom_site_type_symbol
 _atom_site_label
 _atom_site_symmetry_multiplicity
 _atom_site_fract_x
 _atom_site_fract_y
 _atom_site_fract_z
 _atom_site_occupancy
  Y  Y0  1  0.500521  0.506207  0.496636  1
  Y  Y1  1  0.749479  0.743793  0.753364  1
  Ta  Ta2  1  0.125000  0.625000  0.125000  1
  Ir  Ir3  1  0.125000  0.125000  0.125000  1
  Ir  Ir4  1  0.125000  0.125000  0.625000  1
  Ru  Ru5  1  0.625000  0.125000  0.125000  1
