# generated using pymatgen
data_Pr20Co4Pd7Au
_symmetry_space_group_name_H-M   'P 1'
_cell_length_a   8.62133985
_cell_length_b   8.36721940
_cell_length_c   12.05203367
_cell_angle_alpha   89.97902681
_cell_angle_beta   90.05697210
_cell_angle_gamma   89.82852304
_symmetry_Int_Tables_number   1
_chemical_formula_structural   Pr20Co4Pd7Au
_chemical_formula_sum   'Pr20 Co4 Pd7 Au1'
_cell_volume   869.38885614
_cell_formula_units_Z   1
loop_
 _symmetry_equiv_pos_site_id
 _symmetry_equiv_pos_as_xyz
  1  'x, y, z'
loop_
 _atom_site_type_symbol
 _atom_site_label
 _atom_site_symmetry_multiplicity
 _atom_site_fract_x
 _atom_site_fract_y
 _atom_site_fract_z
 _atom_site_occupancy
  Pr  Pr0  1  0.836045  0.753256  0.792226  1
  Pr  Pr1  1  0.165293  0.249461  0.207194  1
  Pr  Pr2  1  0.331851  0.246925  0.705781  1
  Pr  Pr3  1  0.666758  0.749316  0.293741  1
  Pr  Pr4  1  0.376847  0.752186  0.696253  1
  Pr  Pr5  1  0.620515  0.248285  0.301929  1
  Pr  Pr6  1  0.881728  0.250225  0.802059  1
  Pr  Pr7  1  0.120978  0.749671  0.197885  1
  Pr  Pr8  1  0.962485  0.751560  0.497847  1
  Pr  Pr9  1  0.037129  0.250402  0.501472  1
  Pr  Pr10  1  0.458783  0.244605  0.004772  1
  Pr  Pr11  1  0.539330  0.754733  0.999642  1
  Pr  Pr12  1  0.671561  0.036566  0.581940  1
  Pr  Pr13  1  0.327639  0.963474  0.417486  1
  Pr  Pr14  1  0.171307  0.962516  0.919116  1
  Pr  Pr15  1  0.327062  0.535782  0.417535  1
  Pr  Pr16  1  0.828559  0.036926  0.082251  1
  Pr  Pr17  1  0.673579  0.464207  0.577689  1
  Pr  Pr18  1  0.827297  0.463500  0.081961  1
  Pr  Pr19  1  0.171765  0.535617  0.919288  1
  Co  Co20  1  0.560086  0.750093  0.509431  1
  Co  Co21  1  0.439193  0.249805  0.489836  1
  Co  Co22  1  0.061792  0.249802  0.990481  1
  Co  Co23  1  0.938211  0.749755  0.010143  1
  Pd  Pd24  1  0.434178  0.524609  0.174600  1
  Pd  Pd25  1  0.066447  0.524527  0.674367  1
  Pd  Pd26  1  0.433768  0.975146  0.175748  1
  Pd  Pd27  1  0.933359  0.475687  0.325328  1
  Pd  Pd28  1  0.565291  0.023901  0.825439  1
  Pd  Pd29  1  0.934286  0.024292  0.325459  1
  Pd  Pd30  1  0.066636  0.976170  0.674400  1
  Au  Au31  1  0.570242  0.477001  0.826702  1
