# generated using pymatgen
data_Y5Ho5(SnBi)4
_symmetry_space_group_name_H-M   'P 1'
_cell_length_a   8.17408800
_cell_length_b   8.20914519
_cell_length_c   15.63631100
_cell_angle_alpha   90.01244446
_cell_angle_beta   90.00000000
_cell_angle_gamma   90.00000000
_symmetry_Int_Tables_number   1
_chemical_formula_structural   Y5Ho5(SnBi)4
_chemical_formula_sum   'Y10 Ho10 Sn8 Bi8'
_cell_volume   1049.23201936
_cell_formula_units_Z   2
loop_
 _symmetry_equiv_pos_site_id
 _symmetry_equiv_pos_as_xyz
  1  'x, y, z'
loop_
 _atom_site_type_symbol
 _atom_site_label
 _atom_site_symmetry_multiplicity
 _atom_site_fract_x
 _atom_site_fract_y
 _atom_site_fract_z
 _atom_site_occupancy
  Y  Y0  1  0.387078  0.837878  0.623051  1
  Y  Y1  1  0.887078  0.662122  0.876949  1
  Y  Y2  1  0.553546  0.327546  0.890155  1
  Y  Y3  1  0.053546  0.172454  0.609845  1
  Y  Y4  1  0.446104  0.671859  0.389734  1
  Y  Y5  1  0.946104  0.828141  0.110266  1
  Y  Y6  1  0.446606  0.672069  0.110106  1
  Y  Y7  1  0.946606  0.827931  0.389894  1
  Y  Y8  1  0.553424  0.327806  0.610037  1
  Y  Y9  1  0.053424  0.172194  0.889963  1
  Ho  Ho10  1  0.386188  0.838242  0.875986  1
  Ho  Ho11  1  0.886188  0.661758  0.624014  1
  Ho  Ho12  1  0.613605  0.161599  0.375960  1
  Ho  Ho13  1  0.113605  0.338401  0.124040  1
  Ho  Ho14  1  0.613350  0.161512  0.124357  1
  Ho  Ho15  1  0.113350  0.338488  0.375643  1
  Ho  Ho16  1  0.218512  0.498391  0.749931  1
  Ho  Ho17  1  0.718512  0.001609  0.750069  1
  Ho  Ho18  1  0.781538  0.501275  0.250258  1
  Ho  Ho19  1  0.281538  0.998725  0.249742  1
  Sn  Sn20  1  0.583616  0.626839  0.750217  1
  Sn  Sn21  1  0.083616  0.873161  0.749783  1
  Sn  Sn22  1  0.416339  0.372771  0.250021  1
  Sn  Sn23  1  0.916339  0.127229  0.249979  1
  Sn  Sn24  1  0.357808  0.143563  0.750032  1
  Sn  Sn25  1  0.857808  0.356437  0.749968  1
  Sn  Sn26  1  0.642058  0.856209  0.250101  1
  Sn  Sn27  1  0.142058  0.643791  0.249899  1
  Bi  Bi28  1  0.271639  0.021951  0.044277  1
  Bi  Bi29  1  0.771639  0.478049  0.455723  1
  Bi  Bi30  1  0.729562  0.978727  0.544147  1
  Bi  Bi31  1  0.229562  0.521273  0.955853  1
  Bi  Bi32  1  0.727404  0.979315  0.956008  1
  Bi  Bi33  1  0.227404  0.520685  0.543992  1
  Bi  Bi34  1  0.271622  0.022607  0.455016  1
  Bi  Bi35  1  0.771622  0.477393  0.044984  1
