# generated using pymatgen
data_Tb2SmThSe6
_symmetry_space_group_name_H-M   'P 1'
_cell_length_a   11.28233900
_cell_length_b   4.10542100
_cell_length_c   11.00379500
_cell_angle_alpha   90.00000000
_cell_angle_beta   90.00000000
_cell_angle_gamma   90.00000000
_symmetry_Int_Tables_number   1
_chemical_formula_structural   Tb2SmThSe6
_chemical_formula_sum   'Tb4 Sm2 Th2 Se12'
_cell_volume   509.68204572
_cell_formula_units_Z   2
loop_
 _symmetry_equiv_pos_site_id
 _symmetry_equiv_pos_as_xyz
  1  'x, y, z'
loop_
 _atom_site_type_symbol
 _atom_site_label
 _atom_site_symmetry_multiplicity
 _atom_site_fract_x
 _atom_site_fract_y
 _atom_site_fract_z
 _atom_site_occupancy
  Tb  Tb0  1  0.484246  0.250000  0.187637  1
  Tb  Tb1  1  0.984246  0.250000  0.312363  1
  Tb  Tb2  1  0.513557  0.750000  0.812277  1
  Tb  Tb3  1  0.013557  0.750000  0.687723  1
  Sm  Sm4  1  0.697017  0.750000  0.496573  1
  Sm  Sm5  1  0.197017  0.750000  0.003427  1
  Th  Th6  1  0.305667  0.250000  0.497165  1
  Th  Th7  1  0.805667  0.250000  0.002835  1
  Se  Se8  1  0.545715  0.250000  0.627086  1
  Se  Se9  1  0.045715  0.250000  0.872914  1
  Se  Se10  1  0.454640  0.750000  0.371473  1
  Se  Se11  1  0.954640  0.750000  0.128527  1
  Se  Se12  1  0.616486  0.750000  0.054473  1
  Se  Se13  1  0.116486  0.750000  0.445527  1
  Se  Se14  1  0.382140  0.250000  0.945475  1
  Se  Se15  1  0.882140  0.250000  0.554525  1
  Se  Se16  1  0.726055  0.250000  0.295343  1
  Se  Se17  1  0.226055  0.250000  0.204657  1
  Se  Se18  1  0.274476  0.750000  0.699373  1
  Se  Se19  1  0.774476  0.750000  0.800627  1
