# generated using pymatgen
data_Li3Hf6ReOs2
_symmetry_space_group_name_H-M   'P 1'
_cell_length_a   4.61797500
_cell_length_b   6.60909700
_cell_length_c   13.78659100
_cell_angle_alpha   90.00000000
_cell_angle_beta   89.99950666
_cell_angle_gamma   90.00000000
_symmetry_Int_Tables_number   1
_chemical_formula_structural   Li3Hf6ReOs2
_chemical_formula_sum   'Li6 Hf12 Re2 Os4'
_cell_volume   420.77564578
_cell_formula_units_Z   2
loop_
 _symmetry_equiv_pos_site_id
 _symmetry_equiv_pos_as_xyz
  1  'x, y, z'
loop_
 _atom_site_type_symbol
 _atom_site_label
 _atom_site_symmetry_multiplicity
 _atom_site_fract_x
 _atom_site_fract_y
 _atom_site_fract_z
 _atom_site_occupancy
  Li  Li0  1  0.999996  0.500001  0.999792  1
  Li  Li1  1  0.499758  0.000000  0.166969  1
  Li  Li2  1  0.999770  0.500001  0.333613  1
  Li  Li3  1  0.500009  0.000000  0.500046  1
  Li  Li4  1  0.000117  0.500001  0.666499  1
  Li  Li5  1  0.500229  0.000000  0.833020  1
  Hf  Hf6  1  0.500011  0.250091  0.999813  1
  Hf  Hf7  1  0.500011  0.749909  0.999813  1
  Hf  Hf8  1  0.999799  0.249896  0.166719  1
  Hf  Hf9  1  0.999799  0.750104  0.166719  1
  Hf  Hf10  1  0.499810  0.250770  0.333482  1
  Hf  Hf11  1  0.499810  0.749229  0.333482  1
  Hf  Hf12  1  0.000007  0.248894  0.500179  1
  Hf  Hf13  1  0.000007  0.751107  0.500179  1
  Hf  Hf14  1  0.500197  0.251108  0.666597  1
  Hf  Hf15  1  0.500197  0.748891  0.666597  1
  Hf  Hf16  1  0.000212  0.249298  0.833165  1
  Hf  Hf17  1  0.000212  0.750702  0.833165  1
  Re  Re18  1  0.000019  0.000000  0.998719  1
  Re  Re19  1  0.499800  0.500001  0.167917  1
  Os  Os20  1  0.999793  0.000000  0.335661  1
  Os  Os21  1  0.500015  0.500001  0.501132  1
  Os  Os22  1  0.000198  0.000000  0.665688  1
  Os  Os23  1  0.500222  0.500001  0.831033  1
