# generated using pymatgen
data_Er3Th(Al3Rh)6
_symmetry_space_group_name_H-M   'P 1'
_cell_length_a   7.56901239
_cell_length_b   7.58497435
_cell_length_c   9.45888800
_cell_angle_alpha   90.00000000
_cell_angle_beta   90.00000000
_cell_angle_gamma   119.38725064
_symmetry_Int_Tables_number   1
_chemical_formula_structural   Er3Th(Al3Rh)6
_chemical_formula_sum   'Er3 Th1 Al18 Rh6'
_cell_volume   473.16499326
_cell_formula_units_Z   1
loop_
 _symmetry_equiv_pos_site_id
 _symmetry_equiv_pos_as_xyz
  1  'x, y, z'
loop_
 _atom_site_type_symbol
 _atom_site_label
 _atom_site_symmetry_multiplicity
 _atom_site_fract_x
 _atom_site_fract_y
 _atom_site_fract_z
 _atom_site_occupancy
  Er  Er0  1  0.004638  0.328226  0.250000  1
  Er  Er1  1  0.671861  0.994646  0.750000  1
  Er  Er2  1  0.328092  0.005193  0.250000  1
  Th  Th3  1  0.994743  0.671159  0.750000  1
  Al  Al4  1  0.130320  0.132038  0.750000  1
  Al  Al5  1  0.872748  0.875168  0.250000  1
  Al  Al6  1  0.000954  0.330794  0.572224  1
  Al  Al7  1  0.999500  0.664139  0.417345  1
  Al  Al8  1  0.999500  0.664139  0.082655  1
  Al  Al9  1  0.340349  0.005119  0.927664  1
  Al  Al10  1  0.000954  0.330794  0.927776  1
  Al  Al11  1  0.664491  0.000937  0.076646  1
  Al  Al12  1  0.664491  0.000937  0.423354  1
  Al  Al13  1  0.340349  0.005119  0.572336  1
  Al  Al14  1  0.332016  0.332147  0.054998  1
  Al  Al15  1  0.663399  0.666952  0.955525  1
  Al  Al16  1  0.663399  0.666952  0.544475  1
  Al  Al17  1  0.332016  0.332147  0.445002  1
  Al  Al18  1  0.344058  0.549137  0.750000  1
  Al  Al19  1  0.658086  0.447423  0.250000  1
  Al  Al20  1  0.545261  0.336220  0.750000  1
  Al  Al21  1  0.448571  0.660891  0.250000  1
  Rh  Rh22  1  0.673889  0.328962  0.499770  1
  Rh  Rh23  1  0.326101  0.672308  0.500053  1
  Rh  Rh24  1  0.326101  0.672308  0.999947  1
  Rh  Rh25  1  0.673889  0.328962  0.000230  1
  Rh  Rh26  1  0.000112  0.998591  0.499644  1
  Rh  Rh27  1  0.000112  0.998591  0.000356  1
