# generated using pymatgen
data_YHo3Ti(ReN4)3
_symmetry_space_group_name_H-M   'P 1'
_cell_length_a   7.32727947
_cell_length_b   7.40767660
_cell_length_c   6.27449626
_cell_angle_alpha   72.63861568
_cell_angle_beta   73.88240156
_cell_angle_gamma   82.11660554
_symmetry_Int_Tables_number   1
_chemical_formula_structural   YHo3Ti(ReN4)3
_chemical_formula_sum   'Y1 Ho3 Ti1 Re3 N12'
_cell_volume   311.72716999
_cell_formula_units_Z   1
loop_
 _symmetry_equiv_pos_site_id
 _symmetry_equiv_pos_as_xyz
  1  'x, y, z'
loop_
 _atom_site_type_symbol
 _atom_site_label
 _atom_site_symmetry_multiplicity
 _atom_site_fract_x
 _atom_site_fract_y
 _atom_site_fract_z
 _atom_site_occupancy
  Y  Y0  1  0.301272  0.719381  0.738437  1
  Ho  Ho1  1  0.906177  0.084516  0.767067  1
  Ho  Ho2  1  0.091468  0.904081  0.262186  1
  Ho  Ho3  1  0.708458  0.277176  0.242443  1
  Ti  Ti4  1  0.619149  0.801450  0.274092  1
  Re  Re5  1  0.200248  0.377912  0.216592  1
  Re  Re6  1  0.378907  0.205730  0.719901  1
  Re  Re7  1  0.794052  0.617761  0.783141  1
  N  N8  1  0.658510  0.621295  0.073487  1
  N  N9  1  0.369718  0.879203  0.352827  1
  N  N10  1  0.361336  0.331946  0.419521  1
  N  N11  1  0.125590  0.622315  0.162272  1
  N  N12  1  0.002507  0.224140  0.336553  1
  N  N13  1  0.790910  0.001025  0.148725  1
  N  N14  1  0.225049  0.008128  0.843285  1
  N  N15  1  0.626238  0.132109  0.658952  1
  N  N16  1  0.333972  0.367059  0.916105  1
  N  N17  1  0.884126  0.376209  0.829455  1
  N  N18  1  0.633355  0.665119  0.589817  1
  N  N19  1  0.988958  0.783446  0.665142  1
