# generated using pymatgen
data_Cs9Rb7(ZrS4)4
_symmetry_space_group_name_H-M   'P 1'
_cell_length_a   8.63156642
_cell_length_b   10.42078863
_cell_length_c   15.78697600
_cell_angle_alpha   89.62915353
_cell_angle_beta   89.79101078
_cell_angle_gamma   89.86980831
_symmetry_Int_Tables_number   1
_chemical_formula_structural   Cs9Rb7(ZrS4)4
_chemical_formula_sum   'Cs9 Rb7 Zr4 S16'
_cell_volume   1419.95986134
_cell_formula_units_Z   1
loop_
 _symmetry_equiv_pos_site_id
 _symmetry_equiv_pos_as_xyz
  1  'x, y, z'
loop_
 _atom_site_type_symbol
 _atom_site_label
 _atom_site_symmetry_multiplicity
 _atom_site_fract_x
 _atom_site_fract_y
 _atom_site_fract_z
 _atom_site_occupancy
  Cs  Cs0  1  0.998678  0.998702  0.999662  1
  Cs  Cs1  1  0.501095  0.000723  0.502537  1
  Cs  Cs2  1  0.000950  0.499885  0.999804  1
  Cs  Cs3  1  0.499776  0.501337  0.499527  1
  Cs  Cs4  1  0.989115  0.749927  0.428670  1
  Cs  Cs5  1  0.489419  0.249428  0.069767  1
  Cs  Cs6  1  0.011769  0.250613  0.571780  1
  Cs  Cs7  1  0.509151  0.748004  0.928074  1
  Cs  Cs8  1  0.830866  0.058582  0.279000  1
  Rb  Rb9  1  0.333311  0.941615  0.225067  1
  Rb  Rb10  1  0.163352  0.558031  0.724705  1
  Rb  Rb11  1  0.663433  0.441783  0.774679  1
  Rb  Rb12  1  0.163120  0.942528  0.725581  1
  Rb  Rb13  1  0.663507  0.057260  0.774789  1
  Rb  Rb14  1  0.838746  0.444514  0.274706  1
  Rb  Rb15  1  0.336535  0.557230  0.224360  1
  Zr  Zr16  1  0.761470  0.750312  0.671754  1
  Zr  Zr17  1  0.241303  0.252584  0.329746  1
  Zr  Zr18  1  0.737166  0.747650  0.170266  1
  Zr  Zr19  1  0.260606  0.249425  0.827848  1
  S  S20  1  0.978679  0.249181  0.820569  1
  S  S21  1  0.521877  0.260139  0.323039  1
  S  S22  1  0.479529  0.751639  0.679533  1
  S  S23  1  0.019430  0.748282  0.177513  1
  S  S24  1  0.650954  0.556878  0.098905  1
  S  S25  1  0.147877  0.441914  0.401115  1
  S  S26  1  0.349243  0.058243  0.899967  1
  S  S27  1  0.851599  0.941043  0.599449  1
  S  S28  1  0.349323  0.439687  0.899326  1
  S  S29  1  0.849630  0.559686  0.599936  1
  S  S30  1  0.644824  0.936866  0.097091  1
  S  S31  1  0.159470  0.059338  0.402219  1
  S  S32  1  0.623381  0.745262  0.312149  1
  S  S33  1  0.131964  0.252273  0.187331  1
  S  S34  1  0.374745  0.250143  0.686197  1
  S  S35  1  0.874108  0.749299  0.813341  1
