# generated using pymatgen
data_Rb5ZrBi3
_symmetry_space_group_name_H-M   'P 1'
_cell_length_a   9.41611800
_cell_length_b   10.23086222
_cell_length_c   19.87247675
_cell_angle_alpha   60.08572568
_cell_angle_beta   90.00000000
_cell_angle_gamma   90.00000000
_symmetry_Int_Tables_number   1
_chemical_formula_structural   Rb5ZrBi3
_chemical_formula_sum   'Rb20 Zr4 Bi12'
_cell_volume   1659.36248020
_cell_formula_units_Z   4
loop_
 _symmetry_equiv_pos_site_id
 _symmetry_equiv_pos_as_xyz
  1  'x, y, z'
loop_
 _atom_site_type_symbol
 _atom_site_label
 _atom_site_symmetry_multiplicity
 _atom_site_fract_x
 _atom_site_fract_y
 _atom_site_fract_z
 _atom_site_occupancy
  Rb  Rb0  1  0.172131  0.155611  0.260818  1
  Rb  Rb1  1  0.672131  0.844389  0.239182  1
  Rb  Rb2  1  0.827869  0.844389  0.739182  1
  Rb  Rb3  1  0.327869  0.155611  0.760818  1
  Rb  Rb4  1  0.167757  0.839850  0.579555  1
  Rb  Rb5  1  0.667757  0.160150  0.920445  1
  Rb  Rb6  1  0.832243  0.160150  0.420445  1
  Rb  Rb7  1  0.332243  0.839850  0.079555  1
  Rb  Rb8  1  0.003293  0.908475  0.908328  1
  Rb  Rb9  1  0.503293  0.091525  0.591672  1
  Rb  Rb10  1  0.996707  0.091525  0.091672  1
  Rb  Rb11  1  0.496707  0.908475  0.408328  1
  Rb  Rb12  1  0.512945  0.733219  0.922510  1
  Rb  Rb13  1  0.012945  0.266781  0.577490  1
  Rb  Rb14  1  0.487055  0.266781  0.077490  1
  Rb  Rb15  1  0.987055  0.733219  0.422510  1
  Rb  Rb16  1  0.987135  0.457981  0.744584  1
  Rb  Rb17  1  0.487135  0.542019  0.755416  1
  Rb  Rb18  1  0.012865  0.542019  0.255416  1
  Rb  Rb19  1  0.512865  0.457981  0.244584  1
  Zr  Zr20  1  0.367689  0.506128  0.419336  1
  Zr  Zr21  1  0.867689  0.493872  0.080664  1
  Zr  Zr22  1  0.632311  0.493872  0.580664  1
  Zr  Zr23  1  0.132311  0.506128  0.919336  1
  Bi  Bi24  1  0.253574  0.241046  0.922321  1
  Bi  Bi25  1  0.753574  0.758954  0.577679  1
  Bi  Bi26  1  0.746426  0.758954  0.077679  1
  Bi  Bi27  1  0.246426  0.241046  0.422321  1
  Bi  Bi28  1  0.180977  0.513711  0.064848  1
  Bi  Bi29  1  0.680977  0.486289  0.435152  1
  Bi  Bi30  1  0.819023  0.486289  0.935152  1
  Bi  Bi31  1  0.319023  0.513711  0.564848  1
  Bi  Bi32  1  0.283766  0.784371  0.280058  1
  Bi  Bi33  1  0.783766  0.215629  0.219942  1
  Bi  Bi34  1  0.716234  0.215629  0.719942  1
  Bi  Bi35  1  0.216234  0.784371  0.780058  1
