# generated using pymatgen
data_Zr5P12Ru15Rh4
_symmetry_space_group_name_H-M   'P 1'
_cell_length_a   12.45326013
_cell_length_b   12.50942515
_cell_length_c   3.90037600
_cell_angle_alpha   90.00000000
_cell_angle_beta   90.00000000
_cell_angle_gamma   120.08106490
_symmetry_Int_Tables_number   1
_chemical_formula_structural   Zr5P12Ru15Rh4
_chemical_formula_sum   'Zr5 P12 Ru15 Rh4'
_cell_volume   525.77772214
_cell_formula_units_Z   1
loop_
 _symmetry_equiv_pos_site_id
 _symmetry_equiv_pos_as_xyz
  1  'x, y, z'
loop_
 _atom_site_type_symbol
 _atom_site_label
 _atom_site_symmetry_multiplicity
 _atom_site_fract_x
 _atom_site_fract_y
 _atom_site_fract_z
 _atom_site_occupancy
  Zr  Zr0  1  0.186806  0.184794  0.500000  1
  Zr  Zr1  1  0.810317  0.998992  0.500000  1
  Zr  Zr2  1  0.999772  0.810780  0.500000  1
  Zr  Zr3  1  0.333698  0.669177  0.000000  1
  Zr  Zr4  1  0.667102  0.333113  0.000000  1
  P  P5  1  0.819518  0.819103  0.000000  1
  P  P6  1  0.180542  0.999539  0.000000  1
  P  P7  1  0.997439  0.177885  0.000000  1
  P  P8  1  0.174211  0.483122  0.500000  1
  P  P9  1  0.518629  0.694748  0.500000  1
  P  P10  1  0.305255  0.825202  0.500000  1
  P  P11  1  0.695131  0.519245  0.500000  1
  P  P12  1  0.824962  0.305210  0.500000  1
  P  P13  1  0.481295  0.176404  0.500000  1
  P  P14  1  0.369624  0.366568  0.000000  1
  P  P15  1  0.633570  0.000232  0.000000  1
  P  P16  1  0.999865  0.633397  0.000000  1
  Ru  Ru17  1  0.717552  0.717529  0.500000  1
  Ru  Ru18  1  0.282727  0.000220  0.500000  1
  Ru  Ru19  1  0.002540  0.283146  0.500000  1
  Ru  Ru20  1  0.624151  0.808760  0.000000  1
  Ru  Ru21  1  0.190920  0.815849  0.000000  1
  Ru  Ru22  1  0.808152  0.623603  0.000000  1
  Ru  Ru23  1  0.816618  0.192003  0.000000  1
  Ru  Ru24  1  0.375495  0.184075  0.000000  1
  Ru  Ru25  1  0.364124  0.493644  0.500000  1
  Ru  Ru26  1  0.505803  0.872402  0.500000  1
  Ru  Ru27  1  0.127348  0.634850  0.500000  1
  Ru  Ru28  1  0.872488  0.505278  0.500000  1
  Ru  Ru29  1  0.633718  0.127924  0.500000  1
  Ru  Ru30  1  0.493620  0.367181  0.500000  1
  Ru  Ru31  1  0.000239  0.999957  0.000000  1
  Rh  Rh32  1  0.552648  0.554680  0.000000  1
  Rh  Rh33  1  0.446490  0.000120  0.000000  1
  Rh  Rh34  1  0.001976  0.447909  0.000000  1
  Rh  Rh35  1  0.185657  0.373360  0.000000  1
