# generated using pymatgen
data_Dy6Tc16O
_symmetry_space_group_name_H-M   'P 1'
_cell_length_a   8.06530106
_cell_length_b   8.06530134
_cell_length_c   8.06530100
_cell_angle_alpha   109.47121477
_cell_angle_beta   109.47121547
_cell_angle_gamma   109.47122864
_symmetry_Int_Tables_number   1
_chemical_formula_structural   Dy6Tc16O
_chemical_formula_sum   'Dy6 Tc16 O1'
_cell_volume   403.86841186
_cell_formula_units_Z   1
loop_
 _symmetry_equiv_pos_site_id
 _symmetry_equiv_pos_as_xyz
  1  'x, y, z'
loop_
 _atom_site_type_symbol
 _atom_site_label
 _atom_site_symmetry_multiplicity
 _atom_site_fract_x
 _atom_site_fract_y
 _atom_site_fract_z
 _atom_site_occupancy
  Dy  Dy0  1  0.264464  0.000000  0.264464  1
  Dy  Dy1  1  0.000000  0.264464  0.264464  1
  Dy  Dy2  1  0.000000  0.735536  0.735536  1
  Dy  Dy3  1  0.264464  0.264464  0.000000  1
  Dy  Dy4  1  0.735536  0.735536  0.000000  1
  Dy  Dy5  1  0.735536  0.000000  0.735536  1
  Tc  Tc6  1  0.000000  0.000000  0.500000  1
  Tc  Tc7  1  0.500000  0.000000  0.000000  1
  Tc  Tc8  1  0.000000  0.500000  0.000000  1
  Tc  Tc9  1  0.500000  0.500000  0.500000  1
  Tc  Tc10  1  0.339811  0.000000  0.660189  1
  Tc  Tc11  1  0.679623  0.339811  0.339811  1
  Tc  Tc12  1  0.000000  0.339811  0.660189  1
  Tc  Tc13  1  0.660189  0.660189  0.320377  1
  Tc  Tc14  1  0.339811  0.660189  0.000000  1
  Tc  Tc15  1  0.339811  0.679623  0.339811  1
  Tc  Tc16  1  0.660189  0.320377  0.660189  1
  Tc  Tc17  1  0.339811  0.339811  0.679623  1
  Tc  Tc18  1  0.320377  0.660189  0.660189  1
  Tc  Tc19  1  0.660189  0.339811  0.000000  1
  Tc  Tc20  1  0.000000  0.660189  0.339811  1
  Tc  Tc21  1  0.660189  0.000000  0.339811  1
  O  O22  1  0.000000  0.000000  0.000000  1
