# generated using pymatgen
data_Th4BeSi6Pd
_symmetry_space_group_name_H-M   'P 1'
_cell_length_a   8.13705000
_cell_length_b   8.13705036
_cell_length_c   8.49982400
_cell_angle_alpha   90.00000000
_cell_angle_beta   90.00000000
_cell_angle_gamma   119.99999042
_symmetry_Int_Tables_number   1
_chemical_formula_structural   Th4BeSi6Pd
_chemical_formula_sum   'Th8 Be2 Si12 Pd2'
_cell_volume   487.38773383
_cell_formula_units_Z   2
loop_
 _symmetry_equiv_pos_site_id
 _symmetry_equiv_pos_as_xyz
  1  'x, y, z'
loop_
 _atom_site_type_symbol
 _atom_site_label
 _atom_site_symmetry_multiplicity
 _atom_site_fract_x
 _atom_site_fract_y
 _atom_site_fract_z
 _atom_site_occupancy
  Th  Th0  1  0.499909  0.500091  0.760506  1
  Th  Th1  1  0.500091  0.499909  0.239494  1
  Th  Th2  1  0.000182  0.500091  0.760506  1
  Th  Th3  1  0.999818  0.499909  0.239494  1
  Th  Th4  1  0.499909  0.999818  0.760506  1
  Th  Th5  1  0.500091  0.000182  0.239494  1
  Th  Th6  1  0.000000  0.000000  0.753352  1
  Th  Th7  1  0.000000  0.000000  0.246648  1
  Be  Be8  1  0.666667  0.333333  0.999814  1
  Be  Be9  1  0.333333  0.666667  0.000186  1
  Si  Si10  1  0.826784  0.173216  0.999871  1
  Si  Si11  1  0.173216  0.826784  0.000129  1
  Si  Si12  1  0.346432  0.173216  0.999871  1
  Si  Si13  1  0.165506  0.834494  0.499773  1
  Si  Si14  1  0.653568  0.826784  0.000129  1
  Si  Si15  1  0.834494  0.165506  0.500227  1
  Si  Si16  1  0.826784  0.653568  0.999871  1
  Si  Si17  1  0.668988  0.834494  0.499773  1
  Si  Si18  1  0.173216  0.346432  0.000129  1
  Si  Si19  1  0.331012  0.165506  0.500227  1
  Si  Si20  1  0.165506  0.331012  0.499773  1
  Si  Si21  1  0.834494  0.668988  0.500227  1
  Pd  Pd22  1  0.333333  0.666667  0.499763  1
  Pd  Pd23  1  0.666667  0.333333  0.500237  1
