# generated using pymatgen
data_Ta2Nb4Co15Si7Os
_symmetry_space_group_name_H-M   'P 1'
_cell_length_a   7.97741639
_cell_length_b   7.97741685
_cell_length_c   7.97257019
_cell_angle_alpha   59.74073502
_cell_angle_beta   59.74074210
_cell_angle_gamma   59.70570544
_symmetry_Int_Tables_number   1
_chemical_formula_structural   Ta2Nb4Co15Si7Os
_chemical_formula_sum   'Ta2 Nb4 Co15 Si7 Os1'
_cell_volume   356.55555961
_cell_formula_units_Z   1
loop_
 _symmetry_equiv_pos_site_id
 _symmetry_equiv_pos_as_xyz
  1  'x, y, z'
loop_
 _atom_site_type_symbol
 _atom_site_label
 _atom_site_symmetry_multiplicity
 _atom_site_fract_x
 _atom_site_fract_y
 _atom_site_fract_z
 _atom_site_occupancy
  Ta  Ta0  1  0.796092  0.796092  0.201986  1
  Ta  Ta1  1  0.201895  0.201895  0.799543  1
  Nb  Nb2  1  0.200635  0.797448  0.797487  1
  Nb  Nb3  1  0.200714  0.800663  0.200682  1
  Nb  Nb4  1  0.800663  0.200714  0.200682  1
  Nb  Nb5  1  0.797448  0.200635  0.797487  1
  Co  Co6  1  0.499040  0.834792  0.833609  1
  Co  Co7  1  0.621820  0.621820  0.142901  1
  Co  Co8  1  0.163793  0.163793  0.503383  1
  Co  Co9  1  0.833669  0.833669  0.499218  1
  Co  Co10  1  0.168245  0.168245  0.167266  1
  Co  Co11  1  0.833497  0.833497  0.834420  1
  Co  Co12  1  0.380352  0.380352  0.857197  1
  Co  Co13  1  0.834792  0.499040  0.833609  1
  Co  Co14  1  0.620078  0.620078  0.619322  1
  Co  Co15  1  0.381287  0.857185  0.380331  1
  Co  Co16  1  0.142794  0.621049  0.621885  1
  Co  Co17  1  0.621049  0.142794  0.621885  1
  Co  Co18  1  0.162799  0.503734  0.163811  1
  Co  Co19  1  0.857185  0.381287  0.380331  1
  Co  Co20  1  0.503734  0.162799  0.163811  1
  Si  Si21  1  0.999363  0.999363  0.498479  1
  Si  Si22  1  0.501030  0.992765  0.501056  1
  Si  Si23  1  0.504894  0.504894  0.504582  1
  Si  Si24  1  0.999207  0.498482  0.999478  1
  Si  Si25  1  0.501132  0.501132  0.992928  1
  Si  Si26  1  0.498482  0.999207  0.999478  1
  Si  Si27  1  0.992765  0.501030  0.501056  1
  Os  Os28  1  0.381544  0.381544  0.382093  1
