# generated using pymatgen
data_AcDy2Al7Cu2
_symmetry_space_group_name_H-M   'P 1'
_cell_length_a   5.59399015
_cell_length_b   5.59399003
_cell_length_c   9.23275907
_cell_angle_alpha   107.75876466
_cell_angle_beta   107.75876648
_cell_angle_gamma   59.65039578
_symmetry_Int_Tables_number   1
_chemical_formula_structural   AcDy2Al7Cu2
_chemical_formula_sum   'Ac1 Dy2 Al7 Cu2'
_cell_volume   233.40720897
_cell_formula_units_Z   1
loop_
 _symmetry_equiv_pos_site_id
 _symmetry_equiv_pos_as_xyz
  1  'x, y, z'
loop_
 _atom_site_type_symbol
 _atom_site_label
 _atom_site_symmetry_multiplicity
 _atom_site_fract_x
 _atom_site_fract_y
 _atom_site_fract_z
 _atom_site_occupancy
  Ac  Ac0  1  0.000000  0.000000  0.000000  1
  Dy  Dy1  1  0.142987  0.142987  0.428421  1
  Dy  Dy2  1  0.857012  0.857012  0.571578  1
  Al  Al3  1  0.584619  0.584619  0.241754  1
  Al  Al4  1  0.583290  0.073147  0.241736  1
  Al  Al5  1  0.073147  0.583290  0.241736  1
  Al  Al6  1  0.500000  0.500000  0.500000  1
  Al  Al7  1  0.926852  0.416709  0.758263  1
  Al  Al8  1  0.416709  0.926852  0.758263  1
  Al  Al9  1  0.415381  0.415381  0.758247  1
  Cu  Cu10  1  0.335156  0.335156  0.006829  1
  Cu  Cu11  1  0.664845  0.664845  0.993172  1
