# generated using pymatgen
data_Th2Be3SiIr6
_symmetry_space_group_name_H-M   'P 1'
_cell_length_a   6.55000863
_cell_length_b   6.56404748
_cell_length_c   6.55000658
_cell_angle_alpha   130.22124893
_cell_angle_beta   114.68569633
_cell_angle_gamma   86.29456800
_symmetry_Int_Tables_number   1
_chemical_formula_structural   Th2Be3SiIr6
_chemical_formula_sum   'Th2 Be3 Si1 Ir6'
_cell_volume   186.64847708
_cell_formula_units_Z   1
loop_
 _symmetry_equiv_pos_site_id
 _symmetry_equiv_pos_as_xyz
  1  'x, y, z'
loop_
 _atom_site_type_symbol
 _atom_site_label
 _atom_site_symmetry_multiplicity
 _atom_site_fract_x
 _atom_site_fract_y
 _atom_site_fract_z
 _atom_site_occupancy
  Th  Th0  1  0.242867  0.984132  0.741265  1
  Th  Th1  1  0.757909  0.021033  0.263123  1
  Be  Be2  1  0.081376  0.313599  0.232223  1
  Be  Be3  1  0.907932  0.673490  0.765556  1
  Be  Be4  1  0.425314  0.656514  0.231202  1
  Si  Si5  1  0.584653  0.351596  0.766943  1
  Ir  Ir6  1  0.491871  0.500761  0.489269  1
  Ir  Ir7  1  0.011492  0.500761  0.008889  1
  Ir  Ir8  1  0.252150  0.995913  0.251385  1
  Ir  Ir9  1  0.744527  0.995913  0.743763  1
  Ir  Ir10  1  0.233804  0.503145  0.737040  1
  Ir  Ir11  1  0.766105  0.503145  0.269341  1
