# generated using pymatgen
data_Ho7Tm3CuIrPb6
_symmetry_space_group_name_H-M   'P 1'
_cell_length_a   9.15758111
_cell_length_b   9.15461130
_cell_length_c   6.73254903
_cell_angle_alpha   89.99834115
_cell_angle_beta   89.99161293
_cell_angle_gamma   120.02602770
_symmetry_Int_Tables_number   1
_chemical_formula_structural   Ho7Tm3CuIrPb6
_chemical_formula_sum   'Ho7 Tm3 Cu1 Ir1 Pb6'
_cell_volume   488.67133963
_cell_formula_units_Z   1
loop_
 _symmetry_equiv_pos_site_id
 _symmetry_equiv_pos_as_xyz
  1  'x, y, z'
loop_
 _atom_site_type_symbol
 _atom_site_label
 _atom_site_symmetry_multiplicity
 _atom_site_fract_x
 _atom_site_fract_y
 _atom_site_fract_z
 _atom_site_occupancy
  Ho  Ho0  1  0.000130  0.756142  0.261192  1
  Ho  Ho1  1  0.756162  0.756228  0.738715  1
  Ho  Ho2  1  0.243911  0.243823  0.261215  1
  Ho  Ho3  1  0.333326  0.666597  0.500038  1
  Ho  Ho4  1  0.666669  0.333266  0.500040  1
  Ho  Ho5  1  0.666677  0.333285  0.999924  1
  Ho  Ho6  1  0.333334  0.666537  0.999913  1
  Tm  Tm7  1  0.243498  0.999933  0.738667  1
  Tm  Tm8  1  0.756459  0.000044  0.261273  1
  Tm  Tm9  1  0.999867  0.243377  0.738653  1
  Cu  Cu10  1  0.999986  0.000736  0.999469  1
  Ir  Ir11  1  0.999997  0.000953  0.500692  1
  Pb  Pb12  1  0.602399  0.000453  0.752491  1
  Pb  Pb13  1  0.398243  0.999899  0.247595  1
  Pb  Pb14  1  0.000609  0.602515  0.752529  1
  Pb  Pb15  1  0.999393  0.396539  0.247467  1
  Pb  Pb16  1  0.396336  0.396179  0.752653  1
  Pb  Pb17  1  0.603005  0.603494  0.247475  1
