# generated using pymatgen
data_Ba4TbSmU2O12
_symmetry_space_group_name_H-M   'P 1'
_cell_length_a   6.23748930
_cell_length_b   6.25413318
_cell_length_c   8.79631171
_cell_angle_alpha   90.19122327
_cell_angle_beta   89.95706580
_cell_angle_gamma   90.00173058
_symmetry_Int_Tables_number   1
_chemical_formula_structural   Ba4TbSmU2O12
_chemical_formula_sum   'Ba4 Tb1 Sm1 U2 O12'
_cell_volume   343.14289326
_cell_formula_units_Z   1
loop_
 _symmetry_equiv_pos_site_id
 _symmetry_equiv_pos_as_xyz
  1  'x, y, z'
loop_
 _atom_site_type_symbol
 _atom_site_label
 _atom_site_symmetry_multiplicity
 _atom_site_fract_x
 _atom_site_fract_y
 _atom_site_fract_z
 _atom_site_occupancy
  Ba  Ba0  1  0.015860  0.992504  0.747914  1
  Ba  Ba1  1  0.484913  0.492477  0.252450  1
  Ba  Ba2  1  0.515087  0.507523  0.747550  1
  Ba  Ba3  1  0.984141  0.007496  0.252086  1
  Tb  Tb4  1  0.500000  0.000000  0.500000  1
  Sm  Sm5  1  0.000000  0.500000  0.000000  1
  U  U6  1  0.000000  0.500000  0.500000  1
  U  U7  1  0.500000  0.000000  0.000000  1
  O  O8  1  0.240180  0.221426  0.042350  1
  O  O9  1  0.511169  0.926243  0.242664  1
  O  O10  1  0.739501  0.274443  0.459749  1
  O  O11  1  0.722803  0.257691  0.040979  1
  O  O12  1  0.773405  0.758641  0.538560  1
  O  O13  1  0.011379  0.574853  0.261079  1
  O  O14  1  0.226595  0.241359  0.461440  1
  O  O15  1  0.277197  0.742309  0.959021  1
  O  O16  1  0.260499  0.725557  0.540251  1
  O  O17  1  0.488831  0.073757  0.757336  1
  O  O18  1  0.759820  0.778574  0.957650  1
  O  O19  1  0.988621  0.425147  0.738921  1
