# generated using pymatgen
data_Ba6Ta3NbS16
_symmetry_space_group_name_H-M   'P 1'
_cell_length_a   11.31923534
_cell_length_b   11.31923433
_cell_length_c   11.31923500
_cell_angle_alpha   51.63092690
_cell_angle_beta   51.63093094
_cell_angle_gamma   51.63093202
_symmetry_Int_Tables_number   1
_chemical_formula_structural   Ba6Ta3NbS16
_chemical_formula_sum   'Ba6 Ta3 Nb1 S16'
_cell_volume   823.51272488
_cell_formula_units_Z   1
loop_
 _symmetry_equiv_pos_site_id
 _symmetry_equiv_pos_as_xyz
  1  'x, y, z'
loop_
 _atom_site_type_symbol
 _atom_site_label
 _atom_site_symmetry_multiplicity
 _atom_site_fract_x
 _atom_site_fract_y
 _atom_site_fract_z
 _atom_site_occupancy
  Ba  Ba0  1  0.749648  0.430047  0.070225  1
  Ba  Ba1  1  0.571311  0.929743  0.249398  1
  Ba  Ba2  1  0.070225  0.749648  0.430048  1
  Ba  Ba3  1  0.929744  0.249398  0.571311  1
  Ba  Ba4  1  0.430048  0.070226  0.749647  1
  Ba  Ba5  1  0.249398  0.571311  0.929744  1
  Ta  Ta6  1  0.160611  0.160611  0.160611  1
  Ta  Ta7  1  0.339401  0.339401  0.339401  1
  Ta  Ta8  1  0.660527  0.660527  0.660527  1
  Nb  Nb9  1  0.839371  0.839371  0.839371  1
  S  S10  1  0.609032  0.787058  0.042463  1
  S  S11  1  0.082393  0.082393  0.082393  1
  S  S12  1  0.542907  0.285792  0.110478  1
  S  S13  1  0.956533  0.388856  0.215420  1
  S  S14  1  0.110478  0.542906  0.285792  1
  S  S15  1  0.215419  0.956534  0.388856  1
  S  S16  1  0.417589  0.417589  0.417589  1
  S  S17  1  0.713847  0.889642  0.457540  1
  S  S18  1  0.285792  0.110478  0.542907  1
  S  S19  1  0.582309  0.582309  0.582309  1
  S  S20  1  0.787058  0.042463  0.609032  1
  S  S21  1  0.889642  0.457541  0.713847  1
  S  S22  1  0.042463  0.609032  0.787058  1
  S  S23  1  0.457541  0.713847  0.889642  1
  S  S24  1  0.917853  0.917853  0.917853  1
  S  S25  1  0.388857  0.215419  0.956533  1
