# generated using pymatgen
data_Tb13Ho7Co3Bi8Ru
_symmetry_space_group_name_H-M   'P 1'
_cell_length_a   8.02555884
_cell_length_b   8.92743817
_cell_length_c   12.46746788
_cell_angle_alpha   89.98313774
_cell_angle_beta   90.18854269
_cell_angle_gamma   90.01472954
_symmetry_Int_Tables_number   1
_chemical_formula_structural   Tb13Ho7Co3Bi8Ru
_chemical_formula_sum   'Tb13 Ho7 Co3 Bi8 Ru1'
_cell_volume   893.26024927
_cell_formula_units_Z   1
loop_
 _symmetry_equiv_pos_site_id
 _symmetry_equiv_pos_as_xyz
  1  'x, y, z'
loop_
 _atom_site_type_symbol
 _atom_site_label
 _atom_site_symmetry_multiplicity
 _atom_site_fract_x
 _atom_site_fract_y
 _atom_site_fract_z
 _atom_site_occupancy
  Tb  Tb0  1  0.848295  0.750166  0.801049  1
  Tb  Tb1  1  0.150771  0.249915  0.197907  1
  Tb  Tb2  1  0.349369  0.249942  0.698067  1
  Tb  Tb3  1  0.652073  0.750032  0.297203  1
  Tb  Tb4  1  0.378682  0.749980  0.692693  1
  Tb  Tb5  1  0.618794  0.250002  0.310671  1
  Tb  Tb6  1  0.880587  0.249825  0.810960  1
  Tb  Tb7  1  0.118138  0.750301  0.187615  1
  Tb  Tb8  1  0.951735  0.750031  0.503804  1
  Tb  Tb9  1  0.047745  0.249998  0.496813  1
  Tb  Tb10  1  0.453739  0.249816  0.997267  1
  Tb  Tb11  1  0.547296  0.750143  0.002625  1
  Tb  Tb12  1  0.176364  0.533248  0.937271  1
  Ho  Ho13  1  0.676010  0.040547  0.563893  1
  Ho  Ho14  1  0.323838  0.967056  0.436776  1
  Ho  Ho15  1  0.175009  0.966585  0.937370  1
  Ho  Ho16  1  0.323810  0.532926  0.436821  1
  Ho  Ho17  1  0.824411  0.035206  0.062586  1
  Ho  Ho18  1  0.676024  0.459495  0.563888  1
  Ho  Ho19  1  0.824039  0.464862  0.062673  1
  Co  Co20  1  0.437576  0.249999  0.491363  1
  Co  Co21  1  0.058456  0.249603  0.992225  1
  Co  Co22  1  0.938996  0.750472  0.007367  1
  Bi  Bi23  1  0.571865  0.491978  0.826504  1
  Bi  Bi24  1  0.427944  0.507531  0.173655  1
  Bi  Bi25  1  0.071546  0.507339  0.674533  1
  Bi  Bi26  1  0.428036  0.992475  0.173626  1
  Bi  Bi27  1  0.929865  0.492410  0.325699  1
  Bi  Bi28  1  0.571275  0.007908  0.826650  1
  Bi  Bi29  1  0.929880  0.007591  0.325739  1
  Bi  Bi30  1  0.071670  0.992613  0.674778  1
  Ru  Ru31  1  0.566161  0.750002  0.509911  1
