# generated using pymatgen
data_K4Gd2Si8O21
_symmetry_space_group_name_H-M   'P 1'
_cell_length_a   11.66705100
_cell_length_b   8.54030227
_cell_length_c   13.60743500
_cell_angle_alpha   51.38041066
_cell_angle_beta   90.00000000
_cell_angle_gamma   90.00000000
_symmetry_Int_Tables_number   1
_chemical_formula_structural   K4Gd2Si8O21
_chemical_formula_sum   'K8 Gd4 Si16 O42'
_cell_volume   1059.33272999
_cell_formula_units_Z   2
loop_
 _symmetry_equiv_pos_site_id
 _symmetry_equiv_pos_as_xyz
  1  'x, y, z'
loop_
 _atom_site_type_symbol
 _atom_site_label
 _atom_site_symmetry_multiplicity
 _atom_site_fract_x
 _atom_site_fract_y
 _atom_site_fract_z
 _atom_site_occupancy
  K  K0  1  0.354984  0.217891  0.797201  1
  K  K1  1  0.466919  0.795198  0.696966  1
  K  K2  1  0.645016  0.782109  0.202799  1
  K  K3  1  0.854984  0.782109  0.702799  1
  K  K4  1  0.033081  0.795198  0.196966  1
  K  K5  1  0.966919  0.204802  0.803034  1
  K  K6  1  0.533081  0.204802  0.303034  1
  K  K7  1  0.145016  0.217891  0.297201  1
  Gd  Gd8  1  0.663530  0.265176  0.544477  1
  Gd  Gd9  1  0.836470  0.265176  0.044477  1
  Gd  Gd10  1  0.163530  0.734824  0.955523  1
  Gd  Gd11  1  0.336470  0.734824  0.455523  1
  Si  Si12  1  0.460916  0.686412  0.998307  1
  Si  Si13  1  0.539084  0.313588  0.001693  1
  Si  Si14  1  0.327858  0.615096  0.214199  1
  Si  Si15  1  0.960916  0.313588  0.501693  1
  Si  Si16  1  0.367096  0.279408  0.498876  1
  Si  Si17  1  0.338131  0.029093  0.158197  1
  Si  Si18  1  0.661869  0.970907  0.841803  1
  Si  Si19  1  0.838131  0.970907  0.341803  1
  Si  Si20  1  0.132904  0.279408  0.998876  1
  Si  Si21  1  0.172142  0.615096  0.714199  1
  Si  Si22  1  0.827858  0.384904  0.285801  1
  Si  Si23  1  0.632904  0.720592  0.501124  1
  Si  Si24  1  0.672142  0.384904  0.785801  1
  Si  Si25  1  0.867096  0.720592  0.001124  1
  Si  Si26  1  0.039084  0.686412  0.498307  1
  Si  Si27  1  0.161869  0.029093  0.658197  1
  O  O28  1  0.068836  0.159101  0.542863  1
  O  O29  1  0.855841  0.582977  0.958172  1
  O  O30  1  0.862800  0.216458  0.265862  1
  O  O31  1  0.439284  0.595163  0.146489  1
  O  O32  1  0.848134  0.943629  0.236203  1
  O  O33  1  0.714090  0.923885  0.410479  1
  O  O34  1  0.355841  0.417023  0.541828  1
  O  O35  1  0.993571  0.800708  0.994592  1
  O  O36  1  0.939284  0.404837  0.353511  1
  O  O37  1  0.060716  0.595163  0.646489  1
  O  O38  1  0.144159  0.417023  0.041828  1
  O  O39  1  0.362800  0.783542  0.234138  1
  O  O40  1  0.788414  0.334864  0.861646  1
  O  O41  1  0.560716  0.404837  0.853511  1
  O  O42  1  0.146288  0.802451  0.407656  1
  O  O43  1  0.651866  0.943629  0.736203  1
  O  O44  1  0.506429  0.800708  0.494592  1
  O  O45  1  0.493571  0.199292  0.505408  1
  O  O46  1  0.211586  0.665136  0.138354  1
  O  O47  1  0.853712  0.197549  0.592344  1
  O  O48  1  0.214090  0.076115  0.089521  1
  O  O49  1  0.137200  0.783542  0.734138  1
  O  O50  1  0.815008  0.602213  0.145947  1
  O  O51  1  0.568836  0.840899  0.957137  1
  O  O52  1  0.353712  0.802451  0.907656  1
  O  O53  1  0.288414  0.665136  0.638354  1
  O  O54  1  0.711586  0.334864  0.361646  1
  O  O55  1  0.006429  0.199292  0.005408  1
  O  O56  1  0.151866  0.056371  0.763797  1
  O  O57  1  0.285910  0.076115  0.589521  1
  O  O58  1  0.500000  0.500000  0.000000  1
  O  O59  1  0.931164  0.840899  0.457137  1
  O  O60  1  0.315008  0.397787  0.354053  1
  O  O61  1  0.684992  0.602213  0.645947  1
  O  O62  1  0.785910  0.923885  0.910479  1
  O  O63  1  0.348134  0.056371  0.263797  1
  O  O64  1  0.184992  0.397787  0.854053  1
  O  O65  1  0.637200  0.216458  0.765862  1
  O  O66  1  0.646288  0.197549  0.092344  1
  O  O67  1  0.644159  0.582977  0.458172  1
  O  O68  1  0.431164  0.159101  0.042863  1
  O  O69  1  0.000000  0.500000  0.500000  1
