# generated using pymatgen
data_Pr10IrRu2Pt3
_symmetry_space_group_name_H-M   'P 1'
_cell_length_a   11.41151916
_cell_length_b   11.40567300
_cell_length_c   6.68273524
_cell_angle_alpha   90.00000000
_cell_angle_beta   90.16799795
_cell_angle_gamma   90.00000000
_symmetry_Int_Tables_number   1
_chemical_formula_structural   Pr10IrRu2Pt3
_chemical_formula_sum   'Pr20 Ir2 Ru4 Pt6'
_cell_volume   869.79472332
_cell_formula_units_Z   2
loop_
 _symmetry_equiv_pos_site_id
 _symmetry_equiv_pos_as_xyz
  1  'x, y, z'
loop_
 _atom_site_type_symbol
 _atom_site_label
 _atom_site_symmetry_multiplicity
 _atom_site_fract_x
 _atom_site_fract_y
 _atom_site_fract_z
 _atom_site_occupancy
  Pr  Pr0  1  0.297282  0.091333  0.375666  1
  Pr  Pr1  1  0.297282  0.908667  0.875666  1
  Pr  Pr2  1  0.702181  0.087401  0.874775  1
  Pr  Pr3  1  0.702181  0.912599  0.374775  1
  Pr  Pr4  1  0.584867  0.793500  0.875749  1
  Pr  Pr5  1  0.584867  0.206500  0.375749  1
  Pr  Pr6  1  0.409206  0.795065  0.381799  1
  Pr  Pr7  1  0.409206  0.204935  0.881799  1
  Pr  Pr8  1  0.207401  0.412500  0.618351  1
  Pr  Pr9  1  0.207401  0.587500  0.118351  1
  Pr  Pr10  1  0.796656  0.411694  0.123432  1
  Pr  Pr11  1  0.796656  0.588306  0.623432  1
  Pr  Pr12  1  0.913605  0.702846  0.123968  1
  Pr  Pr13  1  0.913605  0.297154  0.623968  1
  Pr  Pr14  1  0.092654  0.702159  0.625301  1
  Pr  Pr15  1  0.092654  0.297841  0.125301  1
  Pr  Pr16  1  0.000530  0.999585  0.499833  1
  Pr  Pr17  1  0.000530  0.000415  0.999833  1
  Pr  Pr18  1  0.496690  0.499670  0.999996  1
  Pr  Pr19  1  0.496690  0.500330  0.499996  1
  Ir  Ir20  1  0.347239  0.346646  0.249658  1
  Ir  Ir21  1  0.347239  0.653354  0.749658  1
  Ru  Ru22  1  0.501431  0.999101  0.119140  1
  Ru  Ru23  1  0.501431  0.000899  0.619140  1
  Ru  Ru24  1  0.997926  0.500484  0.881847  1
  Ru  Ru25  1  0.997926  0.499516  0.381847  1
  Pt  Pt26  1  0.846075  0.152716  0.249945  1
  Pt  Pt27  1  0.846075  0.847284  0.749945  1
  Pt  Pt28  1  0.152539  0.153745  0.750150  1
  Pt  Pt29  1  0.152539  0.846255  0.250150  1
  Pt  Pt30  1  0.653719  0.346556  0.750390  1
  Pt  Pt31  1  0.653719  0.653444  0.250390  1
