# generated using pymatgen
data_Eu12Ho8Sn13Ge3
_symmetry_space_group_name_H-M   'P 1'
_cell_length_a   7.82165200
_cell_length_b   8.61733005
_cell_length_c   16.34430800
_cell_angle_alpha   90.00000000
_cell_angle_beta   90.00000000
_cell_angle_gamma   89.87641677
_symmetry_Int_Tables_number   1
_chemical_formula_structural   Eu12Ho8Sn13Ge3
_chemical_formula_sum   'Eu12 Ho8 Sn13 Ge3'
_cell_volume   1101.63251003
_cell_formula_units_Z   1
loop_
 _symmetry_equiv_pos_site_id
 _symmetry_equiv_pos_as_xyz
  1  'x, y, z'
loop_
 _atom_site_type_symbol
 _atom_site_label
 _atom_site_symmetry_multiplicity
 _atom_site_fract_x
 _atom_site_fract_y
 _atom_site_fract_z
 _atom_site_occupancy
  Eu  Eu0  1  0.502199  0.685696  0.592926  1
  Eu  Eu1  1  0.002823  0.813926  0.907739  1
  Eu  Eu2  1  0.497719  0.313721  0.090831  1
  Eu  Eu3  1  0.998475  0.186722  0.407509  1
  Eu  Eu4  1  0.497719  0.313721  0.409169  1
  Eu  Eu5  1  0.998475  0.186722  0.092491  1
  Eu  Eu6  1  0.502199  0.685696  0.907074  1
  Eu  Eu7  1  0.002823  0.813926  0.592261  1
  Eu  Eu8  1  0.815372  0.511227  0.750000  1
  Eu  Eu9  1  0.315766  0.987863  0.750000  1
  Eu  Eu10  1  0.184543  0.488624  0.250000  1
  Eu  Eu11  1  0.671821  0.016329  0.250000  1
  Ho  Ho12  1  0.672897  0.172708  0.628340  1
  Ho  Ho13  1  0.172761  0.325994  0.871982  1
  Ho  Ho14  1  0.335753  0.826074  0.124251  1
  Ho  Ho15  1  0.819482  0.667467  0.375928  1
  Ho  Ho16  1  0.335753  0.826074  0.375749  1
  Ho  Ho17  1  0.819482  0.667467  0.124072  1
  Ho  Ho18  1  0.672897  0.172708  0.871660  1
  Ho  Ho19  1  0.172761  0.325994  0.628018  1
  Sn  Sn20  1  0.672563  0.962298  0.462836  1
  Sn  Sn21  1  0.170394  0.537823  0.037545  1
  Sn  Sn22  1  0.330607  0.037673  0.960633  1
  Sn  Sn23  1  0.829758  0.460950  0.539548  1
  Sn  Sn24  1  0.330607  0.037673  0.539367  1
  Sn  Sn25  1  0.829758  0.460950  0.960452  1
  Sn  Sn26  1  0.672563  0.962298  0.037164  1
  Sn  Sn27  1  0.170394  0.537823  0.462455  1
  Sn  Sn28  1  0.035161  0.861198  0.250000  1
  Sn  Sn29  1  0.728545  0.887655  0.750000  1
  Sn  Sn30  1  0.228144  0.611770  0.750000  1
  Sn  Sn31  1  0.278462  0.118653  0.250000  1
  Sn  Sn32  1  0.771688  0.388464  0.250000  1
  Ge  Ge33  1  0.460168  0.352774  0.750000  1
  Ge  Ge34  1  0.960611  0.146415  0.750000  1
  Ge  Ge35  1  0.538859  0.646926  0.250000  1
