# generated using pymatgen
data_Sr5GeBi2
_symmetry_space_group_name_H-M   'P 1'
_cell_length_a   13.73493500
_cell_length_b   10.11552800
_cell_length_c   8.65887600
_cell_angle_alpha   90.00000000
_cell_angle_beta   90.00000000
_cell_angle_gamma   90.00000000
_symmetry_Int_Tables_number   1
_chemical_formula_structural   Sr5GeBi2
_chemical_formula_sum   'Sr20 Ge4 Bi8'
_cell_volume   1203.03063128
_cell_formula_units_Z   4
loop_
 _symmetry_equiv_pos_site_id
 _symmetry_equiv_pos_as_xyz
  1  'x, y, z'
loop_
 _atom_site_type_symbol
 _atom_site_label
 _atom_site_symmetry_multiplicity
 _atom_site_fract_x
 _atom_site_fract_y
 _atom_site_fract_z
 _atom_site_occupancy
  Sr  Sr0  1  0.077667  0.527135  0.826737  1
  Sr  Sr1  1  0.577667  0.972865  0.673263  1
  Sr  Sr2  1  0.922333  0.027135  0.173263  1
  Sr  Sr3  1  0.422333  0.472865  0.326737  1
  Sr  Sr4  1  0.922333  0.472865  0.173263  1
  Sr  Sr5  1  0.422333  0.027135  0.326737  1
  Sr  Sr6  1  0.077667  0.972865  0.826737  1
  Sr  Sr7  1  0.577667  0.527135  0.673263  1
  Sr  Sr8  1  0.000729  0.750000  0.445420  1
  Sr  Sr9  1  0.500729  0.750000  0.054580  1
  Sr  Sr10  1  0.999271  0.250000  0.554580  1
  Sr  Sr11  1  0.499271  0.250000  0.945420  1
  Sr  Sr12  1  0.215166  0.750000  0.169445  1
  Sr  Sr13  1  0.715166  0.750000  0.330555  1
  Sr  Sr14  1  0.784834  0.250000  0.830555  1
  Sr  Sr15  1  0.284834  0.250000  0.669445  1
  Sr  Sr16  1  0.304688  0.750000  0.645701  1
  Sr  Sr17  1  0.804688  0.750000  0.854299  1
  Sr  Sr18  1  0.695312  0.250000  0.354299  1
  Sr  Sr19  1  0.195312  0.250000  0.145701  1
  Ge  Ge20  1  0.491960  0.750000  0.440962  1
  Ge  Ge21  1  0.991960  0.750000  0.059038  1
  Ge  Ge22  1  0.508040  0.250000  0.559038  1
  Ge  Ge23  1  0.008040  0.250000  0.940962  1
  Bi  Bi24  1  0.330858  0.505786  0.942659  1
  Bi  Bi25  1  0.830858  0.994214  0.557341  1
  Bi  Bi26  1  0.669142  0.005786  0.057341  1
  Bi  Bi27  1  0.169142  0.494214  0.442659  1
  Bi  Bi28  1  0.669142  0.494214  0.057341  1
  Bi  Bi29  1  0.169142  0.005786  0.442659  1
  Bi  Bi30  1  0.330858  0.994214  0.942659  1
  Bi  Bi31  1  0.830858  0.505786  0.557341  1
