# generated using pymatgen
data_Y4CoSn4Ru3
_symmetry_space_group_name_H-M   'P 1'
_cell_length_a   4.72903900
_cell_length_b   7.36127972
_cell_length_c   7.42601827
_cell_angle_alpha   90.19754525
_cell_angle_beta   90.00000000
_cell_angle_gamma   90.00000000
_symmetry_Int_Tables_number   1
_chemical_formula_structural   Y4CoSn4Ru3
_chemical_formula_sum   'Y4 Co1 Sn4 Ru3'
_cell_volume   258.51136960
_cell_formula_units_Z   1
loop_
 _symmetry_equiv_pos_site_id
 _symmetry_equiv_pos_as_xyz
  1  'x, y, z'
loop_
 _atom_site_type_symbol
 _atom_site_label
 _atom_site_symmetry_multiplicity
 _atom_site_fract_x
 _atom_site_fract_y
 _atom_site_fract_z
 _atom_site_occupancy
  Y  Y0  1  0.250000  0.970496  0.801548  1
  Y  Y1  1  0.250000  0.477537  0.694851  1
  Y  Y2  1  0.750000  0.019484  0.196503  1
  Y  Y3  1  0.750000  0.519078  0.301241  1
  Co  Co4  1  0.750000  0.347414  0.945438  1
  Sn  Sn5  1  0.250000  0.797231  0.393261  1
  Sn  Sn6  1  0.250000  0.294424  0.102136  1
  Sn  Sn7  1  0.750000  0.209740  0.616607  1
  Sn  Sn8  1  0.750000  0.696219  0.888769  1
  Ru  Ru9  1  0.250000  0.161908  0.443414  1
  Ru  Ru10  1  0.250000  0.657919  0.057155  1
  Ru  Ru11  1  0.750000  0.848551  0.559075  1
