# generated using pymatgen
data_Dy3Er2Tm11(InRh)4
_symmetry_space_group_name_H-M   'P 1'
_cell_length_a   9.56990542
_cell_length_b   9.56896006
_cell_length_c   9.56871316
_cell_angle_alpha   60.02082523
_cell_angle_beta   59.98209735
_cell_angle_gamma   59.99603382
_symmetry_Int_Tables_number   1
_chemical_formula_structural   Dy3Er2Tm11(InRh)4
_chemical_formula_sum   'Dy3 Er2 Tm11 In4 Rh4'
_cell_volume   619.59427819
_cell_formula_units_Z   1
loop_
 _symmetry_equiv_pos_site_id
 _symmetry_equiv_pos_as_xyz
  1  'x, y, z'
loop_
 _atom_site_type_symbol
 _atom_site_label
 _atom_site_symmetry_multiplicity
 _atom_site_fract_x
 _atom_site_fract_y
 _atom_site_fract_z
 _atom_site_occupancy
  Dy  Dy0  1  0.061827  0.062020  0.438066  1
  Dy  Dy1  1  0.438117  0.062344  0.437673  1
  Dy  Dy2  1  0.062403  0.437949  0.062116  1
  Er  Er3  1  0.048938  0.650245  0.650449  1
  Er  Er4  1  0.438499  0.438484  0.061499  1
  Tm  Tm5  1  0.650364  0.048587  0.650468  1
  Tm  Tm6  1  0.188969  0.810841  0.188565  1
  Tm  Tm7  1  0.188730  0.188574  0.811347  1
  Tm  Tm8  1  0.811068  0.811142  0.188893  1
  Tm  Tm9  1  0.439722  0.060737  0.060285  1
  Tm  Tm10  1  0.810878  0.188785  0.188578  1
  Tm  Tm11  1  0.060825  0.439532  0.439077  1
  Tm  Tm12  1  0.810647  0.189039  0.811478  1
  Tm  Tm13  1  0.188692  0.811101  0.811875  1
  Tm  Tm14  1  0.650433  0.650320  0.048570  1
  Tm  Tm15  1  0.650350  0.650416  0.650674  1
  In  In16  1  0.416785  0.417535  0.416742  1
  In  In17  1  0.748327  0.417484  0.417515  1
  In  In18  1  0.417656  0.748404  0.416565  1
  In  In19  1  0.417824  0.416318  0.749081  1
  Rh  Rh20  1  0.857418  0.857394  0.427127  1
  Rh  Rh21  1  0.856752  0.858056  0.858070  1
  Rh  Rh22  1  0.427616  0.857461  0.857794  1
  Rh  Rh23  1  0.857159  0.427227  0.857488  1
