# generated using pymatgen
data_Ho6Lu2Ti5Si16Mo7
_symmetry_space_group_name_H-M   'P 1'
_cell_length_a   6.91865666
_cell_length_b   6.90984877
_cell_length_c   12.78609861
_cell_angle_alpha   89.91222450
_cell_angle_beta   90.05096271
_cell_angle_gamma   90.03605001
_symmetry_Int_Tables_number   1
_chemical_formula_structural   Ho6Lu2Ti5Si16Mo7
_chemical_formula_sum   'Ho6 Lu2 Ti5 Si16 Mo7'
_cell_volume   611.26229054
_cell_formula_units_Z   1
loop_
 _symmetry_equiv_pos_site_id
 _symmetry_equiv_pos_as_xyz
  1  'x, y, z'
loop_
 _atom_site_type_symbol
 _atom_site_label
 _atom_site_symmetry_multiplicity
 _atom_site_fract_x
 _atom_site_fract_y
 _atom_site_fract_z
 _atom_site_occupancy
  Ho  Ho0  1  0.502031  0.159515  0.218929  1
  Ho  Ho1  1  0.840508  0.496473  0.281148  1
  Ho  Ho2  1  0.159638  0.502261  0.782280  1
  Ho  Ho3  1  0.658877  0.997282  0.968173  1
  Ho  Ho4  1  0.003105  0.340206  0.531866  1
  Ho  Ho5  1  0.996360  0.660599  0.030931  1
  Lu  Lu6  1  0.342184  0.002146  0.467819  1
  Lu  Lu7  1  0.498349  0.842087  0.718727  1
  Ti  Ti8  1  0.329483  0.329836  0.999178  1
  Ti  Ti9  1  0.169912  0.829164  0.250431  1
  Ti  Ti10  1  0.827626  0.171505  0.749971  1
  Ti  Ti11  1  0.669936  0.668237  0.499476  1
  Ti  Ti12  1  0.994208  0.842286  0.625605  1
  Si  Si13  1  0.203586  0.128716  0.682746  1
  Si  Si14  1  0.371157  0.701821  0.932941  1
  Si  Si15  1  0.630027  0.298434  0.433802  1
  Si  Si16  1  0.699554  0.370144  0.066407  1
  Si  Si17  1  0.301657  0.632997  0.566354  1
  Si  Si18  1  0.798765  0.870708  0.183693  1
  Si  Si19  1  0.129518  0.199570  0.317763  1
  Si  Si20  1  0.870015  0.799832  0.815703  1
  Si  Si21  1  0.289194  0.958545  0.062889  1
  Si  Si22  1  0.540532  0.789715  0.313568  1
  Si  Si23  1  0.458264  0.209118  0.812229  1
  Si  Si24  1  0.788591  0.543785  0.687291  1
  Si  Si25  1  0.210721  0.458157  0.186931  1
  Si  Si26  1  0.708024  0.041658  0.563736  1
  Si  Si27  1  0.958231  0.289461  0.937058  1
  Si  Si28  1  0.044824  0.711381  0.437414  1
  Mo  Mo29  1  0.160129  0.007426  0.874599  1
  Mo  Mo30  1  0.492836  0.658569  0.124344  1
  Mo  Mo31  1  0.505977  0.341540  0.623281  1
  Mo  Mo32  1  0.656545  0.492085  0.876969  1
  Mo  Mo33  1  0.342914  0.504566  0.375180  1
  Mo  Mo34  1  0.840255  0.991655  0.373865  1
  Mo  Mo35  1  0.006467  0.158521  0.126703  1
