# generated using pymatgen
data_Dy2Al20Fe3Rh
_symmetry_space_group_name_H-M   'P 1'
_cell_length_a   6.80649461
_cell_length_b   6.79640892
_cell_length_c   9.04491473
_cell_angle_alpha   90.19058278
_cell_angle_beta   90.00370863
_cell_angle_gamma   96.99041849
_symmetry_Int_Tables_number   1
_chemical_formula_structural   Dy2Al20Fe3Rh
_chemical_formula_sum   'Dy2 Al20 Fe3 Rh1'
_cell_volume   415.30260324
_cell_formula_units_Z   1
loop_
 _symmetry_equiv_pos_site_id
 _symmetry_equiv_pos_as_xyz
  1  'x, y, z'
loop_
 _atom_site_type_symbol
 _atom_site_label
 _atom_site_symmetry_multiplicity
 _atom_site_fract_x
 _atom_site_fract_y
 _atom_site_fract_z
 _atom_site_occupancy
  Dy  Dy0  1  0.874478  0.127755  0.748246  1
  Dy  Dy1  1  0.125522  0.872245  0.251754  1
  Al  Al2  1  0.625767  0.375702  0.548753  1
  Al  Al3  1  0.374233  0.624298  0.451247  1
  Al  Al4  1  0.372105  0.619315  0.051313  1
  Al  Al5  1  0.627895  0.380685  0.948687  1
  Al  Al6  1  0.226202  0.227932  0.499279  1
  Al  Al7  1  0.773798  0.772068  0.500721  1
  Al  Al8  1  0.777109  0.768118  0.002615  1
  Al  Al9  1  0.222891  0.231882  0.997385  1
  Al  Al10  1  0.846914  0.162051  0.100147  1
  Al  Al11  1  0.153086  0.837949  0.899853  1
  Al  Al12  1  0.158057  0.842055  0.597158  1
  Al  Al13  1  0.841943  0.157945  0.402842  1
  Al  Al14  1  0.864763  0.584113  0.748852  1
  Al  Al15  1  0.135237  0.415887  0.251148  1
  Al  Al16  1  0.413390  0.138117  0.745117  1
  Al  Al17  1  0.586610  0.861883  0.254883  1
  Al  Al18  1  0.219699  0.480102  0.749027  1
  Al  Al19  1  0.780301  0.519898  0.250973  1
  Al  Al20  1  0.520870  0.777299  0.744070  1
  Al  Al21  1  0.479130  0.222701  0.255930  1
  Fe  Fe22  1  0.000000  0.500000  0.500000  1
  Fe  Fe23  1  0.000000  0.500000  0.000000  1
  Fe  Fe24  1  0.500000  0.000000  0.500000  1
  Rh  Rh25  1  0.500000  0.000000  0.000000  1
