# generated using pymatgen
data_SrLi4Pr3Pd4
_symmetry_space_group_name_H-M   'P 1'
_cell_length_a   7.40284884
_cell_length_b   4.18785900
_cell_length_c   8.71169107
_cell_angle_alpha   90.00000000
_cell_angle_beta   89.33880492
_cell_angle_gamma   90.00000000
_symmetry_Int_Tables_number   1
_chemical_formula_structural   SrLi4Pr3Pd4
_chemical_formula_sum   'Sr1 Li4 Pr3 Pd4'
_cell_volume   270.06262239
_cell_formula_units_Z   1
loop_
 _symmetry_equiv_pos_site_id
 _symmetry_equiv_pos_as_xyz
  1  'x, y, z'
loop_
 _atom_site_type_symbol
 _atom_site_label
 _atom_site_symmetry_multiplicity
 _atom_site_fract_x
 _atom_site_fract_y
 _atom_site_fract_z
 _atom_site_occupancy
  Sr  Sr0  1  0.460156  0.750000  0.815073  1
  Li  Li1  1  0.626918  0.250000  0.554336  1
  Li  Li2  1  0.130077  0.250000  0.946203  1
  Li  Li3  1  0.367998  0.750000  0.442388  1
  Li  Li4  1  0.875935  0.750000  0.054612  1
  Pr  Pr5  1  0.038119  0.250000  0.314911  1
  Pr  Pr6  1  0.543576  0.250000  0.184908  1
  Pr  Pr7  1  0.955487  0.750000  0.681831  1
  Pd  Pd8  1  0.237506  0.250000  0.609111  1
  Pd  Pd9  1  0.771328  0.250000  0.884400  1
  Pd  Pd10  1  0.745420  0.750000  0.379037  1
  Pd  Pd11  1  0.247480  0.750000  0.133188  1
