# generated using pymatgen
data_Zr5(CoHg2)2
_symmetry_space_group_name_H-M   'P 1'
_cell_length_a   3.32220400
_cell_length_b   7.51064000
_cell_length_c   17.31875500
_cell_angle_alpha   90.00000000
_cell_angle_beta   90.00000000
_cell_angle_gamma   90.00000000
_symmetry_Int_Tables_number   1
_chemical_formula_structural   Zr5(CoHg2)2
_chemical_formula_sum   'Zr10 Co4 Hg8'
_cell_volume   432.13546621
_cell_formula_units_Z   2
loop_
 _symmetry_equiv_pos_site_id
 _symmetry_equiv_pos_as_xyz
  1  'x, y, z'
loop_
 _atom_site_type_symbol
 _atom_site_label
 _atom_site_symmetry_multiplicity
 _atom_site_fract_x
 _atom_site_fract_y
 _atom_site_fract_z
 _atom_site_occupancy
  Zr  Zr0  1  0.000000  0.130531  0.911537  1
  Zr  Zr1  1  0.000000  0.763566  0.779113  1
  Zr  Zr2  1  0.000000  0.630531  0.588463  1
  Zr  Zr3  1  0.000000  0.263566  0.720887  1
  Zr  Zr4  1  0.000000  0.369469  0.411537  1
  Zr  Zr5  1  0.000000  0.236434  0.220887  1
  Zr  Zr6  1  0.000000  0.000000  0.500000  1
  Zr  Zr7  1  0.000000  0.736434  0.279113  1
  Zr  Zr8  1  0.000000  0.500000  0.000000  1
  Zr  Zr9  1  0.000000  0.869469  0.088463  1
  Co  Co10  1  0.500000  0.548001  0.693781  1
  Co  Co11  1  0.500000  0.451999  0.306219  1
  Co  Co12  1  0.500000  0.048001  0.806219  1
  Co  Co13  1  0.500000  0.951999  0.193781  1
  Hg  Hg14  1  0.500000  0.801036  0.932968  1
  Hg  Hg15  1  0.500000  0.558489  0.151566  1
  Hg  Hg16  1  0.500000  0.441511  0.848434  1
  Hg  Hg17  1  0.500000  0.058489  0.348434  1
  Hg  Hg18  1  0.500000  0.301036  0.567032  1
  Hg  Hg19  1  0.500000  0.941511  0.651566  1
  Hg  Hg20  1  0.500000  0.698964  0.432968  1
  Hg  Hg21  1  0.500000  0.198964  0.067032  1
