# generated using pymatgen
data_Rb6GdInBr12
_symmetry_space_group_name_H-M   'P 1'
_cell_length_a   9.75523000
_cell_length_b   9.73366447
_cell_length_c   8.07957900
_cell_angle_alpha   90.00000000
_cell_angle_beta   90.00000000
_cell_angle_gamma   90.20362113
_symmetry_Int_Tables_number   1
_chemical_formula_structural   Rb6GdInBr12
_chemical_formula_sum   'Rb6 Gd1 In1 Br12'
_cell_volume   767.18459539
_cell_formula_units_Z   1
loop_
 _symmetry_equiv_pos_site_id
 _symmetry_equiv_pos_as_xyz
  1  'x, y, z'
loop_
 _atom_site_type_symbol
 _atom_site_label
 _atom_site_symmetry_multiplicity
 _atom_site_fract_x
 _atom_site_fract_y
 _atom_site_fract_z
 _atom_site_occupancy
  Rb  Rb0  1  0.000000  0.000000  0.500000  1
  Rb  Rb1  1  0.000000  0.000000  0.000000  1
  Rb  Rb2  1  0.237408  0.583152  0.500000  1
  Rb  Rb3  1  0.762592  0.416848  0.500000  1
  Rb  Rb4  1  0.422586  0.227876  0.000000  1
  Rb  Rb5  1  0.577414  0.772124  0.000000  1
  Gd  Gd6  1  0.000000  0.500000  0.000000  1
  In  In7  1  0.500000  0.000000  0.500000  1
  Br  Br8  1  0.691230  0.053219  0.741744  1
  Br  Br9  1  0.308770  0.946781  0.741744  1
  Br  Br10  1  0.948935  0.701329  0.247963  1
  Br  Br11  1  0.051065  0.298671  0.247963  1
  Br  Br12  1  0.308770  0.946781  0.258256  1
  Br  Br13  1  0.691230  0.053219  0.258256  1
  Br  Br14  1  0.051065  0.298671  0.752037  1
  Br  Br15  1  0.948935  0.701329  0.752037  1
  Br  Br16  1  0.561321  0.727572  0.500000  1
  Br  Br17  1  0.438679  0.272428  0.500000  1
  Br  Br18  1  0.283796  0.560884  0.000000  1
  Br  Br19  1  0.716204  0.439116  0.000000  1
