# generated using pymatgen
data_NdHo2Hf(Co4P3)2
_symmetry_space_group_name_H-M   'P 1'
_cell_length_a   3.73066500
_cell_length_b   10.70639400
_cell_length_c   12.42133600
_cell_angle_alpha   90.00000000
_cell_angle_beta   90.00000000
_cell_angle_gamma   90.00000000
_symmetry_Int_Tables_number   1
_chemical_formula_structural   NdHo2Hf(Co4P3)2
_chemical_formula_sum   'Nd2 Ho4 Hf2 Co16 P12'
_cell_volume   496.13262207
_cell_formula_units_Z   2
loop_
 _symmetry_equiv_pos_site_id
 _symmetry_equiv_pos_as_xyz
  1  'x, y, z'
loop_
 _atom_site_type_symbol
 _atom_site_label
 _atom_site_symmetry_multiplicity
 _atom_site_fract_x
 _atom_site_fract_y
 _atom_site_fract_z
 _atom_site_occupancy
  Nd  Nd0  1  0.000000  0.500000  0.530037  1
  Nd  Nd1  1  0.500000  0.000000  0.469963  1
  Ho  Ho2  1  0.500000  0.821591  0.203681  1
  Ho  Ho3  1  0.500000  0.178409  0.203681  1
  Ho  Ho4  1  0.000000  0.678409  0.796319  1
  Ho  Ho5  1  0.000000  0.321591  0.796319  1
  Hf  Hf6  1  0.500000  0.500000  0.154582  1
  Hf  Hf7  1  0.000000  0.000000  0.845418  1
  Co  Co8  1  0.000000  0.500000  0.986707  1
  Co  Co9  1  0.500000  0.000000  0.013293  1
  Co  Co10  1  0.500000  0.295036  0.431705  1
  Co  Co11  1  0.500000  0.704964  0.431705  1
  Co  Co12  1  0.000000  0.204964  0.568295  1
  Co  Co13  1  0.000000  0.795036  0.568295  1
  Co  Co14  1  0.500000  0.878305  0.705388  1
  Co  Co15  1  0.500000  0.121695  0.705388  1
  Co  Co16  1  0.000000  0.621695  0.294612  1
  Co  Co17  1  0.000000  0.378305  0.294612  1
  Co  Co18  1  0.500000  0.331647  0.993514  1
  Co  Co19  1  0.500000  0.668353  0.993514  1
  Co  Co20  1  0.000000  0.168353  0.006486  1
  Co  Co21  1  0.000000  0.831647  0.006486  1
  Co  Co22  1  0.500000  0.500000  0.707378  1
  Co  Co23  1  0.000000  0.000000  0.292622  1
  P  P24  1  0.500000  0.306589  0.617352  1
  P  P25  1  0.500000  0.693411  0.617352  1
  P  P26  1  0.000000  0.193411  0.382648  1
  P  P27  1  0.000000  0.806589  0.382648  1
  P  P28  1  0.500000  0.500000  0.884649  1
  P  P29  1  0.000000  0.000000  0.115351  1
  P  P30  1  0.500000  0.838356  0.893376  1
  P  P31  1  0.500000  0.161644  0.893376  1
  P  P32  1  0.000000  0.661644  0.106624  1
  P  P33  1  0.000000  0.338356  0.106624  1
  P  P34  1  0.500000  0.500000  0.357810  1
  P  P35  1  0.000000  0.000000  0.642190  1
