# generated using pymatgen
data_Tb11YCo5Bi
_symmetry_space_group_name_H-M   'P 1'
_cell_length_a   8.36491992
_cell_length_b   8.36492078
_cell_length_c   8.35729039
_cell_angle_alpha   110.80287655
_cell_angle_beta   110.52120404
_cell_angle_gamma   107.15369510
_symmetry_Int_Tables_number   1
_chemical_formula_structural   Tb11YCo5Bi
_chemical_formula_sum   'Tb11 Y1 Co5 Bi1'
_cell_volume   449.38421645
_cell_formula_units_Z   1
loop_
 _symmetry_equiv_pos_site_id
 _symmetry_equiv_pos_as_xyz
  1  'x, y, z'
loop_
 _atom_site_type_symbol
 _atom_site_label
 _atom_site_symmetry_multiplicity
 _atom_site_fract_x
 _atom_site_fract_y
 _atom_site_fract_z
 _atom_site_occupancy
  Tb  Tb0  1  0.183225  0.290767  0.473992  1
  Tb  Tb1  1  0.182917  0.708948  0.891866  1
  Tb  Tb2  1  0.816912  0.290988  0.107898  1
  Tb  Tb3  1  0.687836  0.378054  0.690217  1
  Tb  Tb4  1  0.312034  0.621965  0.309629  1
  Tb  Tb5  1  0.687663  0.997595  0.309629  1
  Tb  Tb6  1  0.312163  0.002381  0.690217  1
  Tb  Tb7  1  0.601108  0.794823  0.806291  1
  Tb  Tb8  1  0.398711  0.204913  0.193787  1
  Tb  Tb9  1  0.988875  0.795078  0.193787  1
  Tb  Tb10  1  0.011469  0.205183  0.806291  1
  Y  Y11  1  0.816174  0.709492  0.525666  1
  Co  Co12  1  0.623508  0.999677  0.623185  1
  Co  Co13  1  0.376338  0.000089  0.376427  1
  Co  Co14  1  0.111746  0.611155  0.500335  1
  Co  Co15  1  0.889180  0.388589  0.500335  1
  Co  Co16  1  0.999989  0.000185  0.000174  1
  Bi  Bi17  1  0.500154  0.500120  0.000275  1
