# generated using pymatgen
data_HoLu3Si4OsRh3
_symmetry_space_group_name_H-M   'P 1'
_cell_length_a   4.23904400
_cell_length_b   6.81342735
_cell_length_c   7.28177691
_cell_angle_alpha   90.21847857
_cell_angle_beta   90.00000000
_cell_angle_gamma   90.00000000
_symmetry_Int_Tables_number   1
_chemical_formula_structural   HoLu3Si4OsRh3
_chemical_formula_sum   'Ho1 Lu3 Si4 Os1 Rh3'
_cell_volume   210.31379790
_cell_formula_units_Z   1
loop_
 _symmetry_equiv_pos_site_id
 _symmetry_equiv_pos_as_xyz
  1  'x, y, z'
loop_
 _atom_site_type_symbol
 _atom_site_label
 _atom_site_symmetry_multiplicity
 _atom_site_fract_x
 _atom_site_fract_y
 _atom_site_fract_z
 _atom_site_occupancy
  Ho  Ho0  1  0.750000  0.999482  0.185811  1
  Lu  Lu1  1  0.250000  0.998418  0.810721  1
  Lu  Lu2  1  0.250000  0.497658  0.690746  1
  Lu  Lu3  1  0.750000  0.504933  0.311206  1
  Si  Si4  1  0.250000  0.297074  0.108401  1
  Si  Si5  1  0.750000  0.704647  0.883455  1
  Si  Si6  1  0.250000  0.794283  0.400613  1
  Si  Si7  1  0.750000  0.202294  0.607855  1
  Os  Os8  1  0.750000  0.842293  0.567211  1
  Rh  Rh9  1  0.250000  0.157947  0.434833  1
  Rh  Rh10  1  0.750000  0.344440  0.932906  1
  Rh  Rh11  1  0.250000  0.656532  0.066243  1
