# generated using pymatgen
data_Ho2ErSc3FeBi2
_symmetry_space_group_name_H-M   'P 1'
_cell_length_a   7.94739801
_cell_length_b   7.94739749
_cell_length_c   4.17038000
_cell_angle_alpha   90.00000000
_cell_angle_beta   90.00000000
_cell_angle_gamma   120.00473823
_symmetry_Int_Tables_number   1
_chemical_formula_structural   Ho2ErSc3FeBi2
_chemical_formula_sum   'Ho2 Er1 Sc3 Fe1 Bi2'
_cell_volume   228.10532369
_cell_formula_units_Z   1
loop_
 _symmetry_equiv_pos_site_id
 _symmetry_equiv_pos_as_xyz
  1  'x, y, z'
loop_
 _atom_site_type_symbol
 _atom_site_label
 _atom_site_symmetry_multiplicity
 _atom_site_fract_x
 _atom_site_fract_y
 _atom_site_fract_z
 _atom_site_occupancy
  Ho  Ho0  1  0.614057  0.999977  0.000000  1
  Ho  Ho1  1  0.999977  0.614057  0.000000  1
  Er  Er2  1  0.385811  0.385811  0.000000  1
  Sc  Sc3  1  0.221699  0.000089  0.500000  1
  Sc  Sc4  1  0.000089  0.221699  0.500000  1
  Sc  Sc5  1  0.778327  0.778327  0.500000  1
  Fe  Fe6  1  0.000137  0.000137  0.000000  1
  Bi  Bi7  1  0.333343  0.666560  0.500000  1
  Bi  Bi8  1  0.666560  0.333343  0.500000  1
