# generated using pymatgen
data_Sm2HgC2
_symmetry_space_group_name_H-M   'P 1'
_cell_length_a   7.82631516
_cell_length_b   7.82631368
_cell_length_c   6.89598700
_cell_angle_alpha   103.64454956
_cell_angle_beta   103.64454693
_cell_angle_gamma   29.87945202
_symmetry_Int_Tables_number   1
_chemical_formula_structural   Sm2HgC2
_chemical_formula_sum   'Sm4 Hg2 C4'
_cell_volume   204.05565514
_cell_formula_units_Z   2
loop_
 _symmetry_equiv_pos_site_id
 _symmetry_equiv_pos_as_xyz
  1  'x, y, z'
loop_
 _atom_site_type_symbol
 _atom_site_label
 _atom_site_symmetry_multiplicity
 _atom_site_fract_x
 _atom_site_fract_y
 _atom_site_fract_z
 _atom_site_occupancy
  Sm  Sm0  1  0.821830  0.481803  0.139585  1
  Sm  Sm1  1  0.518197  0.178170  0.360415  1
  Sm  Sm2  1  0.481804  0.821831  0.639586  1
  Sm  Sm3  1  0.178170  0.518196  0.860414  1
  Hg  Hg4  1  0.133727  0.866273  0.250000  1
  Hg  Hg5  1  0.866272  0.133727  0.749999  1
  C  C6  1  0.357061  0.091093  0.028034  1
  C  C7  1  0.908907  0.642939  0.471965  1
  C  C8  1  0.091093  0.357062  0.528034  1
  C  C9  1  0.642939  0.908907  0.971966  1
