# generated using pymatgen
data_YbHo3Os5Ru3
_symmetry_space_group_name_H-M   'P 1'
_cell_length_a   5.31574500
_cell_length_b   5.17268845
_cell_length_c   8.98435154
_cell_angle_alpha   90.00385611
_cell_angle_beta   89.96360914
_cell_angle_gamma   119.64274979
_symmetry_Int_Tables_number   1
_chemical_formula_structural   YbHo3Os5Ru3
_chemical_formula_sum   'Yb1 Ho3 Os5 Ru3'
_cell_volume   214.70883065
_cell_formula_units_Z   1
loop_
 _symmetry_equiv_pos_site_id
 _symmetry_equiv_pos_as_xyz
  1  'x, y, z'
loop_
 _atom_site_type_symbol
 _atom_site_label
 _atom_site_symmetry_multiplicity
 _atom_site_fract_x
 _atom_site_fract_y
 _atom_site_fract_z
 _atom_site_occupancy
  Yb  Yb0  1  0.666319  0.333246  0.936548  1
  Ho  Ho1  1  0.668022  0.334063  0.571125  1
  Ho  Ho2  1  0.332110  0.666256  0.432650  1
  Ho  Ho3  1  0.330735  0.665644  0.062204  1
  Os  Os4  1  0.171574  0.339901  0.749463  1
  Os  Os5  1  0.172219  0.830976  0.749165  1
  Os  Os6  1  0.660115  0.829711  0.749603  1
  Os  Os7  1  0.835612  0.662823  0.249952  1
  Os  Os8  1  0.835252  0.173341  0.249920  1
  Ru  Ru9  1  0.990068  0.995025  0.498329  1
  Ru  Ru10  1  0.988019  0.994001  0.999928  1
  Ru  Ru11  1  0.349953  0.175014  0.251115  1
