# generated using pymatgen
data_La16Cd4OsPd3
_symmetry_space_group_name_H-M   'P 1'
_cell_length_a   10.22845572
_cell_length_b   10.22845533
_cell_length_c   10.22845523
_cell_angle_alpha   59.52939671
_cell_angle_beta   59.52939774
_cell_angle_gamma   59.52939703
_symmetry_Int_Tables_number   1
_chemical_formula_structural   La16Cd4OsPd3
_chemical_formula_sum   'La16 Cd4 Os1 Pd3'
_cell_volume   748.58790245
_cell_formula_units_Z   1
loop_
 _symmetry_equiv_pos_site_id
 _symmetry_equiv_pos_as_xyz
  1  'x, y, z'
loop_
 _atom_site_type_symbol
 _atom_site_label
 _atom_site_symmetry_multiplicity
 _atom_site_fract_x
 _atom_site_fract_y
 _atom_site_fract_z
 _atom_site_occupancy
  La  La0  1  0.350928  0.350928  0.350928  1
  La  La1  1  0.345538  0.345538  0.954393  1
  La  La2  1  0.345538  0.954393  0.345538  1
  La  La3  1  0.954393  0.345538  0.345538  1
  La  La4  1  0.817421  0.189614  0.189614  1
  La  La5  1  0.192367  0.806658  0.806658  1
  La  La6  1  0.189614  0.817421  0.189614  1
  La  La7  1  0.806658  0.192367  0.806658  1
  La  La8  1  0.189614  0.189614  0.817421  1
  La  La9  1  0.806658  0.806658  0.192367  1
  La  La10  1  0.934756  0.564511  0.564511  1
  La  La11  1  0.557729  0.938045  0.938045  1
  La  La12  1  0.564511  0.934756  0.564511  1
  La  La13  1  0.938045  0.557729  0.938045  1
  La  La14  1  0.564511  0.564511  0.934756  1
  La  La15  1  0.938045  0.938045  0.557729  1
  Cd  Cd16  1  0.579317  0.579317  0.579317  1
  Cd  Cd17  1  0.579803  0.579803  0.261136  1
  Cd  Cd18  1  0.579803  0.261136  0.579803  1
  Cd  Cd19  1  0.261136  0.579803  0.579803  1
  Os  Os20  1  0.142352  0.142352  0.142352  1
  Pd  Pd21  1  0.143737  0.143737  0.573789  1
  Pd  Pd22  1  0.143737  0.573789  0.143737  1
  Pd  Pd23  1  0.573789  0.143737  0.143737  1
