# generated using pymatgen
data_Zr3V(Co4As3)2
_symmetry_space_group_name_H-M   'P 1'
_cell_length_a   12.41278792
_cell_length_b   12.39802609
_cell_length_c   3.75642300
_cell_angle_alpha   90.00000000
_cell_angle_beta   90.00000000
_cell_angle_gamma   119.96067329
_symmetry_Int_Tables_number   1
_chemical_formula_structural   Zr3V(Co4As3)2
_chemical_formula_sum   'Zr6 V2 Co16 As12'
_cell_volume   500.83995841
_cell_formula_units_Z   2
loop_
 _symmetry_equiv_pos_site_id
 _symmetry_equiv_pos_as_xyz
  1  'x, y, z'
loop_
 _atom_site_type_symbol
 _atom_site_label
 _atom_site_symmetry_multiplicity
 _atom_site_fract_x
 _atom_site_fract_y
 _atom_site_fract_z
 _atom_site_occupancy
  Zr  Zr0  1  0.819766  0.819280  0.500000  1
  Zr  Zr1  1  0.000000  0.175008  0.500000  1
  Zr  Zr2  1  0.335322  0.667044  0.000000  1
  Zr  Zr3  1  0.664678  0.331721  0.000000  1
  Zr  Zr4  1  0.000000  0.557014  0.000000  1
  Zr  Zr5  1  0.180234  0.999515  0.500000  1
  V  V6  1  0.442390  0.442680  0.000000  1
  V  V7  1  0.557610  0.000289  0.000000  1
  Co  Co8  1  0.623547  0.823054  0.000000  1
  Co  Co9  1  0.376453  0.199507  0.000000  1
  Co  Co10  1  0.000000  0.719044  0.500000  1
  Co  Co11  1  0.283334  0.282996  0.500000  1
  Co  Co12  1  0.872646  0.350314  0.500000  1
  Co  Co13  1  0.716666  0.999663  0.500000  1
  Co  Co14  1  0.817047  0.625772  0.000000  1
  Co  Co15  1  0.182953  0.808724  0.000000  1
  Co  Co16  1  0.359208  0.879793  0.500000  1
  Co  Co17  1  0.127354  0.477668  0.500000  1
  Co  Co18  1  0.640792  0.520584  0.500000  1
  Co  Co19  1  0.000000  0.001063  0.000000  1
  Co  Co20  1  0.519696  0.646849  0.500000  1
  Co  Co21  1  0.480304  0.127153  0.500000  1
  Co  Co22  1  0.200979  0.374828  0.000000  1
  Co  Co23  1  0.799021  0.173850  0.000000  1
  As  As24  1  0.000000  0.344555  0.000000  1
  As  As25  1  0.822909  0.513635  0.500000  1
  As  As26  1  0.681057  0.165804  0.500000  1
  As  As27  1  0.177993  0.175748  0.000000  1
  As  As28  1  0.640403  0.644158  0.000000  1
  As  As29  1  0.822007  0.997755  0.000000  1
  As  As30  1  0.515801  0.833695  0.500000  1
  As  As31  1  0.177091  0.690725  0.500000  1
  As  As32  1  0.359597  0.003755  0.000000  1
  As  As33  1  0.484199  0.317895  0.500000  1
  As  As34  1  0.000000  0.824114  0.000000  1
  As  As35  1  0.318943  0.484746  0.500000  1
