# generated using pymatgen
data_Eu(BiO2)7
_symmetry_space_group_name_H-M   'P 1'
_cell_length_a   6.70531722
_cell_length_b   6.89845522
_cell_length_c   7.88923539
_cell_angle_alpha   106.80793916
_cell_angle_beta   89.39173459
_cell_angle_gamma   99.56095189
_symmetry_Int_Tables_number   1
_chemical_formula_structural   Eu(BiO2)7
_chemical_formula_sum   'Eu1 Bi7 O14'
_cell_volume   344.21404405
_cell_formula_units_Z   1
loop_
 _symmetry_equiv_pos_site_id
 _symmetry_equiv_pos_as_xyz
  1  'x, y, z'
loop_
 _atom_site_type_symbol
 _atom_site_label
 _atom_site_symmetry_multiplicity
 _atom_site_fract_x
 _atom_site_fract_y
 _atom_site_fract_z
 _atom_site_occupancy
  Eu  Eu0  1  0.463811  0.998448  0.252596  1
  Bi  Bi1  1  0.999919  0.000714  0.500211  1
  Bi  Bi2  1  0.532702  0.997016  0.748596  1
  Bi  Bi3  1  0.999545  0.000839  0.001028  1
  Bi  Bi4  1  0.258016  0.518736  0.880119  1
  Bi  Bi5  1  0.737742  0.483251  0.119261  1
  Bi  Bi6  1  0.726087  0.474337  0.610397  1
  Bi  Bi7  1  0.272062  0.520643  0.386504  1
  O  O8  1  0.459721  0.647231  0.181359  1
  O  O9  1  0.537573  0.363272  0.819451  1
  O  O10  1  0.298140  0.938592  0.952972  1
  O  O11  1  0.704425  0.062492  0.051071  1
  O  O12  1  0.290748  0.909631  0.509320  1
  O  O13  1  0.712270  0.092820  0.491132  1
  O  O14  1  0.531988  0.351521  0.354293  1
  O  O15  1  0.465826  0.646376  0.642849  1
  O  O16  1  0.913533  0.677460  0.967154  1
  O  O17  1  0.085917  0.323449  0.036517  1
  O  O18  1  0.104295  0.322838  0.624282  1
  O  O19  1  0.896589  0.678746  0.372268  1
  O  O20  1  0.891297  0.912881  0.728061  1
  O  O21  1  0.117793  0.078705  0.270558  1
