# generated using pymatgen
data_YbThB12
_symmetry_space_group_name_H-M   'P 1'
_cell_length_a   5.81784203
_cell_length_b   5.81784182
_cell_length_c   5.81784100
_cell_angle_alpha   59.99999900
_cell_angle_beta   60.00000016
_cell_angle_gamma   60.00000223
_symmetry_Int_Tables_number   1
_chemical_formula_structural   YbThB12
_chemical_formula_sum   'Yb1 Th1 B12'
_cell_volume   139.24213984
_cell_formula_units_Z   1
loop_
 _symmetry_equiv_pos_site_id
 _symmetry_equiv_pos_as_xyz
  1  'x, y, z'
loop_
 _atom_site_type_symbol
 _atom_site_label
 _atom_site_symmetry_multiplicity
 _atom_site_fract_x
 _atom_site_fract_y
 _atom_site_fract_z
 _atom_site_occupancy
  Yb  Yb0  1  0.000000  0.000000  0.000000  1
  Th  Th1  1  0.500000  0.500000  0.500000  1
  B  B2  1  0.400723  0.099277  0.099277  1
  B  B3  1  0.900723  0.599277  0.599277  1
  B  B4  1  0.400723  0.400723  0.099277  1
  B  B5  1  0.900723  0.900723  0.599277  1
  B  B6  1  0.099277  0.400723  0.099277  1
  B  B7  1  0.599277  0.900723  0.599277  1
  B  B8  1  0.099277  0.099277  0.400723  1
  B  B9  1  0.599277  0.599277  0.900723  1
  B  B10  1  0.400723  0.099277  0.400723  1
  B  B11  1  0.900723  0.599277  0.900723  1
  B  B12  1  0.099277  0.400723  0.400723  1
  B  B13  1  0.599277  0.900723  0.900723  1
