# generated using pymatgen
data_Zr10Pt6S
_symmetry_space_group_name_H-M   'P 1'
_cell_length_a   5.44583500
_cell_length_b   8.40896130
_cell_length_c   8.40895900
_cell_angle_alpha   119.99986519
_cell_angle_beta   90.00006864
_cell_angle_gamma   89.99995467
_symmetry_Int_Tables_number   1
_chemical_formula_structural   Zr10Pt6S
_chemical_formula_sum   'Zr10 Pt6 S1'
_cell_volume   333.48805999
_cell_formula_units_Z   1
loop_
 _symmetry_equiv_pos_site_id
 _symmetry_equiv_pos_as_xyz
  1  'x, y, z'
loop_
 _atom_site_type_symbol
 _atom_site_label
 _atom_site_symmetry_multiplicity
 _atom_site_fract_x
 _atom_site_fract_y
 _atom_site_fract_z
 _atom_site_occupancy
  Zr  Zr0  1  0.499999  0.333333  0.666665  1
  Zr  Zr1  1  0.500000  0.666667  0.333334  1
  Zr  Zr2  1  0.000000  0.666667  0.333334  1
  Zr  Zr3  1  0.000001  0.333334  0.666666  1
  Zr  Zr4  1  0.755806  0.257210  0.000018  1
  Zr  Zr5  1  0.755806  0.742809  0.742790  1
  Zr  Zr6  1  0.755806  0.999983  0.257192  1
  Zr  Zr7  1  0.244192  0.742807  0.000018  1
  Zr  Zr8  1  0.244193  0.257211  0.257192  1
  Zr  Zr9  1  0.244194  0.999983  0.742791  1
  Pt  Pt10  1  0.744820  0.595988  0.000030  1
  Pt  Pt11  1  0.744822  0.404041  0.404011  1
  Pt  Pt12  1  0.744823  0.999970  0.595959  1
  Pt  Pt13  1  0.255180  0.404041  0.000031  1
  Pt  Pt14  1  0.255179  0.595988  0.595958  1
  Pt  Pt15  1  0.255178  0.999971  0.404011  1
  S  S16  1  0.500000  0.000001  0.000001  1
