# generated using pymatgen
data_Tb3TmAl18(NiRh2)2
_symmetry_space_group_name_H-M   'P 1'
_cell_length_a   7.52998109
_cell_length_b   7.53293327
_cell_length_c   9.42476100
_cell_angle_alpha   90.00000000
_cell_angle_beta   90.00000000
_cell_angle_gamma   119.82412760
_symmetry_Int_Tables_number   1
_chemical_formula_structural   Tb3TmAl18(NiRh2)2
_chemical_formula_sum   'Tb3 Tm1 Al18 Ni2 Rh4'
_cell_volume   463.79484655
_cell_formula_units_Z   1
loop_
 _symmetry_equiv_pos_site_id
 _symmetry_equiv_pos_as_xyz
  1  'x, y, z'
loop_
 _atom_site_type_symbol
 _atom_site_label
 _atom_site_symmetry_multiplicity
 _atom_site_fract_x
 _atom_site_fract_y
 _atom_site_fract_z
 _atom_site_occupancy
  Tb  Tb0  1  0.994547  0.668129  0.250000  1
  Tb  Tb1  1  0.005636  0.332040  0.750000  1
  Tb  Tb2  1  0.667845  0.994344  0.250000  1
  Tm  Tm3  1  0.332331  0.005419  0.750000  1
  Al  Al4  1  0.122308  0.121989  0.250000  1
  Al  Al5  1  0.879256  0.878449  0.750000  1
  Al  Al6  1  0.000271  0.331868  0.074375  1
  Al  Al7  1  0.000705  0.669275  0.925100  1
  Al  Al8  1  0.000705  0.669275  0.574900  1
  Al  Al9  1  0.331832  0.000223  0.426609  1
  Al  Al10  1  0.000271  0.331868  0.425625  1
  Al  Al11  1  0.667101  0.999641  0.574952  1
  Al  Al12  1  0.667101  0.999641  0.925048  1
  Al  Al13  1  0.331832  0.000223  0.073391  1
  Al  Al14  1  0.331230  0.330346  0.550876  1
  Al  Al15  1  0.668688  0.668649  0.450005  1
  Al  Al16  1  0.668688  0.668649  0.049995  1
  Al  Al17  1  0.331230  0.330346  0.949124  1
  Al  Al18  1  0.338286  0.546273  0.250000  1
  Al  Al19  1  0.660928  0.452407  0.750000  1
  Al  Al20  1  0.546166  0.338075  0.250000  1
  Al  Al21  1  0.453579  0.662758  0.750000  1
  Ni  Ni22  1  0.000316  0.000275  0.999676  1
  Ni  Ni23  1  0.000316  0.000275  0.500324  1
  Rh  Rh24  1  0.671175  0.327853  0.999300  1
  Rh  Rh25  1  0.328242  0.671928  0.999431  1
  Rh  Rh26  1  0.328242  0.671928  0.500569  1
  Rh  Rh27  1  0.671175  0.327853  0.500700  1
