# generated using pymatgen
data_CePrZn5Si
_symmetry_space_group_name_H-M   'P 1'
_cell_length_a   8.30678710
_cell_length_b   8.30678793
_cell_length_c   8.80647400
_cell_angle_alpha   90.00000000
_cell_angle_beta   90.00000000
_cell_angle_gamma   149.03516007
_symmetry_Int_Tables_number   1
_chemical_formula_structural   CePrZn5Si
_chemical_formula_sum   'Ce2 Pr2 Zn10 Si2'
_cell_volume   312.65382262
_cell_formula_units_Z   2
loop_
 _symmetry_equiv_pos_site_id
 _symmetry_equiv_pos_as_xyz
  1  'x, y, z'
loop_
 _atom_site_type_symbol
 _atom_site_label
 _atom_site_symmetry_multiplicity
 _atom_site_fract_x
 _atom_site_fract_y
 _atom_site_fract_z
 _atom_site_occupancy
  Ce  Ce0  1  0.205482  0.794518  0.250000  1
  Ce  Ce1  1  0.794518  0.205482  0.750000  1
  Pr  Pr2  1  0.000000  0.000000  0.500000  1
  Pr  Pr3  1  0.000000  0.000000  0.000000  1
  Zn  Zn4  1  0.813011  0.186989  0.393986  1
  Zn  Zn5  1  0.186989  0.813011  0.606014  1
  Zn  Zn6  1  0.813011  0.186989  0.106014  1
  Zn  Zn7  1  0.186989  0.813011  0.893986  1
  Zn  Zn8  1  0.650989  0.349011  0.476595  1
  Zn  Zn9  1  0.349011  0.650989  0.523405  1
  Zn  Zn10  1  0.650989  0.349011  0.023405  1
  Zn  Zn11  1  0.349011  0.650989  0.976595  1
  Zn  Zn12  1  0.406457  0.593543  0.250000  1
  Zn  Zn13  1  0.593543  0.406457  0.750000  1
  Si  Si14  1  0.560188  0.439812  0.250000  1
  Si  Si15  1  0.439812  0.560188  0.750000  1
