# generated using pymatgen
data_Y2ErTl5
_symmetry_space_group_name_H-M   'P 1'
_cell_length_a   6.67521900
_cell_length_b   10.55875600
_cell_length_c   12.30308200
_cell_angle_alpha   90.00000000
_cell_angle_beta   90.00000000
_cell_angle_gamma   90.00000000
_symmetry_Int_Tables_number   1
_chemical_formula_structural   Y2ErTl5
_chemical_formula_sum   'Y8 Er4 Tl20'
_cell_volume   867.14593216
_cell_formula_units_Z   4
loop_
 _symmetry_equiv_pos_site_id
 _symmetry_equiv_pos_as_xyz
  1  'x, y, z'
loop_
 _atom_site_type_symbol
 _atom_site_label
 _atom_site_symmetry_multiplicity
 _atom_site_fract_x
 _atom_site_fract_y
 _atom_site_fract_z
 _atom_site_occupancy
  Y  Y0  1  0.886693  0.492095  0.141111  1
  Y  Y1  1  0.613307  0.007905  0.641111  1
  Y  Y2  1  0.113307  0.992095  0.858889  1
  Y  Y3  1  0.386693  0.507905  0.358889  1
  Y  Y4  1  0.113307  0.507905  0.858889  1
  Y  Y5  1  0.386693  0.992095  0.358889  1
  Y  Y6  1  0.886693  0.007905  0.141111  1
  Y  Y7  1  0.613307  0.492095  0.641111  1
  Er  Er8  1  0.354246  0.750000  0.050385  1
  Er  Er9  1  0.145754  0.750000  0.550385  1
  Er  Er10  1  0.645754  0.250000  0.949615  1
  Er  Er11  1  0.854246  0.250000  0.449615  1
  Tl  Tl12  1  0.603155  0.750000  0.507515  1
  Tl  Tl13  1  0.896845  0.750000  0.007515  1
  Tl  Tl14  1  0.396845  0.250000  0.492485  1
  Tl  Tl15  1  0.103155  0.250000  0.992485  1
  Tl  Tl16  1  0.647701  0.750000  0.239542  1
  Tl  Tl17  1  0.852299  0.750000  0.739542  1
  Tl  Tl18  1  0.352299  0.250000  0.760458  1
  Tl  Tl19  1  0.147701  0.250000  0.260458  1
  Tl  Tl20  1  0.129717  0.750000  0.280066  1
  Tl  Tl21  1  0.370283  0.750000  0.780066  1
  Tl  Tl22  1  0.870283  0.250000  0.719934  1
  Tl  Tl23  1  0.629717  0.250000  0.219934  1
  Tl  Tl24  1  0.869108  0.538263  0.397919  1
  Tl  Tl25  1  0.630892  0.961737  0.897919  1
  Tl  Tl26  1  0.130892  0.038263  0.602081  1
  Tl  Tl27  1  0.369108  0.461737  0.102081  1
  Tl  Tl28  1  0.130892  0.461737  0.602081  1
  Tl  Tl29  1  0.369108  0.038263  0.102081  1
  Tl  Tl30  1  0.869108  0.961737  0.397919  1
  Tl  Tl31  1  0.630892  0.538263  0.897919  1
