# generated using pymatgen
data_Nb4Si4IrRh3
_symmetry_space_group_name_H-M   'P 1'
_cell_length_a   3.78953300
_cell_length_b   6.45918446
_cell_length_c   7.35756780
_cell_angle_alpha   89.90003040
_cell_angle_beta   90.00000000
_cell_angle_gamma   90.00000000
_symmetry_Int_Tables_number   1
_chemical_formula_structural   Nb4Si4IrRh3
_chemical_formula_sum   'Nb4 Si4 Ir1 Rh3'
_cell_volume   180.09306615
_cell_formula_units_Z   1
loop_
 _symmetry_equiv_pos_site_id
 _symmetry_equiv_pos_as_xyz
  1  'x, y, z'
loop_
 _atom_site_type_symbol
 _atom_site_label
 _atom_site_symmetry_multiplicity
 _atom_site_fract_x
 _atom_site_fract_y
 _atom_site_fract_z
 _atom_site_occupancy
  Nb  Nb0  1  0.750000  0.525476  0.827911  1
  Nb  Nb1  1  0.250000  0.975493  0.326557  1
  Nb  Nb2  1  0.750000  0.024401  0.673489  1
  Nb  Nb3  1  0.250000  0.474498  0.171778  1
  Si  Si4  1  0.250000  0.230809  0.874270  1
  Si  Si5  1  0.250000  0.730298  0.624726  1
  Si  Si6  1  0.750000  0.769224  0.124883  1
  Si  Si7  1  0.750000  0.270062  0.376261  1
  Ir  Ir8  1  0.750000  0.145653  0.062314  1
  Rh  Rh9  1  0.250000  0.854462  0.937537  1
  Rh  Rh10  1  0.250000  0.354392  0.562748  1
  Rh  Rh11  1  0.750000  0.645229  0.437524  1
