# generated using pymatgen
data_Ca2PrDy(Pt2O7)2
_symmetry_space_group_name_H-M   'P 1'
_cell_length_a   7.33677498
_cell_length_b   7.37740909
_cell_length_c   7.33677332
_cell_angle_alpha   59.92989114
_cell_angle_beta   59.74449511
_cell_angle_gamma   59.92989477
_symmetry_Int_Tables_number   1
_chemical_formula_structural   Ca2PrDy(Pt2O7)2
_chemical_formula_sum   'Ca2 Pr1 Dy1 Pt4 O14'
_cell_volume   279.95890472
_cell_formula_units_Z   1
loop_
 _symmetry_equiv_pos_site_id
 _symmetry_equiv_pos_as_xyz
  1  'x, y, z'
loop_
 _atom_site_type_symbol
 _atom_site_label
 _atom_site_symmetry_multiplicity
 _atom_site_fract_x
 _atom_site_fract_y
 _atom_site_fract_z
 _atom_site_occupancy
  Ca  Ca0  1  0.125000  0.125000  0.625000  1
  Ca  Ca1  1  0.625000  0.125000  0.125000  1
  Pr  Pr2  1  0.125000  0.625000  0.125000  1
  Dy  Dy3  1  0.125000  0.125000  0.125000  1
  Pt  Pt4  1  0.625000  0.625000  0.125000  1
  Pt  Pt5  1  0.625000  0.125000  0.625000  1
  Pt  Pt6  1  0.125000  0.625000  0.625000  1
  Pt  Pt7  1  0.625000  0.625000  0.625000  1
  O  O8  1  0.248518  0.242458  0.248518  1
  O  O9  1  0.001482  0.007542  0.001482  1
  O  O10  1  0.289840  0.717269  0.289840  1
  O  O11  1  0.546812  0.953592  0.546812  1
  O  O12  1  0.291991  0.293364  0.715654  1
  O  O13  1  0.715654  0.293364  0.291991  1
  O  O14  1  0.292379  0.707733  0.705615  1
  O  O15  1  0.705615  0.707733  0.292379  1
  O  O16  1  0.703188  0.296408  0.703188  1
  O  O17  1  0.957621  0.542267  0.544385  1
  O  O18  1  0.534346  0.956636  0.958009  1
  O  O19  1  0.960160  0.532731  0.960160  1
  O  O20  1  0.544385  0.542267  0.957621  1
  O  O21  1  0.958009  0.956636  0.534346  1
