# generated using pymatgen
data_Yb12Tm8Si15Sn
_symmetry_space_group_name_H-M   'P 1'
_cell_length_a   7.36352445
_cell_length_b   7.81473546
_cell_length_c   15.07879459
_cell_angle_alpha   89.70563497
_cell_angle_beta   90.27703016
_cell_angle_gamma   90.05216443
_symmetry_Int_Tables_number   1
_chemical_formula_structural   Yb12Tm8Si15Sn
_chemical_formula_sum   'Yb12 Tm8 Si15 Sn1'
_cell_volume   867.67215662
_cell_formula_units_Z   1
loop_
 _symmetry_equiv_pos_site_id
 _symmetry_equiv_pos_as_xyz
  1  'x, y, z'
loop_
 _atom_site_type_symbol
 _atom_site_label
 _atom_site_symmetry_multiplicity
 _atom_site_fract_x
 _atom_site_fract_y
 _atom_site_fract_z
 _atom_site_occupancy
  Yb  Yb0  1  0.977519  0.820289  0.401849  1
  Yb  Yb1  1  0.473964  0.683607  0.095642  1
  Yb  Yb2  1  0.514528  0.310061  0.596947  1
  Yb  Yb3  1  0.026231  0.183493  0.904901  1
  Yb  Yb4  1  0.027608  0.178665  0.596250  1
  Yb  Yb5  1  0.525883  0.316415  0.904631  1
  Yb  Yb6  1  0.476346  0.683975  0.403389  1
  Yb  Yb7  1  0.973836  0.815867  0.095556  1
  Yb  Yb8  1  0.349956  0.021442  0.752068  1
  Yb  Yb9  1  0.851377  0.480192  0.753275  1
  Yb  Yb10  1  0.149162  0.519998  0.249786  1
  Yb  Yb11  1  0.648001  0.978543  0.249147  1
  Tm  Tm12  1  0.315279  0.176349  0.120558  1
  Tm  Tm13  1  0.816795  0.316537  0.374245  1
  Tm  Tm14  1  0.185603  0.676681  0.879240  1
  Tm  Tm15  1  0.678174  0.837037  0.625691  1
  Tm  Tm16  1  0.317563  0.175404  0.377060  1
  Tm  Tm17  1  0.814408  0.323894  0.120697  1
  Tm  Tm18  1  0.191652  0.678026  0.621924  1
  Tm  Tm19  1  0.685850  0.823841  0.879504  1
  Si  Si20  1  0.356726  0.966255  0.961717  1
  Si  Si21  1  0.643804  0.034129  0.461303  1
  Si  Si22  1  0.143205  0.466084  0.038529  1
  Si  Si23  1  0.156156  0.463913  0.459406  1
  Si  Si24  1  0.643693  0.033742  0.038342  1
  Si  Si25  1  0.356319  0.966225  0.537087  1
  Si  Si26  1  0.856971  0.533955  0.961735  1
  Si  Si27  1  0.977338  0.879637  0.750910  1
  Si  Si28  1  0.477679  0.621405  0.751609  1
  Si  Si29  1  0.523151  0.378743  0.248153  1
  Si  Si30  1  0.023933  0.118989  0.248739  1
  Si  Si31  1  0.248811  0.397737  0.750678  1
  Si  Si32  1  0.749549  0.105331  0.751770  1
  Si  Si33  1  0.251733  0.896343  0.249252  1
  Si  Si34  1  0.751294  0.602465  0.249211  1
  Sn  Sn35  1  0.839904  0.534731  0.539200  1
