# generated using pymatgen
data_Y2Ho8Tl7InPd4
_symmetry_space_group_name_H-M   'P 1'
_cell_length_a   3.63696700
_cell_length_b   8.24401923
_cell_length_c   18.34282404
_cell_angle_alpha   89.85868241
_cell_angle_beta   90.00000000
_cell_angle_gamma   90.00000000
_symmetry_Int_Tables_number   1
_chemical_formula_structural   Y2Ho8Tl7InPd4
_chemical_formula_sum   'Y2 Ho8 Tl7 In1 Pd4'
_cell_volume   549.97536359
_cell_formula_units_Z   1
loop_
 _symmetry_equiv_pos_site_id
 _symmetry_equiv_pos_as_xyz
  1  'x, y, z'
loop_
 _atom_site_type_symbol
 _atom_site_label
 _atom_site_symmetry_multiplicity
 _atom_site_fract_x
 _atom_site_fract_y
 _atom_site_fract_z
 _atom_site_occupancy
  Y  Y0  1  0.000000  0.500085  0.500245  1
  Y  Y1  1  0.000000  0.000889  0.998741  1
  Ho  Ho2  1  0.000000  0.740385  0.282056  1
  Ho  Ho3  1  0.000000  0.260118  0.718170  1
  Ho  Ho4  1  0.000000  0.759519  0.782577  1
  Ho  Ho5  1  0.000000  0.240349  0.217579  1
  Ho  Ho6  1  0.000000  0.615821  0.085703  1
  Ho  Ho7  1  0.000000  0.383641  0.914358  1
  Ho  Ho8  1  0.000000  0.884610  0.586781  1
  Ho  Ho9  1  0.000000  0.115290  0.413868  1
  Tl  Tl10  1  0.500000  0.707376  0.934049  1
  Tl  Tl11  1  0.500000  0.294868  0.064930  1
  Tl  Tl12  1  0.500000  0.794921  0.435214  1
  Tl  Tl13  1  0.500000  0.204558  0.565109  1
  Tl  Tl14  1  0.500000  0.584656  0.650437  1
  Tl  Tl15  1  0.500000  0.415204  0.350244  1
  Tl  Tl16  1  0.500000  0.915498  0.149237  1
  In  In17  1  0.500000  0.085227  0.848888  1
  Pd  Pd18  1  0.500000  0.525595  0.196586  1
  Pd  Pd19  1  0.500000  0.471160  0.803603  1
  Pd  Pd20  1  0.500000  0.975279  0.698573  1
  Pd  Pd21  1  0.500000  0.024950  0.303052  1
