# generated using pymatgen
data_ZrSc3VRe7
_symmetry_space_group_name_H-M   'P 1'
_cell_length_a   5.26963624
_cell_length_b   5.26951217
_cell_length_c   8.64726453
_cell_angle_alpha   89.99999730
_cell_angle_beta   89.96524307
_cell_angle_gamma   119.99921355
_symmetry_Int_Tables_number   1
_chemical_formula_structural   ZrSc3VRe7
_chemical_formula_sum   'Zr1 Sc3 V1 Re7'
_cell_volume   207.95231562
_cell_formula_units_Z   1
loop_
 _symmetry_equiv_pos_site_id
 _symmetry_equiv_pos_as_xyz
  1  'x, y, z'
loop_
 _atom_site_type_symbol
 _atom_site_label
 _atom_site_symmetry_multiplicity
 _atom_site_fract_x
 _atom_site_fract_y
 _atom_site_fract_z
 _atom_site_occupancy
  Zr  Zr0  1  0.334116  0.667059  0.437208  1
  Sc  Sc1  1  0.666844  0.333422  0.942104  1
  Sc  Sc2  1  0.665786  0.332892  0.560380  1
  Sc  Sc3  1  0.334397  0.667199  0.060493  1
  V  V4  1  0.656774  0.828387  0.749328  1
  Re  Re5  1  0.339962  0.169981  0.250395  1
  Re  Re6  1  0.829165  0.171338  0.249795  1
  Re  Re7  1  0.170062  0.344526  0.750301  1
  Re  Re8  1  0.170062  0.825535  0.750301  1
  Re  Re9  1  0.829165  0.657827  0.249795  1
  Re  Re10  1  0.001103  0.000551  0.504105  1
  Re  Re11  1  0.002565  0.001283  0.995795  1
