# generated using pymatgen
data_YHo2ErInRh
_symmetry_space_group_name_H-M   'P 1'
_cell_length_a   9.63809341
_cell_length_b   9.62221517
_cell_length_c   9.62358450
_cell_angle_alpha   60.00982880
_cell_angle_beta   59.98167929
_cell_angle_gamma   59.98063400
_symmetry_Int_Tables_number   1
_chemical_formula_structural   YHo2ErInRh
_chemical_formula_sum   'Y4 Ho8 Er4 In4 Rh4'
_cell_volume   630.95231638
_cell_formula_units_Z   4
loop_
 _symmetry_equiv_pos_site_id
 _symmetry_equiv_pos_as_xyz
  1  'x, y, z'
loop_
 _atom_site_type_symbol
 _atom_site_label
 _atom_site_symmetry_multiplicity
 _atom_site_fract_x
 _atom_site_fract_y
 _atom_site_fract_z
 _atom_site_occupancy
  Y  Y0  1  0.814575  0.186900  0.812375  1
  Y  Y1  1  0.189061  0.811244  0.189403  1
  Y  Y2  1  0.440083  0.059965  0.059972  1
  Y  Y3  1  0.189724  0.810827  0.811223  1
  Ho  Ho4  1  0.061060  0.438874  0.060008  1
  Ho  Ho5  1  0.813377  0.810748  0.188786  1
  Ho  Ho6  1  0.196660  0.601769  0.602193  1
  Ho  Ho7  1  0.060404  0.439197  0.439249  1
  Ho  Ho8  1  0.061138  0.060114  0.438833  1
  Ho  Ho9  1  0.813659  0.187845  0.188498  1
  Ho  Ho10  1  0.600983  0.202995  0.599272  1
  Ho  Ho11  1  0.599314  0.597425  0.597953  1
  Er  Er12  1  0.189902  0.189569  0.810972  1
  Er  Er13  1  0.601926  0.599902  0.200401  1
  Er  Er14  1  0.440435  0.059333  0.439431  1
  Er  Er15  1  0.440378  0.439370  0.059302  1
  In  In16  1  0.831319  0.834616  0.834064  1
  In  In17  1  0.830540  0.833465  0.502071  1
  In  In18  1  0.500290  0.833308  0.832995  1
  In  In19  1  0.831192  0.500708  0.833459  1
  Rh  Rh20  1  0.389979  0.821320  0.394414  1
  Rh  Rh21  1  0.390264  0.393573  0.393235  1
  Rh  Rh22  1  0.824725  0.392023  0.390242  1
  Rh  Rh23  1  0.389015  0.394912  0.821651  1
