# generated using pymatgen
data_Al2Ni8Mo11W3C4
_symmetry_space_group_name_H-M   'P 1'
_cell_length_a   8.03484266
_cell_length_b   7.96859953
_cell_length_c   7.96860034
_cell_angle_alpha   59.47745368
_cell_angle_beta   59.72462369
_cell_angle_gamma   59.72463093
_symmetry_Int_Tables_number   1
_chemical_formula_structural   Al2Ni8Mo11W3C4
_chemical_formula_sum   'Al2 Ni8 Mo11 W3 C4'
_cell_volume   357.82936770
_cell_formula_units_Z   1
loop_
 _symmetry_equiv_pos_site_id
 _symmetry_equiv_pos_as_xyz
  1  'x, y, z'
loop_
 _atom_site_type_symbol
 _atom_site_label
 _atom_site_symmetry_multiplicity
 _atom_site_fract_x
 _atom_site_fract_y
 _atom_site_fract_z
 _atom_site_occupancy
  Al  Al0  1  0.124810  0.125205  0.625175  1
  Al  Al1  1  0.124810  0.625175  0.125205  1
  Ni  Ni2  1  0.922028  0.912105  0.243840  1
  Ni  Ni3  1  0.327643  0.336893  0.336893  1
  Ni  Ni4  1  0.251040  0.913196  0.913196  1
  Ni  Ni5  1  0.327937  0.005910  0.338216  1
  Ni  Ni6  1  0.998573  0.336893  0.336893  1
  Ni  Ni7  1  0.327937  0.338216  0.005910  1
  Ni  Ni8  1  0.922568  0.913196  0.913196  1
  Ni  Ni9  1  0.922028  0.243840  0.912105  1
  Mo  Mo10  1  0.936619  0.938085  0.559053  1
  Mo  Mo11  1  0.683518  0.690840  0.311952  1
  Mo  Mo12  1  0.683518  0.311952  0.690840  1
  Mo  Mo13  1  0.313691  0.690840  0.311952  1
  Mo  Mo14  1  0.566243  0.938085  0.559053  1
  Mo  Mo15  1  0.556934  0.943066  0.943066  1
  Mo  Mo16  1  0.932921  0.567079  0.567079  1
  Mo  Mo17  1  0.936619  0.559053  0.938085  1
  Mo  Mo18  1  0.313691  0.311952  0.690840  1
  Mo  Mo19  1  0.566243  0.559053  0.938085  1
  Mo  Mo20  1  0.316732  0.683268  0.683268  1
  W  W21  1  0.125025  0.124983  0.124983  1
  W  W22  1  0.693268  0.306732  0.306732  1
  W  W23  1  0.625008  0.124983  0.124983  1
  C  C24  1  0.625079  0.624898  0.624898  1
  C  C25  1  0.625198  0.624632  0.124972  1
  C  C26  1  0.125124  0.624898  0.624898  1
  C  C27  1  0.625198  0.124972  0.624632  1
