# generated using pymatgen
data_Er3Mg2PaNi4
_symmetry_space_group_name_H-M   'P 1'
_cell_length_a   7.43225011
_cell_length_b   7.43225011
_cell_length_c   3.55897000
_cell_angle_alpha   90.00000000
_cell_angle_beta   90.00000000
_cell_angle_gamma   92.38974003
_symmetry_Int_Tables_number   1
_chemical_formula_structural   Er3Mg2PaNi4
_chemical_formula_sum   'Er3 Mg2 Pa1 Ni4'
_cell_volume   196.42062769
_cell_formula_units_Z   1
loop_
 _symmetry_equiv_pos_site_id
 _symmetry_equiv_pos_as_xyz
  1  'x, y, z'
loop_
 _atom_site_type_symbol
 _atom_site_label
 _atom_site_symmetry_multiplicity
 _atom_site_fract_x
 _atom_site_fract_y
 _atom_site_fract_z
 _atom_site_occupancy
  Er  Er0  1  0.327240  0.827240  0.500000  1
  Er  Er1  1  0.169812  0.332457  0.500000  1
  Er  Er2  1  0.832457  0.669812  0.500000  1
  Mg  Mg3  1  0.003642  0.999282  0.000000  1
  Mg  Mg4  1  0.499282  0.503642  0.000000  1
  Pa  Pa5  1  0.666852  0.166852  0.500000  1
  Ni  Ni6  1  0.116310  0.616310  0.000000  1
  Ni  Ni7  1  0.861279  0.361279  0.000000  1
  Ni  Ni8  1  0.630619  0.892507  0.000000  1
  Ni  Ni9  1  0.392507  0.130619  0.000000  1
