# generated using pymatgen
data_TbNd2Dy3(SbO7)2
_symmetry_space_group_name_H-M   'P 1'
_cell_length_a   6.52864156
_cell_length_b   6.52658335
_cell_length_c   7.62522500
_cell_angle_alpha   90.00000000
_cell_angle_beta   90.00000000
_cell_angle_gamma   109.19083991
_symmetry_Int_Tables_number   1
_chemical_formula_structural   TbNd2Dy3(SbO7)2
_chemical_formula_sum   'Tb1 Nd2 Dy3 Sb2 O14'
_cell_volume   306.85320357
_cell_formula_units_Z   1
loop_
 _symmetry_equiv_pos_site_id
 _symmetry_equiv_pos_as_xyz
  1  'x, y, z'
loop_
 _atom_site_type_symbol
 _atom_site_label
 _atom_site_symmetry_multiplicity
 _atom_site_fract_x
 _atom_site_fract_y
 _atom_site_fract_z
 _atom_site_occupancy
  Tb  Tb0  1  0.468221  0.999764  0.250000  1
  Nd  Nd1  1  0.500191  0.500307  0.500200  1
  Nd  Nd2  1  0.500191  0.500307  0.999800  1
  Dy  Dy3  1  0.000535  0.531301  0.250000  1
  Dy  Dy4  1  0.999524  0.468555  0.750000  1
  Dy  Dy5  1  0.531568  0.000538  0.750000  1
  Sb  Sb6  1  0.999984  0.999955  0.500287  1
  Sb  Sb7  1  0.999984  0.999955  0.999713  1
  O  O8  1  0.931762  0.068669  0.750000  1
  O  O9  1  0.067678  0.931526  0.250000  1
  O  O10  1  0.357356  0.641030  0.250000  1
  O  O11  1  0.642705  0.357540  0.750000  1
  O  O12  1  0.363921  0.636011  0.750000  1
  O  O13  1  0.636759  0.365712  0.250000  1
  O  O14  1  0.320083  0.068890  0.970079  1
  O  O15  1  0.679676  0.930722  0.471692  1
  O  O16  1  0.320083  0.068890  0.529921  1
  O  O17  1  0.679676  0.930722  0.028308  1
  O  O18  1  0.068238  0.320114  0.470779  1
  O  O19  1  0.931814  0.679689  0.970709  1
  O  O20  1  0.931814  0.679689  0.529291  1
  O  O21  1  0.068238  0.320114  0.029221  1
