# generated using pymatgen
data_Tm3Sn3Pt2Rh
_symmetry_space_group_name_H-M   'P 1'
_cell_length_a   7.62470800
_cell_length_b   7.62470815
_cell_length_c   3.76769300
_cell_angle_alpha   90.00000000
_cell_angle_beta   90.00000000
_cell_angle_gamma   119.99999934
_symmetry_Int_Tables_number   1
_chemical_formula_structural   Tm3Sn3Pt2Rh
_chemical_formula_sum   'Tm3 Sn3 Pt2 Rh1'
_cell_volume   189.69355877
_cell_formula_units_Z   1
loop_
 _symmetry_equiv_pos_site_id
 _symmetry_equiv_pos_as_xyz
  1  'x, y, z'
loop_
 _atom_site_type_symbol
 _atom_site_label
 _atom_site_symmetry_multiplicity
 _atom_site_fract_x
 _atom_site_fract_y
 _atom_site_fract_z
 _atom_site_occupancy
  Tm  Tm0  1  0.000000  0.402575  0.000000  1
  Tm  Tm1  1  0.597425  0.597425  0.000000  1
  Tm  Tm2  1  0.402575  0.000000  0.000000  1
  Sn  Sn3  1  0.000000  0.739720  0.500000  1
  Sn  Sn4  1  0.260280  0.260280  0.500000  1
  Sn  Sn5  1  0.739720  0.000000  0.500000  1
  Pt  Pt6  1  0.333333  0.666667  0.500000  1
  Pt  Pt7  1  0.666667  0.333333  0.500000  1
  Rh  Rh8  1  0.000000  0.000000  0.000000  1
