# generated using pymatgen
data_Sr4ErNb2MoO12
_symmetry_space_group_name_H-M   'P 1'
_cell_length_a   5.85913037
_cell_length_b   5.81547859
_cell_length_c   10.09673561
_cell_angle_alpha   54.66544933
_cell_angle_beta   89.96403683
_cell_angle_gamma   89.99290400
_symmetry_Int_Tables_number   1
_chemical_formula_structural   Sr4ErNb2MoO12
_chemical_formula_sum   'Sr4 Er1 Nb2 Mo1 O12'
_cell_volume   280.65794243
_cell_formula_units_Z   1
loop_
 _symmetry_equiv_pos_site_id
 _symmetry_equiv_pos_as_xyz
  1  'x, y, z'
loop_
 _atom_site_type_symbol
 _atom_site_label
 _atom_site_symmetry_multiplicity
 _atom_site_fract_x
 _atom_site_fract_y
 _atom_site_fract_z
 _atom_site_occupancy
  Sr  Sr0  1  0.470750  0.753278  0.254595  1
  Sr  Sr1  1  0.529250  0.246722  0.745405  1
  Sr  Sr2  1  0.967529  0.238336  0.254742  1
  Sr  Sr3  1  0.032471  0.761664  0.745258  1
  Er  Er4  1  0.000000  0.000000  0.000000  1
  Nb  Nb5  1  0.000000  0.500000  0.500000  1
  Nb  Nb6  1  0.500000  0.500000  0.000000  1
  Mo  Mo7  1  0.500000  0.000000  0.500000  1
  O  O8  1  0.700272  0.182842  0.041164  1
  O  O9  1  0.299728  0.817158  0.958836  1
  O  O10  1  0.214150  0.806534  0.463394  1
  O  O11  1  0.785850  0.193466  0.536606  1
  O  O12  1  0.018657  0.660964  0.262693  1
  O  O13  1  0.981343  0.339036  0.737307  1
  O  O14  1  0.518395  0.332484  0.241921  1
  O  O15  1  0.481605  0.667516  0.758079  1
  O  O16  1  0.222985  0.259284  0.042659  1
  O  O17  1  0.777015  0.740716  0.957341  1
  O  O18  1  0.728874  0.752028  0.460258  1
  O  O19  1  0.271126  0.247972  0.539742  1
