# generated using pymatgen
data_DyHo6Lu5Co4
_symmetry_space_group_name_H-M   'P 1'
_cell_length_a   6.14434185
_cell_length_b   6.89911316
_cell_length_c   9.24835736
_cell_angle_alpha   89.99020272
_cell_angle_beta   90.77282423
_cell_angle_gamma   89.95648944
_symmetry_Int_Tables_number   1
_chemical_formula_structural   DyHo6Lu5Co4
_chemical_formula_sum   'Dy1 Ho6 Lu5 Co4'
_cell_volume   392.00680032
_cell_formula_units_Z   1
loop_
 _symmetry_equiv_pos_site_id
 _symmetry_equiv_pos_as_xyz
  1  'x, y, z'
loop_
 _atom_site_type_symbol
 _atom_site_label
 _atom_site_symmetry_multiplicity
 _atom_site_fract_x
 _atom_site_fract_y
 _atom_site_fract_z
 _atom_site_occupancy
  Dy  Dy0  1  0.637272  0.039587  0.248875  1
  Ho  Ho1  1  0.138642  0.459817  0.749522  1
  Ho  Ho2  1  0.677711  0.325883  0.932806  1
  Ho  Ho3  1  0.360352  0.959418  0.752129  1
  Ho  Ho4  1  0.863010  0.541224  0.250310  1
  Ho  Ho5  1  0.175315  0.174014  0.432068  1
  Ho  Ho6  1  0.821181  0.824548  0.569411  1
  Lu  Lu7  1  0.175590  0.175277  0.065889  1
  Lu  Lu8  1  0.826468  0.825767  0.934924  1
  Lu  Lu9  1  0.673493  0.325979  0.566920  1
  Lu  Lu10  1  0.324730  0.674270  0.068256  1
  Lu  Lu11  1  0.324238  0.674577  0.431804  1
  Co  Co12  1  0.548583  0.614157  0.748790  1
  Co  Co13  1  0.950104  0.114340  0.753541  1
  Co  Co14  1  0.051653  0.885054  0.241134  1
  Co  Co15  1  0.451658  0.386088  0.253621  1
