# generated using pymatgen
data_Rb3In2Sb3
_symmetry_space_group_name_H-M   'P 1'
_cell_length_a   11.51842067
_cell_length_b   11.51842085
_cell_length_c   16.16056800
_cell_angle_alpha   90.00000000
_cell_angle_beta   90.00000000
_cell_angle_gamma   142.20071235
_symmetry_Int_Tables_number   1
_chemical_formula_structural   Rb3In2Sb3
_chemical_formula_sum   'Rb12 In8 Sb12'
_cell_volume   1314.10527134
_cell_formula_units_Z   4
loop_
 _symmetry_equiv_pos_site_id
 _symmetry_equiv_pos_as_xyz
  1  'x, y, z'
loop_
 _atom_site_type_symbol
 _atom_site_label
 _atom_site_symmetry_multiplicity
 _atom_site_fract_x
 _atom_site_fract_y
 _atom_site_fract_z
 _atom_site_occupancy
  Rb  Rb0  1  0.611861  0.929596  0.669199  1
  Rb  Rb1  1  0.570404  0.888139  0.169199  1
  Rb  Rb2  1  0.070404  0.388139  0.330801  1
  Rb  Rb3  1  0.111861  0.429596  0.830801  1
  Rb  Rb4  1  0.658834  0.658834  0.864774  1
  Rb  Rb5  1  0.429596  0.111861  0.830801  1
  Rb  Rb6  1  0.341166  0.341166  0.135226  1
  Rb  Rb7  1  0.929596  0.611861  0.669199  1
  Rb  Rb8  1  0.158834  0.158834  0.635226  1
  Rb  Rb9  1  0.888139  0.570404  0.169199  1
  Rb  Rb10  1  0.841166  0.841166  0.364774  1
  Rb  Rb11  1  0.388139  0.070404  0.330801  1
  In  In12  1  0.240080  0.759920  0.500000  1
  In  In13  1  0.259920  0.740080  0.000000  1
  In  In14  1  0.740080  0.259920  0.000000  1
  In  In15  1  0.916875  0.083125  0.000000  1
  In  In16  1  0.759920  0.240080  0.500000  1
  In  In17  1  0.083125  0.916875  0.000000  1
  In  In18  1  0.416875  0.583125  0.500000  1
  In  In19  1  0.583125  0.416875  0.500000  1
  Sb  Sb20  1  0.051512  0.399024  0.095531  1
  Sb  Sb21  1  0.663528  0.663528  0.616756  1
  Sb  Sb22  1  0.399024  0.051512  0.095531  1
  Sb  Sb23  1  0.600976  0.948488  0.904469  1
  Sb  Sb24  1  0.948488  0.600976  0.904469  1
  Sb  Sb25  1  0.448488  0.100976  0.595531  1
  Sb  Sb26  1  0.551512  0.899024  0.404469  1
  Sb  Sb27  1  0.163528  0.163528  0.883244  1
  Sb  Sb28  1  0.100976  0.448488  0.595531  1
  Sb  Sb29  1  0.836472  0.836472  0.116756  1
  Sb  Sb30  1  0.336472  0.336472  0.383244  1
  Sb  Sb31  1  0.899024  0.551512  0.404469  1
