# generated using pymatgen
data_Dy2Y18Cd3Ag3Ru2
_symmetry_space_group_name_H-M   'P 1'
_cell_length_a   9.64904300
_cell_length_b   9.64904164
_cell_length_c   9.71911800
_cell_angle_alpha   90.00108806
_cell_angle_beta   89.99891134
_cell_angle_gamma   120.00346987
_symmetry_Int_Tables_number   1
_chemical_formula_structural   Dy2Y18Cd3Ag3Ru2
_chemical_formula_sum   'Dy2 Y18 Cd3 Ag3 Ru2'
_cell_volume   783.62940292
_cell_formula_units_Z   1
loop_
 _symmetry_equiv_pos_site_id
 _symmetry_equiv_pos_as_xyz
  1  'x, y, z'
loop_
 _atom_site_type_symbol
 _atom_site_label
 _atom_site_symmetry_multiplicity
 _atom_site_fract_x
 _atom_site_fract_y
 _atom_site_fract_z
 _atom_site_occupancy
  Dy  Dy0  1  0.000016  0.999984  0.477012  1
  Dy  Dy1  1  0.540753  0.459247  0.250078  1
  Y  Y2  1  0.000022  0.999978  0.021994  1
  Y  Y3  1  0.210047  0.789953  0.440926  1
  Y  Y4  1  0.210130  0.420034  0.440879  1
  Y  Y5  1  0.579966  0.789870  0.440879  1
  Y  Y6  1  0.791047  0.208953  0.559689  1
  Y  Y7  1  0.790946  0.582035  0.559560  1
  Y  Y8  1  0.417965  0.209054  0.559560  1
  Y  Y9  1  0.790951  0.209049  0.940255  1
  Y  Y10  1  0.790839  0.581819  0.940394  1
  Y  Y11  1  0.418181  0.209161  0.940394  1
  Y  Y12  1  0.210201  0.789799  0.059184  1
  Y  Y13  1  0.210285  0.420350  0.059223  1
  Y  Y14  1  0.579650  0.789715  0.059223  1
  Y  Y15  1  0.540913  0.081885  0.250090  1
  Y  Y16  1  0.918115  0.459087  0.250090  1
  Y  Y17  1  0.458874  0.541126  0.749911  1
  Y  Y18  1  0.458874  0.917764  0.749913  1
  Y  Y19  1  0.082236  0.541126  0.749913  1
  Cd  Cd20  1  0.111345  0.888655  0.749944  1
  Cd  Cd21  1  0.111347  0.222724  0.749946  1
  Cd  Cd22  1  0.777276  0.888653  0.749946  1
  Ag  Ag23  1  0.876604  0.123396  0.250316  1
  Ag  Ag24  1  0.876178  0.752863  0.250313  1
  Ag  Ag25  1  0.247137  0.123822  0.250313  1
  Ru  Ru26  1  0.333446  0.666554  0.250083  1
  Ru  Ru27  1  0.666654  0.333346  0.749970  1
