# generated using pymatgen
data_Ta7Nb13Ir10
_symmetry_space_group_name_H-M   'P 1'
_cell_length_a   9.99724276
_cell_length_b   9.98514076
_cell_length_c   5.11270600
_cell_angle_alpha   90.00000000
_cell_angle_beta   90.00000000
_cell_angle_gamma   89.93207330
_symmetry_Int_Tables_number   1
_chemical_formula_structural   Ta7Nb13Ir10
_chemical_formula_sum   'Ta7 Nb13 Ir10'
_cell_volume   510.36977150
_cell_formula_units_Z   1
loop_
 _symmetry_equiv_pos_site_id
 _symmetry_equiv_pos_as_xyz
  1  'x, y, z'
loop_
 _atom_site_type_symbol
 _atom_site_label
 _atom_site_symmetry_multiplicity
 _atom_site_fract_x
 _atom_site_fract_y
 _atom_site_fract_z
 _atom_site_occupancy
  Ta  Ta0  1  0.129266  0.462174  0.000000  1
  Ta  Ta1  1  0.962052  0.371122  0.500000  1
  Ta  Ta2  1  0.037780  0.628729  0.500000  1
  Ta  Ta3  1  0.870682  0.537867  0.000000  1
  Ta  Ta4  1  0.370722  0.962196  0.500000  1
  Ta  Ta5  1  0.629191  0.037945  0.500000  1
  Ta  Ta6  1  0.462876  0.126949  0.000000  1
  Nb  Nb7  1  0.395237  0.394422  0.000000  1
  Nb  Nb8  1  0.894853  0.105285  0.500000  1
  Nb  Nb9  1  0.105246  0.894670  0.500000  1
  Nb  Nb10  1  0.604670  0.606613  0.000000  1
  Nb  Nb11  1  0.537928  0.871070  0.000000  1
  Nb  Nb12  1  0.178722  0.178914  0.251461  1
  Nb  Nb13  1  0.678589  0.321451  0.751589  1
  Nb  Nb14  1  0.320840  0.678562  0.751549  1
  Nb  Nb15  1  0.821618  0.821243  0.251428  1
  Nb  Nb16  1  0.320840  0.678562  0.248451  1
  Nb  Nb17  1  0.678589  0.321451  0.248411  1
  Nb  Nb18  1  0.178722  0.178914  0.748539  1
  Nb  Nb19  1  0.821618  0.821243  0.748572  1
  Ir  Ir20  1  0.999875  0.000055  0.000000  1
  Ir  Ir21  1  0.499839  0.499953  0.500000  1
  Ir  Ir22  1  0.261593  0.931304  0.000000  1
  Ir  Ir23  1  0.430674  0.237167  0.500000  1
  Ir  Ir24  1  0.569362  0.762233  0.500000  1
  Ir  Ir25  1  0.738159  0.069795  0.000000  1
  Ir  Ir26  1  0.237819  0.430848  0.500000  1
  Ir  Ir27  1  0.762371  0.569079  0.500000  1
  Ir  Ir28  1  0.930880  0.262582  0.000000  1
  Ir  Ir29  1  0.069389  0.737603  0.000000  1
