# generated using pymatgen
data_Th3Al2CuNi3
_symmetry_space_group_name_H-M   'P 1'
_cell_length_a   6.90906232
_cell_length_b   6.95090362
_cell_length_c   4.09600900
_cell_angle_alpha   90.00000000
_cell_angle_beta   90.00000000
_cell_angle_gamma   120.20053980
_symmetry_Int_Tables_number   1
_chemical_formula_structural   Th3Al2CuNi3
_chemical_formula_sum   'Th3 Al2 Cu1 Ni3'
_cell_volume   170.00854423
_cell_formula_units_Z   1
loop_
 _symmetry_equiv_pos_site_id
 _symmetry_equiv_pos_as_xyz
  1  'x, y, z'
loop_
 _atom_site_type_symbol
 _atom_site_label
 _atom_site_symmetry_multiplicity
 _atom_site_fract_x
 _atom_site_fract_y
 _atom_site_fract_z
 _atom_site_occupancy
  Th  Th0  1  0.000000  0.428260  0.500000  1
  Th  Th1  1  0.593301  0.581942  0.500000  1
  Th  Th2  1  0.406699  0.988641  0.500000  1
  Al  Al3  1  0.227983  0.225761  0.000000  1
  Al  Al4  1  0.772017  0.997778  0.000000  1
  Cu  Cu5  1  0.000000  0.772345  0.000000  1
  Ni  Ni6  1  0.347519  0.664737  0.000000  1
  Ni  Ni7  1  0.652481  0.317217  0.000000  1
  Ni  Ni8  1  0.000000  0.023320  0.500000  1
