# generated using pymatgen
data_Tb15YCd2(HgIr2)2
_symmetry_space_group_name_H-M   'P 1'
_cell_length_a   9.65764035
_cell_length_b   9.65763981
_cell_length_c   9.65392400
_cell_angle_alpha   60.01271987
_cell_angle_beta   60.01272173
_cell_angle_gamma   60.09592246
_symmetry_Int_Tables_number   1
_chemical_formula_structural   Tb15YCd2(HgIr2)2
_chemical_formula_sum   'Tb15 Y1 Cd2 Hg2 Ir4'
_cell_volume   637.27716106
_cell_formula_units_Z   1
loop_
 _symmetry_equiv_pos_site_id
 _symmetry_equiv_pos_as_xyz
  1  'x, y, z'
loop_
 _atom_site_type_symbol
 _atom_site_label
 _atom_site_symmetry_multiplicity
 _atom_site_fract_x
 _atom_site_fract_y
 _atom_site_fract_z
 _atom_site_occupancy
  Tb  Tb0  1  0.349537  0.349537  0.348004  1
  Tb  Tb1  1  0.349537  0.349537  0.952924  1
  Tb  Tb2  1  0.351373  0.949110  0.349758  1
  Tb  Tb3  1  0.949110  0.351373  0.349758  1
  Tb  Tb4  1  0.809264  0.188760  0.191452  1
  Tb  Tb5  1  0.188760  0.809264  0.810524  1
  Tb  Tb6  1  0.188760  0.809264  0.191452  1
  Tb  Tb7  1  0.809264  0.188760  0.810524  1
  Tb  Tb8  1  0.189409  0.189409  0.810591  1
  Tb  Tb9  1  0.808962  0.808962  0.191038  1
  Tb  Tb10  1  0.938141  0.560869  0.562353  1
  Tb  Tb11  1  0.560869  0.938141  0.938638  1
  Tb  Tb12  1  0.560869  0.938141  0.562353  1
  Tb  Tb13  1  0.938141  0.560869  0.938638  1
  Tb  Tb14  1  0.561545  0.561545  0.938455  1
  Y  Y15  1  0.938060  0.938060  0.561940  1
  Cd  Cd16  1  0.580383  0.257767  0.580926  1
  Cd  Cd17  1  0.257767  0.580383  0.580926  1
  Hg  Hg18  1  0.584033  0.584033  0.586273  1
  Hg  Hg19  1  0.584033  0.584033  0.245662  1
  Ir  Ir20  1  0.142106  0.142106  0.140756  1
  Ir  Ir21  1  0.142106  0.142106  0.575033  1
  Ir  Ir22  1  0.142561  0.575413  0.141012  1
  Ir  Ir23  1  0.575413  0.142561  0.141012  1
