# generated using pymatgen
data_Hf3AlOs2N
_symmetry_space_group_name_H-M   'P 1'
_cell_length_a   8.48807648
_cell_length_b   8.48807583
_cell_length_c   8.48807600
_cell_angle_alpha   59.99999935
_cell_angle_beta   60.00000187
_cell_angle_gamma   60.00000323
_symmetry_Int_Tables_number   1
_chemical_formula_structural   Hf3AlOs2N
_chemical_formula_sum   'Hf12 Al4 Os8 N4'
_cell_volume   432.42700854
_cell_formula_units_Z   4
loop_
 _symmetry_equiv_pos_site_id
 _symmetry_equiv_pos_as_xyz
  1  'x, y, z'
loop_
 _atom_site_type_symbol
 _atom_site_label
 _atom_site_symmetry_multiplicity
 _atom_site_fract_x
 _atom_site_fract_y
 _atom_site_fract_z
 _atom_site_occupancy
  Hf  Hf0  1  0.807737  0.807737  0.192263  1
  Hf  Hf1  1  0.192263  0.192263  0.807737  1
  Hf  Hf2  1  0.807737  0.192263  0.807737  1
  Hf  Hf3  1  0.192263  0.807737  0.192263  1
  Hf  Hf4  1  0.192263  0.807737  0.807737  1
  Hf  Hf5  1  0.807737  0.192263  0.192263  1
  Hf  Hf6  1  0.442263  0.442263  0.057737  1
  Hf  Hf7  1  0.057737  0.057737  0.442263  1
  Hf  Hf8  1  0.442263  0.057737  0.442263  1
  Hf  Hf9  1  0.057737  0.442263  0.057737  1
  Hf  Hf10  1  0.057737  0.442263  0.442263  1
  Hf  Hf11  1  0.442263  0.057737  0.057737  1
  Al  Al12  1  0.125000  0.625000  0.625000  1
  Al  Al13  1  0.625000  0.125000  0.625000  1
  Al  Al14  1  0.625000  0.625000  0.125000  1
  Al  Al15  1  0.625000  0.625000  0.625000  1
  Os  Os16  1  0.752558  0.415813  0.415813  1
  Os  Os17  1  0.415813  0.752558  0.415813  1
  Os  Os18  1  0.415813  0.415813  0.752558  1
  Os  Os19  1  0.415813  0.415813  0.415813  1
  Os  Os20  1  0.497442  0.834187  0.834187  1
  Os  Os21  1  0.834187  0.497442  0.834187  1
  Os  Os22  1  0.834187  0.834187  0.497442  1
  Os  Os23  1  0.834187  0.834187  0.834187  1
  N  N24  1  0.625000  0.125000  0.125000  1
  N  N25  1  0.125000  0.625000  0.125000  1
  N  N26  1  0.125000  0.125000  0.625000  1
  N  N27  1  0.125000  0.125000  0.125000  1
