# generated using pymatgen
data_Sr6Mg2RuRhO12
_symmetry_space_group_name_H-M   'P 1'
_cell_length_a   6.74206628
_cell_length_b   6.74206642
_cell_length_c   6.74206549
_cell_angle_alpha   92.61030752
_cell_angle_beta   92.61029666
_cell_angle_gamma   92.61029190
_symmetry_Int_Tables_number   1
_chemical_formula_structural   Sr6Mg2RuRhO12
_chemical_formula_sum   'Sr6 Mg2 Ru1 Rh1 O12'
_cell_volume   305.47968535
_cell_formula_units_Z   1
loop_
 _symmetry_equiv_pos_site_id
 _symmetry_equiv_pos_as_xyz
  1  'x, y, z'
loop_
 _atom_site_type_symbol
 _atom_site_label
 _atom_site_symmetry_multiplicity
 _atom_site_fract_x
 _atom_site_fract_y
 _atom_site_fract_z
 _atom_site_occupancy
  Sr  Sr0  1  0.388621  0.743037  0.119462  1
  Sr  Sr1  1  0.880539  0.611378  0.256964  1
  Sr  Sr2  1  0.743037  0.119461  0.388622  1
  Sr  Sr3  1  0.256963  0.880539  0.611378  1
  Sr  Sr4  1  0.119462  0.388622  0.743037  1
  Sr  Sr5  1  0.611379  0.256963  0.880539  1
  Mg  Mg6  1  0.254933  0.254933  0.254933  1
  Mg  Mg7  1  0.745067  0.745067  0.745068  1
  Ru  Ru8  1  0.000000  0.000000  0.000000  1
  Rh  Rh9  1  0.500000  0.500000  0.500000  1
  O  O10  1  0.717925  0.912107  0.038352  1
  O  O11  1  0.961647  0.282075  0.087894  1
  O  O12  1  0.535464  0.402340  0.208077  1
  O  O13  1  0.087893  0.961647  0.282076  1
  O  O14  1  0.208077  0.535464  0.402340  1
  O  O15  1  0.597660  0.791923  0.464537  1
  O  O16  1  0.402340  0.208077  0.535464  1
  O  O17  1  0.791923  0.464536  0.597661  1
  O  O18  1  0.912107  0.038353  0.717925  1
  O  O19  1  0.464536  0.597661  0.791923  1
  O  O20  1  0.038353  0.717925  0.912107  1
  O  O21  1  0.282076  0.087893  0.961647  1
