# generated using pymatgen
data_LuTaB2SbRu5
_symmetry_space_group_name_H-M   'P 1'
_cell_length_a   9.54165467
_cell_length_b   9.54165482
_cell_length_c   3.09554500
_cell_angle_alpha   90.00000000
_cell_angle_beta   90.00000000
_cell_angle_gamma   90.98134612
_symmetry_Int_Tables_number   1
_chemical_formula_structural   LuTaB2SbRu5
_chemical_formula_sum   'Lu2 Ta2 B4 Sb2 Ru10'
_cell_volume   281.78690841
_cell_formula_units_Z   2
loop_
 _symmetry_equiv_pos_site_id
 _symmetry_equiv_pos_as_xyz
  1  'x, y, z'
loop_
 _atom_site_type_symbol
 _atom_site_label
 _atom_site_symmetry_multiplicity
 _atom_site_fract_x
 _atom_site_fract_y
 _atom_site_fract_z
 _atom_site_occupancy
  Lu  Lu0  1  0.824680  0.675320  0.000000  1
  Lu  Lu1  1  0.175320  0.324680  0.000000  1
  Ta  Ta2  1  0.325645  0.825645  0.000000  1
  Ta  Ta3  1  0.674355  0.174355  0.000000  1
  B  B4  1  0.620997  0.879003  0.000000  1
  B  B5  1  0.379003  0.120997  0.000000  1
  B  B6  1  0.121317  0.621317  0.000000  1
  B  B7  1  0.878683  0.378683  0.000000  1
  Sb  Sb8  1  0.500000  0.500000  0.000000  1
  Sb  Sb9  1  0.000000  0.000000  0.000000  1
  Ru  Ru10  1  0.558063  0.725682  0.500000  1
  Ru  Ru11  1  0.441937  0.274318  0.500000  1
  Ru  Ru12  1  0.083327  0.784275  0.500000  1
  Ru  Ru13  1  0.916673  0.215725  0.500000  1
  Ru  Ru14  1  0.284275  0.583327  0.500000  1
  Ru  Ru15  1  0.715725  0.416673  0.500000  1
  Ru  Ru16  1  0.225682  0.058063  0.500000  1
  Ru  Ru17  1  0.774318  0.941937  0.500000  1
  Ru  Ru18  1  0.500000  0.000000  0.500000  1
  Ru  Ru19  1  0.000000  0.500000  0.500000  1
