# generated using pymatgen
data_Cs3Sr(ThS3)2
_symmetry_space_group_name_H-M   'P 1'
_cell_length_a   7.39466714
_cell_length_b   7.39466644
_cell_length_c   8.18958800
_cell_angle_alpha   81.31412705
_cell_angle_beta   81.31413573
_cell_angle_gamma   119.96897349
_symmetry_Int_Tables_number   1
_chemical_formula_structural   Cs3Sr(ThS3)2
_chemical_formula_sum   'Cs3 Sr1 Th2 S6'
_cell_volume   369.84037279
_cell_formula_units_Z   1
loop_
 _symmetry_equiv_pos_site_id
 _symmetry_equiv_pos_as_xyz
  1  'x, y, z'
loop_
 _atom_site_type_symbol
 _atom_site_label
 _atom_site_symmetry_multiplicity
 _atom_site_fract_x
 _atom_site_fract_y
 _atom_site_fract_z
 _atom_site_occupancy
  Cs  Cs0  1  0.660514  0.339486  0.500000  1
  Cs  Cs1  1  0.339486  0.660514  0.500000  1
  Cs  Cs2  1  0.000000  0.000000  0.500000  1
  Sr  Sr3  1  0.500000  0.500000  0.000000  1
  Th  Th4  1  0.832569  0.167431  0.000000  1
  Th  Th5  1  0.167431  0.832569  0.000000  1
  S  S6  1  0.788848  0.788848  0.188274  1
  S  S7  1  0.211152  0.211152  0.811726  1
  S  S8  1  0.435757  0.083445  0.191602  1
  S  S9  1  0.564243  0.916555  0.808398  1
  S  S10  1  0.916555  0.564243  0.808398  1
  S  S11  1  0.083445  0.435757  0.191602  1
