# generated using pymatgen
data_NdDy5Al21Si3Os8
_symmetry_space_group_name_H-M   'P 1'
_cell_length_a   8.74550300
_cell_length_b   8.73787796
_cell_length_c   9.67177418
_cell_angle_alpha   90.01896123
_cell_angle_beta   90.00000000
_cell_angle_gamma   120.02886718
_symmetry_Int_Tables_number   1
_chemical_formula_structural   NdDy5Al21Si3Os8
_chemical_formula_sum   'Nd1 Dy5 Al21 Si3 Os8'
_cell_volume   639.88379583
_cell_formula_units_Z   1
loop_
 _symmetry_equiv_pos_site_id
 _symmetry_equiv_pos_as_xyz
  1  'x, y, z'
loop_
 _atom_site_type_symbol
 _atom_site_label
 _atom_site_symmetry_multiplicity
 _atom_site_fract_x
 _atom_site_fract_y
 _atom_site_fract_z
 _atom_site_occupancy
  Nd  Nd0  1  0.192566  0.385133  0.248071  1
  Dy  Dy1  1  0.804517  0.609034  0.752915  1
  Dy  Dy2  1  0.610384  0.805573  0.247394  1
  Dy  Dy3  1  0.391332  0.195630  0.752871  1
  Dy  Dy4  1  0.195188  0.805573  0.247394  1
  Dy  Dy5  1  0.804298  0.195630  0.752871  1
  Al  Al6  1  0.333887  0.667775  0.478489  1
  Al  Al7  1  0.164215  0.328432  0.575330  1
  Al  Al8  1  0.835157  0.670313  0.424660  1
  Al  Al9  1  0.671878  0.835967  0.573931  1
  Al  Al10  1  0.834977  0.669952  0.075682  1
  Al  Al11  1  0.330727  0.164475  0.425401  1
  Al  Al12  1  0.165497  0.330993  0.921906  1
  Al  Al13  1  0.164087  0.835967  0.573931  1
  Al  Al14  1  0.331033  0.164643  0.075110  1
  Al  Al15  1  0.833748  0.164475  0.425401  1
  Al  Al16  1  0.669353  0.834837  0.923103  1
  Al  Al17  1  0.833611  0.164643  0.075110  1
  Al  Al18  1  0.165484  0.834837  0.923103  1
  Al  Al19  1  0.563358  0.126717  0.248784  1
  Al  Al20  1  0.437002  0.874005  0.748673  1
  Al  Al21  1  0.871580  0.436786  0.248746  1
  Al  Al22  1  0.126254  0.563432  0.748782  1
  Al  Al23  1  0.565206  0.436786  0.248746  1
  Al  Al24  1  0.437179  0.563432  0.748782  1
  Al  Al25  1  0.997859  0.995719  0.248674  1
  Al  Al26  1  0.000099  0.000199  0.749329  1
  Si  Si27  1  0.334285  0.668571  0.036849  1
  Si  Si28  1  0.666895  0.333790  0.961831  1
  Si  Si29  1  0.666750  0.333500  0.539467  1
  Os  Os30  1  0.500181  0.000362  0.998350  1
  Os  Os31  1  0.999701  0.500725  0.997979  1
  Os  Os32  1  0.504492  0.008984  0.501752  1
  Os  Os33  1  0.501023  0.500725  0.997979  1
  Os  Os34  1  0.990673  0.496221  0.502416  1
  Os  Os35  1  0.505548  0.496221  0.502416  1
  Os  Os36  1  0.999968  0.999936  0.998383  1
  Os  Os37  1  0.000005  0.000010  0.499385  1
