# generated using pymatgen
data_RbMn5S3F5
_symmetry_space_group_name_H-M   'P 1'
_cell_length_a   7.03670827
_cell_length_b   7.03671845
_cell_length_c   7.03675650
_cell_angle_alpha   64.06899609
_cell_angle_beta   64.06934768
_cell_angle_gamma   64.07487323
_symmetry_Int_Tables_number   1
_chemical_formula_structural   RbMn5S3F5
_chemical_formula_sum   'Rb1 Mn5 S3 F5'
_cell_volume   268.45239289
_cell_formula_units_Z   1
loop_
 _symmetry_equiv_pos_site_id
 _symmetry_equiv_pos_as_xyz
  1  'x, y, z'
loop_
 _atom_site_type_symbol
 _atom_site_label
 _atom_site_symmetry_multiplicity
 _atom_site_fract_x
 _atom_site_fract_y
 _atom_site_fract_z
 _atom_site_occupancy
  Rb  Rb0  1  0.231394  0.231398  0.231439  1
  Mn  Mn1  1  0.995500  0.995513  0.995548  1
  Mn  Mn2  1  0.613702  0.613710  0.145459  1
  Mn  Mn3  1  0.145769  0.613582  0.613619  1
  Mn  Mn4  1  0.628194  0.628193  0.628212  1
  Mn  Mn5  1  0.613589  0.145719  0.613639  1
  S  S6  1  0.877981  0.877976  0.396638  1
  S  S7  1  0.396580  0.877990  0.877988  1
  S  S8  1  0.877990  0.396592  0.877979  1
  F  F9  1  0.398350  0.398351  0.398356  1
  F  F10  1  0.410593  0.777669  0.410592  1
  F  F11  1  0.410569  0.410571  0.777721  1
  F  F12  1  0.777662  0.410595  0.410591  1
  F  F13  1  0.872126  0.872140  0.872217  1
