# generated using pymatgen
data_Nb2B2Ru5W
_symmetry_space_group_name_H-M   'P 1'
_cell_length_a   9.54441500
_cell_length_b   9.54441500
_cell_length_c   2.95138800
_cell_angle_alpha   90.00000000
_cell_angle_beta   90.00000000
_cell_angle_gamma   90.00000000
_symmetry_Int_Tables_number   1
_chemical_formula_structural   Nb2B2Ru5W
_chemical_formula_sum   'Nb4 B4 Ru10 W2'
_cell_volume   268.85922124
_cell_formula_units_Z   2
loop_
 _symmetry_equiv_pos_site_id
 _symmetry_equiv_pos_as_xyz
  1  'x, y, z'
loop_
 _atom_site_type_symbol
 _atom_site_label
 _atom_site_symmetry_multiplicity
 _atom_site_fract_x
 _atom_site_fract_y
 _atom_site_fract_z
 _atom_site_occupancy
  Nb  Nb0  1  0.822640  0.677360  0.000000  1
  Nb  Nb1  1  0.177360  0.322640  0.000000  1
  Nb  Nb2  1  0.322640  0.822640  0.000000  1
  Nb  Nb3  1  0.677360  0.177360  0.000000  1
  B  B4  1  0.620580  0.879420  0.000000  1
  B  B5  1  0.379420  0.120580  0.000000  1
  B  B6  1  0.120580  0.620580  0.000000  1
  B  B7  1  0.879420  0.379420  0.000000  1
  Ru  Ru8  1  0.571333  0.720130  0.500000  1
  Ru  Ru9  1  0.428667  0.279870  0.500000  1
  Ru  Ru10  1  0.071333  0.779870  0.500000  1
  Ru  Ru11  1  0.928667  0.220130  0.500000  1
  Ru  Ru12  1  0.279870  0.571333  0.500000  1
  Ru  Ru13  1  0.720130  0.428667  0.500000  1
  Ru  Ru14  1  0.220130  0.071333  0.500000  1
  Ru  Ru15  1  0.779870  0.928667  0.500000  1
  Ru  Ru16  1  0.500000  0.000000  0.500000  1
  Ru  Ru17  1  0.000000  0.500000  0.500000  1
  W  W18  1  0.500000  0.500000  0.000000  1
  W  W19  1  0.000000  0.000000  0.000000  1
