# generated using pymatgen
data_Ca8Ga12Ag3Au
_symmetry_space_group_name_H-M   'P 1'
_cell_length_a   7.23778100
_cell_length_b   9.18685901
_cell_length_c   9.18685900
_cell_angle_alpha   120.00000356
_cell_angle_beta   90.00000000
_cell_angle_gamma   90.00000000
_symmetry_Int_Tables_number   1
_chemical_formula_structural   Ca8Ga12Ag3Au
_chemical_formula_sum   'Ca8 Ga12 Ag3 Au1'
_cell_volume   529.01764343
_cell_formula_units_Z   1
loop_
 _symmetry_equiv_pos_site_id
 _symmetry_equiv_pos_as_xyz
  1  'x, y, z'
loop_
 _atom_site_type_symbol
 _atom_site_label
 _atom_site_symmetry_multiplicity
 _atom_site_fract_x
 _atom_site_fract_y
 _atom_site_fract_z
 _atom_site_occupancy
  Ca  Ca0  1  0.748352  0.000000  0.000000  1
  Ca  Ca1  1  0.249934  0.000000  0.000000  1
  Ca  Ca2  1  0.749163  0.484961  0.515039  1
  Ca  Ca3  1  0.252076  0.519009  0.480991  1
  Ca  Ca4  1  0.749163  0.030079  0.515039  1
  Ca  Ca5  1  0.252076  0.961985  0.480991  1
  Ca  Ca6  1  0.749163  0.484961  0.969921  1
  Ca  Ca7  1  0.252076  0.519009  0.038015  1
  Ga  Ga8  1  0.953855  0.836353  0.163647  1
  Ga  Ga9  1  0.048639  0.163541  0.836459  1
  Ga  Ga10  1  0.953855  0.327295  0.163647  1
  Ga  Ga11  1  0.451948  0.164591  0.835409  1
  Ga  Ga12  1  0.048639  0.672917  0.836459  1
  Ga  Ga13  1  0.548267  0.834290  0.165710  1
  Ga  Ga14  1  0.953855  0.836353  0.672705  1
  Ga  Ga15  1  0.451948  0.670818  0.835409  1
  Ga  Ga16  1  0.048639  0.163541  0.327083  1
  Ga  Ga17  1  0.548267  0.331424  0.165710  1
  Ga  Ga18  1  0.451948  0.164591  0.329182  1
  Ga  Ga19  1  0.548267  0.834290  0.668576  1
  Ag  Ag20  1  0.956181  0.666667  0.333333  1
  Ag  Ag21  1  0.042985  0.333333  0.666667  1
  Ag  Ag22  1  0.457783  0.333333  0.666667  1
  Au  Au23  1  0.532924  0.666667  0.333333  1
