# generated using pymatgen
data_Er2Ga4CuPd
_symmetry_space_group_name_H-M   'P 1'
_cell_length_a   5.48554459
_cell_length_b   5.48554413
_cell_length_c   6.57036800
_cell_angle_alpha   90.00000000
_cell_angle_beta   90.00000000
_cell_angle_gamma   133.07856122
_symmetry_Int_Tables_number   1
_chemical_formula_structural   Er2Ga4CuPd
_chemical_formula_sum   'Er2 Ga4 Cu1 Pd1'
_cell_volume   144.41109453
_cell_formula_units_Z   1
loop_
 _symmetry_equiv_pos_site_id
 _symmetry_equiv_pos_as_xyz
  1  'x, y, z'
loop_
 _atom_site_type_symbol
 _atom_site_label
 _atom_site_symmetry_multiplicity
 _atom_site_fract_x
 _atom_site_fract_y
 _atom_site_fract_z
 _atom_site_occupancy
  Er  Er0  1  0.587047  0.412953  0.250000  1
  Er  Er1  1  0.413161  0.586839  0.750000  1
  Ga  Ga2  1  0.872631  0.127369  0.445704  1
  Ga  Ga3  1  0.127781  0.872219  0.548183  1
  Ga  Ga4  1  0.872631  0.127369  0.054296  1
  Ga  Ga5  1  0.127781  0.872219  0.951817  1
  Cu  Cu6  1  0.298059  0.701941  0.250000  1
  Pd  Pd7  1  0.700908  0.299092  0.750000  1
