# generated using pymatgen
data_La2Si2Hg
_symmetry_space_group_name_H-M   'P 1'
_cell_length_a   4.24124400
_cell_length_b   7.94819700
_cell_length_c   15.26587600
_cell_angle_alpha   90.00000000
_cell_angle_beta   90.00000000
_cell_angle_gamma   90.00000000
_symmetry_Int_Tables_number   1
_chemical_formula_structural   La2Si2Hg
_chemical_formula_sum   'La8 Si8 Hg4'
_cell_volume   514.61638708
_cell_formula_units_Z   4
loop_
 _symmetry_equiv_pos_site_id
 _symmetry_equiv_pos_as_xyz
  1  'x, y, z'
loop_
 _atom_site_type_symbol
 _atom_site_label
 _atom_site_symmetry_multiplicity
 _atom_site_fract_x
 _atom_site_fract_y
 _atom_site_fract_z
 _atom_site_occupancy
  La  La0  1  0.500000  0.752051  0.034067  1
  La  La1  1  0.500000  0.247949  0.965933  1
  La  La2  1  0.500000  0.252051  0.465933  1
  La  La3  1  0.500000  0.747949  0.534067  1
  La  La4  1  0.500000  0.614538  0.281829  1
  La  La5  1  0.500000  0.385462  0.718171  1
  La  La6  1  0.500000  0.114538  0.218171  1
  La  La7  1  0.500000  0.885462  0.781829  1
  Si  Si8  1  0.000000  0.545454  0.425800  1
  Si  Si9  1  0.000000  0.454546  0.574200  1
  Si  Si10  1  0.000000  0.045454  0.074200  1
  Si  Si11  1  0.000000  0.954546  0.925800  1
  Si  Si12  1  0.000000  0.827335  0.180076  1
  Si  Si13  1  0.000000  0.172665  0.819924  1
  Si  Si14  1  0.000000  0.327335  0.319924  1
  Si  Si15  1  0.000000  0.672665  0.680076  1
  Hg  Hg16  1  0.000000  0.937050  0.378002  1
  Hg  Hg17  1  0.000000  0.062950  0.621998  1
  Hg  Hg18  1  0.000000  0.437050  0.121998  1
  Hg  Hg19  1  0.000000  0.562950  0.878002  1
