# generated using pymatgen
data_Er4MgNi2Bi
_symmetry_space_group_name_H-M   'P 1'
_cell_length_a   8.68605414
_cell_length_b   8.68605423
_cell_length_c   8.68605428
_cell_angle_alpha   129.40041017
_cell_angle_beta   129.40041363
_cell_angle_gamma   74.36714496
_symmetry_Int_Tables_number   1
_chemical_formula_structural   Er4MgNi2Bi
_chemical_formula_sum   'Er8 Mg2 Ni4 Bi2'
_cell_volume   381.41781314
_cell_formula_units_Z   2
loop_
 _symmetry_equiv_pos_site_id
 _symmetry_equiv_pos_as_xyz
  1  'x, y, z'
loop_
 _atom_site_type_symbol
 _atom_site_label
 _atom_site_symmetry_multiplicity
 _atom_site_fract_x
 _atom_site_fract_y
 _atom_site_fract_z
 _atom_site_occupancy
  Er  Er0  1  0.791596  0.291596  0.832186  1
  Er  Er1  1  0.208404  0.708404  0.167814  1
  Er  Er2  1  0.459409  0.959409  0.167814  1
  Er  Er3  1  0.291596  0.459409  0.500000  1
  Er  Er4  1  0.040591  0.208404  0.500000  1
  Er  Er5  1  0.540591  0.040591  0.832186  1
  Er  Er6  1  0.708404  0.540591  0.500000  1
  Er  Er7  1  0.959409  0.791596  0.500000  1
  Mg  Mg8  1  0.000000  0.000000  0.000000  1
  Mg  Mg9  1  0.500000  0.500000  0.000000  1
  Ni  Ni10  1  0.126901  0.626901  0.753803  1
  Ni  Ni11  1  0.873099  0.373099  0.246197  1
  Ni  Ni12  1  0.626901  0.873099  0.500000  1
  Ni  Ni13  1  0.373099  0.126901  0.500000  1
  Bi  Bi14  1  0.250000  0.250000  0.000000  1
  Bi  Bi15  1  0.750000  0.750000  0.000000  1
