# generated using pymatgen
data_Sr2TbPaO6
_symmetry_space_group_name_H-M   'P 1'
_cell_length_a   6.17082300
_cell_length_b   6.03180199
_cell_length_c   10.52293609
_cell_angle_alpha   54.98633054
_cell_angle_beta   90.00000000
_cell_angle_gamma   90.00000000
_symmetry_Int_Tables_number   1
_chemical_formula_structural   Sr2TbPaO6
_chemical_formula_sum   'Sr4 Tb2 Pa2 O12'
_cell_volume   320.78869057
_cell_formula_units_Z   2
loop_
 _symmetry_equiv_pos_site_id
 _symmetry_equiv_pos_as_xyz
  1  'x, y, z'
loop_
 _atom_site_type_symbol
 _atom_site_label
 _atom_site_symmetry_multiplicity
 _atom_site_fract_x
 _atom_site_fract_y
 _atom_site_fract_z
 _atom_site_occupancy
  Sr  Sr0  1  0.456716  0.260346  0.750731  1
  Sr  Sr1  1  0.956716  0.739654  0.749269  1
  Sr  Sr2  1  0.043284  0.260346  0.250731  1
  Sr  Sr3  1  0.543284  0.739654  0.249269  1
  Tb  Tb4  1  0.500000  0.000000  0.500000  1
  Tb  Tb5  1  0.000000  0.000000  0.000000  1
  Pa  Pa6  1  0.000000  0.500000  0.500000  1
  Pa  Pa7  1  0.500000  0.500000  0.000000  1
  O  O8  1  0.196467  0.739951  0.552250  1
  O  O9  1  0.696467  0.260049  0.947750  1
  O  O10  1  0.803533  0.260049  0.447750  1
  O  O11  1  0.303533  0.739951  0.052250  1
  O  O12  1  0.709195  0.638715  0.556454  1
  O  O13  1  0.209195  0.361285  0.943546  1
  O  O14  1  0.290805  0.361285  0.443546  1
  O  O15  1  0.790805  0.638715  0.056454  1
  O  O16  1  0.039998  0.154275  0.743670  1
  O  O17  1  0.539998  0.845725  0.756330  1
  O  O18  1  0.960002  0.845725  0.256330  1
  O  O19  1  0.460002  0.154275  0.243670  1
