# generated using pymatgen
data_TbDy3B16Os3Ru
_symmetry_space_group_name_H-M   'P 1'
_cell_length_a   3.56957900
_cell_length_b   5.96852000
_cell_length_c   11.54824908
_cell_angle_alpha   89.99245181
_cell_angle_beta   90.00000496
_cell_angle_gamma   89.99997435
_symmetry_Int_Tables_number   1
_chemical_formula_structural   TbDy3B16Os3Ru
_chemical_formula_sum   'Tb1 Dy3 B16 Os3 Ru1'
_cell_volume   246.03664161
_cell_formula_units_Z   1
loop_
 _symmetry_equiv_pos_site_id
 _symmetry_equiv_pos_as_xyz
  1  'x, y, z'
loop_
 _atom_site_type_symbol
 _atom_site_label
 _atom_site_symmetry_multiplicity
 _atom_site_fract_x
 _atom_site_fract_y
 _atom_site_fract_z
 _atom_site_occupancy
  Tb  Tb0  1  0.500000  0.371756  0.650495  1
  Dy  Dy1  1  0.500000  0.128012  0.149859  1
  Dy  Dy2  1  0.500000  0.872008  0.850244  1
  Dy  Dy3  1  0.499999  0.628211  0.349513  1
  B  B4  1  0.000000  0.475467  0.191516  1
  B  B5  1  0.000000  0.524290  0.808618  1
  B  B6  1  0.000000  0.975259  0.308451  1
  B  B7  1  0.000000  0.024817  0.691635  1
  B  B8  1  0.000000  0.288764  0.313870  1
  B  B9  1  0.000000  0.711595  0.686062  1
  B  B10  1  0.000000  0.788732  0.185741  1
  B  B11  1  0.000000  0.211207  0.814537  1
  B  B12  1  0.000000  0.363644  0.469810  1
  B  B13  1  0.000000  0.636466  0.530066  1
  B  B14  1  0.000000  0.863873  0.030231  1
  B  B15  1  0.000000  0.136037  0.969501  1
  B  B16  1  0.000000  0.387693  0.046580  1
  B  B17  1  0.000000  0.612371  0.953448  1
  B  B18  1  0.999999  0.887527  0.453238  1
  B  B19  1  0.000000  0.112172  0.546680  1
  Os  Os20  1  0.499999  0.141422  0.406731  1
  Os  Os21  1  0.500001  0.858720  0.593007  1
  Os  Os22  1  0.500000  0.640458  0.093030  1
  Ru  Ru23  1  0.500000  0.359497  0.907138  1
