# generated using pymatgen
data_Te2PtO6
_symmetry_space_group_name_H-M   'P 1'
_cell_length_a   5.49173233
_cell_length_b   7.06204200
_cell_length_c   7.59111337
_cell_angle_alpha   90.00001565
_cell_angle_beta   91.83750282
_cell_angle_gamma   89.99995454
_symmetry_Int_Tables_number   1
_chemical_formula_structural   Te2PtO6
_chemical_formula_sum   'Te4 Pt2 O12'
_cell_volume   294.25358157
_cell_formula_units_Z   2
loop_
 _symmetry_equiv_pos_site_id
 _symmetry_equiv_pos_as_xyz
  1  'x, y, z'
loop_
 _atom_site_type_symbol
 _atom_site_label
 _atom_site_symmetry_multiplicity
 _atom_site_fract_x
 _atom_site_fract_y
 _atom_site_fract_z
 _atom_site_occupancy
  Te  Te0  1  0.021905  0.344625  0.206707  1
  Te  Te1  1  0.478095  0.844624  0.293293  1
  Te  Te2  1  0.521905  0.155375  0.706707  1
  Te  Te3  1  0.978096  0.655375  0.793293  1
  Pt  Pt4  1  0.500000  0.500000  0.000000  1
  Pt  Pt5  1  0.999999  0.000000  0.500001  1
  O  O6  1  0.815126  0.350394  0.992162  1
  O  O7  1  0.184874  0.649606  0.007837  1
  O  O8  1  0.306772  0.273097  0.082951  1
  O  O9  1  0.565195  0.584411  0.253006  1
  O  O10  1  0.934805  0.084411  0.246993  1
  O  O11  1  0.193230  0.773097  0.417050  1
  O  O12  1  0.315126  0.149607  0.492162  1
  O  O13  1  0.684874  0.850394  0.507838  1
  O  O14  1  0.806771  0.226904  0.582951  1
  O  O15  1  0.065195  0.915589  0.753006  1
  O  O16  1  0.434805  0.415589  0.746994  1
  O  O17  1  0.693228  0.726902  0.917049  1
