# generated using pymatgen
data_Nd8ZnGa(Si6Rh)2
_symmetry_space_group_name_H-M   'P 1'
_cell_length_a   8.25650600
_cell_length_b   8.25650691
_cell_length_c   8.51823300
_cell_angle_alpha   90.00000000
_cell_angle_beta   90.00000000
_cell_angle_gamma   119.99957291
_symmetry_Int_Tables_number   1
_chemical_formula_structural   Nd8ZnGa(Si6Rh)2
_chemical_formula_sum   'Nd8 Zn1 Ga1 Si12 Rh2'
_cell_volume   502.89192862
_cell_formula_units_Z   1
loop_
 _symmetry_equiv_pos_site_id
 _symmetry_equiv_pos_as_xyz
  1  'x, y, z'
loop_
 _atom_site_type_symbol
 _atom_site_label
 _atom_site_symmetry_multiplicity
 _atom_site_fract_x
 _atom_site_fract_y
 _atom_site_fract_z
 _atom_site_occupancy
  Nd  Nd0  1  0.999999  0.000001  0.748816  1
  Nd  Nd1  1  0.000001  0.999999  0.251684  1
  Nd  Nd2  1  0.496760  0.503240  0.749506  1
  Nd  Nd3  1  0.496762  0.993523  0.749505  1
  Nd  Nd4  1  0.006477  0.503238  0.749505  1
  Nd  Nd5  1  0.498561  0.501439  0.250337  1
  Nd  Nd6  1  0.002868  0.501433  0.250336  1
  Nd  Nd7  1  0.498567  0.997132  0.250336  1
  Zn  Zn8  1  0.666666  0.333334  0.502633  1
  Ga  Ga9  1  0.666665  0.333335  0.995241  1
  Si  Si10  1  0.838662  0.161338  0.000171  1
  Si  Si11  1  0.838662  0.677321  0.000172  1
  Si  Si12  1  0.322679  0.161338  0.000172  1
  Si  Si13  1  0.836376  0.163624  0.500998  1
  Si  Si14  1  0.836375  0.672749  0.500994  1
  Si  Si15  1  0.327251  0.163625  0.500994  1
  Si  Si16  1  0.169306  0.830694  0.499076  1
  Si  Si17  1  0.661389  0.830695  0.499077  1
  Si  Si18  1  0.169305  0.338611  0.499077  1
  Si  Si19  1  0.170418  0.829582  0.000481  1
  Si  Si20  1  0.659168  0.829584  0.000481  1
  Si  Si21  1  0.170416  0.340832  0.000481  1
  Rh  Rh22  1  0.333335  0.666665  0.497735  1
  Rh  Rh23  1  0.333337  0.666663  0.002189  1
