# generated using pymatgen
data_Y5Zr3(Co4P3)4
_symmetry_space_group_name_H-M   'P 1'
_cell_length_a   12.31927900
_cell_length_b   12.31927876
_cell_length_c   3.71913200
_cell_angle_alpha   90.00000000
_cell_angle_beta   90.00000000
_cell_angle_gamma   120.00000334
_symmetry_Int_Tables_number   1
_chemical_formula_structural   Y5Zr3(Co4P3)4
_chemical_formula_sum   'Y5 Zr3 Co16 P12'
_cell_volume   488.81304014
_cell_formula_units_Z   1
loop_
 _symmetry_equiv_pos_site_id
 _symmetry_equiv_pos_as_xyz
  1  'x, y, z'
loop_
 _atom_site_type_symbol
 _atom_site_label
 _atom_site_symmetry_multiplicity
 _atom_site_fract_x
 _atom_site_fract_y
 _atom_site_fract_z
 _atom_site_occupancy
  Y  Y0  1  0.666667  0.333333  0.000000  1
  Y  Y1  1  0.333333  0.666667  0.000000  1
  Y  Y2  1  0.817982  0.817982  0.500000  1
  Y  Y3  1  0.182018  0.000000  0.500000  1
  Y  Y4  1  0.000000  0.182018  0.500000  1
  Zr  Zr5  1  0.441450  0.441450  0.000000  1
  Zr  Zr6  1  0.558550  0.000000  0.000000  1
  Zr  Zr7  1  0.000000  0.558550  0.000000  1
  Co  Co8  1  0.875718  0.354820  0.500000  1
  Co  Co9  1  0.645180  0.520898  0.500000  1
  Co  Co10  1  0.479102  0.124282  0.500000  1
  Co  Co11  1  0.354820  0.875718  0.500000  1
  Co  Co12  1  0.520898  0.645180  0.500000  1
  Co  Co13  1  0.124282  0.479102  0.500000  1
  Co  Co14  1  0.805474  0.178327  0.000000  1
  Co  Co15  1  0.821673  0.627146  0.000000  1
  Co  Co16  1  0.372854  0.194526  0.000000  1
  Co  Co17  1  0.178327  0.805474  0.000000  1
  Co  Co18  1  0.627146  0.821673  0.000000  1
  Co  Co19  1  0.194526  0.372854  0.000000  1
  Co  Co20  1  0.277415  0.277415  0.500000  1
  Co  Co21  1  0.722585  0.000000  0.500000  1
  Co  Co22  1  0.000000  0.722585  0.500000  1
  Co  Co23  1  0.000000  0.000000  0.000000  1
  P  P24  1  0.694093  0.171815  0.500000  1
  P  P25  1  0.828185  0.522280  0.500000  1
  P  P26  1  0.477720  0.305907  0.500000  1
  P  P27  1  0.171815  0.694093  0.500000  1
  P  P28  1  0.522280  0.828185  0.500000  1
  P  P29  1  0.305907  0.477720  0.500000  1
  P  P30  1  0.178311  0.178311  0.000000  1
  P  P31  1  0.821689  0.000000  0.000000  1
  P  P32  1  0.000000  0.821689  0.000000  1
  P  P33  1  0.648649  0.648649  0.000000  1
  P  P34  1  0.351351  0.000000  0.000000  1
  P  P35  1  0.000000  0.351351  0.000000  1
