# generated using pymatgen
data_Yb3SmTc2(B8Ru)2
_symmetry_space_group_name_H-M   'P 1'
_cell_length_a   3.56578000
_cell_length_b   5.98160106
_cell_length_c   11.57114003
_cell_angle_alpha   90.01585399
_cell_angle_beta   90.00000000
_cell_angle_gamma   90.00000000
_symmetry_Int_Tables_number   1
_chemical_formula_structural   Yb3SmTc2(B8Ru)2
_chemical_formula_sum   'Yb3 Sm1 Tc2 B16 Ru2'
_cell_volume   246.80168581
_cell_formula_units_Z   1
loop_
 _symmetry_equiv_pos_site_id
 _symmetry_equiv_pos_as_xyz
  1  'x, y, z'
loop_
 _atom_site_type_symbol
 _atom_site_label
 _atom_site_symmetry_multiplicity
 _atom_site_fract_x
 _atom_site_fract_y
 _atom_site_fract_z
 _atom_site_occupancy
  Yb  Yb0  1  0.500000  0.369435  0.849716  1
  Yb  Yb1  1  0.500000  0.127996  0.349672  1
  Yb  Yb2  1  0.500000  0.871756  0.651688  1
  Sm  Sm3  1  0.500000  0.628972  0.149904  1
  Tc  Tc4  1  0.500000  0.629261  0.417350  1
  Tc  Tc5  1  0.500000  0.369605  0.583908  1
  B  B6  1  0.000000  0.976950  0.191699  1
  B  B7  1  0.000000  0.024927  0.807885  1
  B  B8  1  0.000000  0.476255  0.308975  1
  B  B9  1  0.000000  0.521766  0.692676  1
  B  B10  1  0.000000  0.787512  0.316428  1
  B  B11  1  0.000000  0.214008  0.685047  1
  B  B12  1  0.000000  0.283054  0.185185  1
  B  B13  1  0.000000  0.715257  0.813903  1
  B  B14  1  0.000000  0.866412  0.468213  1
  B  B15  1  0.000000  0.134417  0.532897  1
  B  B16  1  0.000000  0.362679  0.029441  1
  B  B17  1  0.000000  0.636893  0.967774  1
  B  B18  1  0.000000  0.890839  0.045887  1
  B  B19  1  0.000000  0.113492  0.951605  1
  B  B20  1  0.000000  0.385474  0.453180  1
  B  B21  1  0.000000  0.614631  0.547487  1
  Ru  Ru22  1  0.500000  0.137412  0.088331  1
  Ru  Ru23  1  0.500000  0.860995  0.911147  1
