# generated using pymatgen
data_HIrPb2F10
_symmetry_space_group_name_H-M   'P 1'
_cell_length_a   4.70589660
_cell_length_b   4.90526805
_cell_length_c   9.45270460
_cell_angle_alpha   85.98594173
_cell_angle_beta   77.28265271
_cell_angle_gamma   84.89917536
_symmetry_Int_Tables_number   1
_chemical_formula_structural   HIrPb2F10
_chemical_formula_sum   'H1 Ir1 Pb2 F10'
_cell_volume   211.72158703
_cell_formula_units_Z   1
loop_
 _symmetry_equiv_pos_site_id
 _symmetry_equiv_pos_as_xyz
  1  'x, y, z'
loop_
 _atom_site_type_symbol
 _atom_site_label
 _atom_site_symmetry_multiplicity
 _atom_site_fract_x
 _atom_site_fract_y
 _atom_site_fract_z
 _atom_site_occupancy
  H  H0  1  0.500000  0.500000  0.500001  1
  Ir  Ir1  1  0.999970  0.500021  0.999959  1
  Pb  Pb2  1  0.330056  0.019516  0.324608  1
  Pb  Pb3  1  0.669943  0.980485  0.675400  1
  F  F4  1  0.643112  0.718771  0.042068  1
  F  F5  1  0.823383  0.195416  0.117004  1
  F  F6  1  0.086161  0.606673  0.177713  1
  F  F7  1  0.398134  0.523549  0.399025  1
  F  F8  1  0.785514  0.990276  0.420847  1
  F  F9  1  0.214485  0.009725  0.579153  1
  F  F10  1  0.601864  0.476451  0.600975  1
  F  F11  1  0.913851  0.393341  0.822314  1
  F  F12  1  0.176610  0.804566  0.883005  1
  F  F13  1  0.356915  0.281214  0.957929  1
