# generated using pymatgen
data_Dy4Tm4Sc12Si15Au
_symmetry_space_group_name_H-M   'P 1'
_cell_length_a   7.09372082
_cell_length_b   7.35419071
_cell_length_c   14.01465739
_cell_angle_alpha   89.95056045
_cell_angle_beta   89.68873691
_cell_angle_gamma   90.23788367
_symmetry_Int_Tables_number   1
_chemical_formula_structural   Dy4Tm4Sc12Si15Au
_chemical_formula_sum   'Dy4 Tm4 Sc12 Si15 Au1'
_cell_volume   731.10733934
_cell_formula_units_Z   1
loop_
 _symmetry_equiv_pos_site_id
 _symmetry_equiv_pos_as_xyz
  1  'x, y, z'
loop_
 _atom_site_type_symbol
 _atom_site_label
 _atom_site_symmetry_multiplicity
 _atom_site_fract_x
 _atom_site_fract_y
 _atom_site_fract_z
 _atom_site_occupancy
  Dy  Dy0  1  0.012199  0.175895  0.097197  1
  Dy  Dy1  1  0.987741  0.825066  0.903871  1
  Dy  Dy2  1  0.487555  0.676677  0.904156  1
  Dy  Dy3  1  0.988471  0.827522  0.597161  1
  Tm  Tm4  1  0.512046  0.322920  0.096772  1
  Tm  Tm5  1  0.010691  0.175477  0.399586  1
  Tm  Tm6  1  0.509386  0.323922  0.401208  1
  Tm  Tm7  1  0.490977  0.676274  0.598739  1
  Sc  Sc8  1  0.163139  0.501271  0.751072  1
  Sc  Sc9  1  0.837074  0.498037  0.250892  1
  Sc  Sc10  1  0.338248  0.001175  0.249427  1
  Sc  Sc11  1  0.663752  0.996445  0.750768  1
  Sc  Sc12  1  0.338852  0.176609  0.625719  1
  Sc  Sc13  1  0.666057  0.823125  0.373358  1
  Sc  Sc14  1  0.169015  0.673090  0.372927  1
  Sc  Sc15  1  0.669783  0.824042  0.125745  1
  Sc  Sc16  1  0.828310  0.325807  0.625335  1
  Sc  Sc17  1  0.329371  0.175606  0.875706  1
  Sc  Sc18  1  0.829960  0.322864  0.875788  1
  Sc  Sc19  1  0.169278  0.676130  0.125595  1
  Si  Si20  1  0.035237  0.118417  0.750618  1
  Si  Si21  1  0.966673  0.885320  0.249636  1
  Si  Si22  1  0.466923  0.613268  0.248403  1
  Si  Si23  1  0.534954  0.386153  0.752036  1
  Si  Si24  1  0.285477  0.873059  0.750254  1
  Si  Si25  1  0.712568  0.129804  0.249454  1
  Si  Si26  1  0.215232  0.369647  0.248364  1
  Si  Si27  1  0.786396  0.627662  0.752087  1
  Si  Si28  1  0.833640  0.535484  0.459164  1
  Si  Si29  1  0.340122  0.964112  0.459877  1
  Si  Si30  1  0.842123  0.534926  0.039295  1
  Si  Si31  1  0.657824  0.036074  0.537543  1
  Si  Si32  1  0.156258  0.464346  0.961830  1
  Si  Si33  1  0.656870  0.035907  0.961563  1
  Si  Si34  1  0.343438  0.965186  0.039572  1
  Au  Au35  1  0.164359  0.462685  0.539281  1
