# generated using pymatgen
data_CeLu2(SiRh2)3
_symmetry_space_group_name_H-M   'P 1'
_cell_length_a   5.56330600
_cell_length_b   5.56330485
_cell_length_c   14.89706000
_cell_angle_alpha   90.00000000
_cell_angle_beta   90.00000000
_cell_angle_gamma   120.00000682
_symmetry_Int_Tables_number   1
_chemical_formula_structural   CeLu2(SiRh2)3
_chemical_formula_sum   'Ce2 Lu4 Si6 Rh12'
_cell_volume   399.29785356
_cell_formula_units_Z   2
loop_
 _symmetry_equiv_pos_site_id
 _symmetry_equiv_pos_as_xyz
  1  'x, y, z'
loop_
 _atom_site_type_symbol
 _atom_site_label
 _atom_site_symmetry_multiplicity
 _atom_site_fract_x
 _atom_site_fract_y
 _atom_site_fract_z
 _atom_site_occupancy
  Ce  Ce0  1  0.666667  0.333333  0.250000  1
  Ce  Ce1  1  0.333334  0.666667  0.750000  1
  Lu  Lu2  1  0.666667  0.333333  0.035429  1
  Lu  Lu3  1  0.666667  0.333333  0.464571  1
  Lu  Lu4  1  0.333334  0.666667  0.535429  1
  Lu  Lu5  1  0.333334  0.666667  0.964571  1
  Si  Si6  1  0.000000  0.000000  0.000000  1
  Si  Si7  1  0.000000  0.000000  0.250000  1
  Si  Si8  1  0.333334  0.666667  0.250000  1
  Si  Si9  1  0.000000  0.000000  0.500000  1
  Si  Si10  1  0.000000  0.000000  0.750000  1
  Si  Si11  1  0.666667  0.333333  0.750000  1
  Rh  Rh12  1  0.166567  0.333135  0.128858  1
  Rh  Rh13  1  0.166568  0.833433  0.128858  1
  Rh  Rh14  1  0.666864  0.833433  0.128858  1
  Rh  Rh15  1  0.166567  0.333135  0.371142  1
  Rh  Rh16  1  0.166568  0.833433  0.371142  1
  Rh  Rh17  1  0.666864  0.833433  0.371142  1
  Rh  Rh18  1  0.333135  0.166567  0.628858  1
  Rh  Rh19  1  0.833432  0.166567  0.628858  1
  Rh  Rh20  1  0.833433  0.666865  0.628858  1
  Rh  Rh21  1  0.333135  0.166567  0.871142  1
  Rh  Rh22  1  0.833432  0.166567  0.871142  1
  Rh  Rh23  1  0.833433  0.666865  0.871142  1
