# generated using pymatgen
data_TcPb3Cl2O5
_symmetry_space_group_name_H-M   'P 1'
_cell_length_a   7.35673236
_cell_length_b   7.35673178
_cell_length_c   11.09163100
_cell_angle_alpha   90.00000000
_cell_angle_beta   90.00000000
_cell_angle_gamma   134.79685276
_symmetry_Int_Tables_number   1
_chemical_formula_structural   TcPb3Cl2O5
_chemical_formula_sum   'Tc2 Pb6 Cl4 O10'
_cell_volume   425.97555392
_cell_formula_units_Z   2
loop_
 _symmetry_equiv_pos_site_id
 _symmetry_equiv_pos_as_xyz
  1  'x, y, z'
loop_
 _atom_site_type_symbol
 _atom_site_label
 _atom_site_symmetry_multiplicity
 _atom_site_fract_x
 _atom_site_fract_y
 _atom_site_fract_z
 _atom_site_occupancy
  Tc  Tc0  1  0.768185  0.231815  0.250000  1
  Tc  Tc1  1  0.231815  0.768185  0.750000  1
  Pb  Pb2  1  0.893207  0.106793  0.750000  1
  Pb  Pb3  1  0.652485  0.347515  0.530043  1
  Pb  Pb4  1  0.347515  0.652485  0.469957  1
  Pb  Pb5  1  0.652485  0.347515  0.969957  1
  Pb  Pb6  1  0.347515  0.652485  0.030043  1
  Pb  Pb7  1  0.106793  0.893207  0.250000  1
  Cl  Cl8  1  0.521268  0.478732  0.250000  1
  Cl  Cl9  1  0.478732  0.521268  0.750000  1
  Cl  Cl10  1  0.000000  0.000000  0.500000  1
  Cl  Cl11  1  0.000000  0.000000  0.000000  1
  O  O12  1  0.107377  0.892623  0.750000  1
  O  O13  1  0.041715  0.496678  0.630893  1
  O  O14  1  0.496678  0.041715  0.369107  1
  O  O15  1  0.503322  0.958285  0.630893  1
  O  O16  1  0.958285  0.503322  0.369107  1
  O  O17  1  0.892623  0.107377  0.250000  1
  O  O18  1  0.041715  0.496678  0.869107  1
  O  O19  1  0.503322  0.958285  0.869107  1
  O  O20  1  0.958285  0.503322  0.130893  1
  O  O21  1  0.496678  0.041715  0.130893  1
