# generated using pymatgen
data_Ta6BeB3Ru10
_symmetry_space_group_name_H-M   'P 1'
_cell_length_a   9.44727088
_cell_length_b   9.44730288
_cell_length_c   3.04590300
_cell_angle_alpha   90.00000000
_cell_angle_beta   90.00000000
_cell_angle_gamma   90.18170108
_symmetry_Int_Tables_number   1
_chemical_formula_structural   Ta6BeB3Ru10
_chemical_formula_sum   'Ta6 Be1 B3 Ru10'
_cell_volume   271.84922015
_cell_formula_units_Z   1
loop_
 _symmetry_equiv_pos_site_id
 _symmetry_equiv_pos_as_xyz
  1  'x, y, z'
loop_
 _atom_site_type_symbol
 _atom_site_label
 _atom_site_symmetry_multiplicity
 _atom_site_fract_x
 _atom_site_fract_y
 _atom_site_fract_z
 _atom_site_occupancy
  Ta  Ta0  1  0.823589  0.676411  0.000000  1
  Ta  Ta1  1  0.176248  0.323753  0.000000  1
  Ta  Ta2  1  0.325062  0.824311  0.000000  1
  Ta  Ta3  1  0.675689  0.174938  0.000000  1
  Ta  Ta4  1  0.500535  0.501293  0.000000  1
  Ta  Ta5  1  0.998706  0.999466  0.000000  1
  Be  Be6  1  0.621083  0.878917  0.000000  1
  B  B7  1  0.379696  0.120304  0.000000  1
  B  B8  1  0.121503  0.621528  0.000000  1
  B  B9  1  0.878472  0.378498  0.000000  1
  Ru  Ru10  1  0.569449  0.712599  0.500000  1
  Ru  Ru11  1  0.427435  0.282957  0.500000  1
  Ru  Ru12  1  0.072662  0.781412  0.500000  1
  Ru  Ru13  1  0.929420  0.219011  0.500000  1
  Ru  Ru14  1  0.280990  0.570579  0.500000  1
  Ru  Ru15  1  0.718589  0.427339  0.500000  1
  Ru  Ru16  1  0.217044  0.072562  0.500000  1
  Ru  Ru17  1  0.787401  0.930550  0.500000  1
  Ru  Ru18  1  0.496753  0.003249  0.500000  1
  Ru  Ru19  1  0.999676  0.500324  0.500000  1
