# generated using pymatgen
data_U4Tc10B3IrRu
_symmetry_space_group_name_H-M   'P 1'
_cell_length_a   4.16695000
_cell_length_b   4.20329800
_cell_length_c   16.43621400
_cell_angle_alpha   90.00000000
_cell_angle_beta   90.00000000
_cell_angle_gamma   90.00000000
_symmetry_Int_Tables_number   1
_chemical_formula_structural   U4Tc10B3IrRu
_chemical_formula_sum   'U4 Tc10 B3 Ir1 Ru1'
_cell_volume   287.87918043
_cell_formula_units_Z   1
loop_
 _symmetry_equiv_pos_site_id
 _symmetry_equiv_pos_as_xyz
  1  'x, y, z'
loop_
 _atom_site_type_symbol
 _atom_site_label
 _atom_site_symmetry_multiplicity
 _atom_site_fract_x
 _atom_site_fract_y
 _atom_site_fract_z
 _atom_site_occupancy
  U  U0  1  0.000000  0.000000  0.882334  1
  U  U1  1  0.000000  0.000000  0.119237  1
  U  U2  1  0.000000  0.000000  0.371450  1
  U  U3  1  0.000000  0.000000  0.626809  1
  Tc  Tc4  1  0.500000  0.500000  0.886183  1
  Tc  Tc5  1  0.500000  0.500000  0.113419  1
  Tc  Tc6  1  0.500000  0.500000  0.371233  1
  Tc  Tc7  1  0.500000  0.500000  0.628862  1
  Tc  Tc8  1  0.500000  0.000000  0.999538  1
  Tc  Tc9  1  0.500000  0.000000  0.244825  1
  Tc  Tc10  1  0.500000  0.000000  0.500645  1
  Tc  Tc11  1  0.500000  0.000000  0.755005  1
  Tc  Tc12  1  0.000000  0.500000  0.245460  1
  Tc  Tc13  1  0.000000  0.500000  0.500882  1
  B  B14  1  0.500000  0.500000  0.240257  1
  B  B15  1  0.500000  0.500000  0.499677  1
  B  B16  1  0.500000  0.500000  0.759598  1
  Ir  Ir17  1  0.000000  0.500000  0.999674  1
  Ru  Ru18  1  0.000000  0.500000  0.754908  1
