# generated using pymatgen
data_Pr2B2Ir5
_symmetry_space_group_name_H-M   'P 1'
_cell_length_a   5.55872105
_cell_length_b   5.55872020
_cell_length_c   11.17089085
_cell_angle_alpha   90.00000095
_cell_angle_beta   75.59326099
_cell_angle_gamma   120.00000541
_symmetry_Int_Tables_number   1
_chemical_formula_structural   Pr2B2Ir5
_chemical_formula_sum   'Pr4 B4 Ir10'
_cell_volume   286.32693576
_cell_formula_units_Z   2
loop_
 _symmetry_equiv_pos_site_id
 _symmetry_equiv_pos_as_xyz
  1  'x, y, z'
loop_
 _atom_site_type_symbol
 _atom_site_label
 _atom_site_symmetry_multiplicity
 _atom_site_fract_x
 _atom_site_fract_y
 _atom_site_fract_z
 _atom_site_occupancy
  Pr  Pr0  1  0.900225  0.950113  0.149664  1
  Pr  Pr1  1  0.696816  0.848408  0.454777  1
  Pr  Pr2  1  0.303185  0.151593  0.545222  1
  Pr  Pr3  1  0.099776  0.049888  0.850337  1
  B  B4  1  0.236419  0.618209  0.145373  1
  B  B5  1  0.567457  0.283729  0.148816  1
  B  B6  1  0.432544  0.716272  0.851184  1
  B  B7  1  0.763582  0.381792  0.854628  1
  Ir  Ir8  1  0.500000  0.500000  0.000000  1
  Ir  Ir9  1  0.000000  0.500002  0.000000  1
  Ir  Ir10  1  0.816595  0.408297  0.285460  1
  Ir  Ir11  1  0.306243  0.408298  0.285460  1
  Ir  Ir12  1  0.306244  0.897946  0.285460  1
  Ir  Ir13  1  0.000001  0.500000  0.500000  1
  Ir  Ir14  1  0.693758  0.102054  0.714541  1
  Ir  Ir15  1  0.693758  0.591703  0.714541  1
  Ir  Ir16  1  0.183406  0.591704  0.714541  1
  Ir  Ir17  1  0.500002  0.000000  0.000000  1
