# generated using pymatgen
data_Ti4Mn7Re2
_symmetry_space_group_name_H-M   'P 1'
_cell_length_a   9.16346358
_cell_length_b   9.16346476
_cell_length_c   9.16346495
_cell_angle_alpha   30.01670601
_cell_angle_beta   30.01670476
_cell_angle_gamma   30.01670086
_symmetry_Int_Tables_number   1
_chemical_formula_structural   Ti4Mn7Re2
_chemical_formula_sum   'Ti4 Mn7 Re2'
_cell_volume   170.56705373
_cell_formula_units_Z   1
loop_
 _symmetry_equiv_pos_site_id
 _symmetry_equiv_pos_as_xyz
  1  'x, y, z'
loop_
 _atom_site_type_symbol
 _atom_site_label
 _atom_site_symmetry_multiplicity
 _atom_site_fract_x
 _atom_site_fract_y
 _atom_site_fract_z
 _atom_site_occupancy
  Ti  Ti0  1  0.166167  0.166167  0.166167  1
  Ti  Ti1  1  0.833833  0.833833  0.833833  1
  Ti  Ti2  1  0.348215  0.348215  0.348215  1
  Ti  Ti3  1  0.651785  0.651785  0.651785  1
  Mn  Mn4  1  0.000000  0.000000  0.000000  1
  Mn  Mn5  1  0.587677  0.093008  0.093008  1
  Mn  Mn6  1  0.093008  0.093008  0.587677  1
  Mn  Mn7  1  0.093008  0.587677  0.093008  1
  Mn  Mn8  1  0.906992  0.412323  0.906992  1
  Mn  Mn9  1  0.412323  0.906992  0.906992  1
  Mn  Mn10  1  0.906992  0.906992  0.412323  1
  Re  Re11  1  0.452825  0.452825  0.452825  1
  Re  Re12  1  0.547175  0.547175  0.547175  1
