# generated using pymatgen
data_PrTh2Sn3Ir2Ru
_symmetry_space_group_name_H-M   'P 1'
_cell_length_a   7.60023878
_cell_length_b   7.60023909
_cell_length_c   4.14282100
_cell_angle_alpha   90.00000000
_cell_angle_beta   90.00000000
_cell_angle_gamma   120.56162436
_symmetry_Int_Tables_number   1
_chemical_formula_structural   PrTh2Sn3Ir2Ru
_chemical_formula_sum   'Pr1 Th2 Sn3 Ir2 Ru1'
_cell_volume   206.06088719
_cell_formula_units_Z   1
loop_
 _symmetry_equiv_pos_site_id
 _symmetry_equiv_pos_as_xyz
  1  'x, y, z'
loop_
 _atom_site_type_symbol
 _atom_site_label
 _atom_site_symmetry_multiplicity
 _atom_site_fract_x
 _atom_site_fract_y
 _atom_site_fract_z
 _atom_site_occupancy
  Pr  Pr0  1  0.410718  0.410718  0.000000  1
  Th  Th1  1  0.588955  0.001788  0.000000  1
  Th  Th2  1  0.001788  0.588955  0.000000  1
  Sn  Sn3  1  0.248688  0.007939  0.500000  1
  Sn  Sn4  1  0.007939  0.248688  0.500000  1
  Sn  Sn5  1  0.743443  0.743443  0.500000  1
  Ir  Ir6  1  0.330238  0.682901  0.500000  1
  Ir  Ir7  1  0.682901  0.330238  0.500000  1
  Ru  Ru8  1  0.985328  0.985328  0.000000  1
