# generated using pymatgen
data_Dy3Ho3TaCo17P12
_symmetry_space_group_name_H-M   'P 1'
_cell_length_a   3.70370400
_cell_length_b   10.57748102
_cell_length_c   12.27356302
_cell_angle_alpha   89.99294917
_cell_angle_beta   90.00000000
_cell_angle_gamma   90.00000000
_symmetry_Int_Tables_number   1
_chemical_formula_structural   Dy3Ho3TaCo17P12
_chemical_formula_sum   'Dy3 Ho3 Ta1 Co17 P12'
_cell_volume   480.82736789
_cell_formula_units_Z   1
loop_
 _symmetry_equiv_pos_site_id
 _symmetry_equiv_pos_as_xyz
  1  'x, y, z'
loop_
 _atom_site_type_symbol
 _atom_site_label
 _atom_site_symmetry_multiplicity
 _atom_site_fract_x
 _atom_site_fract_y
 _atom_site_fract_z
 _atom_site_occupancy
  Dy  Dy0  1  0.000000  0.500039  0.526770  1
  Dy  Dy1  1  0.500000  0.999968  0.477636  1
  Dy  Dy2  1  0.000000  0.317226  0.796145  1
  Ho  Ho3  1  0.500000  0.819887  0.207042  1
  Ho  Ho4  1  0.500000  0.180095  0.206997  1
  Ho  Ho5  1  0.000000  0.682859  0.796217  1
  Ta  Ta6  1  0.500000  0.500038  0.154262  1
  Co  Co7  1  0.000000  0.999980  0.838700  1
  Co  Co8  1  0.500000  0.500304  0.702146  1
  Co  Co9  1  0.000000  0.999970  0.296350  1
  Co  Co10  1  0.000000  0.500155  0.985387  1
  Co  Co11  1  0.500000  0.999877  0.014312  1
  Co  Co12  1  0.500000  0.330238  0.990262  1
  Co  Co13  1  0.500000  0.669922  0.990074  1
  Co  Co14  1  0.000000  0.163724  0.004186  1
  Co  Co15  1  0.000000  0.836106  0.004068  1
  Co  Co16  1  0.500000  0.295176  0.432335  1
  Co  Co17  1  0.500000  0.704858  0.432467  1
  Co  Co18  1  0.000000  0.202531  0.569587  1
  Co  Co19  1  0.000000  0.797423  0.569799  1
  Co  Co20  1  0.500000  0.879529  0.708560  1
  Co  Co21  1  0.500000  0.120180  0.708379  1
  Co  Co22  1  0.000000  0.622543  0.293054  1
  Co  Co23  1  0.000000  0.377429  0.292981  1
  P  P24  1  0.500000  0.500283  0.880691  1
  P  P25  1  0.000000  0.999957  0.117130  1
  P  P26  1  0.500000  0.500001  0.356005  1
  P  P27  1  0.000000  0.000004  0.656056  1
  P  P28  1  0.500000  0.309633  0.617003  1
  P  P29  1  0.500000  0.690370  0.617385  1
  P  P30  1  0.000000  0.188516  0.385356  1
  P  P31  1  0.000000  0.811441  0.385439  1
  P  P32  1  0.500000  0.851082  0.890181  1
  P  P33  1  0.500000  0.148607  0.890387  1
  P  P34  1  0.000000  0.661370  0.103349  1
  P  P35  1  0.000000  0.338678  0.103301  1
