# generated using pymatgen
data_YHo(TmPd5)3
_symmetry_space_group_name_H-M   'P 1'
_cell_length_a   4.10937900
_cell_length_b   4.10937900
_cell_length_c   20.67713200
_cell_angle_alpha   90.00000000
_cell_angle_beta   90.00000000
_cell_angle_gamma   90.00000000
_symmetry_Int_Tables_number   1
_chemical_formula_structural   YHo(TmPd5)3
_chemical_formula_sum   'Y1 Ho1 Tm3 Pd15'
_cell_volume   349.17464053
_cell_formula_units_Z   1
loop_
 _symmetry_equiv_pos_site_id
 _symmetry_equiv_pos_as_xyz
  1  'x, y, z'
loop_
 _atom_site_type_symbol
 _atom_site_label
 _atom_site_symmetry_multiplicity
 _atom_site_fract_x
 _atom_site_fract_y
 _atom_site_fract_z
 _atom_site_occupancy
  Y  Y0  1  0.000000  0.000000  0.800022  1
  Ho  Ho1  1  0.000000  0.000000  0.000796  1
  Tm  Tm2  1  0.000000  0.000000  0.199776  1
  Tm  Tm3  1  0.000000  0.000000  0.399897  1
  Tm  Tm4  1  0.000000  0.000000  0.599471  1
  Pd  Pd5  1  0.500000  0.500000  0.000175  1
  Pd  Pd6  1  0.500000  0.500000  0.199536  1
  Pd  Pd7  1  0.500000  0.500000  0.399733  1
  Pd  Pd8  1  0.500000  0.500000  0.600003  1
  Pd  Pd9  1  0.500000  0.500000  0.800580  1
  Pd  Pd10  1  0.500000  0.000000  0.100160  1
  Pd  Pd11  1  0.500000  0.000000  0.299652  1
  Pd  Pd12  1  0.500000  0.000000  0.499909  1
  Pd  Pd13  1  0.500000  0.000000  0.699120  1
  Pd  Pd14  1  0.500000  0.000000  0.901163  1
  Pd  Pd15  1  0.000000  0.500000  0.100160  1
  Pd  Pd16  1  0.000000  0.500000  0.299652  1
  Pd  Pd17  1  0.000000  0.500000  0.499909  1
  Pd  Pd18  1  0.000000  0.500000  0.699120  1
  Pd  Pd19  1  0.000000  0.500000  0.901163  1
