# generated using pymatgen
data_Yb2Pr(BPt2)3
_symmetry_space_group_name_H-M   'P 1'
_cell_length_a   5.50169852
_cell_length_b   5.48947492
_cell_length_c   7.66404500
_cell_angle_alpha   90.00000000
_cell_angle_beta   90.00000000
_cell_angle_gamma   119.92652227
_symmetry_Int_Tables_number   1
_chemical_formula_structural   Yb2Pr(BPt2)3
_chemical_formula_sum   'Yb2 Pr1 B3 Pt6'
_cell_volume   200.60296690
_cell_formula_units_Z   1
loop_
 _symmetry_equiv_pos_site_id
 _symmetry_equiv_pos_as_xyz
  1  'x, y, z'
loop_
 _atom_site_type_symbol
 _atom_site_label
 _atom_site_symmetry_multiplicity
 _atom_site_fract_x
 _atom_site_fract_y
 _atom_site_fract_z
 _atom_site_occupancy
  Yb  Yb0  1  0.500000  0.500000  0.828628  1
  Yb  Yb1  1  0.500000  0.000000  0.504705  1
  Pr  Pr2  1  0.000000  0.500000  0.166667  1
  B  B3  1  0.500000  0.500000  0.339585  1
  B  B4  1  0.500000  0.000000  0.993748  1
  B  B5  1  0.000000  0.500000  0.666667  1
  Pt  Pt6  1  0.147274  0.854794  0.830602  1
  Pt  Pt7  1  0.147274  0.292480  0.502731  1
  Pt  Pt8  1  0.693857  0.846928  0.166667  1
  Pt  Pt9  1  0.852726  0.145206  0.830602  1
  Pt  Pt10  1  0.852726  0.707520  0.502731  1
  Pt  Pt11  1  0.306143  0.153072  0.166667  1
