# generated using pymatgen
data_LaPrDy6(WO6)4
_symmetry_space_group_name_H-M   'P 1'
_cell_length_a   5.46469500
_cell_length_b   7.79295842
_cell_length_c   11.59044715
_cell_angle_alpha   75.59211254
_cell_angle_beta   90.00000000
_cell_angle_gamma   90.00000000
_symmetry_Int_Tables_number   1
_chemical_formula_structural   LaPrDy6(WO6)4
_chemical_formula_sum   'La1 Pr1 Dy6 W4 O24'
_cell_volume   478.06839937
_cell_formula_units_Z   1
loop_
 _symmetry_equiv_pos_site_id
 _symmetry_equiv_pos_as_xyz
  1  'x, y, z'
loop_
 _atom_site_type_symbol
 _atom_site_label
 _atom_site_symmetry_multiplicity
 _atom_site_fract_x
 _atom_site_fract_y
 _atom_site_fract_z
 _atom_site_occupancy
  La  La0  1  0.686133  0.500000  0.750000  1
  Pr  Pr1  1  0.314587  0.500000  0.250000  1
  Dy  Dy2  1  0.740986  0.000000  0.750000  1
  Dy  Dy3  1  0.259057  0.000000  0.250000  1
  Dy  Dy4  1  0.187402  0.798596  0.576229  1
  Dy  Dy5  1  0.812772  0.797886  0.076723  1
  Dy  Dy6  1  0.187402  0.201404  0.923771  1
  Dy  Dy7  1  0.812772  0.202114  0.423277  1
  W  W8  1  0.252660  0.728423  0.884564  1
  W  W9  1  0.747277  0.728121  0.383998  1
  W  W10  1  0.252660  0.271577  0.615436  1
  W  W11  1  0.747277  0.271879  0.116002  1
  O  O12  1  0.040776  0.941128  0.896111  1
  O  O13  1  0.531211  0.846875  0.930650  1
  O  O14  1  0.958883  0.941385  0.395652  1
  O  O15  1  0.454221  0.795397  0.727916  1
  O  O16  1  0.469322  0.846903  0.430520  1
  O  O17  1  0.987581  0.721025  0.769590  1
  O  O18  1  0.544584  0.794608  0.227646  1
  O  O19  1  0.856825  0.642546  0.544081  1
  O  O20  1  0.346446  0.494298  0.888118  1
  O  O21  1  0.013293  0.719694  0.269767  1
  O  O22  1  0.346446  0.505702  0.611882  1
  O  O23  1  0.856825  0.357454  0.955919  1
  O  O24  1  0.144627  0.642447  0.045356  1
  O  O25  1  0.651737  0.494186  0.387641  1
  O  O26  1  0.987581  0.278975  0.730410  1
  O  O27  1  0.651737  0.505814  0.112359  1
  O  O28  1  0.144627  0.357553  0.454644  1
  O  O29  1  0.454221  0.204603  0.772084  1
  O  O30  1  0.013293  0.280306  0.230233  1
  O  O31  1  0.531211  0.153125  0.569350  1
  O  O32  1  0.544584  0.205392  0.272354  1
  O  O33  1  0.040776  0.058872  0.603889  1
  O  O34  1  0.469322  0.153097  0.069480  1
  O  O35  1  0.958883  0.058615  0.104348  1
