# generated using pymatgen
data_La4Ge8PdAu7
_symmetry_space_group_name_H-M   'P 1'
_cell_length_a   4.52218902
_cell_length_b   9.06033595
_cell_length_c   10.39251418
_cell_angle_alpha   89.78119408
_cell_angle_beta   89.99212065
_cell_angle_gamma   90.00077482
_symmetry_Int_Tables_number   1
_chemical_formula_structural   La4Ge8PdAu7
_chemical_formula_sum   'La4 Ge8 Pd1 Au7'
_cell_volume   425.80471580
_cell_formula_units_Z   1
loop_
 _symmetry_equiv_pos_site_id
 _symmetry_equiv_pos_as_xyz
  1  'x, y, z'
loop_
 _atom_site_type_symbol
 _atom_site_label
 _atom_site_symmetry_multiplicity
 _atom_site_fract_x
 _atom_site_fract_y
 _atom_site_fract_z
 _atom_site_occupancy
  La  La0  1  0.254216  0.872032  0.246726  1
  La  La1  1  0.752415  0.625491  0.756700  1
  La  La2  1  0.247574  0.375838  0.246748  1
  La  La3  1  0.746874  0.126016  0.752735  1
  Ge  Ge4  1  0.250140  0.123613  0.000765  1
  Ge  Ge5  1  0.763008  0.619831  0.357726  1
  Ge  Ge6  1  0.730163  0.118896  0.372079  1
  Ge  Ge7  1  0.252267  0.624043  0.005768  1
  Ge  Ge8  1  0.232356  0.382192  0.631044  1
  Ge  Ge9  1  0.749361  0.381073  0.004608  1
  Ge  Ge10  1  0.270686  0.879902  0.630440  1
  Ge  Ge11  1  0.750701  0.871082  0.004040  1
  Pd  Pd12  1  0.752038  0.625929  0.118702  1
  Au  Au13  1  0.264416  0.630198  0.496763  1
  Au  Au14  1  0.751271  0.125679  0.127988  1
  Au  Au15  1  0.229648  0.131047  0.502220  1
  Au  Au16  1  0.770838  0.864396  0.499451  1
  Au  Au17  1  0.250240  0.373831  0.873639  1
  Au  Au18  1  0.249336  0.874158  0.873039  1
  Au  Au19  1  0.732453  0.374754  0.498819  1
