# generated using pymatgen
data_Mn2TcW3Cl20
_symmetry_space_group_name_H-M   'P 1'
_cell_length_a   9.06865796
_cell_length_b   9.06865676
_cell_length_c   12.94105449
_cell_angle_alpha   86.99336480
_cell_angle_beta   86.99336390
_cell_angle_gamma   138.94452372
_symmetry_Int_Tables_number   1
_chemical_formula_structural   Mn2TcW3Cl20
_chemical_formula_sum   'Mn2 Tc1 W3 Cl20'
_cell_volume   691.14346533
_cell_formula_units_Z   1
loop_
 _symmetry_equiv_pos_site_id
 _symmetry_equiv_pos_as_xyz
  1  'x, y, z'
loop_
 _atom_site_type_symbol
 _atom_site_label
 _atom_site_symmetry_multiplicity
 _atom_site_fract_x
 _atom_site_fract_y
 _atom_site_fract_z
 _atom_site_occupancy
  Mn  Mn0  1  0.049480  0.950520  0.750000  1
  Mn  Mn1  1  0.944013  0.055987  0.250000  1
  Tc  Tc2  1  0.431633  0.568367  0.750000  1
  W  W3  1  0.570650  0.429350  0.250000  1
  W  W4  1  0.271788  0.728212  0.750000  1
  W  W5  1  0.727985  0.272015  0.250000  1
  Cl  Cl6  1  0.777791  0.479141  0.379467  1
  Cl  Cl7  1  0.520859  0.222209  0.120533  1
  Cl  Cl8  1  0.221763  0.522308  0.623114  1
  Cl  Cl9  1  0.477692  0.778237  0.876886  1
  Cl  Cl10  1  0.891954  0.780369  0.144604  1
  Cl  Cl11  1  0.219631  0.108046  0.355396  1
  Cl  Cl12  1  0.106676  0.213945  0.855555  1
  Cl  Cl13  1  0.786055  0.893324  0.644445  1
  Cl  Cl14  1  0.073081  0.588170  0.151192  1
  Cl  Cl15  1  0.411830  0.926919  0.348808  1
  Cl  Cl16  1  0.929625  0.412402  0.848193  1
  Cl  Cl17  1  0.587598  0.070375  0.651807  1
  Cl  Cl18  1  0.598406  0.668656  0.353273  1
  Cl  Cl19  1  0.331344  0.401594  0.146727  1
  Cl  Cl20  1  0.404146  0.333609  0.646838  1
  Cl  Cl21  1  0.666391  0.595854  0.853163  1
  Cl  Cl22  1  0.944867  0.270746  0.359783  1
  Cl  Cl23  1  0.729254  0.055133  0.140217  1
  Cl  Cl24  1  0.056844  0.731357  0.642013  1
  Cl  Cl25  1  0.268643  0.943156  0.857987  1
