# generated using pymatgen
data_Bi10Ru(SeO12)2
_symmetry_space_group_name_H-M   'P 1'
_cell_length_a   12.36443414
_cell_length_b   12.21568066
_cell_length_c   8.68098810
_cell_angle_alpha   84.34393848
_cell_angle_beta   84.10147988
_cell_angle_gamma   27.06268115
_symmetry_Int_Tables_number   1
_chemical_formula_structural   Bi10Ru(SeO12)2
_chemical_formula_sum   'Bi10 Ru1 Se2 O24'
_cell_volume   593.30905267
_cell_formula_units_Z   1
loop_
 _symmetry_equiv_pos_site_id
 _symmetry_equiv_pos_as_xyz
  1  'x, y, z'
loop_
 _atom_site_type_symbol
 _atom_site_label
 _atom_site_symmetry_multiplicity
 _atom_site_fract_x
 _atom_site_fract_y
 _atom_site_fract_z
 _atom_site_occupancy
  Bi  Bi0  1  0.456514  0.468895  0.318780  1
  Bi  Bi1  1  0.607779  0.783068  0.456124  1
  Bi  Bi2  1  0.526826  0.547518  0.673981  1
  Bi  Bi3  1  0.214253  0.268628  0.187888  1
  Bi  Bi4  1  0.074050  0.083424  0.408083  1
  Bi  Bi5  1  0.212615  0.399361  0.563636  1
  Bi  Bi6  1  0.122776  0.176042  0.756369  1
  Bi  Bi7  1  0.916811  0.936870  0.585697  1
  Bi  Bi8  1  0.827845  0.874681  0.249693  1
  Bi  Bi9  1  0.710953  0.820362  0.820405  1
  Ru  Ru10  1  0.292795  0.460602  0.931383  1
  Se  Se11  1  0.000887  0.985829  0.988936  1
  Se  Se12  1  0.595366  0.666241  0.080196  1
  O  O13  1  0.880978  0.776996  0.647109  1
  O  O14  1  0.400755  0.939802  0.013642  1
  O  O15  1  0.243493  0.108967  0.360385  1
  O  O16  1  0.206055  0.889126  0.906572  1
  O  O17  1  0.714018  0.292323  0.488935  1
  O  O18  1  0.012693  0.543387  0.351693  1
  O  O19  1  0.236195  0.770712  0.497874  1
  O  O20  1  0.880204  0.136087  0.151501  1
  O  O21  1  0.724356  0.497573  0.927346  1
  O  O22  1  0.495645  0.274841  0.086939  1
  O  O23  1  0.409584  0.233938  0.834428  1
  O  O24  1  0.304071  0.544758  0.758489  1
  O  O25  1  0.642505  0.148219  0.411882  1
  O  O26  1  0.802471  0.546288  0.173566  1
  O  O27  1  0.466443  0.690823  0.212243  1
  O  O28  1  0.867235  0.342600  0.598375  1
  O  O29  1  0.135646  0.742331  0.053419  1
  O  O30  1  0.358365  0.861907  0.583098  1
  O  O31  1  0.969158  0.482571  0.694563  1
  O  O32  1  0.135548  0.653475  0.413491  1
  O  O33  1  0.534255  0.017688  0.309081  1
  O  O34  1  0.801666  0.145076  0.856077  1
  O  O35  1  0.014214  0.642188  0.992817  1
  O  O36  1  0.449557  0.002225  0.655302  1
