# generated using pymatgen
data_Tb3Dy13(In3Rh)2
_symmetry_space_group_name_H-M   'P 1'
_cell_length_a   10.46335900
_cell_length_b   10.46335914
_cell_length_c   7.04766500
_cell_angle_alpha   90.00000000
_cell_angle_beta   90.00000000
_cell_angle_gamma   120.00000904
_symmetry_Int_Tables_number   1
_chemical_formula_structural   Tb3Dy13(In3Rh)2
_chemical_formula_sum   'Tb3 Dy13 In6 Rh2'
_cell_volume   668.21789661
_cell_formula_units_Z   1
loop_
 _symmetry_equiv_pos_site_id
 _symmetry_equiv_pos_as_xyz
  1  'x, y, z'
loop_
 _atom_site_type_symbol
 _atom_site_label
 _atom_site_symmetry_multiplicity
 _atom_site_fract_x
 _atom_site_fract_y
 _atom_site_fract_z
 _atom_site_occupancy
  Tb  Tb0  1  0.532746  0.065491  0.514260  1
  Tb  Tb1  1  0.934509  0.467254  0.514260  1
  Tb  Tb2  1  0.532746  0.467254  0.514260  1
  Dy  Dy3  1  0.467102  0.934205  0.014263  1
  Dy  Dy4  1  0.065795  0.532898  0.014263  1
  Dy  Dy5  1  0.467102  0.532898  0.014263  1
  Dy  Dy6  1  0.175884  0.351767  0.721228  1
  Dy  Dy7  1  0.648233  0.824116  0.721228  1
  Dy  Dy8  1  0.175884  0.824116  0.721228  1
  Dy  Dy9  1  0.824139  0.648279  0.220940  1
  Dy  Dy10  1  0.351721  0.175861  0.220940  1
  Dy  Dy11  1  0.824139  0.175861  0.220940  1
  Dy  Dy12  1  0.666667  0.333333  0.895265  1
  Dy  Dy13  1  0.333333  0.666667  0.394996  1
  Dy  Dy14  1  0.000000  0.000000  0.500545  1
  Dy  Dy15  1  0.000000  0.000000  0.000652  1
  In  In16  1  0.836987  0.673973  0.760619  1
  In  In17  1  0.326027  0.163013  0.760619  1
  In  In18  1  0.836987  0.163013  0.760619  1
  In  In19  1  0.163080  0.326159  0.260400  1
  In  In20  1  0.673841  0.836920  0.260400  1
  In  In21  1  0.163080  0.836920  0.260400  1
  Rh  Rh22  1  0.666667  0.333333  0.288592  1
  Rh  Rh23  1  0.333333  0.666667  0.789020  1
