# generated using pymatgen
data_HfTa2(BOs)3
_symmetry_space_group_name_H-M   'P 1'
_cell_length_a   3.16592800
_cell_length_b   9.08539300
_cell_length_c   15.85701000
_cell_angle_alpha   90.00000000
_cell_angle_beta   90.00000000
_cell_angle_gamma   90.00000000
_symmetry_Int_Tables_number   1
_chemical_formula_structural   HfTa2(BOs)3
_chemical_formula_sum   'Hf4 Ta8 B12 Os12'
_cell_volume   456.10627996
_cell_formula_units_Z   4
loop_
 _symmetry_equiv_pos_site_id
 _symmetry_equiv_pos_as_xyz
  1  'x, y, z'
loop_
 _atom_site_type_symbol
 _atom_site_label
 _atom_site_symmetry_multiplicity
 _atom_site_fract_x
 _atom_site_fract_y
 _atom_site_fract_z
 _atom_site_occupancy
  Hf  Hf0  1  0.000000  0.682570  0.206258  1
  Hf  Hf1  1  0.000000  0.317430  0.793742  1
  Hf  Hf2  1  0.000000  0.182570  0.293742  1
  Hf  Hf3  1  0.000000  0.817430  0.706258  1
  Ta  Ta4  1  0.000000  0.800651  0.494719  1
  Ta  Ta5  1  0.000000  0.199349  0.505281  1
  Ta  Ta6  1  0.000000  0.300651  0.005281  1
  Ta  Ta7  1  0.000000  0.699349  0.994719  1
  Ta  Ta8  1  0.000000  0.514983  0.593297  1
  Ta  Ta9  1  0.000000  0.485017  0.406703  1
  Ta  Ta10  1  0.000000  0.014983  0.906703  1
  Ta  Ta11  1  0.000000  0.985017  0.093297  1
  B  B12  1  0.500000  0.604893  0.496883  1
  B  B13  1  0.500000  0.395107  0.503117  1
  B  B14  1  0.500000  0.104893  0.003117  1
  B  B15  1  0.500000  0.895107  0.996883  1
  B  B16  1  0.000000  0.608857  0.832449  1
  B  B17  1  0.000000  0.391143  0.167551  1
  B  B18  1  0.000000  0.108857  0.667551  1
  B  B19  1  0.000000  0.891143  0.332449  1
  B  B20  1  0.500000  0.713882  0.596745  1
  B  B21  1  0.500000  0.286118  0.403255  1
  B  B22  1  0.500000  0.213882  0.903255  1
  B  B23  1  0.500000  0.786118  0.096745  1
  Os  Os24  1  0.500000  0.719370  0.359162  1
  Os  Os25  1  0.500000  0.280630  0.640838  1
  Os  Os26  1  0.500000  0.219370  0.140838  1
  Os  Os27  1  0.500000  0.780630  0.859162  1
  Os  Os28  1  0.500000  0.515990  0.093845  1
  Os  Os29  1  0.500000  0.484010  0.906155  1
  Os  Os30  1  0.500000  0.015990  0.406155  1
  Os  Os31  1  0.500000  0.984010  0.593845  1
  Os  Os32  1  0.500000  0.566181  0.733198  1
  Os  Os33  1  0.500000  0.433819  0.266802  1
  Os  Os34  1  0.500000  0.066181  0.766802  1
  Os  Os35  1  0.500000  0.933819  0.233198  1
