# generated using pymatgen
data_Na2BiIrO6
_symmetry_space_group_name_H-M   'P 1'
_cell_length_a   6.15570861
_cell_length_b   6.15578212
_cell_length_c   6.15569902
_cell_angle_alpha   54.03485073
_cell_angle_beta   54.03708328
_cell_angle_gamma   54.03549224
_symmetry_Int_Tables_number   1
_chemical_formula_structural   Na2BiIrO6
_chemical_formula_sum   'Na2 Bi1 Ir1 O6'
_cell_volume   141.96467534
_cell_formula_units_Z   1
loop_
 _symmetry_equiv_pos_site_id
 _symmetry_equiv_pos_as_xyz
  1  'x, y, z'
loop_
 _atom_site_type_symbol
 _atom_site_label
 _atom_site_symmetry_multiplicity
 _atom_site_fract_x
 _atom_site_fract_y
 _atom_site_fract_z
 _atom_site_occupancy
  Na  Na0  1  0.136513  0.136511  0.136523  1
  Na  Na1  1  0.862015  0.862038  0.862005  1
  Bi  Bi2  1  0.654954  0.654963  0.654956  1
  Ir  Ir3  1  0.339330  0.339308  0.339318  1
  O  O4  1  0.677191  0.094679  0.445527  1
  O  O5  1  0.445525  0.677187  0.094683  1
  O  O6  1  0.094684  0.445520  0.677197  1
  O  O7  1  0.265694  0.981372  0.542727  1
  O  O8  1  0.981377  0.542722  0.265686  1
  O  O9  1  0.542717  0.265700  0.981378  1
