# generated using pymatgen
data_Pr3Nd(Er4Bi3)4
_symmetry_space_group_name_H-M   'P 1'
_cell_length_a   8.32817502
_cell_length_b   9.49474700
_cell_length_c   12.14608003
_cell_angle_alpha   90.00000000
_cell_angle_beta   90.00739961
_cell_angle_gamma   90.00000000
_symmetry_Int_Tables_number   1
_chemical_formula_structural   Pr3Nd(Er4Bi3)4
_chemical_formula_sum   'Pr3 Nd1 Er16 Bi12'
_cell_volume   960.43808860
_cell_formula_units_Z   1
loop_
 _symmetry_equiv_pos_site_id
 _symmetry_equiv_pos_as_xyz
  1  'x, y, z'
loop_
 _atom_site_type_symbol
 _atom_site_label
 _atom_site_symmetry_multiplicity
 _atom_site_fract_x
 _atom_site_fract_y
 _atom_site_fract_z
 _atom_site_occupancy
  Pr  Pr0  1  0.168193  0.750000  0.222964  1
  Pr  Pr1  1  0.331806  0.750000  0.722953  1
  Pr  Pr2  1  0.831800  0.250000  0.777055  1
  Nd  Nd3  1  0.668138  0.250000  0.277065  1
  Er  Er4  1  0.812880  0.564893  0.063140  1
  Er  Er5  1  0.687113  0.935086  0.563129  1
  Er  Er6  1  0.187118  0.064907  0.936876  1
  Er  Er7  1  0.312907  0.435076  0.436859  1
  Er  Er8  1  0.187118  0.435093  0.936876  1
  Er  Er9  1  0.312907  0.064924  0.436859  1
  Er  Er10  1  0.812880  0.935107  0.063140  1
  Er  Er11  1  0.687113  0.564914  0.563129  1
  Er  Er12  1  0.478592  0.750000  0.003400  1
  Er  Er13  1  0.021428  0.750000  0.503405  1
  Er  Er14  1  0.521455  0.250000  0.996627  1
  Er  Er15  1  0.978539  0.250000  0.496568  1
  Er  Er16  1  0.668900  0.750000  0.288499  1
  Er  Er17  1  0.831098  0.750000  0.788496  1
  Er  Er18  1  0.331088  0.250000  0.711509  1
  Er  Er19  1  0.168892  0.250000  0.211519  1
  Bi  Bi20  1  0.400679  0.750000  0.461795  1
  Bi  Bi21  1  0.099323  0.750000  0.961799  1
  Bi  Bi22  1  0.599385  0.250000  0.538005  1
  Bi  Bi23  1  0.900593  0.250000  0.038270  1
  Bi  Bi24  1  0.935797  0.505610  0.328618  1
  Bi  Bi25  1  0.564071  0.994269  0.828642  1
  Bi  Bi26  1  0.064077  0.005731  0.671352  1
  Bi  Bi27  1  0.436082  0.494117  0.171421  1
  Bi  Bi28  1  0.064077  0.494269  0.671352  1
  Bi  Bi29  1  0.436082  0.005883  0.171421  1
  Bi  Bi30  1  0.935797  0.994390  0.328618  1
  Bi  Bi31  1  0.564071  0.505731  0.828642  1
