# generated using pymatgen
data_TbY4SnSb2
_symmetry_space_group_name_H-M   'P 1'
_cell_length_a   8.96575900
_cell_length_b   8.93319389
_cell_length_c   6.37620000
_cell_angle_alpha   90.00000000
_cell_angle_beta   90.00000000
_cell_angle_gamma   119.86590849
_symmetry_Int_Tables_number   1
_chemical_formula_structural   TbY4SnSb2
_chemical_formula_sum   'Tb2 Y8 Sn2 Sb4'
_cell_volume   442.86526208
_cell_formula_units_Z   2
loop_
 _symmetry_equiv_pos_site_id
 _symmetry_equiv_pos_as_xyz
  1  'x, y, z'
loop_
 _atom_site_type_symbol
 _atom_site_label
 _atom_site_symmetry_multiplicity
 _atom_site_fract_x
 _atom_site_fract_y
 _atom_site_fract_z
 _atom_site_occupancy
  Tb  Tb0  1  0.754920  0.756021  0.250000  1
  Tb  Tb1  1  0.000611  0.244075  0.250000  1
  Y  Y2  1  0.333845  0.666659  0.000110  1
  Y  Y3  1  0.665611  0.332820  0.499992  1
  Y  Y4  1  0.665611  0.332820  0.000008  1
  Y  Y5  1  0.333845  0.666659  0.499890  1
  Y  Y6  1  0.755000  0.999776  0.750000  1
  Y  Y7  1  0.001216  0.757336  0.750000  1
  Y  Y8  1  0.244223  0.242613  0.750000  1
  Y  Y9  1  0.243871  0.001306  0.250000  1
  Sn  Sn10  1  0.390956  0.998483  0.750000  1
  Sn  Sn11  1  0.390575  0.390678  0.250000  1
  Sb  Sb12  1  0.000140  0.610173  0.250000  1
  Sb  Sb13  1  0.999615  0.389709  0.750000  1
  Sb  Sb14  1  0.610974  0.610620  0.750000  1
  Sb  Sb15  1  0.608987  0.000257  0.250000  1
