# generated using pymatgen
data_DyHo3(ZnGa)4
_symmetry_space_group_name_H-M   'P 1'
_cell_length_a   4.41246700
_cell_length_b   7.58913778
_cell_length_c   7.14418272
_cell_angle_alpha   90.01073157
_cell_angle_beta   90.00000000
_cell_angle_gamma   90.00000000
_symmetry_Int_Tables_number   1
_chemical_formula_structural   DyHo3(ZnGa)4
_chemical_formula_sum   'Dy1 Ho3 Zn4 Ga4'
_cell_volume   239.23595690
_cell_formula_units_Z   1
loop_
 _symmetry_equiv_pos_site_id
 _symmetry_equiv_pos_as_xyz
  1  'x, y, z'
loop_
 _atom_site_type_symbol
 _atom_site_label
 _atom_site_symmetry_multiplicity
 _atom_site_fract_x
 _atom_site_fract_y
 _atom_site_fract_z
 _atom_site_occupancy
  Dy  Dy0  1  0.750000  0.777729  0.500911  1
  Ho  Ho1  1  0.250000  0.222872  0.498914  1
  Ho  Ho2  1  0.250000  0.277482  0.998861  1
  Ho  Ho3  1  0.750000  0.722147  0.001000  1
  Zn  Zn4  1  0.250000  0.917668  0.796236  1
  Zn  Zn5  1  0.250000  0.582171  0.294350  1
  Zn  Zn6  1  0.750000  0.082714  0.200800  1
  Zn  Zn7  1  0.750000  0.417291  0.702057  1
  Ga  Ga8  1  0.250000  0.913125  0.221925  1
  Ga  Ga9  1  0.750000  0.412388  0.280233  1
  Ga  Ga10  1  0.250000  0.586870  0.723756  1
  Ga  Ga11  1  0.750000  0.087542  0.780956  1
