# generated using pymatgen
data_Dy5Bi3S
_symmetry_space_group_name_H-M   'P 1'
_cell_length_a   9.19443100
_cell_length_b   9.19443054
_cell_length_c   6.56423000
_cell_angle_alpha   90.00000000
_cell_angle_beta   90.00000000
_cell_angle_gamma   120.00000525
_symmetry_Int_Tables_number   1
_chemical_formula_structural   Dy5Bi3S
_chemical_formula_sum   'Dy10 Bi6 S2'
_cell_volume   480.57822891
_cell_formula_units_Z   2
loop_
 _symmetry_equiv_pos_site_id
 _symmetry_equiv_pos_as_xyz
  1  'x, y, z'
loop_
 _atom_site_type_symbol
 _atom_site_label
 _atom_site_symmetry_multiplicity
 _atom_site_fract_x
 _atom_site_fract_y
 _atom_site_fract_z
 _atom_site_occupancy
  Dy  Dy0  1  0.754350  0.754350  0.750000  1
  Dy  Dy1  1  0.245650  0.000000  0.750000  1
  Dy  Dy2  1  0.000000  0.245650  0.750000  1
  Dy  Dy3  1  0.245650  0.245650  0.250000  1
  Dy  Dy4  1  0.754350  0.000000  0.250000  1
  Dy  Dy5  1  0.000000  0.754350  0.250000  1
  Dy  Dy6  1  0.666667  0.333333  0.000000  1
  Dy  Dy7  1  0.333333  0.666667  0.000000  1
  Dy  Dy8  1  0.333333  0.666667  0.500000  1
  Dy  Dy9  1  0.666667  0.333333  0.500000  1
  Bi  Bi10  1  0.396877  0.396877  0.750000  1
  Bi  Bi11  1  0.603123  0.000000  0.750000  1
  Bi  Bi12  1  0.000000  0.603123  0.750000  1
  Bi  Bi13  1  0.603123  0.603123  0.250000  1
  Bi  Bi14  1  0.396877  0.000000  0.250000  1
  Bi  Bi15  1  0.000000  0.396877  0.250000  1
  S  S16  1  0.000000  0.000000  0.000000  1
  S  S17  1  0.000000  0.000000  0.500000  1
