# generated using pymatgen
data_Dy5HoTiAl23Os8
_symmetry_space_group_name_H-M   'P 1'
_cell_length_a   8.84802600
_cell_length_b   8.84923908
_cell_length_c   9.55881100
_cell_angle_alpha   90.00062226
_cell_angle_beta   90.00000000
_cell_angle_gamma   119.99546544
_symmetry_Int_Tables_number   1
_chemical_formula_structural   Dy5HoTiAl23Os8
_chemical_formula_sum   'Dy5 Ho1 Ti1 Al23 Os8'
_cell_volume   648.19647888
_cell_formula_units_Z   1
loop_
 _symmetry_equiv_pos_site_id
 _symmetry_equiv_pos_as_xyz
  1  'x, y, z'
loop_
 _atom_site_type_symbol
 _atom_site_label
 _atom_site_symmetry_multiplicity
 _atom_site_fract_x
 _atom_site_fract_y
 _atom_site_fract_z
 _atom_site_occupancy
  Dy  Dy0  1  0.806909  0.613818  0.748271  1
  Dy  Dy1  1  0.612185  0.806077  0.249671  1
  Dy  Dy2  1  0.386166  0.193088  0.748262  1
  Dy  Dy3  1  0.193892  0.806077  0.249671  1
  Dy  Dy4  1  0.806922  0.193088  0.748262  1
  Ho  Ho5  1  0.193993  0.387986  0.249632  1
  Ti  Ti6  1  0.333299  0.666598  0.992107  1
  Al  Al7  1  0.666670  0.333338  0.981038  1
  Al  Al8  1  0.666662  0.333323  0.516447  1
  Al  Al9  1  0.333292  0.666586  0.482077  1
  Al  Al10  1  0.162449  0.324899  0.575067  1
  Al  Al11  1  0.837369  0.674736  0.424376  1
  Al  Al12  1  0.675103  0.837559  0.575121  1
  Al  Al13  1  0.836820  0.673638  0.076868  1
  Al  Al14  1  0.325253  0.162672  0.424360  1
  Al  Al15  1  0.159641  0.319284  0.925829  1
  Al  Al16  1  0.162455  0.837559  0.575121  1
  Al  Al17  1  0.326344  0.163215  0.076882  1
  Al  Al18  1  0.837421  0.162672  0.424360  1
  Al  Al19  1  0.680725  0.840370  0.925762  1
  Al  Al20  1  0.836874  0.163215  0.076882  1
  Al  Al21  1  0.159644  0.840370  0.925762  1
  Al  Al22  1  0.561604  0.123208  0.253244  1
  Al  Al23  1  0.441019  0.882038  0.750236  1
  Al  Al24  1  0.876900  0.438381  0.253244  1
  Al  Al25  1  0.117974  0.558982  0.750237  1
  Al  Al26  1  0.561480  0.438381  0.253244  1
  Al  Al27  1  0.441008  0.558982  0.750237  1
  Al  Al28  1  0.000048  0.000097  0.250342  1
  Al  Al29  1  0.000000  0.000001  0.749748  1
  Os  Os30  1  0.499127  0.998256  0.002841  1
  Os  Os31  1  0.001764  0.500804  0.002893  1
  Os  Os32  1  0.499593  0.999186  0.502924  1
  Os  Os33  1  0.499039  0.500804  0.002893  1
  Os  Os34  1  0.000824  0.500346  0.502881  1
  Os  Os35  1  0.499523  0.500346  0.502881  1
  Os  Os36  1  0.000002  0.000003  0.000458  1
  Os  Os37  1  0.000007  0.000013  0.499869  1
