# generated using pymatgen
data_Tb3YAl16(SiIr3)2
_symmetry_space_group_name_H-M   'P 1'
_cell_length_a   7.55529700
_cell_length_b   7.55506308
_cell_length_c   9.37416800
_cell_angle_alpha   90.00000000
_cell_angle_beta   90.00000000
_cell_angle_gamma   119.66725857
_symmetry_Int_Tables_number   1
_chemical_formula_structural   Tb3YAl16(SiIr3)2
_chemical_formula_sum   'Tb3 Y1 Al16 Si2 Ir6'
_cell_volume   464.94267895
_cell_formula_units_Z   1
loop_
 _symmetry_equiv_pos_site_id
 _symmetry_equiv_pos_as_xyz
  1  'x, y, z'
loop_
 _atom_site_type_symbol
 _atom_site_label
 _atom_site_symmetry_multiplicity
 _atom_site_fract_x
 _atom_site_fract_y
 _atom_site_fract_z
 _atom_site_occupancy
  Tb  Tb0  1  0.994881  0.674808  0.250000  1
  Tb  Tb1  1  0.005135  0.325353  0.750000  1
  Tb  Tb2  1  0.674786  0.994853  0.250000  1
  Y  Y3  1  0.325381  0.005177  0.750000  1
  Al  Al4  1  0.001380  0.336311  0.076422  1
  Al  Al5  1  0.998642  0.663718  0.923883  1
  Al  Al6  1  0.998642  0.663718  0.576117  1
  Al  Al7  1  0.336314  0.001373  0.423660  1
  Al  Al8  1  0.001380  0.336311  0.423578  1
  Al  Al9  1  0.663540  0.998557  0.576108  1
  Al  Al10  1  0.663540  0.998557  0.923892  1
  Al  Al11  1  0.336314  0.001373  0.076340  1
  Al  Al12  1  0.335680  0.335583  0.556220  1
  Al  Al13  1  0.664302  0.664295  0.443545  1
  Al  Al14  1  0.664302  0.664295  0.056455  1
  Al  Al15  1  0.335680  0.335583  0.943780  1
  Al  Al16  1  0.335838  0.548401  0.250000  1
  Al  Al17  1  0.664348  0.451621  0.750000  1
  Al  Al18  1  0.548389  0.335821  0.250000  1
  Al  Al19  1  0.451635  0.664351  0.750000  1
  Si  Si20  1  0.128923  0.128915  0.250000  1
  Si  Si21  1  0.870989  0.871081  0.750000  1
  Ir  Ir22  1  0.671520  0.328304  0.999754  1
  Ir  Ir23  1  0.328346  0.671606  0.999763  1
  Ir  Ir24  1  0.328346  0.671606  0.500237  1
  Ir  Ir25  1  0.671520  0.328304  0.500246  1
  Ir  Ir26  1  0.000123  0.000063  0.999759  1
  Ir  Ir27  1  0.000123  0.000063  0.500241  1
