# generated using pymatgen
data_Ta12Ga5Ni3N4
_symmetry_space_group_name_H-M   'P 1'
_cell_length_a   6.95865872
_cell_length_b   6.95865890
_cell_length_c   6.95865885
_cell_angle_alpha   90.27766549
_cell_angle_beta   90.27766797
_cell_angle_gamma   90.27766831
_symmetry_Int_Tables_number   1
_chemical_formula_structural   Ta12Ga5Ni3N4
_chemical_formula_sum   'Ta12 Ga5 Ni3 N4'
_cell_volume   336.94675815
_cell_formula_units_Z   1
loop_
 _symmetry_equiv_pos_site_id
 _symmetry_equiv_pos_as_xyz
  1  'x, y, z'
loop_
 _atom_site_type_symbol
 _atom_site_label
 _atom_site_symmetry_multiplicity
 _atom_site_fract_x
 _atom_site_fract_y
 _atom_site_fract_z
 _atom_site_occupancy
  Ta  Ta0  1  0.794513  0.958834  0.373791  1
  Ta  Ta1  1  0.706426  0.044688  0.874691  1
  Ta  Ta2  1  0.206915  0.456086  0.124891  1
  Ta  Ta3  1  0.292220  0.543199  0.624782  1
  Ta  Ta4  1  0.958834  0.373791  0.794513  1
  Ta  Ta5  1  0.044688  0.874691  0.706426  1
  Ta  Ta6  1  0.456086  0.124891  0.206915  1
  Ta  Ta7  1  0.543199  0.624782  0.292220  1
  Ta  Ta8  1  0.373791  0.794513  0.958834  1
  Ta  Ta9  1  0.874691  0.706426  0.044688  1
  Ta  Ta10  1  0.124891  0.206915  0.456086  1
  Ta  Ta11  1  0.624782  0.292220  0.543199  1
  Ga  Ga12  1  0.678555  0.678555  0.678555  1
  Ga  Ga13  1  0.568748  0.417069  0.937085  1
  Ga  Ga14  1  0.417069  0.937085  0.568748  1
  Ga  Ga15  1  0.937085  0.568748  0.417069  1
  Ga  Ga16  1  0.073150  0.073150  0.073150  1
  Ni  Ni17  1  0.176993  0.823643  0.319841  1
  Ni  Ni18  1  0.319841  0.176993  0.823643  1
  Ni  Ni19  1  0.823643  0.319841  0.176993  1
  N  N20  1  0.877828  0.125662  0.625221  1
  N  N21  1  0.625221  0.877828  0.125662  1
  N  N22  1  0.125662  0.625221  0.877828  1
  N  N23  1  0.375171  0.375171  0.375171  1
