# generated using pymatgen
data_Dy8Lu2CuPPb6
_symmetry_space_group_name_H-M   'P 1'
_cell_length_a   9.15142200
_cell_length_b   9.15142119
_cell_length_c   6.70045400
_cell_angle_alpha   90.00000000
_cell_angle_beta   90.00000000
_cell_angle_gamma   120.00000292
_symmetry_Int_Tables_number   1
_chemical_formula_structural   Dy8Lu2CuPPb6
_chemical_formula_sum   'Dy8 Lu2 Cu1 P1 Pb6'
_cell_volume   485.97281469
_cell_formula_units_Z   1
loop_
 _symmetry_equiv_pos_site_id
 _symmetry_equiv_pos_as_xyz
  1  'x, y, z'
loop_
 _atom_site_type_symbol
 _atom_site_label
 _atom_site_symmetry_multiplicity
 _atom_site_fract_x
 _atom_site_fract_y
 _atom_site_fract_z
 _atom_site_occupancy
  Dy  Dy0  1  0.246465  0.000000  0.738345  1
  Dy  Dy1  1  0.753535  0.000000  0.261655  1
  Dy  Dy2  1  0.000000  0.246465  0.738345  1
  Dy  Dy3  1  0.000000  0.753535  0.261655  1
  Dy  Dy4  1  0.753535  0.753535  0.738345  1
  Dy  Dy5  1  0.246465  0.246465  0.261655  1
  Dy  Dy6  1  0.333333  0.666667  0.500000  1
  Dy  Dy7  1  0.666667  0.333333  0.500000  1
  Lu  Lu8  1  0.666667  0.333333  0.000000  1
  Lu  Lu9  1  0.333333  0.666667  0.000000  1
  Cu  Cu10  1  0.000000  0.000000  0.000000  1
  P  P11  1  0.000000  0.000000  0.500000  1
  Pb  Pb12  1  0.604564  0.000000  0.751271  1
  Pb  Pb13  1  0.395436  0.000000  0.248729  1
  Pb  Pb14  1  0.000000  0.604564  0.751271  1
  Pb  Pb15  1  0.000000  0.395436  0.248729  1
  Pb  Pb16  1  0.395436  0.395436  0.751271  1
  Pb  Pb17  1  0.604564  0.604564  0.248729  1
