# generated using pymatgen
data_DyThInNi2
_symmetry_space_group_name_H-M   'P 1'
_cell_length_a   7.54748575
_cell_length_b   7.54748575
_cell_length_c   3.67319700
_cell_angle_alpha   90.00000000
_cell_angle_beta   90.00000000
_cell_angle_gamma   93.13634220
_symmetry_Int_Tables_number   1
_chemical_formula_structural   DyThInNi2
_chemical_formula_sum   'Dy2 Th2 In2 Ni4'
_cell_volume   208.92857205
_cell_formula_units_Z   2
loop_
 _symmetry_equiv_pos_site_id
 _symmetry_equiv_pos_as_xyz
  1  'x, y, z'
loop_
 _atom_site_type_symbol
 _atom_site_label
 _atom_site_symmetry_multiplicity
 _atom_site_fract_x
 _atom_site_fract_y
 _atom_site_fract_z
 _atom_site_occupancy
  Dy  Dy0  1  0.173346  0.326654  0.500000  1
  Dy  Dy1  1  0.826654  0.673346  0.500000  1
  Th  Th2  1  0.675734  0.175734  0.500000  1
  Th  Th3  1  0.324266  0.824266  0.500000  1
  In  In4  1  0.500000  0.500000  0.000000  1
  In  In5  1  0.000000  0.000000  0.000000  1
  Ni  Ni6  1  0.123313  0.623313  0.000000  1
  Ni  Ni7  1  0.876687  0.376687  0.000000  1
  Ni  Ni8  1  0.619917  0.880083  0.000000  1
  Ni  Ni9  1  0.380083  0.119917  0.000000  1
