# generated using pymatgen
data_Sc12ReSi16Os7
_symmetry_space_group_name_H-M   'P 1'
_cell_length_a   10.10899528
_cell_length_b   10.11316651
_cell_length_c   13.65761691
_cell_angle_alpha   55.29515905
_cell_angle_beta   55.29453633
_cell_angle_gamma   31.00788710
_symmetry_Int_Tables_number   1
_chemical_formula_structural   Sc12ReSi16Os7
_chemical_formula_sum   'Sc12 Re1 Si16 Os7'
_cell_volume   580.31453947
_cell_formula_units_Z   1
loop_
 _symmetry_equiv_pos_site_id
 _symmetry_equiv_pos_as_xyz
  1  'x, y, z'
loop_
 _atom_site_type_symbol
 _atom_site_label
 _atom_site_symmetry_multiplicity
 _atom_site_fract_x
 _atom_site_fract_y
 _atom_site_fract_z
 _atom_site_occupancy
  Sc  Sc0  1  0.748783  0.485960  0.049936  1
  Sc  Sc1  1  0.541214  0.299218  0.156147  1
  Sc  Sc2  1  0.514529  0.251489  0.450457  1
  Sc  Sc3  1  0.458866  0.700306  0.844648  1
  Sc  Sc4  1  0.294721  0.036454  0.135801  1
  Sc  Sc5  1  0.963199  0.705929  0.364363  1
  Sc  Sc6  1  0.705987  0.963016  0.864311  1
  Sc  Sc7  1  0.036186  0.295190  0.635100  1
  Sc  Sc8  1  0.251310  0.514139  0.950582  1
  Sc  Sc9  1  0.486290  0.747753  0.549406  1
  Sc  Sc10  1  0.302828  0.537089  0.656040  1
  Sc  Sc11  1  0.699440  0.461578  0.343626  1
  Re  Re12  1  0.909623  0.140603  0.577963  1
  Si  Si13  1  0.888231  0.112034  0.250097  1
  Si  Si14  1  0.110483  0.888813  0.750578  1
  Si  Si15  1  0.358597  0.641400  0.249816  1
  Si  Si16  1  0.641608  0.358722  0.750726  1
  Si  Si17  1  0.999164  0.230467  0.876120  1
  Si  Si18  1  0.768740  0.998457  0.625433  1
  Si  Si19  1  0.000756  0.769688  0.124095  1
  Si  Si20  1  0.230912  0.999737  0.376143  1
  Si  Si21  1  0.596277  0.051926  0.073861  1
  Si  Si22  1  0.947713  0.405131  0.424379  1
  Si  Si23  1  0.404330  0.947761  0.925594  1
  Si  Si24  1  0.051725  0.595890  0.574430  1
  Si  Si25  1  0.394541  0.150658  0.389359  1
  Si  Si26  1  0.849614  0.606083  0.110329  1
  Si  Si27  1  0.605180  0.849778  0.610224  1
  Si  Si28  1  0.149839  0.394928  0.889503  1
  Os  Os29  1  0.638921  0.832083  0.284636  1
  Os  Os30  1  0.830227  0.637490  0.786076  1
  Os  Os31  1  0.360524  0.168782  0.714547  1
  Os  Os32  1  0.170158  0.362598  0.213011  1
  Os  Os33  1  0.139584  0.911795  0.078346  1
  Os  Os34  1  0.089903  0.858215  0.421757  1
  Os  Os35  1  0.859994  0.088837  0.922560  1
