# generated using pymatgen
data_Ir2Rh7S12
_symmetry_space_group_name_H-M   'P 1'
_cell_length_a   7.56919117
_cell_length_b   7.56919257
_cell_length_c   6.31238869
_cell_angle_alpha   77.78996549
_cell_angle_beta   77.78996418
_cell_angle_gamma   92.34310992
_symmetry_Int_Tables_number   1
_chemical_formula_structural   Ir2Rh7S12
_chemical_formula_sum   'Ir2 Rh7 S12'
_cell_volume   344.08632954
_cell_formula_units_Z   1
loop_
 _symmetry_equiv_pos_site_id
 _symmetry_equiv_pos_as_xyz
  1  'x, y, z'
loop_
 _atom_site_type_symbol
 _atom_site_label
 _atom_site_symmetry_multiplicity
 _atom_site_fract_x
 _atom_site_fract_y
 _atom_site_fract_z
 _atom_site_occupancy
  Ir  Ir0  1  0.161805  0.838195  0.000000  1
  Ir  Ir1  1  0.838195  0.161805  0.000000  1
  Rh  Rh2  1  0.000000  0.000000  0.500000  1
  Rh  Rh3  1  0.350415  0.350415  0.947090  1
  Rh  Rh4  1  0.649585  0.649585  0.052910  1
  Rh  Rh5  1  0.783223  0.490951  0.451131  1
  Rh  Rh6  1  0.509049  0.216777  0.548869  1
  Rh  Rh7  1  0.216777  0.509049  0.548869  1
  Rh  Rh8  1  0.490951  0.783223  0.451131  1
  S  S9  1  0.857120  0.440049  0.100418  1
  S  S10  1  0.559951  0.142880  0.899582  1
  S  S11  1  0.142880  0.559951  0.899582  1
  S  S12  1  0.440049  0.857120  0.100418  1
  S  S13  1  0.116693  0.116693  0.111004  1
  S  S14  1  0.883307  0.883307  0.888996  1
  S  S15  1  0.033347  0.716633  0.384303  1
  S  S16  1  0.283367  0.966653  0.615697  1
  S  S17  1  0.966653  0.283367  0.615697  1
  S  S18  1  0.584059  0.584059  0.726035  1
  S  S19  1  0.415941  0.415941  0.273965  1
  S  S20  1  0.716633  0.033347  0.384303  1
