# generated using pymatgen
data_K9Sm(PS4)4
_symmetry_space_group_name_H-M   'P 1'
_cell_length_a   9.85315173
_cell_length_b   11.32866011
_cell_length_c   16.86377600
_cell_angle_alpha   90.35706855
_cell_angle_beta   106.98608936
_cell_angle_gamma   115.77748273
_symmetry_Int_Tables_number   1
_chemical_formula_structural   K9Sm(PS4)4
_chemical_formula_sum   'K18 Sm2 P8 S32'
_cell_volume   1601.59247912
_cell_formula_units_Z   2
loop_
 _symmetry_equiv_pos_site_id
 _symmetry_equiv_pos_as_xyz
  1  'x, y, z'
loop_
 _atom_site_type_symbol
 _atom_site_label
 _atom_site_symmetry_multiplicity
 _atom_site_fract_x
 _atom_site_fract_y
 _atom_site_fract_z
 _atom_site_occupancy
  K  K0  1  0.592300  0.185061  0.023239  1
  K  K1  1  0.036666  0.942413  0.103965  1
  K  K2  1  0.626962  0.600623  0.128614  1
  K  K3  1  0.137674  0.622956  0.129698  1
  K  K4  1  0.503571  0.250000  0.250000  1
  K  K5  1  0.885019  0.877043  0.370302  1
  K  K6  1  0.397724  0.899376  0.371386  1
  K  K7  1  0.490288  0.557587  0.396035  1
  K  K8  1  0.884001  0.314939  0.476761  1
  K  K9  1  0.115999  0.685061  0.523239  1
  K  K10  1  0.509713  0.442413  0.603965  1
  K  K11  1  0.602276  0.100624  0.628614  1
  K  K12  1  0.114981  0.122957  0.629698  1
  K  K13  1  0.496429  0.750000  0.750000  1
  K  K14  1  0.862326  0.377044  0.870303  1
  K  K15  1  0.373038  0.399377  0.871386  1
  K  K16  1  0.963334  0.057587  0.896035  1
  K  K17  1  0.407700  0.814940  0.976762  1
  Sm  Sm18  1  0.003837  0.250000  0.250000  1
  Sm  Sm19  1  0.996162  0.750000  0.750000  1
  P  P20  1  0.204375  0.338792  0.082955  1
  P  P21  1  0.598575  0.955992  0.210338  1
  P  P22  1  0.932245  0.544007  0.289662  1
  P  P23  1  0.282627  0.161208  0.417045  1
  P  P24  1  0.717373  0.838792  0.582955  1
  P  P25  1  0.067756  0.455993  0.710338  1
  P  P26  1  0.401425  0.044008  0.789662  1
  P  P27  1  0.795625  0.661208  0.917045  1
  S  S28  1  0.233771  0.481825  0.007484  1
  S  S29  1  0.302157  0.225608  0.054161  1
  S  S30  1  0.967647  0.214971  0.067720  1
  S  S31  1  0.749302  0.997964  0.139885  1
  S  S32  1  0.399586  0.969231  0.140774  1
  S  S33  1  0.820090  0.397514  0.185160  1
  S  S34  1  0.294636  0.420305  0.208972  1
  S  S35  1  0.529316  0.770824  0.243378  1
  S  S36  1  0.015113  0.729176  0.256622  1
  S  S37  1  0.165360  0.079695  0.291028  1
  S  S38  1  0.737417  0.102486  0.314840  1
  S  S39  1  0.789581  0.530770  0.359226  1
  S  S40  1  0.111452  0.502035  0.360115  1
  S  S41  1  0.184956  0.285029  0.432280  1
  S  S42  1  0.522388  0.274392  0.445839  1
  S  S43  1  0.244462  0.018175  0.492516  1
  S  S44  1  0.755538  0.981825  0.507484  1
  S  S45  1  0.477611  0.725608  0.554160  1
  S  S46  1  0.815043  0.714971  0.567720  1
  S  S47  1  0.888548  0.497965  0.639885  1
  S  S48  1  0.210419  0.469230  0.640774  1
  S  S49  1  0.262584  0.897514  0.685160  1
  S  S50  1  0.834641  0.920305  0.708972  1
  S  S51  1  0.984887  0.270824  0.743378  1
  S  S52  1  0.470684  0.229176  0.756622  1
  S  S53  1  0.705365  0.579695  0.791028  1
  S  S54  1  0.179910  0.602486  0.814841  1
  S  S55  1  0.600413  0.030769  0.859225  1
  S  S56  1  0.250697  0.002035  0.860115  1
  S  S57  1  0.032353  0.785029  0.932280  1
  S  S58  1  0.697842  0.774391  0.945840  1
  S  S59  1  0.766229  0.518175  0.992516  1
