# generated using pymatgen
data_Ba9SrSi5Sn
_symmetry_space_group_name_H-M   'P 1'
_cell_length_a   10.32287911
_cell_length_b   10.32269601
_cell_length_c   10.32442100
_cell_angle_alpha   130.61344920
_cell_angle_beta   130.61529768
_cell_angle_gamma   72.41654094
_symmetry_Int_Tables_number   1
_chemical_formula_structural   Ba9SrSi5Sn
_chemical_formula_sum   'Ba9 Sr1 Si5 Sn1'
_cell_volume   619.67694356
_cell_formula_units_Z   1
loop_
 _symmetry_equiv_pos_site_id
 _symmetry_equiv_pos_as_xyz
  1  'x, y, z'
loop_
 _atom_site_type_symbol
 _atom_site_label
 _atom_site_symmetry_multiplicity
 _atom_site_fract_x
 _atom_site_fract_y
 _atom_site_fract_z
 _atom_site_occupancy
  Ba  Ba0  1  0.558036  0.034748  0.869065  1
  Ba  Ba1  1  0.165645  0.688993  0.130936  1
  Ba  Ba2  1  0.034629  0.165817  0.476700  1
  Ba  Ba3  1  0.689082  0.557912  0.523290  1
  Ba  Ba4  1  0.468369  0.939559  0.132411  1
  Ba  Ba5  1  0.807120  0.336027  0.867602  1
  Ba  Ba6  1  0.939547  0.807244  0.471232  1
  Ba  Ba7  1  0.335937  0.468297  0.528705  1
  Ba  Ba8  1  0.027302  0.027346  0.999998  1
  Sr  Sr9  1  0.478493  0.478523  0.999955  1
  Si  Si10  1  0.747162  0.747157  0.000019  1
  Si  Si11  1  0.894391  0.398941  0.295665  1
  Si  Si12  1  0.103265  0.598765  0.704382  1
  Si  Si13  1  0.398890  0.103376  0.504526  1
  Si  Si14  1  0.598814  0.894447  0.495513  1
  Sn  Sn15  1  0.253317  0.252846  0.000002  1
