# generated using pymatgen
data_CeLuRu2F14
_symmetry_space_group_name_H-M   'P 1'
_cell_length_a   5.63700000
_cell_length_b   8.99366663
_cell_length_c   11.98659500
_cell_angle_alpha   62.92550257
_cell_angle_beta   90.00000000
_cell_angle_gamma   90.00000000
_symmetry_Int_Tables_number   1
_chemical_formula_structural   CeLuRu2F14
_chemical_formula_sum   'Ce2 Lu2 Ru4 F28'
_cell_volume   541.09479245
_cell_formula_units_Z   2
loop_
 _symmetry_equiv_pos_site_id
 _symmetry_equiv_pos_as_xyz
  1  'x, y, z'
loop_
 _atom_site_type_symbol
 _atom_site_label
 _atom_site_symmetry_multiplicity
 _atom_site_fract_x
 _atom_site_fract_y
 _atom_site_fract_z
 _atom_site_occupancy
  Ce  Ce0  1  0.758016  0.802024  0.768787  1
  Ce  Ce1  1  0.258016  0.197976  0.731213  1
  Lu  Lu2  1  0.240171  0.181092  0.235451  1
  Lu  Lu3  1  0.740171  0.818908  0.264549  1
  Ru  Ru4  1  0.754389  0.267866  0.964785  1
  Ru  Ru5  1  0.254389  0.732134  0.535215  1
  Ru  Ru6  1  0.242970  0.724576  0.051865  1
  Ru  Ru7  1  0.742970  0.275424  0.448135  1
  F  F8  1  0.448930  0.708039  0.923448  1
  F  F9  1  0.948930  0.291961  0.576552  1
  F  F10  1  0.543793  0.292664  0.084742  1
  F  F11  1  0.043793  0.707336  0.415258  1
  F  F12  1  0.458154  0.282406  0.543824  1
  F  F13  1  0.958154  0.717594  0.956176  1
  F  F14  1  0.545324  0.722166  0.443125  1
  F  F15  1  0.045324  0.277834  0.056875  1
  F  F16  1  0.766938  0.510895  0.864311  1
  F  F17  1  0.266938  0.489105  0.635689  1
  F  F18  1  0.236320  0.485696  0.144250  1
  F  F19  1  0.736320  0.514304  0.355750  1
  F  F20  1  0.753469  0.026791  0.055954  1
  F  F21  1  0.253469  0.973209  0.444046  1
  F  F22  1  0.243418  0.963920  0.954224  1
  F  F23  1  0.743418  0.036080  0.545776  1
  F  F24  1  0.976068  0.733700  0.637294  1
  F  F25  1  0.476068  0.266300  0.862706  1
  F  F26  1  0.021020  0.266044  0.350501  1
  F  F27  1  0.521020  0.733956  0.149499  1
  F  F28  1  0.034157  0.749278  0.175177  1
  F  F29  1  0.534157  0.250722  0.324823  1
  F  F30  1  0.955334  0.250447  0.834875  1
  F  F31  1  0.455334  0.749553  0.665125  1
  F  F32  1  0.435753  0.980851  0.233659  1
  F  F33  1  0.935753  0.019149  0.266341  1
  F  F34  1  0.585774  0.028957  0.768098  1
  F  F35  1  0.085774  0.971043  0.731902  1
