# generated using pymatgen
data_Li8Nd8Pt7Rh
_symmetry_space_group_name_H-M   'P 1'
_cell_length_a   4.11062900
_cell_length_b   7.41421219
_cell_length_c   16.92323015
_cell_angle_alpha   89.67235695
_cell_angle_beta   90.00000000
_cell_angle_gamma   90.00000000
_symmetry_Int_Tables_number   1
_chemical_formula_structural   Li8Nd8Pt7Rh
_chemical_formula_sum   'Li8 Nd8 Pt7 Rh1'
_cell_volume   515.76213224
_cell_formula_units_Z   1
loop_
 _symmetry_equiv_pos_site_id
 _symmetry_equiv_pos_as_xyz
  1  'x, y, z'
loop_
 _atom_site_type_symbol
 _atom_site_label
 _atom_site_symmetry_multiplicity
 _atom_site_fract_x
 _atom_site_fract_y
 _atom_site_fract_z
 _atom_site_occupancy
  Li  Li0  1  0.250000  0.625036  0.351794  1
  Li  Li1  1  0.750000  0.372023  0.648330  1
  Li  Li2  1  0.750000  0.874267  0.851094  1
  Li  Li3  1  0.250000  0.126160  0.148736  1
  Li  Li4  1  0.250000  0.489991  0.058748  1
  Li  Li5  1  0.750000  0.510475  0.941526  1
  Li  Li6  1  0.750000  0.008091  0.558779  1
  Li  Li7  1  0.250000  0.989211  0.442710  1
  Nd  Nd8  1  0.250000  0.555648  0.785977  1
  Nd  Nd9  1  0.750000  0.443917  0.213704  1
  Nd  Nd10  1  0.750000  0.944829  0.287047  1
  Nd  Nd11  1  0.250000  0.056929  0.711645  1
  Nd  Nd12  1  0.250000  0.655166  0.562836  1
  Nd  Nd13  1  0.750000  0.337336  0.439472  1
  Nd  Nd14  1  0.750000  0.838763  0.063088  1
  Nd  Nd15  1  0.250000  0.162473  0.936674  1
  Pt  Pt16  1  0.250000  0.743784  0.189621  1
  Pt  Pt17  1  0.750000  0.256860  0.809541  1
  Pt  Pt18  1  0.750000  0.758567  0.689342  1
  Pt  Pt19  1  0.250000  0.241999  0.310552  1
  Pt  Pt20  1  0.250000  0.752918  0.940536  1
  Pt  Pt21  1  0.750000  0.247033  0.059182  1
  Pt  Pt22  1  0.750000  0.748274  0.440750  1
  Rh  Rh23  1  0.250000  0.260251  0.558316  1
