# generated using pymatgen
data_LiV5(Fe2Si)6
_symmetry_space_group_name_H-M   'P 1'
_cell_length_a   3.96522300
_cell_length_b   5.63493502
_cell_length_c   11.87499304
_cell_angle_alpha   90.00930814
_cell_angle_beta   89.99994215
_cell_angle_gamma   90.00010864
_symmetry_Int_Tables_number   1
_chemical_formula_structural   LiV5(Fe2Si)6
_chemical_formula_sum   'Li1 V5 Fe12 Si6'
_cell_volume   265.33215650
_cell_formula_units_Z   1
loop_
 _symmetry_equiv_pos_site_id
 _symmetry_equiv_pos_as_xyz
  1  'x, y, z'
loop_
 _atom_site_type_symbol
 _atom_site_label
 _atom_site_symmetry_multiplicity
 _atom_site_fract_x
 _atom_site_fract_y
 _atom_site_fract_z
 _atom_site_occupancy
  Li  Li0  1  0.000000  0.000000  0.000000  1
  V  V1  1  0.499980  0.500075  0.162755  1
  V  V2  1  0.999982  0.999926  0.330822  1
  V  V3  1  0.500000  0.500000  0.500000  1
  V  V4  1  0.000018  0.000074  0.669179  1
  V  V5  1  0.500020  0.499925  0.837245  1
  Fe  Fe6  1  0.500001  0.255500  0.999986  1
  Fe  Fe7  1  0.499999  0.744500  0.000014  1
  Fe  Fe8  1  0.999982  0.252153  0.169714  1
  Fe  Fe9  1  0.999982  0.747799  0.169730  1
  Fe  Fe10  1  0.499983  0.249567  0.333866  1
  Fe  Fe11  1  0.499981  0.750456  0.333874  1
  Fe  Fe12  1  0.000005  0.249548  0.499999  1
  Fe  Fe13  1  0.999995  0.750452  0.500001  1
  Fe  Fe14  1  0.500017  0.249544  0.666126  1
  Fe  Fe15  1  0.500015  0.750433  0.666134  1
  Fe  Fe16  1  0.000018  0.252201  0.830270  1
  Fe  Fe17  1  0.000018  0.747847  0.830286  1
  Si  Si18  1  0.000000  0.500000  0.000000  1
  Si  Si19  1  0.499982  0.999894  0.162120  1
  Si  Si20  1  0.999984  0.500087  0.331929  1
  Si  Si21  1  0.500000  0.000000  0.500000  1
  Si  Si22  1  0.000016  0.499913  0.668072  1
  Si  Si23  1  0.500018  0.000106  0.837880  1
