# generated using pymatgen
data_Li12Sm3Dy9(TeO6)8
_symmetry_space_group_name_H-M   'P 1'
_cell_length_a   10.77286204
_cell_length_b   10.79375448
_cell_length_c   10.77286754
_cell_angle_alpha   109.51056679
_cell_angle_beta   109.43197331
_cell_angle_gamma   109.51057037
_symmetry_Int_Tables_number   1
_chemical_formula_structural   Li12Sm3Dy9(TeO6)8
_chemical_formula_sum   'Li12 Sm3 Dy9 Te8 O48'
_cell_volume   963.83178045
_cell_formula_units_Z   1
loop_
 _symmetry_equiv_pos_site_id
 _symmetry_equiv_pos_as_xyz
  1  'x, y, z'
loop_
 _atom_site_type_symbol
 _atom_site_label
 _atom_site_symmetry_multiplicity
 _atom_site_fract_x
 _atom_site_fract_y
 _atom_site_fract_z
 _atom_site_occupancy
  Li  Li0  1  0.250539  0.374942  0.124962  1
  Li  Li1  1  0.374423  0.750019  0.124962  1
  Li  Li2  1  0.126431  0.875966  0.250215  1
  Li  Li3  1  0.623783  0.374248  0.250215  1
  Li  Li4  1  0.126429  0.250463  0.376213  1
  Li  Li5  1  0.749786  0.125751  0.376215  1
  Li  Li6  1  0.250538  0.875596  0.625577  1
  Li  Li7  1  0.875040  0.749981  0.625579  1
  Li  Li8  1  0.875038  0.125056  0.749460  1
  Li  Li9  1  0.374422  0.624404  0.749462  1
  Li  Li10  1  0.749785  0.624033  0.873569  1
  Li  Li11  1  0.623787  0.249536  0.873573  1
  Sm  Sm12  1  0.749134  0.874567  0.124566  1
  Sm  Sm13  1  0.875434  0.250000  0.124567  1
  Sm  Sm14  1  0.875433  0.625432  0.250865  1
  Dy  Dy15  1  0.374945  0.124947  0.249891  1
  Dy  Dy16  1  0.624384  0.750001  0.375615  1
  Dy  Dy17  1  0.251231  0.625619  0.375616  1
  Dy  Dy18  1  0.750111  0.375058  0.625055  1
  Dy  Dy19  1  0.374946  0.250002  0.625054  1
  Dy  Dy20  1  0.125018  0.375018  0.750036  1
  Dy  Dy21  1  0.624385  0.874387  0.748769  1
  Dy  Dy22  1  0.249965  0.124982  0.874982  1
  Dy  Dy23  1  0.125018  0.750000  0.874983  1
  Te  Te24  1  0.000803  0.999027  0.998368  1
  Te  Te25  1  0.497565  0.999342  0.998368  1
  Te  Te26  1  0.497565  0.498222  0.999196  1
  Te  Te27  1  0.001631  0.500973  0.999196  1
  Te  Te28  1  0.000804  0.001777  0.502434  1
  Te  Te29  1  0.499998  0.000333  0.499998  1
  Te  Te30  1  0.001631  0.500657  0.502435  1
  Te  Te31  1  0.500002  0.499660  0.500002  1
  O  O32  1  0.695362  0.616361  0.023634  1
  O  O33  1  0.828272  0.407272  0.023634  1
  O  O34  1  0.199486  0.171660  0.078107  1
  O  O35  1  0.378622  0.906447  0.078106  1
  O  O36  1  0.471519  0.171513  0.092640  1
  O  O37  1  0.121121  0.921128  0.092640  1
  O  O38  1  0.524754  0.696548  0.120641  1
  O  O39  1  0.095888  0.424093  0.120641  1
  O  O40  1  0.695363  0.079000  0.171727  1
  O  O41  1  0.976365  0.092728  0.171728  1
  O  O42  1  0.616155  0.525138  0.198344  1
  O  O43  1  0.082190  0.673205  0.198345  1
  O  O44  1  0.828272  0.420999  0.304637  1
  O  O45  1  0.976364  0.883637  0.304637  1
  O  O46  1  0.422263  0.801454  0.328488  1
  O  O47  1  0.406223  0.527035  0.328484  1
  O  O48  1  0.801656  0.974861  0.383845  1
  O  O49  1  0.082190  0.408985  0.383845  1
  O  O50  1  0.578253  0.379150  0.406688  1
  O  O51  1  0.328434  0.027540  0.406687  1
  O  O52  1  0.328434  0.300896  0.421747  1
  O  O53  1  0.593314  0.120853  0.421745  1
  O  O54  1  0.879359  0.803451  0.475247  1
  O  O55  1  0.095889  0.671797  0.475248  1
  O  O56  1  0.121122  0.199992  0.528481  1
  O  O57  1  0.907360  0.328487  0.528480  1
  O  O58  1  0.406226  0.879193  0.577739  1
  O  O59  1  0.671516  0.698551  0.577740  1
  O  O60  1  0.671516  0.972968  0.593777  1
  O  O61  1  0.422260  0.620812  0.593776  1
  O  O62  1  0.921893  0.593553  0.621378  1
  O  O63  1  0.199485  0.027824  0.621377  1
  O  O64  1  0.593313  0.472463  0.671566  1
  O  O65  1  0.578256  0.199110  0.671568  1
  O  O66  1  0.028674  0.122050  0.701232  1
  O  O67  1  0.172558  0.579181  0.701232  1
  O  O68  1  0.921894  0.328340  0.800514  1
  O  O69  1  0.378622  0.472176  0.800515  1
  O  O70  1  0.028673  0.906621  0.827440  1
  O  O71  1  0.298768  0.920819  0.827441  1
  O  O72  1  0.907360  0.578871  0.878879  1
  O  O73  1  0.471519  0.300006  0.878878  1
  O  O74  1  0.879360  0.075908  0.904112  1
  O  O75  1  0.524751  0.828204  0.904111  1
  O  O76  1  0.801655  0.826794  0.917809  1
  O  O77  1  0.616155  0.091016  0.917811  1
  O  O78  1  0.298768  0.377949  0.971326  1
  O  O79  1  0.172559  0.593378  0.971327  1
