# generated using pymatgen
data_TeP2Cl8O3
_symmetry_space_group_name_H-M   'P 1'
_cell_length_a   9.54821175
_cell_length_b   9.63203719
_cell_length_c   11.69706452
_cell_angle_alpha   69.81068321
_cell_angle_beta   69.43398159
_cell_angle_gamma   65.91309696
_symmetry_Int_Tables_number   1
_chemical_formula_structural   TeP2Cl8O3
_chemical_formula_sum   'Te2 P4 Cl16 O6'
_cell_volume   893.52135167
_cell_formula_units_Z   2
loop_
 _symmetry_equiv_pos_site_id
 _symmetry_equiv_pos_as_xyz
  1  'x, y, z'
loop_
 _atom_site_type_symbol
 _atom_site_label
 _atom_site_symmetry_multiplicity
 _atom_site_fract_x
 _atom_site_fract_y
 _atom_site_fract_z
 _atom_site_occupancy
  Te  Te0  1  0.911542  0.798222  0.232132  1
  Te  Te1  1  0.088458  0.201778  0.767868  1
  P  P2  1  0.778051  0.215167  0.070106  1
  P  P3  1  0.225279  0.805404  0.373138  1
  P  P4  1  0.221949  0.784833  0.929894  1
  P  P5  1  0.774721  0.194596  0.626862  1
  Cl  Cl6  1  0.541652  0.274827  0.092712  1
  Cl  Cl7  1  0.768902  0.205147  0.455210  1
  Cl  Cl8  1  0.010310  0.518372  0.290514  1
  Cl  Cl9  1  0.458348  0.725173  0.907288  1
  Cl  Cl10  1  0.229000  0.196846  0.902036  1
  Cl  Cl11  1  0.286962  0.992323  0.262894  1
  Cl  Cl12  1  0.312529  0.186088  0.591200  1
  Cl  Cl13  1  0.799174  0.402014  0.096925  1
  Cl  Cl14  1  0.405005  0.621673  0.320544  1
  Cl  Cl15  1  0.200826  0.597986  0.903075  1
  Cl  Cl16  1  0.713038  0.007677  0.737106  1
  Cl  Cl17  1  0.594995  0.378327  0.679456  1
  Cl  Cl18  1  0.687471  0.813912  0.408800  1
  Cl  Cl19  1  0.771000  0.803154  0.097964  1
  Cl  Cl20  1  0.231098  0.794853  0.544790  1
  Cl  Cl21  1  0.989690  0.481628  0.709486  1
  O  O22  1  0.930438  0.188852  0.630836  1
  O  O23  1  0.828066  0.077726  0.175766  1
  O  O24  1  0.171934  0.922274  0.824234  1
  O  O25  1  0.069562  0.811148  0.369164  1
  O  O26  1  0.143100  0.796105  0.064430  1
  O  O27  1  0.856900  0.203895  0.935570  1
