# generated using pymatgen
data_Sr3(InPd)2
_symmetry_space_group_name_H-M   'P 1'
_cell_length_a   6.30004200
_cell_length_b   8.79327100
_cell_length_c   14.73216100
_cell_angle_alpha   90.00000000
_cell_angle_beta   90.00000000
_cell_angle_gamma   90.00000000
_symmetry_Int_Tables_number   1
_chemical_formula_structural   Sr3(InPd)2
_chemical_formula_sum   'Sr12 In8 Pd8'
_cell_volume   816.13191060
_cell_formula_units_Z   4
loop_
 _symmetry_equiv_pos_site_id
 _symmetry_equiv_pos_as_xyz
  1  'x, y, z'
loop_
 _atom_site_type_symbol
 _atom_site_label
 _atom_site_symmetry_multiplicity
 _atom_site_fract_x
 _atom_site_fract_y
 _atom_site_fract_z
 _atom_site_occupancy
  Sr  Sr0  1  0.149601  0.602274  0.095249  1
  Sr  Sr1  1  0.149601  0.897726  0.904751  1
  Sr  Sr2  1  0.850399  0.102274  0.404751  1
  Sr  Sr3  1  0.850399  0.397726  0.595249  1
  Sr  Sr4  1  0.850399  0.397726  0.904751  1
  Sr  Sr5  1  0.850399  0.102274  0.095249  1
  Sr  Sr6  1  0.149601  0.897726  0.595249  1
  Sr  Sr7  1  0.149601  0.602274  0.404751  1
  Sr  Sr8  1  0.363903  0.251837  0.250000  1
  Sr  Sr9  1  0.363903  0.248163  0.750000  1
  Sr  Sr10  1  0.636097  0.751837  0.250000  1
  Sr  Sr11  1  0.636097  0.748163  0.750000  1
  In  In12  1  0.363858  0.250000  0.000000  1
  In  In13  1  0.636142  0.750000  0.500000  1
  In  In14  1  0.636142  0.750000  0.000000  1
  In  In15  1  0.363858  0.250000  0.500000  1
  In  In16  1  0.851156  0.400833  0.250000  1
  In  In17  1  0.851156  0.099167  0.750000  1
  In  In18  1  0.148844  0.900833  0.250000  1
  In  In19  1  0.148844  0.599167  0.750000  1
  Pd  Pd20  1  0.626580  0.466368  0.092561  1
  Pd  Pd21  1  0.626580  0.033632  0.907439  1
  Pd  Pd22  1  0.373420  0.966368  0.407439  1
  Pd  Pd23  1  0.373420  0.533632  0.592561  1
  Pd  Pd24  1  0.373420  0.533632  0.907439  1
  Pd  Pd25  1  0.373420  0.966368  0.092561  1
  Pd  Pd26  1  0.626580  0.033632  0.592561  1
  Pd  Pd27  1  0.626580  0.466368  0.407439  1
