# generated using pymatgen
data_Dy2U2Ga12Pd
_symmetry_space_group_name_H-M   'P 1'
_cell_length_a   7.51217203
_cell_length_b   7.47122192
_cell_length_c   7.47020396
_cell_angle_alpha   109.58405445
_cell_angle_beta   109.32206636
_cell_angle_gamma   109.28914585
_symmetry_Int_Tables_number   1
_chemical_formula_structural   Dy2U2Ga12Pd
_chemical_formula_sum   'Dy2 U2 Ga12 Pd1'
_cell_volume   323.61615031
_cell_formula_units_Z   1
loop_
 _symmetry_equiv_pos_site_id
 _symmetry_equiv_pos_as_xyz
  1  'x, y, z'
loop_
 _atom_site_type_symbol
 _atom_site_label
 _atom_site_symmetry_multiplicity
 _atom_site_fract_x
 _atom_site_fract_y
 _atom_site_fract_z
 _atom_site_occupancy
  Dy  Dy0  1  0.500000  0.000000  0.000000  1
  Dy  Dy1  1  0.500000  0.500000  0.500000  1
  U  U2  1  0.000000  0.500000  0.000000  1
  U  U3  1  0.000000  0.000000  0.500000  1
  Ga  Ga4  1  0.247878  0.498812  0.749166  1
  Ga  Ga5  1  0.999930  0.704144  0.704286  1
  Ga  Ga6  1  0.291147  0.294889  0.996436  1
  Ga  Ga7  1  0.499885  0.749872  0.249800  1
  Ga  Ga8  1  0.752114  0.251060  0.501227  1
  Ga  Ga9  1  0.752122  0.501188  0.250834  1
  Ga  Ga10  1  0.247886  0.748940  0.498773  1
  Ga  Ga11  1  0.708813  0.003665  0.705221  1
  Ga  Ga12  1  0.500115  0.250128  0.750200  1
  Ga  Ga13  1  0.000070  0.295856  0.295714  1
  Ga  Ga14  1  0.291187  0.996335  0.294779  1
  Ga  Ga15  1  0.708853  0.705111  0.003564  1
  Pd  Pd16  1  0.000000  0.000000  0.000000  1
