# generated using pymatgen
data_Dy4Y5Tm3Co5Sn
_symmetry_space_group_name_H-M   'P 1'
_cell_length_a   8.28417280
_cell_length_b   8.29352436
_cell_length_c   8.28417323
_cell_angle_alpha   107.13531805
_cell_angle_beta   110.56150690
_cell_angle_gamma   110.69702301
_symmetry_Int_Tables_number   1
_chemical_formula_structural   Dy4Y5Tm3Co5Sn
_chemical_formula_sum   'Dy4 Y5 Tm3 Co5 Sn1'
_cell_volume   437.84573477
_cell_formula_units_Z   1
loop_
 _symmetry_equiv_pos_site_id
 _symmetry_equiv_pos_as_xyz
  1  'x, y, z'
loop_
 _atom_site_type_symbol
 _atom_site_label
 _atom_site_symmetry_multiplicity
 _atom_site_fract_x
 _atom_site_fract_y
 _atom_site_fract_z
 _atom_site_occupancy
  Dy  Dy0  1  0.192657  0.206741  0.401078  1
  Dy  Dy1  1  0.807937  0.792962  0.600041  1
  Dy  Dy2  1  0.192921  0.792962  0.985025  1
  Dy  Dy3  1  0.805663  0.206741  0.014085  1
  Y  Y4  1  0.479919  0.291887  0.186967  1
  Y  Y5  1  0.104920  0.291887  0.811967  1
  Y  Y6  1  0.893733  0.707785  0.187005  1
  Y  Y7  1  0.520780  0.707785  0.814052  1
  Y  Y8  1  0.305459  0.619258  0.313799  1
  Tm  Tm9  1  0.308183  0.994425  0.686241  1
  Tm  Tm10  1  0.692064  0.377920  0.685857  1
  Tm  Tm11  1  0.692019  0.006433  0.314416  1
  Co  Co12  1  0.500913  0.612004  0.111091  1
  Co  Co13  1  0.499656  0.385979  0.886324  1
  Co  Co14  1  0.380427  0.002307  0.379824  1
  Co  Co15  1  0.622484  0.002307  0.621881  1
  Co  Co16  1  0.000521  0.000643  0.000121  1
  Sn  Sn17  1  0.999746  0.499973  0.500227  1
