# generated using pymatgen
data_La3Pa(CdRh2)2
_symmetry_space_group_name_H-M   'P 1'
_cell_length_a   7.87072907
_cell_length_b   7.87072907
_cell_length_c   3.77076100
_cell_angle_alpha   90.00000000
_cell_angle_beta   90.00000000
_cell_angle_gamma   88.32973796
_symmetry_Int_Tables_number   1
_chemical_formula_structural   La3Pa(CdRh2)2
_chemical_formula_sum   'La3 Pa1 Cd2 Rh4'
_cell_volume   233.49327234
_cell_formula_units_Z   1
loop_
 _symmetry_equiv_pos_site_id
 _symmetry_equiv_pos_as_xyz
  1  'x, y, z'
loop_
 _atom_site_type_symbol
 _atom_site_label
 _atom_site_symmetry_multiplicity
 _atom_site_fract_x
 _atom_site_fract_y
 _atom_site_fract_z
 _atom_site_occupancy
  La  La0  1  0.332497  0.834683  0.500000  1
  La  La1  1  0.665317  0.167503  0.500000  1
  La  La2  1  0.171658  0.328342  0.500000  1
  Pa  Pa3  1  0.838788  0.661212  0.500000  1
  Cd  Cd4  1  0.997731  0.999427  0.000000  1
  Cd  Cd5  1  0.500573  0.502269  0.000000  1
  Rh  Rh6  1  0.854559  0.393374  0.000000  1
  Rh  Rh7  1  0.369240  0.130760  0.000000  1
  Rh  Rh8  1  0.663010  0.836990  0.000000  1
  Rh  Rh9  1  0.106626  0.645441  0.000000  1
