# generated using pymatgen
data_Tb2Nd4Si3Pd
_symmetry_space_group_name_H-M   'P 1'
_cell_length_a   7.65745705
_cell_length_b   7.65745705
_cell_length_c   4.41847200
_cell_angle_alpha   90.00000000
_cell_angle_beta   90.00000000
_cell_angle_gamma   86.56802104
_symmetry_Int_Tables_number   1
_chemical_formula_structural   Tb2Nd4Si3Pd
_chemical_formula_sum   'Tb2 Nd4 Si3 Pd1'
_cell_volume   258.61973979
_cell_formula_units_Z   1
loop_
 _symmetry_equiv_pos_site_id
 _symmetry_equiv_pos_as_xyz
  1  'x, y, z'
loop_
 _atom_site_type_symbol
 _atom_site_label
 _atom_site_symmetry_multiplicity
 _atom_site_fract_x
 _atom_site_fract_y
 _atom_site_fract_z
 _atom_site_occupancy
  Tb  Tb0  1  0.009025  0.991416  0.000000  1
  Tb  Tb1  1  0.491416  0.509025  0.000000  1
  Nd  Nd2  1  0.675697  0.175697  0.500000  1
  Nd  Nd3  1  0.337700  0.837700  0.500000  1
  Nd  Nd4  1  0.168899  0.321583  0.500000  1
  Nd  Nd5  1  0.821583  0.668899  0.500000  1
  Si  Si6  1  0.875560  0.375560  0.000000  1
  Si  Si7  1  0.619149  0.885448  0.000000  1
  Si  Si8  1  0.385448  0.119149  0.000000  1
  Pd  Pd9  1  0.115522  0.615522  0.000000  1
