# generated using pymatgen
data_NdPaRh2Pb
_symmetry_space_group_name_H-M   'P 1'
_cell_length_a   7.88956844
_cell_length_b   7.88956816
_cell_length_c   3.66866800
_cell_angle_alpha   90.00000000
_cell_angle_beta   90.00000000
_cell_angle_gamma   95.57630039
_symmetry_Int_Tables_number   1
_chemical_formula_structural   NdPaRh2Pb
_chemical_formula_sum   'Nd2 Pa2 Rh4 Pb2'
_cell_volume   227.27663618
_cell_formula_units_Z   2
loop_
 _symmetry_equiv_pos_site_id
 _symmetry_equiv_pos_as_xyz
  1  'x, y, z'
loop_
 _atom_site_type_symbol
 _atom_site_label
 _atom_site_symmetry_multiplicity
 _atom_site_fract_x
 _atom_site_fract_y
 _atom_site_fract_z
 _atom_site_occupancy
  Nd  Nd0  1  0.172833  0.327167  0.500000  1
  Nd  Nd1  1  0.827167  0.672833  0.500000  1
  Pa  Pa2  1  0.669762  0.169762  0.500000  1
  Pa  Pa3  1  0.330238  0.830238  0.500000  1
  Rh  Rh4  1  0.148987  0.648987  0.000000  1
  Rh  Rh5  1  0.851013  0.351013  0.000000  1
  Rh  Rh6  1  0.618078  0.881922  0.000000  1
  Rh  Rh7  1  0.381922  0.118078  0.000000  1
  Pb  Pb8  1  0.000000  0.000000  0.000000  1
  Pb  Pb9  1  0.500000  0.500000  0.000000  1
