# generated using pymatgen
data_Cs5GaO4
_symmetry_space_group_name_H-M   'P 1'
_cell_length_a   9.02509325
_cell_length_b   10.85934400
_cell_length_c   11.33359100
_cell_angle_alpha   90.00000000
_cell_angle_beta   97.56042518
_cell_angle_gamma   90.00000000
_symmetry_Int_Tables_number   1
_chemical_formula_structural   Cs5GaO4
_chemical_formula_sum   'Cs20 Ga4 O16'
_cell_volume   1101.11035405
_cell_formula_units_Z   4
loop_
 _symmetry_equiv_pos_site_id
 _symmetry_equiv_pos_as_xyz
  1  'x, y, z'
loop_
 _atom_site_type_symbol
 _atom_site_label
 _atom_site_symmetry_multiplicity
 _atom_site_fract_x
 _atom_site_fract_y
 _atom_site_fract_z
 _atom_site_occupancy
  Cs  Cs0  1  0.436646  0.189279  0.022559  1
  Cs  Cs1  1  0.042719  0.329334  0.030284  1
  Cs  Cs2  1  0.395229  0.527056  0.136422  1
  Cs  Cs3  1  0.889788  0.993399  0.138948  1
  Cs  Cs4  1  0.264512  0.851936  0.239190  1
  Cs  Cs5  1  0.735489  0.351936  0.260809  1
  Cs  Cs6  1  0.110212  0.493398  0.361052  1
  Cs  Cs7  1  0.604772  0.027055  0.363578  1
  Cs  Cs8  1  0.957280  0.829335  0.469716  1
  Cs  Cs9  1  0.563354  0.689279  0.477442  1
  Cs  Cs10  1  0.436645  0.310722  0.522558  1
  Cs  Cs11  1  0.042719  0.170666  0.530284  1
  Cs  Cs12  1  0.395228  0.972943  0.636422  1
  Cs  Cs13  1  0.889788  0.506601  0.638948  1
  Cs  Cs14  1  0.264510  0.648065  0.739190  1
  Cs  Cs15  1  0.735490  0.148064  0.760810  1
  Cs  Cs16  1  0.110211  0.006602  0.861052  1
  Cs  Cs17  1  0.604771  0.472945  0.863578  1
  Cs  Cs18  1  0.957281  0.670666  0.969716  1
  Cs  Cs19  1  0.563354  0.810721  0.977442  1
  Ga  Ga20  1  0.778603  0.668444  0.232109  1
  Ga  Ga21  1  0.221396  0.168445  0.267891  1
  Ga  Ga22  1  0.778604  0.831556  0.732109  1
  Ga  Ga23  1  0.221397  0.331555  0.767891  1
  O  O24  1  0.709574  0.564300  0.097772  1
  O  O25  1  0.204563  0.073163  0.122002  1
  O  O26  1  0.972023  0.732769  0.216976  1
  O  O27  1  0.639406  0.798588  0.245203  1
  O  O28  1  0.360594  0.298588  0.254796  1
  O  O29  1  0.027977  0.232769  0.283023  1
  O  O30  1  0.795438  0.573162  0.377998  1
  O  O31  1  0.290427  0.064300  0.402228  1
  O  O32  1  0.709574  0.935700  0.597772  1
  O  O33  1  0.204562  0.426837  0.622002  1
  O  O34  1  0.972024  0.767231  0.716976  1
  O  O35  1  0.639407  0.701412  0.745204  1
  O  O36  1  0.360594  0.201411  0.754796  1
  O  O37  1  0.027977  0.267231  0.783023  1
  O  O38  1  0.795438  0.926837  0.877998  1
  O  O39  1  0.290426  0.435700  0.902228  1
