# generated using pymatgen
data_LiPrHo2(Co4P3)2
_symmetry_space_group_name_H-M   'P 1'
_cell_length_a   3.73792600
_cell_length_b   10.62551000
_cell_length_c   12.24126400
_cell_angle_alpha   90.00000000
_cell_angle_beta   90.00000000
_cell_angle_gamma   90.00000000
_symmetry_Int_Tables_number   1
_chemical_formula_structural   LiPrHo2(Co4P3)2
_chemical_formula_sum   'Li2 Pr2 Ho4 Co16 P12'
_cell_volume   486.19081269
_cell_formula_units_Z   2
loop_
 _symmetry_equiv_pos_site_id
 _symmetry_equiv_pos_as_xyz
  1  'x, y, z'
loop_
 _atom_site_type_symbol
 _atom_site_label
 _atom_site_symmetry_multiplicity
 _atom_site_fract_x
 _atom_site_fract_y
 _atom_site_fract_z
 _atom_site_occupancy
  Li  Li0  1  0.500000  0.500000  0.149973  1
  Li  Li1  1  0.000000  0.000000  0.850027  1
  Pr  Pr2  1  0.000000  0.500000  0.523640  1
  Pr  Pr3  1  0.500000  0.000000  0.476360  1
  Ho  Ho4  1  0.500000  0.819072  0.204574  1
  Ho  Ho5  1  0.500000  0.180928  0.204574  1
  Ho  Ho6  1  0.000000  0.680928  0.795426  1
  Ho  Ho7  1  0.000000  0.319072  0.795426  1
  Co  Co8  1  0.000000  0.500000  0.986541  1
  Co  Co9  1  0.500000  0.000000  0.013459  1
  Co  Co10  1  0.500000  0.296127  0.429183  1
  Co  Co11  1  0.500000  0.703873  0.429183  1
  Co  Co12  1  0.000000  0.203873  0.570817  1
  Co  Co13  1  0.000000  0.796127  0.570817  1
  Co  Co14  1  0.500000  0.878836  0.710535  1
  Co  Co15  1  0.500000  0.121164  0.710535  1
  Co  Co16  1  0.000000  0.621164  0.289465  1
  Co  Co17  1  0.000000  0.378836  0.289465  1
  Co  Co18  1  0.500000  0.332918  0.996705  1
  Co  Co19  1  0.500000  0.667082  0.996705  1
  Co  Co20  1  0.000000  0.167082  0.003295  1
  Co  Co21  1  0.000000  0.832918  0.003295  1
  Co  Co22  1  0.500000  0.500000  0.707575  1
  Co  Co23  1  0.000000  0.000000  0.292425  1
  P  P24  1  0.500000  0.305847  0.617971  1
  P  P25  1  0.500000  0.694153  0.617971  1
  P  P26  1  0.000000  0.194153  0.382029  1
  P  P27  1  0.000000  0.805847  0.382029  1
  P  P28  1  0.500000  0.500000  0.885500  1
  P  P29  1  0.000000  0.000000  0.114500  1
  P  P30  1  0.500000  0.842993  0.894859  1
  P  P31  1  0.500000  0.157007  0.894859  1
  P  P32  1  0.000000  0.657007  0.105141  1
  P  P33  1  0.000000  0.342993  0.105141  1
  P  P34  1  0.500000  0.500000  0.340486  1
  P  P35  1  0.000000  0.000000  0.659514  1
