# generated using pymatgen
data_Er3LuTc7Mo
_symmetry_space_group_name_H-M   'P 1'
_cell_length_a   5.40127300
_cell_length_b   5.40127357
_cell_length_c   8.74860600
_cell_angle_alpha   90.00000000
_cell_angle_beta   90.00000000
_cell_angle_gamma   120.00000263
_symmetry_Int_Tables_number   1
_chemical_formula_structural   Er3LuTc7Mo
_chemical_formula_sum   'Er3 Lu1 Tc7 Mo1'
_cell_volume   221.03537336
_cell_formula_units_Z   1
loop_
 _symmetry_equiv_pos_site_id
 _symmetry_equiv_pos_as_xyz
  1  'x, y, z'
loop_
 _atom_site_type_symbol
 _atom_site_label
 _atom_site_symmetry_multiplicity
 _atom_site_fract_x
 _atom_site_fract_y
 _atom_site_fract_z
 _atom_site_occupancy
  Er  Er0  1  0.666667  0.333333  0.563985  1
  Er  Er1  1  0.666667  0.333333  0.938217  1
  Er  Er2  1  0.333333  0.666667  0.061932  1
  Lu  Lu3  1  0.333333  0.666667  0.435835  1
  Tc  Tc4  1  0.000000  0.000000  0.000222  1
  Tc  Tc5  1  0.828349  0.171651  0.250652  1
  Tc  Tc6  1  0.828349  0.656699  0.250652  1
  Tc  Tc7  1  0.343301  0.171651  0.250652  1
  Tc  Tc8  1  0.171739  0.828261  0.749209  1
  Tc  Tc9  1  0.171739  0.343476  0.749209  1
  Tc  Tc10  1  0.656524  0.828261  0.749209  1
  Mo  Mo11  1  0.000000  0.000000  0.500227  1
