# generated using pymatgen
data_LiY2Tc5Ni6P7
_symmetry_space_group_name_H-M   'P 1'
_cell_length_a   9.28416602
_cell_length_b   9.35386039
_cell_length_c   3.76018900
_cell_angle_alpha   90.00000000
_cell_angle_beta   90.00000000
_cell_angle_gamma   119.25246486
_symmetry_Int_Tables_number   1
_chemical_formula_structural   LiY2Tc5Ni6P7
_chemical_formula_sum   'Li1 Y2 Tc5 Ni6 P7'
_cell_volume   284.90261819
_cell_formula_units_Z   1
loop_
 _symmetry_equiv_pos_site_id
 _symmetry_equiv_pos_as_xyz
  1  'x, y, z'
loop_
 _atom_site_type_symbol
 _atom_site_label
 _atom_site_symmetry_multiplicity
 _atom_site_fract_x
 _atom_site_fract_y
 _atom_site_fract_z
 _atom_site_occupancy
  Li  Li0  1  0.118225  0.209236  0.500000  1
  Y  Y1  1  0.661571  0.329962  0.000000  1
  Y  Y2  1  0.335408  0.671944  0.500000  1
  Tc  Tc3  1  0.432900  0.043264  0.500000  1
  Tc  Tc4  1  0.610941  0.569033  0.500000  1
  Tc  Tc5  1  0.959480  0.390742  0.500000  1
  Tc  Tc6  1  0.084180  0.871479  0.500000  1
  Tc  Tc7  1  0.798119  0.915052  0.500000  1
  Ni  Ni8  1  0.065637  0.636975  0.000000  1
  Ni  Ni9  1  0.577401  0.936792  0.000000  1
  Ni  Ni10  1  0.366397  0.426672  0.000000  1
  Ni  Ni11  1  0.267891  0.117716  0.000000  1
  Ni  Ni12  1  0.840400  0.722063  0.000000  1
  Ni  Ni13  1  0.886597  0.159845  0.000000  1
  P  P14  1  0.294683  0.887755  0.000000  1
  P  P15  1  0.581500  0.699129  0.000000  1
  P  P16  1  0.120189  0.418146  0.000000  1
  P  P17  1  0.405279  0.288065  0.500000  1
  P  P18  1  0.881083  0.593877  0.500000  1
  P  P19  1  0.717797  0.120672  0.500000  1
  P  P20  1  0.994322  0.991585  0.000000  1
