# generated using pymatgen
data_Eu3MnN3
_symmetry_space_group_name_H-M   'P 1'
_cell_length_a   6.74898396
_cell_length_b   6.74898408
_cell_length_c   5.22070500
_cell_angle_alpha   90.00000000
_cell_angle_beta   90.00000000
_cell_angle_gamma   101.22060788
_symmetry_Int_Tables_number   1
_chemical_formula_structural   Eu3MnN3
_chemical_formula_sum   'Eu6 Mn2 N6'
_cell_volume   233.25134080
_cell_formula_units_Z   2
loop_
 _symmetry_equiv_pos_site_id
 _symmetry_equiv_pos_as_xyz
  1  'x, y, z'
loop_
 _atom_site_type_symbol
 _atom_site_label
 _atom_site_symmetry_multiplicity
 _atom_site_fract_x
 _atom_site_fract_y
 _atom_site_fract_z
 _atom_site_occupancy
  Eu  Eu0  1  0.671684  0.910065  0.750000  1
  Eu  Eu1  1  0.391758  0.608242  0.250000  1
  Eu  Eu2  1  0.910065  0.671684  0.250000  1
  Eu  Eu3  1  0.608242  0.391758  0.750000  1
  Eu  Eu4  1  0.328316  0.089935  0.250000  1
  Eu  Eu5  1  0.089935  0.328316  0.750000  1
  Mn  Mn6  1  0.802027  0.197973  0.250000  1
  Mn  Mn7  1  0.197973  0.802027  0.750000  1
  N  N8  1  0.676210  0.934790  0.250000  1
  N  N9  1  0.371544  0.628456  0.750000  1
  N  N10  1  0.628456  0.371544  0.250000  1
  N  N11  1  0.934790  0.676210  0.750000  1
  N  N12  1  0.323790  0.065210  0.750000  1
  N  N13  1  0.065210  0.323790  0.250000  1
