# generated using pymatgen
data_Zr10Tl5GaGePb
_symmetry_space_group_name_H-M   'P 1'
_cell_length_a   8.81860974
_cell_length_b   8.83409633
_cell_length_c   5.97331054
_cell_angle_alpha   89.95099911
_cell_angle_beta   90.02454438
_cell_angle_gamma   120.05810807
_symmetry_Int_Tables_number   1
_chemical_formula_structural   Zr10Tl5GaGePb
_chemical_formula_sum   'Zr10 Tl5 Ga1 Ge1 Pb1'
_cell_volume   402.76639527
_cell_formula_units_Z   1
loop_
 _symmetry_equiv_pos_site_id
 _symmetry_equiv_pos_as_xyz
  1  'x, y, z'
loop_
 _atom_site_type_symbol
 _atom_site_label
 _atom_site_symmetry_multiplicity
 _atom_site_fract_x
 _atom_site_fract_y
 _atom_site_fract_z
 _atom_site_occupancy
  Zr  Zr0  1  0.665486  0.332969  0.999419  1
  Zr  Zr1  1  0.334514  0.667484  0.999419  1
  Zr  Zr2  1  0.334239  0.667406  0.500572  1
  Zr  Zr3  1  0.665761  0.333166  0.500572  1
  Zr  Zr4  1  0.740228  0.740426  0.751854  1
  Zr  Zr5  1  0.259772  0.000198  0.751854  1
  Zr  Zr6  1  0.000000  0.258799  0.751873  1
  Zr  Zr7  1  0.259477  0.258893  0.248079  1
  Zr  Zr8  1  0.740523  0.999415  0.248079  1
  Zr  Zr9  1  0.000000  0.740709  0.248269  1
  Tl  Tl10  1  0.388164  0.388259  0.748774  1
  Tl  Tl11  1  0.611836  0.000095  0.748774  1
  Tl  Tl12  1  0.000000  0.612566  0.749022  1
  Tl  Tl13  1  0.611606  0.611945  0.251199  1
  Tl  Tl14  1  0.388394  0.000339  0.251199  1
  Ga  Ga15  1  0.000000  0.999376  0.500572  1
  Ge  Ge16  1  0.000000  0.999471  0.999386  1
  Pb  Pb17  1  0.000000  0.388484  0.251083  1
