# generated using pymatgen
data_LiDy3Y(SiB4)2
_symmetry_space_group_name_H-M   'P 1'
_cell_length_a   7.15464900
_cell_length_b   7.15464900
_cell_length_c   7.84782100
_cell_angle_alpha   90.00000000
_cell_angle_beta   90.00000000
_cell_angle_gamma   89.99847844
_symmetry_Int_Tables_number   1
_chemical_formula_structural   LiDy3Y(SiB4)2
_chemical_formula_sum   'Li2 Dy6 Y2 Si4 B16'
_cell_volume   401.72212725
_cell_formula_units_Z   2
loop_
 _symmetry_equiv_pos_site_id
 _symmetry_equiv_pos_as_xyz
  1  'x, y, z'
loop_
 _atom_site_type_symbol
 _atom_site_label
 _atom_site_symmetry_multiplicity
 _atom_site_fract_x
 _atom_site_fract_y
 _atom_site_fract_z
 _atom_site_occupancy
  Li  Li0  1  0.000005  0.000007  0.500000  1
  Li  Li1  1  0.499993  0.499995  0.500000  1
  Dy  Dy2  1  0.683392  0.183344  0.235687  1
  Dy  Dy3  1  0.316656  0.816608  0.764313  1
  Dy  Dy4  1  0.316656  0.816608  0.235687  1
  Dy  Dy5  1  0.816588  0.683412  0.235689  1
  Dy  Dy6  1  0.816588  0.683412  0.764311  1
  Dy  Dy7  1  0.683392  0.183344  0.764313  1
  Y  Y8  1  0.183321  0.316679  0.763860  1
  Y  Y9  1  0.183321  0.316679  0.236140  1
  Si  Si10  1  0.114720  0.615048  0.500000  1
  Si  Si11  1  0.884952  0.385280  0.500000  1
  Si  Si12  1  0.385339  0.114661  0.500000  1
  Si  Si13  1  0.614855  0.885145  0.500000  1
  B  B14  1  0.174051  0.039675  0.000000  1
  B  B15  1  0.825893  0.960079  0.000000  1
  B  B16  1  0.959875  0.173933  0.000000  1
  B  B17  1  0.326067  0.540125  0.000000  1
  B  B18  1  0.039858  0.825919  0.000000  1
  B  B19  1  0.674081  0.460142  0.000000  1
  B  B20  1  0.539921  0.674107  0.000000  1
  B  B21  1  0.460325  0.325949  0.000000  1
  B  B22  1  0.088997  0.589132  0.000000  1
  B  B23  1  0.910868  0.411003  0.000000  1
  B  B24  1  0.411134  0.088866  0.000000  1
  B  B25  1  0.589031  0.910969  0.000000  1
  B  B26  1  0.999905  0.999844  0.161194  1
  B  B27  1  0.999905  0.999844  0.838806  1
  B  B28  1  0.500156  0.500095  0.838806  1
  B  B29  1  0.500156  0.500095  0.161194  1
