# generated using pymatgen
data_ErSi4Pt5Rh
_symmetry_space_group_name_H-M   'P 1'
_cell_length_a   7.19008891
_cell_length_b   7.12303229
_cell_length_c   3.84253400
_cell_angle_alpha   90.00000000
_cell_angle_beta   90.00000000
_cell_angle_gamma   119.69196643
_symmetry_Int_Tables_number   1
_chemical_formula_structural   ErSi4Pt5Rh
_chemical_formula_sum   'Er1 Si4 Pt5 Rh1'
_cell_volume   170.95712350
_cell_formula_units_Z   1
loop_
 _symmetry_equiv_pos_site_id
 _symmetry_equiv_pos_as_xyz
  1  'x, y, z'
loop_
 _atom_site_type_symbol
 _atom_site_label
 _atom_site_symmetry_multiplicity
 _atom_site_fract_x
 _atom_site_fract_y
 _atom_site_fract_z
 _atom_site_occupancy
  Er  Er0  1  0.997063  0.998531  0.000000  1
  Si  Si1  1  0.325855  0.662927  0.000000  1
  Si  Si2  1  0.386556  0.193277  0.500001  1
  Si  Si3  1  0.809524  0.201077  0.500001  1
  Si  Si4  1  0.809523  0.608445  0.500001  1
  Pt  Pt5  1  0.533370  0.065248  0.000000  1
  Pt  Pt6  1  0.533370  0.468122  0.000000  1
  Pt  Pt7  1  0.192391  0.384798  0.500001  1
  Pt  Pt8  1  0.192391  0.807592  0.500001  1
  Pt  Pt9  1  0.622597  0.811299  0.500001  1
  Rh  Rh10  1  0.930696  0.465348  0.000000  1
