# generated using pymatgen
data_Pu2Ga3Ru
_symmetry_space_group_name_H-M   'P 1'
_cell_length_a   5.33427431
_cell_length_b   5.50270375
_cell_length_c   5.50270400
_cell_angle_alpha   59.99999847
_cell_angle_beta   58.94989301
_cell_angle_gamma   58.94989964
_symmetry_Int_Tables_number   1
_chemical_formula_structural   Pu2Ga3Ru
_chemical_formula_sum   'Pu2 Ga3 Ru1'
_cell_volume   112.36572090
_cell_formula_units_Z   1
loop_
 _symmetry_equiv_pos_site_id
 _symmetry_equiv_pos_as_xyz
  1  'x, y, z'
loop_
 _atom_site_type_symbol
 _atom_site_label
 _atom_site_symmetry_multiplicity
 _atom_site_fract_x
 _atom_site_fract_y
 _atom_site_fract_z
 _atom_site_occupancy
  Pu  Pu0  1  0.257863  0.247379  0.247379  1
  Pu  Pu1  1  0.992137  0.002621  0.002621  1
  Ga  Ga2  1  0.625000  0.125000  0.625000  1
  Ga  Ga3  1  0.625000  0.625000  0.125000  1
  Ga  Ga4  1  0.625000  0.625000  0.625000  1
  Ru  Ru5  1  0.125000  0.625000  0.625000  1
