# generated using pymatgen
data_Tb12Co3NiSnOs
_symmetry_space_group_name_H-M   'P 1'
_cell_length_a   8.34121711
_cell_length_b   8.34121727
_cell_length_c   8.34121687
_cell_angle_alpha   111.56636625
_cell_angle_beta   109.87039805
_cell_angle_gamma   107.00933529
_symmetry_Int_Tables_number   1
_chemical_formula_structural   Tb12Co3NiSnOs
_chemical_formula_sum   'Tb12 Co3 Ni1 Sn1 Os1'
_cell_volume   446.03427440
_cell_formula_units_Z   1
loop_
 _symmetry_equiv_pos_site_id
 _symmetry_equiv_pos_as_xyz
  1  'x, y, z'
loop_
 _atom_site_type_symbol
 _atom_site_label
 _atom_site_symmetry_multiplicity
 _atom_site_fract_x
 _atom_site_fract_y
 _atom_site_fract_z
 _atom_site_occupancy
  Tb  Tb0  1  0.822391  0.714092  0.536484  1
  Tb  Tb1  1  0.180927  0.283399  0.464326  1
  Tb  Tb2  1  0.180927  0.716601  0.897529  1
  Tb  Tb3  1  0.822391  0.285908  0.108298  1
  Tb  Tb4  1  0.679220  0.372333  0.688409  1
  Tb  Tb5  1  0.316076  0.627667  0.306887  1
  Tb  Tb6  1  0.679220  0.990809  0.306887  1
  Tb  Tb7  1  0.316076  0.009191  0.688409  1
  Tb  Tb8  1  0.590373  0.781381  0.808993  1
  Tb  Tb9  1  0.408064  0.217894  0.190169  1
  Tb  Tb10  1  0.972276  0.782106  0.190169  1
  Tb  Tb11  1  0.027613  0.218619  0.808993  1
  Co  Co12  1  0.362020  0.000000  0.362020  1
  Co  Co13  1  0.115709  0.612427  0.503281  1
  Co  Co14  1  0.890854  0.387573  0.503281  1
  Ni  Ni15  1  0.635161  0.000000  0.635161  1
  Sn  Sn16  1  0.501133  0.500000  0.001133  1
  Os  Os17  1  0.999570  0.000000  0.999570  1
