# generated using pymatgen
data_CeLu2(NpSb2)5
_symmetry_space_group_name_H-M   'P 1'
_cell_length_a   9.33974411
_cell_length_b   9.33974354
_cell_length_c   6.34136300
_cell_angle_alpha   90.00000000
_cell_angle_beta   90.00000000
_cell_angle_gamma   120.01757664
_symmetry_Int_Tables_number   1
_chemical_formula_structural   CeLu2(NpSb2)5
_chemical_formula_sum   'Ce1 Lu2 Np5 Sb10'
_cell_volume   478.96770109
_cell_formula_units_Z   1
loop_
 _symmetry_equiv_pos_site_id
 _symmetry_equiv_pos_as_xyz
  1  'x, y, z'
loop_
 _atom_site_type_symbol
 _atom_site_label
 _atom_site_symmetry_multiplicity
 _atom_site_fract_x
 _atom_site_fract_y
 _atom_site_fract_z
 _atom_site_occupancy
  Ce  Ce0  1  0.614459  0.614459  0.750000  1
  Lu  Lu1  1  0.001422  0.001422  0.000460  1
  Lu  Lu2  1  0.001422  0.001422  0.499540  1
  Np  Np3  1  0.615056  0.998480  0.250000  1
  Np  Np4  1  0.385855  0.001593  0.750000  1
  Np  Np5  1  0.998480  0.615056  0.250000  1
  Np  Np6  1  0.001593  0.385855  0.750000  1
  Np  Np7  1  0.382934  0.382934  0.250000  1
  Sb  Sb8  1  0.272894  0.999378  0.250000  1
  Sb  Sb9  1  0.728849  0.002114  0.750000  1
  Sb  Sb10  1  0.999378  0.272894  0.250000  1
  Sb  Sb11  1  0.002114  0.728849  0.750000  1
  Sb  Sb12  1  0.727177  0.727177  0.250000  1
  Sb  Sb13  1  0.273051  0.273051  0.750000  1
  Sb  Sb14  1  0.331570  0.666089  0.000498  1
  Sb  Sb15  1  0.666089  0.331570  0.000498  1
  Sb  Sb16  1  0.666089  0.331570  0.499502  1
  Sb  Sb17  1  0.331570  0.666089  0.499502  1
