# generated using pymatgen
data_Tm2Hf2ZrSi4
_symmetry_space_group_name_H-M   'P 1'
_cell_length_a   7.26797600
_cell_length_b   7.26797600
_cell_length_c   13.34814200
_cell_angle_alpha   90.00000000
_cell_angle_beta   90.00000000
_cell_angle_gamma   90.00000000
_symmetry_Int_Tables_number   1
_chemical_formula_structural   Tm2Hf2ZrSi4
_chemical_formula_sum   'Tm8 Hf8 Zr4 Si16'
_cell_volume   705.09524706
_cell_formula_units_Z   4
loop_
 _symmetry_equiv_pos_site_id
 _symmetry_equiv_pos_as_xyz
  1  'x, y, z'
loop_
 _atom_site_type_symbol
 _atom_site_label
 _atom_site_symmetry_multiplicity
 _atom_site_fract_x
 _atom_site_fract_y
 _atom_site_fract_z
 _atom_site_occupancy
  Tm  Tm0  1  0.996749  0.344430  0.214890  1
  Tm  Tm1  1  0.003251  0.655570  0.714890  1
  Tm  Tm2  1  0.155570  0.496749  0.464890  1
  Tm  Tm3  1  0.503251  0.844430  0.035110  1
  Tm  Tm4  1  0.844430  0.503251  0.964890  1
  Tm  Tm5  1  0.496749  0.155570  0.535110  1
  Tm  Tm6  1  0.344430  0.996749  0.785110  1
  Tm  Tm7  1  0.655570  0.003251  0.285110  1
  Hf  Hf8  1  0.148064  0.996599  0.374722  1
  Hf  Hf9  1  0.851936  0.003401  0.874722  1
  Hf  Hf10  1  0.503401  0.648064  0.624722  1
  Hf  Hf11  1  0.351936  0.496599  0.875278  1
  Hf  Hf12  1  0.496599  0.351936  0.124722  1
  Hf  Hf13  1  0.648064  0.503401  0.375278  1
  Hf  Hf14  1  0.996599  0.148064  0.625278  1
  Hf  Hf15  1  0.003401  0.851936  0.125278  1
  Zr  Zr16  1  0.174565  0.174565  0.000000  1
  Zr  Zr17  1  0.825435  0.825435  0.500000  1
  Zr  Zr18  1  0.325435  0.674565  0.250000  1
  Zr  Zr19  1  0.674565  0.325435  0.750000  1
  Si  Si20  1  0.361102  0.293700  0.318040  1
  Si  Si21  1  0.638898  0.706300  0.818040  1
  Si  Si22  1  0.206300  0.861102  0.568040  1
  Si  Si23  1  0.138898  0.793700  0.931960  1
  Si  Si24  1  0.793700  0.138898  0.068040  1
  Si  Si25  1  0.861102  0.206300  0.431960  1
  Si  Si26  1  0.293700  0.361102  0.681960  1
  Si  Si27  1  0.706300  0.638898  0.181960  1
  Si  Si28  1  0.297280  0.049369  0.186652  1
  Si  Si29  1  0.702720  0.950631  0.686652  1
  Si  Si30  1  0.450631  0.797280  0.436652  1
  Si  Si31  1  0.202720  0.549369  0.063348  1
  Si  Si32  1  0.549369  0.202720  0.936652  1
  Si  Si33  1  0.797280  0.450631  0.563348  1
  Si  Si34  1  0.049369  0.297280  0.813348  1
  Si  Si35  1  0.950631  0.702720  0.313348  1
