# generated using pymatgen
data_Dy5Sc5(Si5Ir2)4
_symmetry_space_group_name_H-M   'P 1'
_cell_length_a   12.51904700
_cell_length_b   12.51904700
_cell_length_c   4.17593300
_cell_angle_alpha   90.00000000
_cell_angle_beta   90.00000000
_cell_angle_gamma   90.00000000
_symmetry_Int_Tables_number   1
_chemical_formula_structural   Dy5Sc5(Si5Ir2)4
_chemical_formula_sum   'Dy5 Sc5 Si20 Ir8'
_cell_volume   654.47952113
_cell_formula_units_Z   1
loop_
 _symmetry_equiv_pos_site_id
 _symmetry_equiv_pos_as_xyz
  1  'x, y, z'
loop_
 _atom_site_type_symbol
 _atom_site_label
 _atom_site_symmetry_multiplicity
 _atom_site_fract_x
 _atom_site_fract_y
 _atom_site_fract_z
 _atom_site_occupancy
  Dy  Dy0  1  0.000000  0.000000  0.000000  1
  Dy  Dy1  1  0.884032  0.385282  0.500000  1
  Dy  Dy2  1  0.115968  0.614718  0.500000  1
  Dy  Dy3  1  0.385282  0.115968  0.500000  1
  Dy  Dy4  1  0.614718  0.884032  0.500000  1
  Sc  Sc5  1  0.500000  0.500000  0.000000  1
  Sc  Sc6  1  0.672876  0.174831  0.500000  1
  Sc  Sc7  1  0.327124  0.825169  0.500000  1
  Sc  Sc8  1  0.174831  0.327124  0.500000  1
  Sc  Sc9  1  0.825169  0.672876  0.500000  1
  Si  Si10  1  0.566621  0.068582  0.000000  1
  Si  Si11  1  0.433379  0.931418  0.000000  1
  Si  Si12  1  0.068582  0.433379  0.000000  1
  Si  Si13  1  0.931418  0.566621  0.000000  1
  Si  Si14  1  0.665597  0.699170  0.000000  1
  Si  Si15  1  0.334403  0.300830  0.000000  1
  Si  Si16  1  0.166080  0.800218  0.000000  1
  Si  Si17  1  0.833920  0.199782  0.000000  1
  Si  Si18  1  0.300830  0.665597  0.000000  1
  Si  Si19  1  0.699170  0.334403  0.000000  1
  Si  Si20  1  0.199782  0.166080  0.000000  1
  Si  Si21  1  0.800218  0.833920  0.000000  1
  Si  Si22  1  0.650804  0.506803  0.500000  1
  Si  Si23  1  0.349196  0.493197  0.500000  1
  Si  Si24  1  0.157280  0.993725  0.500000  1
  Si  Si25  1  0.842720  0.006275  0.500000  1
  Si  Si26  1  0.493197  0.650804  0.500000  1
  Si  Si27  1  0.506803  0.349196  0.500000  1
  Si  Si28  1  0.006275  0.157280  0.500000  1
  Si  Si29  1  0.993725  0.842720  0.500000  1
  Ir  Ir30  1  0.743543  0.519966  0.000000  1
  Ir  Ir31  1  0.256457  0.480034  0.000000  1
  Ir  Ir32  1  0.247086  0.979793  0.000000  1
  Ir  Ir33  1  0.752914  0.020207  0.000000  1
  Ir  Ir34  1  0.480034  0.743543  0.000000  1
  Ir  Ir35  1  0.519966  0.256457  0.000000  1
  Ir  Ir36  1  0.020207  0.247086  0.000000  1
  Ir  Ir37  1  0.979793  0.752914  0.000000  1
