# generated using pymatgen
data_La8DyErIr4
_symmetry_space_group_name_H-M   'P 1'
_cell_length_a   6.72080059
_cell_length_b   7.30520840
_cell_length_c   9.13483208
_cell_angle_alpha   95.89156412
_cell_angle_beta   111.58411048
_cell_angle_gamma   90.00000718
_symmetry_Int_Tables_number   1
_chemical_formula_structural   La8DyErIr4
_chemical_formula_sum   'La8 Dy1 Er1 Ir4'
_cell_volume   414.49393212
_cell_formula_units_Z   1
loop_
 _symmetry_equiv_pos_site_id
 _symmetry_equiv_pos_as_xyz
  1  'x, y, z'
loop_
 _atom_site_type_symbol
 _atom_site_label
 _atom_site_symmetry_multiplicity
 _atom_site_fract_x
 _atom_site_fract_y
 _atom_site_fract_z
 _atom_site_occupancy
  La  La0  1  0.799048  0.084155  0.818914  1
  La  La1  1  0.980133  0.415845  0.181086  1
  La  La2  1  0.201215  0.916140  0.181191  1
  La  La3  1  0.020025  0.583860  0.818809  1
  La  La4  1  0.216511  0.184912  0.574144  1
  La  La5  1  0.642368  0.315088  0.425856  1
  La  La6  1  0.783487  0.815073  0.426142  1
  La  La7  1  0.357344  0.684927  0.573858  1
  Dy  Dy8  1  0.565595  0.750000  0.000000  1
  Er  Er9  1  0.434445  0.250000  0.000000  1
  Ir  Ir10  1  0.596680  0.425829  0.787835  1
  Ir  Ir11  1  0.808844  0.074171  0.212165  1
  Ir  Ir12  1  0.403222  0.573404  0.212139  1
  Ir  Ir13  1  0.191083  0.926596  0.787861  1
