# generated using pymatgen
data_Y20Cd3Ag3Os2
_symmetry_space_group_name_H-M   'P 1'
_cell_length_a   9.65336300
_cell_length_b   9.65336224
_cell_length_c   9.75262900
_cell_angle_alpha   90.00000000
_cell_angle_beta   90.00000000
_cell_angle_gamma   119.99999918
_symmetry_Int_Tables_number   1
_chemical_formula_structural   Y20Cd3Ag3Os2
_chemical_formula_sum   'Y20 Cd3 Ag3 Os2'
_cell_volume   787.06315029
_cell_formula_units_Z   1
loop_
 _symmetry_equiv_pos_site_id
 _symmetry_equiv_pos_as_xyz
  1  'x, y, z'
loop_
 _atom_site_type_symbol
 _atom_site_label
 _atom_site_symmetry_multiplicity
 _atom_site_fract_x
 _atom_site_fract_y
 _atom_site_fract_z
 _atom_site_occupancy
  Y  Y0  1  0.000000  0.000000  0.477754  1
  Y  Y1  1  0.000000  0.000000  0.022246  1
  Y  Y2  1  0.210085  0.789915  0.441309  1
  Y  Y3  1  0.210085  0.420171  0.441309  1
  Y  Y4  1  0.579829  0.789915  0.441309  1
  Y  Y5  1  0.790996  0.209004  0.559406  1
  Y  Y6  1  0.790996  0.581992  0.559406  1
  Y  Y7  1  0.418008  0.209004  0.559406  1
  Y  Y8  1  0.790996  0.209004  0.940594  1
  Y  Y9  1  0.790996  0.581992  0.940594  1
  Y  Y10  1  0.418008  0.209004  0.940594  1
  Y  Y11  1  0.210085  0.789915  0.058691  1
  Y  Y12  1  0.210085  0.420171  0.058691  1
  Y  Y13  1  0.579829  0.789915  0.058691  1
  Y  Y14  1  0.539960  0.460040  0.250000  1
  Y  Y15  1  0.539960  0.079919  0.250000  1
  Y  Y16  1  0.920081  0.460040  0.250000  1
  Y  Y17  1  0.459641  0.540359  0.750000  1
  Y  Y18  1  0.459641  0.919280  0.750000  1
  Y  Y19  1  0.080720  0.540359  0.750000  1
  Cd  Cd20  1  0.111178  0.888822  0.750000  1
  Cd  Cd21  1  0.111178  0.222354  0.750000  1
  Cd  Cd22  1  0.777646  0.888822  0.750000  1
  Ag  Ag23  1  0.876753  0.123247  0.250000  1
  Ag  Ag24  1  0.876753  0.753507  0.250000  1
  Ag  Ag25  1  0.246493  0.123247  0.250000  1
  Os  Os26  1  0.333333  0.666667  0.250000  1
  Os  Os27  1  0.666667  0.333333  0.750000  1
