# generated using pymatgen
data_Zr8Cd4Ir3Au5
_symmetry_space_group_name_H-M   'P 1'
_cell_length_a   7.68807679
_cell_length_b   7.68807699
_cell_length_c   6.89762814
_cell_angle_alpha   90.18181687
_cell_angle_beta   90.18181052
_cell_angle_gamma   90.73979660
_symmetry_Int_Tables_number   1
_chemical_formula_structural   Zr8Cd4Ir3Au5
_chemical_formula_sum   'Zr8 Cd4 Ir3 Au5'
_cell_volume   407.65669525
_cell_formula_units_Z   1
loop_
 _symmetry_equiv_pos_site_id
 _symmetry_equiv_pos_as_xyz
  1  'x, y, z'
loop_
 _atom_site_type_symbol
 _atom_site_label
 _atom_site_symmetry_multiplicity
 _atom_site_fract_x
 _atom_site_fract_y
 _atom_site_fract_z
 _atom_site_occupancy
  Zr  Zr0  1  0.154360  0.154360  0.010286  1
  Zr  Zr1  1  0.831578  0.831578  0.996279  1
  Zr  Zr2  1  0.651951  0.358462  0.492990  1
  Zr  Zr3  1  0.358462  0.651951  0.492990  1
  Zr  Zr4  1  0.679398  0.335902  0.005591  1
  Zr  Zr5  1  0.335902  0.679398  0.005591  1
  Zr  Zr6  1  0.803829  0.803829  0.501617  1
  Zr  Zr7  1  0.192660  0.192660  0.490381  1
  Cd  Cd8  1  0.500835  0.004097  0.251242  1
  Cd  Cd9  1  0.500840  0.997889  0.744425  1
  Cd  Cd10  1  0.004097  0.500835  0.251242  1
  Cd  Cd11  1  0.997889  0.500840  0.744425  1
  Ir  Ir12  1  0.368175  0.368175  0.225467  1
  Ir  Ir13  1  0.626055  0.626055  0.772718  1
  Ir  Ir14  1  0.632262  0.632262  0.222997  1
  Au  Au15  1  0.868605  0.131217  0.720114  1
  Au  Au16  1  0.868274  0.128246  0.281730  1
  Au  Au17  1  0.365365  0.365365  0.788070  1
  Au  Au18  1  0.128246  0.868274  0.281730  1
  Au  Au19  1  0.131217  0.868605  0.720114  1
