# generated using pymatgen
data_TbDy7CdNi2Ag
_symmetry_space_group_name_H-M   'P 1'
_cell_length_a   9.48439915
_cell_length_b   9.48439872
_cell_length_c   9.46550000
_cell_angle_alpha   60.06589318
_cell_angle_beta   60.06589468
_cell_angle_gamma   60.07624693
_symmetry_Int_Tables_number   1
_chemical_formula_structural   TbDy7CdNi2Ag
_chemical_formula_sum   'Tb2 Dy14 Cd2 Ni4 Ag2'
_cell_volume   603.01782711
_cell_formula_units_Z   2
loop_
 _symmetry_equiv_pos_site_id
 _symmetry_equiv_pos_as_xyz
  1  'x, y, z'
loop_
 _atom_site_type_symbol
 _atom_site_label
 _atom_site_symmetry_multiplicity
 _atom_site_fract_x
 _atom_site_fract_y
 _atom_site_fract_z
 _atom_site_occupancy
  Tb  Tb0  1  0.598788  0.598788  0.598517  1
  Tb  Tb1  1  0.598788  0.598788  0.203910  1
  Dy  Dy2  1  0.601640  0.198146  0.600108  1
  Dy  Dy3  1  0.198146  0.601640  0.600108  1
  Dy  Dy4  1  0.061985  0.438715  0.439393  1
  Dy  Dy5  1  0.438715  0.061985  0.059907  1
  Dy  Dy6  1  0.438715  0.061985  0.439393  1
  Dy  Dy7  1  0.061985  0.438715  0.059907  1
  Dy  Dy8  1  0.439491  0.439491  0.060509  1
  Dy  Dy9  1  0.061729  0.061729  0.438271  1
  Dy  Dy10  1  0.182985  0.813705  0.814940  1
  Dy  Dy11  1  0.813705  0.182985  0.188370  1
  Dy  Dy12  1  0.813705  0.182985  0.814940  1
  Dy  Dy13  1  0.182985  0.813705  0.188370  1
  Dy  Dy14  1  0.813377  0.813377  0.186623  1
  Dy  Dy15  1  0.185756  0.185756  0.814244  1
  Cd  Cd16  1  0.831994  0.509089  0.829458  1
  Cd  Cd17  1  0.509089  0.831994  0.829458  1
  Ni  Ni18  1  0.392643  0.392643  0.394302  1
  Ni  Ni19  1  0.392643  0.392643  0.820412  1
  Ni  Ni20  1  0.390734  0.822841  0.393213  1
  Ni  Ni21  1  0.822841  0.390734  0.393213  1
  Ag  Ag22  1  0.833781  0.833781  0.831587  1
  Ag  Ag23  1  0.833781  0.833781  0.500850  1
