# generated using pymatgen
data_Ca2Tm4Al17Si7Os8
_symmetry_space_group_name_H-M   'P 1'
_cell_length_a   8.68510839
_cell_length_b   8.66657425
_cell_length_c   9.52740100
_cell_angle_alpha   90.00000000
_cell_angle_beta   90.00000000
_cell_angle_gamma   120.27477378
_symmetry_Int_Tables_number   1
_chemical_formula_structural   Ca2Tm4Al17Si7Os8
_chemical_formula_sum   'Ca2 Tm4 Al17 Si7 Os8'
_cell_volume   619.32503333
_cell_formula_units_Z   1
loop_
 _symmetry_equiv_pos_site_id
 _symmetry_equiv_pos_as_xyz
  1  'x, y, z'
loop_
 _atom_site_type_symbol
 _atom_site_label
 _atom_site_symmetry_multiplicity
 _atom_site_fract_x
 _atom_site_fract_y
 _atom_site_fract_z
 _atom_site_occupancy
  Ca  Ca0  1  0.806524  0.613444  0.750000  1
  Ca  Ca1  1  0.387969  0.191904  0.750000  1
  Tm  Tm2  1  0.194764  0.391978  0.250000  1
  Tm  Tm3  1  0.607006  0.804991  0.250000  1
  Tm  Tm4  1  0.197133  0.803517  0.250000  1
  Tm  Tm5  1  0.800656  0.191377  0.750000  1
  Al  Al6  1  0.164819  0.331854  0.578564  1
  Al  Al7  1  0.834088  0.669507  0.421212  1
  Al  Al8  1  0.670007  0.835022  0.578311  1
  Al  Al9  1  0.834088  0.669507  0.078788  1
  Al  Al10  1  0.331479  0.165784  0.422568  1
  Al  Al11  1  0.164819  0.331854  0.921436  1
  Al  Al12  1  0.164973  0.834123  0.575632  1
  Al  Al13  1  0.331479  0.165784  0.077432  1
  Al  Al14  1  0.834800  0.164123  0.420994  1
  Al  Al15  1  0.670007  0.835022  0.921689  1
  Al  Al16  1  0.834800  0.164123  0.079006  1
  Al  Al17  1  0.164973  0.834123  0.924368  1
  Al  Al18  1  0.125334  0.565836  0.750000  1
  Al  Al19  1  0.564625  0.434497  0.250000  1
  Al  Al20  1  0.439522  0.565547  0.750000  1
  Al  Al21  1  0.999539  0.998934  0.250000  1
  Al  Al22  1  0.998418  0.001052  0.750000  1
  Si  Si23  1  0.333329  0.664939  0.041559  1
  Si  Si24  1  0.666592  0.335980  0.959795  1
  Si  Si25  1  0.666592  0.335980  0.540205  1
  Si  Si26  1  0.333329  0.664939  0.458441  1
  Si  Si27  1  0.564563  0.124694  0.250000  1
  Si  Si28  1  0.435309  0.871787  0.750000  1
  Si  Si29  1  0.874013  0.434599  0.250000  1
  Os  Os30  1  0.501559  0.999487  0.003877  1
  Os  Os31  1  0.000089  0.499221  0.009272  1
  Os  Os32  1  0.501559  0.999487  0.496123  1
  Os  Os33  1  0.499536  0.501672  0.004205  1
  Os  Os34  1  0.000089  0.499221  0.490728  1
  Os  Os35  1  0.499536  0.501672  0.495795  1
  Os  Os36  1  0.001042  0.001207  0.000200  1
  Os  Os37  1  0.001042  0.001207  0.499800  1
