# generated using pymatgen
data_Sc3Al3GePd2
_symmetry_space_group_name_H-M   'P 1'
_cell_length_a   6.84071500
_cell_length_b   6.84071478
_cell_length_c   3.91942400
_cell_angle_alpha   90.00000000
_cell_angle_beta   90.00000000
_cell_angle_gamma   119.99999625
_symmetry_Int_Tables_number   1
_chemical_formula_structural   Sc3Al3GePd2
_chemical_formula_sum   'Sc3 Al3 Ge1 Pd2'
_cell_volume   158.83853605
_cell_formula_units_Z   1
loop_
 _symmetry_equiv_pos_site_id
 _symmetry_equiv_pos_as_xyz
  1  'x, y, z'
loop_
 _atom_site_type_symbol
 _atom_site_label
 _atom_site_symmetry_multiplicity
 _atom_site_fract_x
 _atom_site_fract_y
 _atom_site_fract_z
 _atom_site_occupancy
  Sc  Sc0  1  0.584448  0.004731  0.000000  1
  Sc  Sc1  1  0.995269  0.579717  0.000000  1
  Sc  Sc2  1  0.420283  0.415552  0.000000  1
  Al  Al3  1  0.250779  0.009036  0.500000  1
  Al  Al4  1  0.990964  0.241743  0.500000  1
  Al  Al5  1  0.758257  0.749221  0.500000  1
  Ge  Ge6  1  0.333333  0.666667  0.500000  1
  Pd  Pd7  1  0.000000  0.000000  0.000000  1
  Pd  Pd8  1  0.666667  0.333333  0.500000  1
