# generated using pymatgen
data_Tb4Nd3ErAu4
_symmetry_space_group_name_H-M   'P 1'
_cell_length_a   5.00465800
_cell_length_b   7.29415191
_cell_length_c   9.06349518
_cell_angle_alpha   89.36572760
_cell_angle_beta   90.00000000
_cell_angle_gamma   90.00000000
_symmetry_Int_Tables_number   1
_chemical_formula_structural   Tb4Nd3ErAu4
_chemical_formula_sum   'Tb4 Nd3 Er1 Au4'
_cell_volume   330.84022338
_cell_formula_units_Z   1
loop_
 _symmetry_equiv_pos_site_id
 _symmetry_equiv_pos_as_xyz
  1  'x, y, z'
loop_
 _atom_site_type_symbol
 _atom_site_label
 _atom_site_symmetry_multiplicity
 _atom_site_fract_x
 _atom_site_fract_y
 _atom_site_fract_z
 _atom_site_occupancy
  Tb  Tb0  1  0.250000  0.347427  0.584928  1
  Tb  Tb1  1  0.750000  0.151579  0.078609  1
  Tb  Tb2  1  0.750000  0.652215  0.418470  1
  Tb  Tb3  1  0.750000  0.512895  0.821216  1
  Nd  Nd4  1  0.250000  0.490905  0.179120  1
  Nd  Nd5  1  0.250000  0.989689  0.323865  1
  Nd  Nd6  1  0.750000  0.008777  0.678030  1
  Er  Er7  1  0.250000  0.850158  0.919401  1
  Au  Au8  1  0.250000  0.249526  0.902602  1
  Au  Au9  1  0.250000  0.743860  0.605506  1
  Au  Au10  1  0.750000  0.749555  0.088638  1
  Au  Au11  1  0.750000  0.253413  0.399613  1
