# generated using pymatgen
data_Ac5Er3(As3Rh4)4
_symmetry_space_group_name_H-M   'P 1'
_cell_length_a   13.76667900
_cell_length_b   13.76667898
_cell_length_c   4.14569300
_cell_angle_alpha   90.00000000
_cell_angle_beta   90.00000000
_cell_angle_gamma   119.99999766
_symmetry_Int_Tables_number   1
_chemical_formula_structural   Ac5Er3(As3Rh4)4
_chemical_formula_sum   'Ac5 Er3 As12 Rh16'
_cell_volume   680.43422732
_cell_formula_units_Z   1
loop_
 _symmetry_equiv_pos_site_id
 _symmetry_equiv_pos_as_xyz
  1  'x, y, z'
loop_
 _atom_site_type_symbol
 _atom_site_label
 _atom_site_symmetry_multiplicity
 _atom_site_fract_x
 _atom_site_fract_y
 _atom_site_fract_z
 _atom_site_occupancy
  Ac  Ac0  1  0.186822  0.186822  0.500000  1
  Ac  Ac1  1  0.813178  0.000000  0.500000  1
  Ac  Ac2  1  0.000000  0.813178  0.500000  1
  Ac  Ac3  1  0.333333  0.666667  0.000000  1
  Ac  Ac4  1  0.666667  0.333333  0.000000  1
  Er  Er5  1  0.561393  0.561393  0.000000  1
  Er  Er6  1  0.438607  0.000000  0.000000  1
  Er  Er7  1  0.000000  0.438607  0.000000  1
  As  As8  1  0.818578  0.818578  0.000000  1
  As  As9  1  0.181422  0.000000  0.000000  1
  As  As10  1  0.000000  0.181422  0.000000  1
  As  As11  1  0.169891  0.479494  0.500000  1
  As  As12  1  0.520506  0.690397  0.500000  1
  As  As13  1  0.309603  0.830109  0.500000  1
  As  As14  1  0.690397  0.520506  0.500000  1
  As  As15  1  0.830109  0.309603  0.500000  1
  As  As16  1  0.479494  0.169891  0.500000  1
  As  As17  1  0.358989  0.358989  0.000000  1
  As  As18  1  0.641011  0.000000  0.000000  1
  As  As19  1  0.000000  0.641011  0.000000  1
  Rh  Rh20  1  0.717843  0.717843  0.500000  1
  Rh  Rh21  1  0.282157  0.000000  0.500000  1
  Rh  Rh22  1  0.000000  0.282157  0.500000  1
  Rh  Rh23  1  0.176520  0.376278  0.000000  1
  Rh  Rh24  1  0.623722  0.800241  0.000000  1
  Rh  Rh25  1  0.199759  0.823480  0.000000  1
  Rh  Rh26  1  0.800241  0.623722  0.000000  1
  Rh  Rh27  1  0.823480  0.199759  0.000000  1
  Rh  Rh28  1  0.376278  0.176520  0.000000  1
  Rh  Rh29  1  0.353388  0.478118  0.500000  1
  Rh  Rh30  1  0.521882  0.875271  0.500000  1
  Rh  Rh31  1  0.124729  0.646612  0.500000  1
  Rh  Rh32  1  0.875271  0.521882  0.500000  1
  Rh  Rh33  1  0.646612  0.124729  0.500000  1
  Rh  Rh34  1  0.478118  0.353388  0.500000  1
  Rh  Rh35  1  0.000000  0.000000  0.000000  1
