# generated using pymatgen
data_La2NiRh3
_symmetry_space_group_name_H-M   'P 1'
_cell_length_a   5.51781615
_cell_length_b   5.51781600
_cell_length_c   5.27598923
_cell_angle_alpha   58.47182854
_cell_angle_beta   58.47183160
_cell_angle_gamma   60.00000319
_symmetry_Int_Tables_number   1
_chemical_formula_structural   La2NiRh3
_chemical_formula_sum   'La2 Ni1 Rh3'
_cell_volume   110.89087465
_cell_formula_units_Z   1
loop_
 _symmetry_equiv_pos_site_id
 _symmetry_equiv_pos_as_xyz
  1  'x, y, z'
loop_
 _atom_site_type_symbol
 _atom_site_label
 _atom_site_symmetry_multiplicity
 _atom_site_fract_x
 _atom_site_fract_y
 _atom_site_fract_z
 _atom_site_occupancy
  La  La0  1  0.752711  0.752711  0.741867  1
  La  La1  1  0.497289  0.497289  0.508133  1
  Ni  Ni2  1  0.125000  0.125000  0.625000  1
  Rh  Rh3  1  0.125000  0.625000  0.125000  1
  Rh  Rh4  1  0.125000  0.125000  0.125000  1
  Rh  Rh5  1  0.625000  0.125000  0.125000  1
