# generated using pymatgen
data_Y5ErAl24(IrOs3)2
_symmetry_space_group_name_H-M   'P 1'
_cell_length_a   8.83451556
_cell_length_b   8.83451554
_cell_length_c   9.54785800
_cell_angle_alpha   89.99709173
_cell_angle_beta   90.00290664
_cell_angle_gamma   119.88514535
_symmetry_Int_Tables_number   1
_chemical_formula_structural   Y5ErAl24(IrOs3)2
_chemical_formula_sum   'Y5 Er1 Al24 Ir2 Os6'
_cell_volume   646.10563732
_cell_formula_units_Z   1
loop_
 _symmetry_equiv_pos_site_id
 _symmetry_equiv_pos_as_xyz
  1  'x, y, z'
loop_
 _atom_site_type_symbol
 _atom_site_label
 _atom_site_symmetry_multiplicity
 _atom_site_fract_x
 _atom_site_fract_y
 _atom_site_fract_z
 _atom_site_occupancy
  Y  Y0  1  0.188910  0.386130  0.249994  1
  Y  Y1  1  0.811082  0.613996  0.749999  1
  Y  Y2  1  0.613870  0.811090  0.249994  1
  Y  Y3  1  0.386004  0.188918  0.749999  1
  Y  Y4  1  0.194734  0.805266  0.250000  1
  Er  Er5  1  0.804679  0.195321  0.750061  1
  Al  Al6  1  0.332725  0.667275  0.019319  1
  Al  Al7  1  0.667327  0.332673  0.980069  1
  Al  Al8  1  0.667332  0.332668  0.519968  1
  Al  Al9  1  0.332735  0.667265  0.480658  1
  Al  Al10  1  0.162075  0.325198  0.576805  1
  Al  Al11  1  0.837501  0.674464  0.423667  1
  Al  Al12  1  0.674802  0.837925  0.576805  1
  Al  Al13  1  0.837519  0.674477  0.076357  1
  Al  Al14  1  0.325536  0.162499  0.423667  1
  Al  Al15  1  0.162083  0.325193  0.923164  1
  Al  Al16  1  0.163946  0.836054  0.574912  1
  Al  Al17  1  0.325523  0.162481  0.076357  1
  Al  Al18  1  0.836085  0.163915  0.426078  1
  Al  Al19  1  0.674807  0.837917  0.923164  1
  Al  Al20  1  0.836091  0.163909  0.073963  1
  Al  Al21  1  0.163954  0.836046  0.925066  1
  Al  Al22  1  0.560160  0.122733  0.250004  1
  Al  Al23  1  0.440730  0.877643  0.749983  1
  Al  Al24  1  0.877267  0.439840  0.250004  1
  Al  Al25  1  0.122357  0.559270  0.749983  1
  Al  Al26  1  0.560523  0.439477  0.250001  1
  Al  Al27  1  0.439474  0.560526  0.749993  1
  Al  Al28  1  0.999587  0.000413  0.249986  1
  Al  Al29  1  0.999445  0.000555  0.750009  1
  Ir  Ir30  1  0.500171  0.499829  0.000015  1
  Ir  Ir31  1  0.500170  0.499830  0.499990  1
  Os  Os32  1  0.500216  0.999914  0.999761  1
  Os  Os33  1  0.000086  0.499784  0.999761  1
  Os  Os34  1  0.500247  0.999939  0.500233  1
  Os  Os35  1  0.000061  0.499753  0.500233  1
  Os  Os36  1  0.000089  0.999911  0.999937  1
  Os  Os37  1  0.000094  0.999906  0.500042  1
