# generated using pymatgen
data_Hf8Al14GaRh7
_symmetry_space_group_name_H-M   'P 1'
_cell_length_a   8.87792712
_cell_length_b   8.87786602
_cell_length_c   8.87772846
_cell_angle_alpha   120.31034588
_cell_angle_beta   119.79177649
_cell_angle_gamma   89.91438967
_symmetry_Int_Tables_number   1
_chemical_formula_structural   Hf8Al14GaRh7
_chemical_formula_sum   'Hf8 Al14 Ga1 Rh7'
_cell_volume   494.36943823
_cell_formula_units_Z   1
loop_
 _symmetry_equiv_pos_site_id
 _symmetry_equiv_pos_as_xyz
  1  'x, y, z'
loop_
 _atom_site_type_symbol
 _atom_site_label
 _atom_site_symmetry_multiplicity
 _atom_site_fract_x
 _atom_site_fract_y
 _atom_site_fract_z
 _atom_site_occupancy
  Hf  Hf0  1  0.801926  0.296229  0.083440  1
  Hf  Hf1  1  0.212784  0.296237  0.494307  1
  Hf  Hf2  1  0.196335  0.696333  0.500002  1
  Hf  Hf3  1  0.212763  0.718470  0.916548  1
  Hf  Hf4  1  0.801931  0.718464  0.505706  1
  Hf  Hf5  1  0.780599  0.280610  0.500023  1
  Hf  Hf6  1  0.379197  0.120108  0.740915  1
  Hf  Hf7  1  0.379183  0.638266  0.259076  1
  Al  Al8  1  0.159488  0.333463  0.173960  1
  Al  Al9  1  0.159508  0.985539  0.826047  1
  Al  Al10  1  0.150882  0.343257  0.807602  1
  Al  Al11  1  0.535656  0.343261  0.192384  1
  Al  Al12  1  0.839177  0.658265  0.819082  1
  Al  Al13  1  0.839184  0.020112  0.180944  1
  Al  Al14  1  0.837928  0.661186  0.176743  1
  Al  Al15  1  0.484451  0.661198  0.823274  1
  Al  Al16  1  0.379046  0.121921  0.257131  1
  Al  Al17  1  0.864792  0.121908  0.742863  1
  Al  Al18  1  0.622107  0.875627  0.253539  1
  Al  Al19  1  0.622080  0.368571  0.746469  1
  Al  Al20  1  0.622107  0.878353  0.743757  1
  Al  Al21  1  0.134603  0.878368  0.256268  1
  Ga  Ga22  1  0.987107  0.487107  0.499996  1
  Rh  Rh23  1  0.999155  0.999833  0.502143  1
  Rh  Rh24  1  0.497714  0.999859  0.000687  1
  Rh  Rh25  1  0.498192  0.498200  0.000013  1
  Rh  Rh26  1  0.497700  0.496981  0.497847  1
  Rh  Rh27  1  0.999094  0.496976  0.999221  1
  Rh  Rh28  1  0.998853  0.998857  0.000007  1
  Rh  Rh29  1  0.506449  0.006443  0.500004  1
