# generated using pymatgen
data_NaPH2
_symmetry_space_group_name_H-M   'P 1'
_cell_length_a   4.08359602
_cell_length_b   5.00441713
_cell_length_c   4.09334379
_cell_angle_alpha   114.48505266
_cell_angle_beta   60.87355245
_cell_angle_gamma   85.78098822
_symmetry_Int_Tables_number   1
_chemical_formula_structural   NaPH2
_chemical_formula_sum   'Na1 P1 H2'
_cell_volume   62.38736113
_cell_formula_units_Z   1
loop_
 _symmetry_equiv_pos_site_id
 _symmetry_equiv_pos_as_xyz
  1  'x, y, z'
loop_
 _atom_site_type_symbol
 _atom_site_label
 _atom_site_symmetry_multiplicity
 _atom_site_fract_x
 _atom_site_fract_y
 _atom_site_fract_z
 _atom_site_occupancy
  Na  Na0  1  0.863556  0.092233  0.405258  1
  P  P1  1  0.394752  0.594534  0.357422  1
  H  H2  1  0.661416  0.629970  0.493356  1
  H  H3  1  0.123711  0.560140  0.715324  1
