# generated using pymatgen
data_LaPr4ThU4O20
_symmetry_space_group_name_H-M   'P 1'
_cell_length_a   6.83318039
_cell_length_b   7.74870636
_cell_length_c   8.70794613
_cell_angle_alpha   101.69704893
_cell_angle_beta   97.49747467
_cell_angle_gamma   106.98379740
_symmetry_Int_Tables_number   1
_chemical_formula_structural   LaPr4ThU4O20
_chemical_formula_sum   'La1 Pr4 Th1 U4 O20'
_cell_volume   422.85382531
_cell_formula_units_Z   1
loop_
 _symmetry_equiv_pos_site_id
 _symmetry_equiv_pos_as_xyz
  1  'x, y, z'
loop_
 _atom_site_type_symbol
 _atom_site_label
 _atom_site_symmetry_multiplicity
 _atom_site_fract_x
 _atom_site_fract_y
 _atom_site_fract_z
 _atom_site_occupancy
  La  La0  1  0.000000  0.500000  0.500000  1
  Pr  Pr1  1  0.606050  0.700961  0.701767  1
  Pr  Pr2  1  0.393950  0.299039  0.298233  1
  Pr  Pr3  1  0.200113  0.897626  0.898606  1
  Pr  Pr4  1  0.799887  0.102374  0.101394  1
  Th  Th5  1  0.000000  0.000000  0.500000  1
  U  U6  1  0.400000  0.801275  0.299711  1
  U  U7  1  0.201525  0.403405  0.903638  1
  U  U8  1  0.798475  0.596595  0.096362  1
  U  U9  1  0.600000  0.198725  0.700289  1
  O  O10  1  0.442797  0.535788  0.135079  1
  O  O11  1  0.556199  0.995177  0.837353  1
  O  O12  1  0.269049  0.149932  0.743681  1
  O  O13  1  0.361977  0.600125  0.436979  1
  O  O14  1  0.056839  0.733075  0.329601  1
  O  O15  1  0.443801  0.004823  0.162647  1
  O  O16  1  0.151564  0.191709  0.031785  1
  O  O17  1  0.557203  0.464212  0.864921  1
  O  O18  1  0.852824  0.341830  0.946206  1
  O  O19  1  0.254341  0.602852  0.764872  1
  O  O20  1  0.953895  0.779631  0.648871  1
  O  O21  1  0.353480  0.057604  0.455853  1
  O  O22  1  0.646520  0.942396  0.544147  1
  O  O23  1  0.046105  0.220369  0.351129  1
  O  O24  1  0.745659  0.397148  0.235128  1
  O  O25  1  0.147176  0.658170  0.053794  1
  O  O26  1  0.848436  0.808291  0.968215  1
  O  O27  1  0.943161  0.266925  0.670399  1
  O  O28  1  0.638023  0.399875  0.563021  1
  O  O29  1  0.730951  0.850068  0.256319  1
