# generated using pymatgen
data_CaTb3Sn4Sb2Rh7
_symmetry_space_group_name_H-M   'P 1'
_cell_length_a   7.63246311
_cell_length_b   7.63267873
_cell_length_c   7.63267793
_cell_angle_alpha   109.47673982
_cell_angle_beta   109.46497120
_cell_angle_gamma   109.46498089
_symmetry_Int_Tables_number   1
_chemical_formula_structural   CaTb3Sn4Sb2Rh7
_chemical_formula_sum   'Ca1 Tb3 Sn4 Sb2 Rh7'
_cell_volume   342.32143237
_cell_formula_units_Z   1
loop_
 _symmetry_equiv_pos_site_id
 _symmetry_equiv_pos_as_xyz
  1  'x, y, z'
loop_
 _atom_site_type_symbol
 _atom_site_label
 _atom_site_symmetry_multiplicity
 _atom_site_fract_x
 _atom_site_fract_y
 _atom_site_fract_z
 _atom_site_occupancy
  Ca  Ca0  1  0.492248  0.999148  0.999148  1
  Tb  Tb1  1  0.998116  0.499159  0.999017  1
  Tb  Tb2  1  0.998116  0.999017  0.499159  1
  Tb  Tb3  1  0.491318  0.492647  0.492647  1
  Sn  Sn4  1  0.991379  0.313537  0.313537  1
  Sn  Sn5  1  0.685292  0.996873  0.691120  1
  Sn  Sn6  1  0.685292  0.691120  0.996873  1
  Sn  Sn7  1  0.996366  0.680127  0.680127  1
  Sb  Sb8  1  0.321674  0.997519  0.321392  1
  Sb  Sb9  1  0.321674  0.321392  0.997519  1
  Rh  Rh10  1  0.015011  0.008051  0.008051  1
  Rh  Rh11  1  0.503229  0.749905  0.253735  1
  Rh  Rh12  1  0.749859  0.505364  0.247997  1
  Rh  Rh13  1  0.248668  0.746874  0.497532  1
  Rh  Rh14  1  0.248668  0.497532  0.746874  1
  Rh  Rh15  1  0.503229  0.253735  0.749905  1
  Rh  Rh16  1  0.749859  0.247997  0.505364  1
