# generated using pymatgen
data_TbSm2Y3NiI10
_symmetry_space_group_name_H-M   'P 1'
_cell_length_a   7.73757958
_cell_length_b   9.72699755
_cell_length_c   9.78953651
_cell_angle_alpha   107.25514868
_cell_angle_beta   96.81519808
_cell_angle_gamma   104.91496640
_symmetry_Int_Tables_number   1
_chemical_formula_structural   TbSm2Y3NiI10
_chemical_formula_sum   'Tb1 Sm2 Y3 Ni1 I10'
_cell_volume   664.57149638
_cell_formula_units_Z   1
loop_
 _symmetry_equiv_pos_site_id
 _symmetry_equiv_pos_as_xyz
  1  'x, y, z'
loop_
 _atom_site_type_symbol
 _atom_site_label
 _atom_site_symmetry_multiplicity
 _atom_site_fract_x
 _atom_site_fract_y
 _atom_site_fract_z
 _atom_site_occupancy
  Tb  Tb0  1  0.029666  0.719381  0.915554  1
  Sm  Sm1  1  0.885404  0.959069  0.238785  1
  Sm  Sm2  1  0.114504  0.041241  0.761283  1
  Y  Y3  1  0.970576  0.280764  0.084452  1
  Y  Y4  1  0.657739  0.877873  0.838256  1
  Y  Y5  1  0.342157  0.122367  0.161797  1
  Ni  Ni6  1  0.999976  0.999714  0.999921  1
  I  I7  1  0.647010  0.548884  0.728138  1
  I  I8  1  0.352584  0.451011  0.271709  1
  I  I9  1  0.734594  0.910230  0.538678  1
  I  I10  1  0.265403  0.089762  0.461299  1
  I  I11  1  0.084100  0.375117  0.821706  1
  I  I12  1  0.915803  0.624394  0.178533  1
  I  I13  1  0.450339  0.814929  0.090776  1
  I  I14  1  0.549898  0.185179  0.909343  1
  I  I15  1  0.224638  0.739067  0.654908  1
  I  I16  1  0.775610  0.261020  0.344860  1
