# generated using pymatgen
data_Hf4Zr2CuBi2
_symmetry_space_group_name_H-M   'P 1'
_cell_length_a   7.78481539
_cell_length_b   7.78481554
_cell_length_c   3.79475900
_cell_angle_alpha   90.00000000
_cell_angle_beta   90.00000000
_cell_angle_gamma   119.96351201
_symmetry_Int_Tables_number   1
_chemical_formula_structural   Hf4Zr2CuBi2
_chemical_formula_sum   'Hf4 Zr2 Cu1 Bi2'
_cell_volume   199.23747942
_cell_formula_units_Z   1
loop_
 _symmetry_equiv_pos_site_id
 _symmetry_equiv_pos_as_xyz
  1  'x, y, z'
loop_
 _atom_site_type_symbol
 _atom_site_label
 _atom_site_symmetry_multiplicity
 _atom_site_fract_x
 _atom_site_fract_y
 _atom_site_fract_z
 _atom_site_occupancy
  Hf  Hf0  1  0.388380  0.388380  0.500000  1
  Hf  Hf1  1  0.765533  0.765533  0.000000  1
  Hf  Hf2  1  0.235849  0.001517  0.000000  1
  Hf  Hf3  1  0.001517  0.235849  0.000000  1
  Zr  Zr4  1  0.607205  0.000383  0.500000  1
  Zr  Zr5  1  0.000383  0.607205  0.500000  1
  Cu  Cu6  1  0.000499  0.000499  0.500000  1
  Bi  Bi7  1  0.666625  0.334008  0.000000  1
  Bi  Bi8  1  0.334008  0.666625  0.000000  1
