# generated using pymatgen
data_SrHf4(AsO4)6
_symmetry_space_group_name_H-M   'P 1'
_cell_length_a   9.08211911
_cell_length_b   9.08211792
_cell_length_c   9.59082033
_cell_angle_alpha   61.73958383
_cell_angle_beta   61.73958396
_cell_angle_gamma   60.00000023
_symmetry_Int_Tables_number   1
_chemical_formula_structural   SrHf4(AsO4)6
_chemical_formula_sum   'Sr1 Hf4 As6 O24'
_cell_volume   573.65046069
_cell_formula_units_Z   1
loop_
 _symmetry_equiv_pos_site_id
 _symmetry_equiv_pos_as_xyz
  1  'x, y, z'
loop_
 _atom_site_type_symbol
 _atom_site_label
 _atom_site_symmetry_multiplicity
 _atom_site_fract_x
 _atom_site_fract_y
 _atom_site_fract_z
 _atom_site_occupancy
  Sr  Sr0  1  0.500000  0.500000  0.500000  1
  Hf  Hf1  1  0.144332  0.144332  0.567002  1
  Hf  Hf2  1  0.855668  0.855668  0.432998  1
  Hf  Hf3  1  0.646405  0.646405  0.060787  1
  Hf  Hf4  1  0.353595  0.353595  0.939213  1
  As  As5  1  0.962572  0.252607  0.254415  1
  As  As6  1  0.252607  0.530405  0.254415  1
  As  As7  1  0.530405  0.962572  0.254415  1
  As  As8  1  0.037428  0.747393  0.745585  1
  As  As9  1  0.747393  0.469595  0.745585  1
  As  As10  1  0.469595  0.037428  0.745585  1
  O  O11  1  0.982940  0.269449  0.413907  1
  O  O12  1  0.269449  0.333704  0.413907  1
  O  O13  1  0.333704  0.982940  0.413907  1
  O  O14  1  0.017060  0.730551  0.586093  1
  O  O15  1  0.730551  0.666296  0.586093  1
  O  O16  1  0.666296  0.017060  0.586093  1
  O  O17  1  0.497566  0.875614  0.928767  1
  O  O18  1  0.875614  0.698055  0.928767  1
  O  O19  1  0.698055  0.497566  0.928767  1
  O  O20  1  0.502434  0.124386  0.071233  1
  O  O21  1  0.124386  0.301945  0.071233  1
  O  O22  1  0.301945  0.502434  0.071233  1
  O  O23  1  0.028716  0.953157  0.708879  1
  O  O24  1  0.953157  0.309248  0.708879  1
  O  O25  1  0.309248  0.028716  0.708879  1
  O  O26  1  0.971284  0.046843  0.291121  1
  O  O27  1  0.046843  0.690752  0.291121  1
  O  O28  1  0.690752  0.971284  0.291121  1
  O  O29  1  0.595502  0.755045  0.240482  1
  O  O30  1  0.755045  0.408970  0.240482  1
  O  O31  1  0.408970  0.595502  0.240482  1
  O  O32  1  0.404498  0.244955  0.759518  1
  O  O33  1  0.244955  0.591030  0.759518  1
  O  O34  1  0.591030  0.404498  0.759518  1
