# generated using pymatgen
data_Tm8LuTh3Ru4
_symmetry_space_group_name_H-M   'P 1'
_cell_length_a   6.26481614
_cell_length_b   7.18967002
_cell_length_c   9.35754403
_cell_angle_alpha   89.99625059
_cell_angle_beta   90.00868574
_cell_angle_gamma   89.56735339
_symmetry_Int_Tables_number   1
_chemical_formula_structural   Tm8LuTh3Ru4
_chemical_formula_sum   'Tm8 Lu1 Th3 Ru4'
_cell_volume   421.47010930
_cell_formula_units_Z   1
loop_
 _symmetry_equiv_pos_site_id
 _symmetry_equiv_pos_as_xyz
  1  'x, y, z'
loop_
 _atom_site_type_symbol
 _atom_site_label
 _atom_site_symmetry_multiplicity
 _atom_site_fract_x
 _atom_site_fract_y
 _atom_site_fract_z
 _atom_site_occupancy
  Tm  Tm0  1  0.861439  0.536161  0.249924  1
  Tm  Tm1  1  0.835762  0.822858  0.937405  1
  Tm  Tm2  1  0.664339  0.325556  0.936321  1
  Tm  Tm3  1  0.835668  0.822749  0.562619  1
  Tm  Tm4  1  0.329705  0.676187  0.069019  1
  Tm  Tm5  1  0.166964  0.175654  0.433144  1
  Tm  Tm6  1  0.329749  0.676162  0.430945  1
  Tm  Tm7  1  0.664307  0.325572  0.563769  1
  Lu  Lu8  1  0.166935  0.175572  0.066972  1
  Th  Th9  1  0.649872  0.046361  0.249842  1
  Th  Th10  1  0.352029  0.952927  0.750109  1
  Th  Th11  1  0.146399  0.454420  0.750110  1
  Ru  Ru12  1  0.459466  0.368127  0.249764  1
  Ru  Ru13  1  0.540053  0.629866  0.750040  1
  Ru  Ru14  1  0.962322  0.130825  0.750217  1
  Ru  Ru15  1  0.034988  0.881003  0.249799  1
