# generated using pymatgen
data_Ba3NdScSe6
_symmetry_space_group_name_H-M   'P 1'
_cell_length_a   8.80764353
_cell_length_b   8.80764211
_cell_length_c   8.80764292
_cell_angle_alpha   92.18253710
_cell_angle_beta   92.18253411
_cell_angle_gamma   92.18252779
_symmetry_Int_Tables_number   1
_chemical_formula_structural   Ba3NdScSe6
_chemical_formula_sum   'Ba6 Nd2 Sc2 Se12'
_cell_volume   681.72328529
_cell_formula_units_Z   2
loop_
 _symmetry_equiv_pos_site_id
 _symmetry_equiv_pos_as_xyz
  1  'x, y, z'
loop_
 _atom_site_type_symbol
 _atom_site_label
 _atom_site_symmetry_multiplicity
 _atom_site_fract_x
 _atom_site_fract_y
 _atom_site_fract_z
 _atom_site_occupancy
  Ba  Ba0  1  0.368894  0.750000  0.131106  1
  Ba  Ba1  1  0.131106  0.368894  0.750000  1
  Ba  Ba2  1  0.750000  0.131106  0.368894  1
  Ba  Ba3  1  0.631106  0.250000  0.868894  1
  Ba  Ba4  1  0.868894  0.631106  0.250000  1
  Ba  Ba5  1  0.250000  0.868894  0.631106  1
  Nd  Nd6  1  0.250000  0.250000  0.250000  1
  Nd  Nd7  1  0.750000  0.750000  0.750000  1
  Sc  Sc8  1  0.500000  0.500000  0.500000  1
  Sc  Sc9  1  0.000000  0.000000  0.000000  1
  Se  Se10  1  0.544031  0.414052  0.202446  1
  Se  Se11  1  0.202446  0.544031  0.414052  1
  Se  Se12  1  0.414052  0.202446  0.544031  1
  Se  Se13  1  0.955969  0.297554  0.085948  1
  Se  Se14  1  0.085948  0.955969  0.297554  1
  Se  Se15  1  0.297554  0.085948  0.955969  1
  Se  Se16  1  0.455969  0.585948  0.797554  1
  Se  Se17  1  0.797554  0.455969  0.585948  1
  Se  Se18  1  0.585948  0.797554  0.455969  1
  Se  Se19  1  0.044031  0.702446  0.914052  1
  Se  Se20  1  0.702446  0.914052  0.044031  1
  Se  Se21  1  0.914052  0.044031  0.702446  1
