# generated using pymatgen
data_U4VRe3C8
_symmetry_space_group_name_H-M   'P 1'
_cell_length_a   3.16778300
_cell_length_b   5.58562179
_cell_length_c   11.01307162
_cell_angle_alpha   89.93836755
_cell_angle_beta   90.00000000
_cell_angle_gamma   90.00000000
_symmetry_Int_Tables_number   1
_chemical_formula_structural   U4VRe3C8
_chemical_formula_sum   'U4 V1 Re3 C8'
_cell_volume   194.86559241
_cell_formula_units_Z   1
loop_
 _symmetry_equiv_pos_site_id
 _symmetry_equiv_pos_as_xyz
  1  'x, y, z'
loop_
 _atom_site_type_symbol
 _atom_site_label
 _atom_site_symmetry_multiplicity
 _atom_site_fract_x
 _atom_site_fract_y
 _atom_site_fract_z
 _atom_site_occupancy
  U  U0  1  0.250000  0.078832  0.860075  1
  U  U1  1  0.750000  0.920657  0.139745  1
  U  U2  1  0.250000  0.584938  0.642454  1
  U  U3  1  0.750000  0.417526  0.356341  1
  V  V4  1  0.250000  0.420848  0.100745  1
  Re  Re5  1  0.750000  0.083813  0.603960  1
  Re  Re6  1  0.750000  0.572665  0.899674  1
  Re  Re7  1  0.250000  0.918294  0.394553  1
  C  C8  1  0.250000  0.737495  0.994483  1
  C  C9  1  0.750000  0.258724  0.011426  1
  C  C10  1  0.250000  0.246429  0.506209  1
  C  C11  1  0.750000  0.756119  0.492599  1
  C  C12  1  0.250000  0.165931  0.242467  1
  C  C13  1  0.750000  0.337208  0.746004  1
  C  C14  1  0.250000  0.662938  0.253564  1
  C  C15  1  0.750000  0.837581  0.755701  1
