# generated using pymatgen
data_TbScB6Ru
_symmetry_space_group_name_H-M   'P 1'
_cell_length_a   3.56996000
_cell_length_b   8.97717800
_cell_length_c   11.36372200
_cell_angle_alpha   90.00000000
_cell_angle_beta   90.00000000
_cell_angle_gamma   90.00000000
_symmetry_Int_Tables_number   1
_chemical_formula_structural   TbScB6Ru
_chemical_formula_sum   'Tb4 Sc4 B24 Ru4'
_cell_volume   364.18645327
_cell_formula_units_Z   4
loop_
 _symmetry_equiv_pos_site_id
 _symmetry_equiv_pos_as_xyz
  1  'x, y, z'
loop_
 _atom_site_type_symbol
 _atom_site_label
 _atom_site_symmetry_multiplicity
 _atom_site_fract_x
 _atom_site_fract_y
 _atom_site_fract_z
 _atom_site_occupancy
  Tb  Tb0  1  0.000000  0.820483  0.085286  1
  Tb  Tb1  1  0.000000  0.179517  0.914714  1
  Tb  Tb2  1  0.000000  0.320483  0.414714  1
  Tb  Tb3  1  0.000000  0.679517  0.585286  1
  Sc  Sc4  1  0.000000  0.445351  0.126562  1
  Sc  Sc5  1  0.000000  0.554649  0.873438  1
  Sc  Sc6  1  0.000000  0.945351  0.373438  1
  Sc  Sc7  1  0.000000  0.054649  0.626562  1
  B  B8  1  0.500000  0.055750  0.067634  1
  B  B9  1  0.500000  0.944250  0.932366  1
  B  B10  1  0.500000  0.555750  0.432366  1
  B  B11  1  0.500000  0.444250  0.567634  1
  B  B12  1  0.500000  0.253687  0.081839  1
  B  B13  1  0.500000  0.746313  0.918161  1
  B  B14  1  0.500000  0.753687  0.418161  1
  B  B15  1  0.500000  0.246313  0.581839  1
  B  B16  1  0.500000  0.293860  0.235135  1
  B  B17  1  0.500000  0.706140  0.764865  1
  B  B18  1  0.500000  0.793860  0.264865  1
  B  B19  1  0.500000  0.206140  0.735135  1
  B  B20  1  0.500000  0.128976  0.317563  1
  B  B21  1  0.500000  0.871024  0.682437  1
  B  B22  1  0.500000  0.628976  0.182437  1
  B  B23  1  0.500000  0.371024  0.817563  1
  B  B24  1  0.500000  0.482589  0.285514  1
  B  B25  1  0.500000  0.517411  0.714486  1
  B  B26  1  0.500000  0.982589  0.214486  1
  B  B27  1  0.500000  0.017411  0.785514  1
  B  B28  1  0.500000  0.099357  0.473370  1
  B  B29  1  0.500000  0.900643  0.526630  1
  B  B30  1  0.500000  0.599357  0.026630  1
  B  B31  1  0.500000  0.400643  0.973370  1
  Ru  Ru32  1  0.000000  0.140728  0.181782  1
  Ru  Ru33  1  0.000000  0.859272  0.818218  1
  Ru  Ru34  1  0.000000  0.640728  0.318218  1
  Ru  Ru35  1  0.000000  0.359272  0.681782  1
