# generated using pymatgen
data_SrPrAl20IrRu3
_symmetry_space_group_name_H-M   'P 1'
_cell_length_a   6.90947479
_cell_length_b   6.91280441
_cell_length_c   9.23944793
_cell_angle_alpha   90.00663424
_cell_angle_beta   90.04982728
_cell_angle_gamma   96.71897447
_symmetry_Int_Tables_number   1
_chemical_formula_structural   SrPrAl20IrRu3
_chemical_formula_sum   'Sr1 Pr1 Al20 Ir1 Ru3'
_cell_volume   438.28046146
_cell_formula_units_Z   1
loop_
 _symmetry_equiv_pos_site_id
 _symmetry_equiv_pos_as_xyz
  1  'x, y, z'
loop_
 _atom_site_type_symbol
 _atom_site_label
 _atom_site_symmetry_multiplicity
 _atom_site_fract_x
 _atom_site_fract_y
 _atom_site_fract_z
 _atom_site_occupancy
  Sr  Sr0  1  0.878316  0.121843  0.750102  1
  Pr  Pr1  1  0.122831  0.875607  0.249714  1
  Al  Al2  1  0.409301  0.141351  0.748361  1
  Al  Al3  1  0.138792  0.412227  0.250485  1
  Al  Al4  1  0.588773  0.860602  0.251399  1
  Al  Al5  1  0.858781  0.588874  0.749585  1
  Al  Al6  1  0.519026  0.777930  0.747596  1
  Al  Al7  1  0.778196  0.516867  0.249697  1
  Al  Al8  1  0.482862  0.221959  0.252543  1
  Al  Al9  1  0.221206  0.481019  0.750500  1
  Al  Al10  1  0.839729  0.159664  0.398366  1
  Al  Al11  1  0.164962  0.836062  0.600974  1
  Al  Al12  1  0.841706  0.161062  0.102915  1
  Al  Al13  1  0.162447  0.834960  0.897882  1
  Al  Al14  1  0.622660  0.377803  0.546566  1
  Al  Al15  1  0.377961  0.622020  0.446322  1
  Al  Al16  1  0.623108  0.380395  0.952913  1
  Al  Al17  1  0.377066  0.619976  0.054564  1
  Al  Al18  1  0.774122  0.773098  0.001980  1
  Al  Al19  1  0.772042  0.773125  0.499672  1
  Al  Al20  1  0.224280  0.228626  0.999313  1
  Al  Al21  1  0.226182  0.228504  0.498674  1
  Ir  Ir22  1  0.498315  0.001182  0.000600  1
  Ru  Ru23  1  0.999591  0.502013  0.000835  1
  Ru  Ru24  1  0.497802  0.000629  0.499167  1
  Ru  Ru25  1  0.999941  0.502605  0.499277  1
