# generated using pymatgen
data_Er2Lu10ZnCo4Pb
_symmetry_space_group_name_H-M   'P 1'
_cell_length_a   8.20330642
_cell_length_b   8.17841351
_cell_length_c   8.20330567
_cell_angle_alpha   110.09777758
_cell_angle_beta   111.61244454
_cell_angle_gamma   106.85632906
_symmetry_Int_Tables_number   1
_chemical_formula_structural   Er2Lu10ZnCo4Pb
_chemical_formula_sum   'Er2 Lu10 Zn1 Co4 Pb1'
_cell_volume   422.29985716
_cell_formula_units_Z   1
loop_
 _symmetry_equiv_pos_site_id
 _symmetry_equiv_pos_as_xyz
  1  'x, y, z'
loop_
 _atom_site_type_symbol
 _atom_site_label
 _atom_site_symmetry_multiplicity
 _atom_site_fract_x
 _atom_site_fract_y
 _atom_site_fract_z
 _atom_site_occupancy
  Er  Er0  1  0.222895  0.016610  0.793715  1
  Er  Er1  1  0.777105  0.983390  0.206285  1
  Lu  Lu2  1  0.286331  0.184052  0.469103  1
  Lu  Lu3  1  0.713669  0.815948  0.530897  1
  Lu  Lu4  1  0.285050  0.815948  0.102278  1
  Lu  Lu5  1  0.714950  0.184052  0.897722  1
  Lu  Lu6  1  0.618978  0.316159  0.306177  1
  Lu  Lu7  1  0.381022  0.683841  0.693823  1
  Lu  Lu8  1  0.009983  0.316159  0.697182  1
  Lu  Lu9  1  0.990017  0.683841  0.302818  1
  Lu  Lu10  1  0.223481  0.429558  0.206076  1
  Lu  Lu11  1  0.776519  0.570442  0.793924  1
  Zn  Zn12  1  0.000000  0.000000  0.000000  1
  Co  Co13  1  0.001453  0.376679  0.375226  1
  Co  Co14  1  0.998547  0.623321  0.624774  1
  Co  Co15  1  0.385546  0.883625  0.498079  1
  Co  Co16  1  0.614454  0.116375  0.501921  1
  Pb  Pb17  1  0.500000  0.500000  0.000000  1
