# generated using pymatgen
data_Dy20Cd3Ni2Au3
_symmetry_space_group_name_H-M   'P 1'
_cell_length_a   9.59928600
_cell_length_b   9.59933027
_cell_length_c   9.53387600
_cell_angle_alpha   90.00000000
_cell_angle_beta   90.00000000
_cell_angle_gamma   120.00083405
_symmetry_Int_Tables_number   1
_chemical_formula_structural   Dy20Cd3Ni2Au3
_chemical_formula_sum   'Dy20 Cd3 Ni2 Au3'
_cell_volume   760.81023414
_cell_formula_units_Z   1
loop_
 _symmetry_equiv_pos_site_id
 _symmetry_equiv_pos_as_xyz
  1  'x, y, z'
loop_
 _atom_site_type_symbol
 _atom_site_label
 _atom_site_symmetry_multiplicity
 _atom_site_fract_x
 _atom_site_fract_y
 _atom_site_fract_z
 _atom_site_occupancy
  Dy  Dy0  1  0.000029  0.999983  0.459065  1
  Dy  Dy1  1  0.000029  0.999983  0.040935  1
  Dy  Dy2  1  0.541960  0.457967  0.250000  1
  Dy  Dy3  1  0.542020  0.083988  0.250000  1
  Dy  Dy4  1  0.916002  0.458049  0.250000  1
  Dy  Dy5  1  0.456609  0.543362  0.750000  1
  Dy  Dy6  1  0.456670  0.913286  0.750000  1
  Dy  Dy7  1  0.086707  0.543351  0.750000  1
  Dy  Dy8  1  0.209767  0.790267  0.437039  1
  Dy  Dy9  1  0.209715  0.419478  0.437015  1
  Dy  Dy10  1  0.580524  0.790244  0.437014  1
  Dy  Dy11  1  0.790680  0.209318  0.560382  1
  Dy  Dy12  1  0.790666  0.581364  0.560388  1
  Dy  Dy13  1  0.418640  0.209330  0.560387  1
  Dy  Dy14  1  0.790680  0.209318  0.939618  1
  Dy  Dy15  1  0.790666  0.581364  0.939612  1
  Dy  Dy16  1  0.418640  0.209330  0.939613  1
  Dy  Dy17  1  0.209767  0.790267  0.062961  1
  Dy  Dy18  1  0.209715  0.419478  0.062985  1
  Dy  Dy19  1  0.580524  0.790244  0.062986  1
  Cd  Cd20  1  0.109792  0.890216  0.750000  1
  Cd  Cd21  1  0.109788  0.219561  0.750000  1
  Cd  Cd22  1  0.780443  0.890203  0.750000  1
  Ni  Ni23  1  0.333323  0.666679  0.250000  1
  Ni  Ni24  1  0.666671  0.333334  0.750000  1
  Au  Au25  1  0.869208  0.130826  0.250000  1
  Au  Au26  1  0.869137  0.738377  0.250000  1
  Au  Au27  1  0.261630  0.130834  0.250000  1
