# generated using pymatgen
data_ErTmFe3P7Ru9
_symmetry_space_group_name_H-M   'P 1'
_cell_length_a   9.29059300
_cell_length_b   9.29059364
_cell_length_c   3.84890700
_cell_angle_alpha   90.00000000
_cell_angle_beta   90.00000000
_cell_angle_gamma   120.00000130
_symmetry_Int_Tables_number   1
_chemical_formula_structural   ErTmFe3P7Ru9
_chemical_formula_sum   'Er1 Tm1 Fe3 P7 Ru9'
_cell_volume   287.70999091
_cell_formula_units_Z   1
loop_
 _symmetry_equiv_pos_site_id
 _symmetry_equiv_pos_as_xyz
  1  'x, y, z'
loop_
 _atom_site_type_symbol
 _atom_site_label
 _atom_site_symmetry_multiplicity
 _atom_site_fract_x
 _atom_site_fract_y
 _atom_site_fract_z
 _atom_site_occupancy
  Er  Er0  1  0.333333  0.666667  0.000000  1
  Tm  Tm1  1  0.000000  0.000000  0.500000  1
  Fe  Fe2  1  0.934658  0.443697  0.000000  1
  Fe  Fe3  1  0.509039  0.065342  0.000000  1
  Fe  Fe4  1  0.556303  0.490961  0.000000  1
  P  P5  1  0.970411  0.223952  0.000000  1
  P  P6  1  0.253541  0.029589  0.000000  1
  P  P7  1  0.776048  0.746459  0.000000  1
  P  P8  1  0.063720  0.613992  0.500000  1
  P  P9  1  0.550271  0.936280  0.500000  1
  P  P10  1  0.386008  0.449729  0.500000  1
  P  P11  1  0.666667  0.333333  0.000000  1
  Ru  Ru12  1  0.727693  0.972168  0.000000  1
  Ru  Ru13  1  0.244477  0.272307  0.000000  1
  Ru  Ru14  1  0.027832  0.755523  0.000000  1
  Ru  Ru15  1  0.105152  0.386089  0.500000  1
  Ru  Ru16  1  0.280938  0.894848  0.500000  1
  Ru  Ru17  1  0.613911  0.719062  0.500000  1
  Ru  Ru18  1  0.754719  0.216481  0.500000  1
  Ru  Ru19  1  0.461763  0.245281  0.500000  1
  Ru  Ru20  1  0.783519  0.538237  0.500000  1
