# generated using pymatgen
data_Zr12Al8CoNi3C4
_symmetry_space_group_name_H-M   'P 1'
_cell_length_a   8.61317244
_cell_length_b   8.61317248
_cell_length_c   8.61317307
_cell_angle_alpha   59.97812376
_cell_angle_beta   59.97813037
_cell_angle_gamma   59.97812132
_symmetry_Int_Tables_number   1
_chemical_formula_structural   Zr12Al8CoNi3C4
_chemical_formula_sum   'Zr12 Al8 Co1 Ni3 C4'
_cell_volume   451.60525547
_cell_formula_units_Z   1
loop_
 _symmetry_equiv_pos_site_id
 _symmetry_equiv_pos_as_xyz
  1  'x, y, z'
loop_
 _atom_site_type_symbol
 _atom_site_label
 _atom_site_symmetry_multiplicity
 _atom_site_fract_x
 _atom_site_fract_y
 _atom_site_fract_z
 _atom_site_occupancy
  Zr  Zr0  1  0.554934  0.944699  0.554934  1
  Zr  Zr1  1  0.305301  0.695066  0.695066  1
  Zr  Zr2  1  0.696692  0.304460  0.304460  1
  Zr  Zr3  1  0.304460  0.696692  0.304460  1
  Zr  Zr4  1  0.695066  0.695066  0.305301  1
  Zr  Zr5  1  0.304460  0.304460  0.696692  1
  Zr  Zr6  1  0.554934  0.554934  0.944699  1
  Zr  Zr7  1  0.944699  0.554934  0.554934  1
  Zr  Zr8  1  0.553308  0.945540  0.945540  1
  Zr  Zr9  1  0.945540  0.945540  0.553308  1
  Zr  Zr10  1  0.695066  0.305301  0.695066  1
  Zr  Zr11  1  0.945540  0.553308  0.945540  1
  Al  Al12  1  0.921025  0.921025  0.921025  1
  Al  Al13  1  0.013582  0.327525  0.327525  1
  Al  Al14  1  0.327525  0.013582  0.327525  1
  Al  Al15  1  0.327525  0.327525  0.013582  1
  Al  Al16  1  0.922475  0.236418  0.922475  1
  Al  Al17  1  0.922475  0.922475  0.236418  1
  Al  Al18  1  0.236418  0.922475  0.922475  1
  Al  Al19  1  0.328975  0.328975  0.328975  1
  Co  Co20  1  0.125000  0.125000  0.125000  1
  Ni  Ni21  1  0.625000  0.125000  0.125000  1
  Ni  Ni22  1  0.125000  0.625000  0.125000  1
  Ni  Ni23  1  0.125000  0.125000  0.625000  1
  C  C24  1  0.625000  0.625000  0.625000  1
  C  C25  1  0.125000  0.625000  0.625000  1
  C  C26  1  0.625000  0.125000  0.625000  1
  C  C27  1  0.625000  0.625000  0.125000  1
