# generated using pymatgen
data_Ho3ZrAl16(SiIr3)2
_symmetry_space_group_name_H-M   'P 1'
_cell_length_a   7.52650863
_cell_length_b   7.51055196
_cell_length_c   9.29121500
_cell_angle_alpha   90.00000000
_cell_angle_beta   90.00000000
_cell_angle_gamma   119.63145570
_symmetry_Int_Tables_number   1
_chemical_formula_structural   Ho3ZrAl16(SiIr3)2
_chemical_formula_sum   'Ho3 Zr1 Al16 Si2 Ir6'
_cell_volume   456.53013377
_cell_formula_units_Z   1
loop_
 _symmetry_equiv_pos_site_id
 _symmetry_equiv_pos_as_xyz
  1  'x, y, z'
loop_
 _atom_site_type_symbol
 _atom_site_label
 _atom_site_symmetry_multiplicity
 _atom_site_fract_x
 _atom_site_fract_y
 _atom_site_fract_z
 _atom_site_occupancy
  Ho  Ho0  1  0.006030  0.324496  0.750000  1
  Ho  Ho1  1  0.675251  0.994198  0.250000  1
  Ho  Ho2  1  0.324994  0.006156  0.750000  1
  Zr  Zr3  1  0.992626  0.674592  0.250000  1
  Al  Al4  1  0.000734  0.339048  0.077707  1
  Al  Al5  1  0.999760  0.663789  0.927428  1
  Al  Al6  1  0.999760  0.663789  0.572572  1
  Al  Al7  1  0.334070  0.999172  0.421541  1
  Al  Al8  1  0.000734  0.339048  0.422293  1
  Al  Al9  1  0.663273  0.998431  0.576602  1
  Al  Al10  1  0.663273  0.998431  0.923398  1
  Al  Al11  1  0.334070  0.999172  0.078459  1
  Al  Al12  1  0.335883  0.335855  0.556287  1
  Al  Al13  1  0.666922  0.664766  0.439425  1
  Al  Al14  1  0.666922  0.664766  0.060575  1
  Al  Al15  1  0.335883  0.335855  0.943713  1
  Al  Al16  1  0.330828  0.548782  0.250000  1
  Al  Al17  1  0.666727  0.453299  0.750000  1
  Al  Al18  1  0.552910  0.338207  0.250000  1
  Al  Al19  1  0.450926  0.663784  0.750000  1
  Si  Si20  1  0.126783  0.124615  0.250000  1
  Si  Si21  1  0.870726  0.869124  0.750000  1
  Ir  Ir22  1  0.672150  0.328166  0.000839  1
  Ir  Ir23  1  0.328988  0.672508  0.001148  1
  Ir  Ir24  1  0.328988  0.672508  0.498852  1
  Ir  Ir25  1  0.672150  0.328166  0.499161  1
  Ir  Ir26  1  0.999321  0.999639  0.001486  1
  Ir  Ir27  1  0.999321  0.999639  0.498514  1
