# generated using pymatgen
data_SrSmMn(Si3Pd10)2
_symmetry_space_group_name_H-M   'P 1'
_cell_length_a   8.71935121
_cell_length_b   8.71934947
_cell_length_c   8.71935100
_cell_angle_alpha   59.99999798
_cell_angle_beta   60.00000459
_cell_angle_gamma   60.00000302
_symmetry_Int_Tables_number   1
_chemical_formula_structural   SrSmMn(Si3Pd10)2
_chemical_formula_sum   'Sr1 Sm1 Mn1 Si6 Pd20'
_cell_volume   468.74585087
_cell_formula_units_Z   1
loop_
 _symmetry_equiv_pos_site_id
 _symmetry_equiv_pos_as_xyz
  1  'x, y, z'
loop_
 _atom_site_type_symbol
 _atom_site_label
 _atom_site_symmetry_multiplicity
 _atom_site_fract_x
 _atom_site_fract_y
 _atom_site_fract_z
 _atom_site_occupancy
  Sr  Sr0  1  0.250000  0.250000  0.250000  1
  Sm  Sm1  1  0.750000  0.750000  0.750000  1
  Mn  Mn2  1  0.000000  0.000000  0.000000  1
  Si  Si3  1  0.733199  0.266801  0.266801  1
  Si  Si4  1  0.266801  0.733199  0.733199  1
  Si  Si5  1  0.266801  0.733199  0.266801  1
  Si  Si6  1  0.733199  0.266801  0.733199  1
  Si  Si7  1  0.266801  0.266801  0.733199  1
  Si  Si8  1  0.733199  0.733199  0.266801  1
  Pd  Pd9  1  0.386742  0.386742  0.386742  1
  Pd  Pd10  1  0.616080  0.616080  0.616080  1
  Pd  Pd11  1  0.386742  0.386742  0.839772  1
  Pd  Pd12  1  0.386742  0.839772  0.386742  1
  Pd  Pd13  1  0.616080  0.616080  0.151763  1
  Pd  Pd14  1  0.616080  0.151763  0.616080  1
  Pd  Pd15  1  0.839772  0.386742  0.386742  1
  Pd  Pd16  1  0.151763  0.616080  0.616080  1
  Pd  Pd17  1  0.343740  0.998024  0.998024  1
  Pd  Pd18  1  0.660212  0.998024  0.998024  1
  Pd  Pd19  1  0.998024  0.343740  0.660212  1
  Pd  Pd20  1  0.998024  0.660212  0.343740  1
  Pd  Pd21  1  0.998024  0.343740  0.998024  1
  Pd  Pd22  1  0.660212  0.998024  0.343740  1
  Pd  Pd23  1  0.998024  0.660212  0.998024  1
  Pd  Pd24  1  0.343740  0.998024  0.660212  1
  Pd  Pd25  1  0.998024  0.998024  0.343740  1
  Pd  Pd26  1  0.998024  0.998024  0.660212  1
  Pd  Pd27  1  0.660212  0.343740  0.998024  1
  Pd  Pd28  1  0.343740  0.660212  0.998024  1
