# generated using pymatgen
data_Co6Ni2RhS8
_symmetry_space_group_name_H-M   'P 1'
_cell_length_a   7.02089162
_cell_length_b   7.02089169
_cell_length_c   7.01067300
_cell_angle_alpha   60.04813016
_cell_angle_beta   60.04812983
_cell_angle_gamma   60.09125073
_symmetry_Int_Tables_number   1
_chemical_formula_structural   Co6Ni2RhS8
_chemical_formula_sum   'Co6 Ni2 Rh1 S8'
_cell_volume   244.70557150
_cell_formula_units_Z   1
loop_
 _symmetry_equiv_pos_site_id
 _symmetry_equiv_pos_as_xyz
  1  'x, y, z'
loop_
 _atom_site_type_symbol
 _atom_site_label
 _atom_site_symmetry_multiplicity
 _atom_site_fract_x
 _atom_site_fract_y
 _atom_site_fract_z
 _atom_site_occupancy
  Co  Co0  1  0.126205  0.126205  0.622765  1
  Co  Co1  1  0.126205  0.126205  0.124826  1
  Co  Co2  1  0.377822  0.873496  0.874341  1
  Co  Co3  1  0.873496  0.377822  0.874341  1
  Co  Co4  1  0.873135  0.873135  0.379464  1
  Co  Co5  1  0.873135  0.873135  0.874266  1
  Ni  Ni6  1  0.618274  0.127757  0.126985  1
  Ni  Ni7  1  0.127757  0.618274  0.126985  1
  Rh  Rh8  1  0.501495  0.501495  0.498505  1
  S  S9  1  0.245055  0.245055  0.254945  1
  S  S10  1  0.748587  0.748587  0.751413  1
  S  S11  1  0.748895  0.255739  0.256291  1
  S  S12  1  0.748895  0.255739  0.739075  1
  S  S13  1  0.743593  0.743593  0.256407  1
  S  S14  1  0.255739  0.748895  0.739075  1
  S  S15  1  0.255739  0.748895  0.256291  1
  S  S16  1  0.255974  0.255974  0.744026  1
