# generated using pymatgen
data_NaY3Bi6Rh7
_symmetry_space_group_name_H-M   'P 1'
_cell_length_a   7.80384722
_cell_length_b   7.80384779
_cell_length_c   7.80384827
_cell_angle_alpha   109.67400221
_cell_angle_beta   109.67399898
_cell_angle_gamma   109.67400094
_symmetry_Int_Tables_number   1
_chemical_formula_structural   NaY3Bi6Rh7
_chemical_formula_sum   'Na1 Y3 Bi6 Rh7'
_cell_volume   363.07850996
_cell_formula_units_Z   1
loop_
 _symmetry_equiv_pos_site_id
 _symmetry_equiv_pos_as_xyz
  1  'x, y, z'
loop_
 _atom_site_type_symbol
 _atom_site_label
 _atom_site_symmetry_multiplicity
 _atom_site_fract_x
 _atom_site_fract_y
 _atom_site_fract_z
 _atom_site_occupancy
  Na  Na0  1  0.500000  0.500000  0.500000  1
  Y  Y1  1  0.500000  0.000000  0.000000  1
  Y  Y2  1  0.000000  0.500000  0.000000  1
  Y  Y3  1  0.000000  0.000000  0.500000  1
  Bi  Bi4  1  0.321697  0.014623  0.321697  1
  Bi  Bi5  1  0.985377  0.678303  0.678303  1
  Bi  Bi6  1  0.678303  0.678303  0.985377  1
  Bi  Bi7  1  0.678303  0.985377  0.678303  1
  Bi  Bi8  1  0.014623  0.321697  0.321697  1
  Bi  Bi9  1  0.321697  0.321697  0.014623  1
  Rh  Rh10  1  0.240698  0.500000  0.759302  1
  Rh  Rh11  1  0.500000  0.240698  0.759302  1
  Rh  Rh12  1  0.759302  0.240698  0.500000  1
  Rh  Rh13  1  0.500000  0.759302  0.240698  1
  Rh  Rh14  1  0.000000  0.000000  0.000000  1
  Rh  Rh15  1  0.240698  0.759302  0.500000  1
  Rh  Rh16  1  0.759302  0.500000  0.240698  1
