# generated using pymatgen
data_Li2Pr(NdAu2)5
_symmetry_space_group_name_H-M   'P 1'
_cell_length_a   8.12791005
_cell_length_b   8.12919514
_cell_length_c   8.12470900
_cell_angle_alpha   66.09916755
_cell_angle_beta   66.10048866
_cell_angle_gamma   66.06047721
_symmetry_Int_Tables_number   1
_chemical_formula_structural   Li2Pr(NdAu2)5
_chemical_formula_sum   'Li2 Pr1 Nd5 Au10'
_cell_volume   429.55327542
_cell_formula_units_Z   1
loop_
 _symmetry_equiv_pos_site_id
 _symmetry_equiv_pos_as_xyz
  1  'x, y, z'
loop_
 _atom_site_type_symbol
 _atom_site_label
 _atom_site_symmetry_multiplicity
 _atom_site_fract_x
 _atom_site_fract_y
 _atom_site_fract_z
 _atom_site_occupancy
  Li  Li0  1  0.652573  0.653267  0.652849  1
  Li  Li1  1  0.347167  0.346946  0.346823  1
  Pr  Pr2  1  0.889578  0.195188  0.620153  1
  Nd  Nd3  1  0.619547  0.889323  0.194215  1
  Nd  Nd4  1  0.194616  0.619902  0.889117  1
  Nd  Nd5  1  0.111116  0.805044  0.380402  1
  Nd  Nd6  1  0.380225  0.110376  0.805013  1
  Nd  Nd7  1  0.805021  0.380261  0.110614  1
  Au  Au8  1  0.000556  0.998576  0.002693  1
  Au  Au9  1  0.497942  0.501485  0.499500  1
  Au  Au10  1  0.795468  0.795031  0.796205  1
  Au  Au11  1  0.204294  0.204034  0.203291  1
  Au  Au12  1  0.946203  0.552444  0.313290  1
  Au  Au13  1  0.316841  0.944141  0.550555  1
  Au  Au14  1  0.549617  0.315630  0.947321  1
  Au  Au15  1  0.055853  0.449570  0.685025  1
  Au  Au16  1  0.684798  0.053777  0.448347  1
  Au  Au17  1  0.448582  0.685004  0.054588  1
