# generated using pymatgen
data_Sc8Cr11Si16Ru
_symmetry_space_group_name_H-M   'P 1'
_cell_length_a   6.51619041
_cell_length_b   6.51619093
_cell_length_c   12.04105823
_cell_angle_alpha   90.06097504
_cell_angle_beta   89.93902895
_cell_angle_gamma   89.76347007
_symmetry_Int_Tables_number   1
_chemical_formula_structural   Sc8Cr11Si16Ru
_chemical_formula_sum   'Sc8 Cr11 Si16 Ru1'
_cell_volume   511.26731549
_cell_formula_units_Z   1
loop_
 _symmetry_equiv_pos_site_id
 _symmetry_equiv_pos_as_xyz
  1  'x, y, z'
loop_
 _atom_site_type_symbol
 _atom_site_label
 _atom_site_symmetry_multiplicity
 _atom_site_fract_x
 _atom_site_fract_y
 _atom_site_fract_z
 _atom_site_occupancy
  Sc  Sc0  1  0.000764  0.662713  0.028797  1
  Sc  Sc1  1  0.837263  0.500209  0.279396  1
  Sc  Sc2  1  0.161518  0.498864  0.778570  1
  Sc  Sc3  1  0.500209  0.837263  0.720604  1
  Sc  Sc4  1  0.498864  0.161518  0.221430  1
  Sc  Sc5  1  0.998842  0.338357  0.529023  1
  Sc  Sc6  1  0.662713  0.000764  0.971203  1
  Sc  Sc7  1  0.338357  0.998842  0.470977  1
  Cr  Cr8  1  0.168456  0.832384  0.249211  1
  Cr  Cr9  1  0.832384  0.168456  0.750789  1
  Cr  Cr10  1  0.668107  0.668107  0.500000  1
  Cr  Cr11  1  0.990200  0.164122  0.127906  1
  Cr  Cr12  1  0.335250  0.496824  0.375140  1
  Cr  Cr13  1  0.672252  0.504756  0.875064  1
  Cr  Cr14  1  0.496824  0.335250  0.624860  1
  Cr  Cr15  1  0.504756  0.672252  0.124936  1
  Cr  Cr16  1  0.002970  0.835080  0.626176  1
  Cr  Cr17  1  0.164122  0.990200  0.872094  1
  Cr  Cr18  1  0.835080  0.002970  0.373824  1
  Si  Si19  1  0.283807  0.965566  0.064441  1
  Si  Si20  1  0.534560  0.787684  0.316366  1
  Si  Si21  1  0.466445  0.212096  0.815192  1
  Si  Si22  1  0.787684  0.534560  0.683634  1
  Si  Si23  1  0.212096  0.466445  0.184808  1
  Si  Si24  1  0.712693  0.034604  0.565697  1
  Si  Si25  1  0.965566  0.283807  0.935559  1
  Si  Si26  1  0.034604  0.712693  0.434303  1
  Si  Si27  1  0.697459  0.379098  0.066910  1
  Si  Si28  1  0.124756  0.197522  0.316714  1
  Si  Si29  1  0.875017  0.801408  0.815718  1
  Si  Si30  1  0.197522  0.124756  0.683286  1
  Si  Si31  1  0.801408  0.875017  0.184282  1
  Si  Si32  1  0.302207  0.624737  0.566346  1
  Si  Si33  1  0.379098  0.697459  0.933090  1
  Si  Si34  1  0.624737  0.302207  0.433654  1
  Ru  Ru35  1  0.331413  0.331413  0.000000  1
