# generated using pymatgen
data_Hf3Ta2Ga2Ge
_symmetry_space_group_name_H-M   'P 1'
_cell_length_a   7.92258371
_cell_length_b   7.91356572
_cell_length_c   5.43246900
_cell_angle_alpha   90.00000000
_cell_angle_beta   90.00000000
_cell_angle_gamma   119.96236583
_symmetry_Int_Tables_number   1
_chemical_formula_structural   Hf3Ta2Ga2Ge
_chemical_formula_sum   'Hf6 Ta4 Ga4 Ge2'
_cell_volume   295.07438458
_cell_formula_units_Z   2
loop_
 _symmetry_equiv_pos_site_id
 _symmetry_equiv_pos_as_xyz
  1  'x, y, z'
loop_
 _atom_site_type_symbol
 _atom_site_label
 _atom_site_symmetry_multiplicity
 _atom_site_fract_x
 _atom_site_fract_y
 _atom_site_fract_z
 _atom_site_occupancy
  Hf  Hf0  1  0.748037  0.747778  0.250000  1
  Hf  Hf1  1  0.748037  0.000259  0.750000  1
  Hf  Hf2  1  0.999368  0.248430  0.250000  1
  Hf  Hf3  1  0.249894  0.250664  0.750000  1
  Hf  Hf4  1  0.249894  0.999230  0.250000  1
  Hf  Hf5  1  0.999368  0.750938  0.750000  1
  Ta  Ta6  1  0.665974  0.332987  0.000000  1
  Ta  Ta7  1  0.665974  0.332987  0.500000  1
  Ta  Ta8  1  0.336498  0.668249  0.500000  1
  Ta  Ta9  1  0.336498  0.668249  0.000000  1
  Ga  Ga10  1  0.001342  0.397917  0.750000  1
  Ga  Ga11  1  0.001342  0.603425  0.250000  1
  Ga  Ga12  1  0.393388  0.393601  0.250000  1
  Ga  Ga13  1  0.393388  0.999787  0.750000  1
  Ge  Ge14  1  0.605498  0.001460  0.250000  1
  Ge  Ge15  1  0.605498  0.604038  0.750000  1
