# generated using pymatgen
data_Eu4Si8NiPt7
_symmetry_space_group_name_H-M   'P 1'
_cell_length_a   4.31709311
_cell_length_b   8.73352049
_cell_length_c   9.64090094
_cell_angle_alpha   89.24827140
_cell_angle_beta   89.87258671
_cell_angle_gamma   89.93138250
_symmetry_Int_Tables_number   1
_chemical_formula_structural   Eu4Si8NiPt7
_chemical_formula_sum   'Eu4 Si8 Ni1 Pt7'
_cell_volume   363.46251626
_cell_formula_units_Z   1
loop_
 _symmetry_equiv_pos_site_id
 _symmetry_equiv_pos_as_xyz
  1  'x, y, z'
loop_
 _atom_site_type_symbol
 _atom_site_label
 _atom_site_symmetry_multiplicity
 _atom_site_fract_x
 _atom_site_fract_y
 _atom_site_fract_z
 _atom_site_occupancy
  Eu  Eu0  1  0.760276  0.628886  0.756093  1
  Eu  Eu1  1  0.743151  0.129382  0.753808  1
  Eu  Eu2  1  0.260749  0.872300  0.244377  1
  Eu  Eu3  1  0.239459  0.368372  0.245279  1
  Si  Si4  1  0.733618  0.374054  0.004225  1
  Si  Si5  1  0.693404  0.111514  0.384580  1
  Si  Si6  1  0.305885  0.896790  0.617462  1
  Si  Si7  1  0.266189  0.625793  0.995853  1
  Si  Si8  1  0.766292  0.874149  0.003788  1
  Si  Si9  1  0.191394  0.383332  0.616776  1
  Si  Si10  1  0.235260  0.125769  0.996035  1
  Si  Si11  1  0.807266  0.609476  0.381299  1
  Ni  Ni12  1  0.179372  0.139690  0.500292  1
  Pt  Pt13  1  0.235591  0.377581  0.875062  1
  Pt  Pt14  1  0.764234  0.621887  0.124854  1
  Pt  Pt15  1  0.818167  0.865896  0.499078  1
  Pt  Pt16  1  0.682174  0.355390  0.499028  1
  Pt  Pt17  1  0.737053  0.121892  0.125157  1
  Pt  Pt18  1  0.316014  0.639485  0.502028  1
  Pt  Pt19  1  0.264452  0.878360  0.874926  1
