# generated using pymatgen
data_Th5P12Ru16Rh3
_symmetry_space_group_name_H-M   'P 1'
_cell_length_a   12.71773500
_cell_length_b   12.71773511
_cell_length_c   4.01741200
_cell_angle_alpha   90.00000000
_cell_angle_beta   90.00000000
_cell_angle_gamma   119.99999712
_symmetry_Int_Tables_number   1
_chemical_formula_structural   Th5P12Ru16Rh3
_chemical_formula_sum   'Th5 P12 Ru16 Rh3'
_cell_volume   562.72545766
_cell_formula_units_Z   1
loop_
 _symmetry_equiv_pos_site_id
 _symmetry_equiv_pos_as_xyz
  1  'x, y, z'
loop_
 _atom_site_type_symbol
 _atom_site_label
 _atom_site_symmetry_multiplicity
 _atom_site_fract_x
 _atom_site_fract_y
 _atom_site_fract_z
 _atom_site_occupancy
  Th  Th0  1  0.186581  0.186581  0.500000  1
  Th  Th1  1  0.813419  0.000000  0.500000  1
  Th  Th2  1  0.000000  0.813419  0.500000  1
  Th  Th3  1  0.333333  0.666667  0.000000  1
  Th  Th4  1  0.666667  0.333333  0.000000  1
  P  P5  1  0.812786  0.812786  0.000000  1
  P  P6  1  0.187214  0.000000  0.000000  1
  P  P7  1  0.000000  0.187214  0.000000  1
  P  P8  1  0.175046  0.477121  0.500000  1
  P  P9  1  0.522879  0.697925  0.500000  1
  P  P10  1  0.302075  0.824954  0.500000  1
  P  P11  1  0.697925  0.522879  0.500000  1
  P  P12  1  0.824954  0.302075  0.500000  1
  P  P13  1  0.477121  0.175046  0.500000  1
  P  P14  1  0.372567  0.372567  0.000000  1
  P  P15  1  0.627433  0.000000  0.000000  1
  P  P16  1  0.000000  0.627433  0.000000  1
  Ru  Ru17  1  0.712745  0.712745  0.500000  1
  Ru  Ru18  1  0.287255  0.000000  0.500000  1
  Ru  Ru19  1  0.000000  0.287255  0.500000  1
  Ru  Ru20  1  0.184196  0.378216  0.000000  1
  Ru  Ru21  1  0.621784  0.805980  0.000000  1
  Ru  Ru22  1  0.194020  0.815804  0.000000  1
  Ru  Ru23  1  0.805980  0.621784  0.000000  1
  Ru  Ru24  1  0.815804  0.194020  0.000000  1
  Ru  Ru25  1  0.378216  0.184196  0.000000  1
  Ru  Ru26  1  0.368563  0.493339  0.500000  1
  Ru  Ru27  1  0.506661  0.875225  0.500000  1
  Ru  Ru28  1  0.124775  0.631437  0.500000  1
  Ru  Ru29  1  0.875225  0.506661  0.500000  1
  Ru  Ru30  1  0.631437  0.124775  0.500000  1
  Ru  Ru31  1  0.493339  0.368563  0.500000  1
  Ru  Ru32  1  0.000000  0.000000  0.000000  1
  Rh  Rh33  1  0.553502  0.553502  0.000000  1
  Rh  Rh34  1  0.446498  0.000000  0.000000  1
  Rh  Rh35  1  0.000000  0.446498  0.000000  1
