# generated using pymatgen
data_CsRb3ErUBr12
_symmetry_space_group_name_H-M   'P 1'
_cell_length_a   7.95770928
_cell_length_b   7.91960884
_cell_length_c   11.55841000
_cell_angle_alpha   90.00000000
_cell_angle_beta   90.00000000
_cell_angle_gamma   90.28503837
_symmetry_Int_Tables_number   1
_chemical_formula_structural   CsRb3ErUBr12
_chemical_formula_sum   'Cs1 Rb3 Er1 U1 Br12'
_cell_volume   728.42446244
_cell_formula_units_Z   1
loop_
 _symmetry_equiv_pos_site_id
 _symmetry_equiv_pos_as_xyz
  1  'x, y, z'
loop_
 _atom_site_type_symbol
 _atom_site_label
 _atom_site_symmetry_multiplicity
 _atom_site_fract_x
 _atom_site_fract_y
 _atom_site_fract_z
 _atom_site_occupancy
  Cs  Cs0  1  0.500000  0.000000  0.784220  1
  Rb  Rb1  1  0.500000  0.000000  0.203511  1
  Rb  Rb2  1  0.000000  0.500000  0.204248  1
  Rb  Rb3  1  0.000000  0.500000  0.796628  1
  Er  Er4  1  0.000000  0.000000  0.001139  1
  U  U5  1  0.500000  0.500000  0.499452  1
  Br  Br6  1  0.765152  0.260088  0.001345  1
  Br  Br7  1  0.234848  0.739912  0.001345  1
  Br  Br8  1  0.500000  0.500000  0.264911  1
  Br  Br9  1  0.301522  0.223240  0.499010  1
  Br  Br10  1  0.256114  0.240875  0.004302  1
  Br  Br11  1  0.775484  0.303285  0.500156  1
  Br  Br12  1  0.000000  0.000000  0.241793  1
  Br  Br13  1  0.698478  0.776760  0.499010  1
  Br  Br14  1  0.224516  0.696715  0.500156  1
  Br  Br15  1  0.500000  0.500000  0.734697  1
  Br  Br16  1  0.743886  0.759125  0.004302  1
  Br  Br17  1  0.000000  0.000000  0.759778  1
