# generated using pymatgen
data_V10SiB4Se
_symmetry_space_group_name_H-M   'P 1'
_cell_length_a   6.77580657
_cell_length_b   6.77580691
_cell_length_c   6.77580663
_cell_angle_alpha   129.41922091
_cell_angle_beta   129.41922720
_cell_angle_gamma   74.33695963
_symmetry_Int_Tables_number   1
_chemical_formula_structural   V10SiB4Se
_chemical_formula_sum   'V10 Si1 B4 Se1'
_cell_volume   180.96784807
_cell_formula_units_Z   1
loop_
 _symmetry_equiv_pos_site_id
 _symmetry_equiv_pos_as_xyz
  1  'x, y, z'
loop_
 _atom_site_type_symbol
 _atom_site_label
 _atom_site_symmetry_multiplicity
 _atom_site_fract_x
 _atom_site_fract_y
 _atom_site_fract_z
 _atom_site_occupancy
  V  V0  1  0.533685  0.696342  0.503684  1
  V  V1  1  0.030002  0.533685  0.837343  1
  V  V2  1  0.696342  0.192658  0.162657  1
  V  V3  1  0.966315  0.469998  0.162657  1
  V  V4  1  0.192658  0.030002  0.496316  1
  V  V5  1  0.469998  0.307342  0.503684  1
  V  V6  1  0.803658  0.966315  0.496316  1
  V  V7  1  0.307342  0.803658  0.837343  1
  V  V8  1  0.998029  0.998029  0.000000  1
  V  V9  1  0.501971  0.501971  0.000000  1
  Si  Si10  1  0.750000  0.750000  0.000000  1
  B  B11  1  0.614956  0.114956  0.729912  1
  B  B12  1  0.114956  0.385044  0.500000  1
  B  B13  1  0.885044  0.614956  0.500000  1
  B  B14  1  0.385044  0.885044  0.270088  1
  Se  Se15  1  0.250000  0.250000  0.000000  1
