# generated using pymatgen
data_Tm4Lu(TcO6)2
_symmetry_space_group_name_H-M   'P 1'
_cell_length_a   6.72511093
_cell_length_b   6.72511184
_cell_length_c   7.40576300
_cell_angle_alpha   73.77039128
_cell_angle_beta   73.77038729
_cell_angle_gamma   49.36222990
_symmetry_Int_Tables_number   1
_chemical_formula_structural   Tm4Lu(TcO6)2
_chemical_formula_sum   'Tm4 Lu1 Tc2 O12'
_cell_volume   241.84558756
_cell_formula_units_Z   1
loop_
 _symmetry_equiv_pos_site_id
 _symmetry_equiv_pos_as_xyz
  1  'x, y, z'
loop_
 _atom_site_type_symbol
 _atom_site_label
 _atom_site_symmetry_multiplicity
 _atom_site_fract_x
 _atom_site_fract_y
 _atom_site_fract_z
 _atom_site_occupancy
  Tm  Tm0  1  0.803124  0.803124  0.358733  1
  Tm  Tm1  1  0.196876  0.196876  0.641267  1
  Tm  Tm2  1  0.184041  0.184041  0.178292  1
  Tm  Tm3  1  0.815959  0.815959  0.821708  1
  Lu  Lu4  1  0.500000  0.500000  0.500000  1
  Tc  Tc5  1  0.285373  0.714627  0.000000  1
  Tc  Tc6  1  0.714627  0.285373  0.000000  1
  O  O7  1  0.413475  0.920676  0.912835  1
  O  O8  1  0.079324  0.586525  0.087165  1
  O  O9  1  0.586525  0.079324  0.087165  1
  O  O10  1  0.920676  0.413475  0.912835  1
  O  O11  1  0.598749  0.096489  0.571705  1
  O  O12  1  0.903511  0.401251  0.428295  1
  O  O13  1  0.401251  0.903511  0.428295  1
  O  O14  1  0.000991  0.000991  0.818175  1
  O  O15  1  0.999009  0.999009  0.181825  1
  O  O16  1  0.497542  0.497542  0.792438  1
  O  O17  1  0.502458  0.502458  0.207562  1
  O  O18  1  0.096489  0.598749  0.571705  1
