# generated using pymatgen
data_Pr4Nd7In9Ni4
_symmetry_space_group_name_H-M   'P 1'
_cell_length_a   13.42252301
_cell_length_b   13.42252259
_cell_length_c   3.75488100
_cell_angle_alpha   90.00000000
_cell_angle_beta   90.00000000
_cell_angle_gamma   111.38784629
_symmetry_Int_Tables_number   1
_chemical_formula_structural   Pr4Nd7In9Ni4
_chemical_formula_sum   'Pr4 Nd7 In9 Ni4'
_cell_volume   629.90678676
_cell_formula_units_Z   1
loop_
 _symmetry_equiv_pos_site_id
 _symmetry_equiv_pos_as_xyz
  1  'x, y, z'
loop_
 _atom_site_type_symbol
 _atom_site_label
 _atom_site_symmetry_multiplicity
 _atom_site_fract_x
 _atom_site_fract_y
 _atom_site_fract_z
 _atom_site_occupancy
  Pr  Pr0  1  0.126167  0.873833  0.500000  1
  Pr  Pr1  1  0.873833  0.126167  0.500000  1
  Pr  Pr2  1  0.341059  0.658941  0.500000  1
  Pr  Pr3  1  0.658941  0.341059  0.500000  1
  Nd  Nd4  1  0.500000  0.500000  0.500000  1
  Nd  Nd5  1  0.812509  0.812509  0.500000  1
  Nd  Nd6  1  0.187491  0.187491  0.500000  1
  Nd  Nd7  1  0.577262  0.919284  0.500000  1
  Nd  Nd8  1  0.422738  0.080716  0.500000  1
  Nd  Nd9  1  0.919284  0.577262  0.500000  1
  Nd  Nd10  1  0.080716  0.422738  0.500000  1
  In  In11  1  0.338008  0.867927  0.000000  1
  In  In12  1  0.661992  0.132073  0.000000  1
  In  In13  1  0.867927  0.338008  0.000000  1
  In  In14  1  0.132073  0.661992  0.000000  1
  In  In15  1  0.580372  0.721059  0.000000  1
  In  In16  1  0.419628  0.278941  0.000000  1
  In  In17  1  0.721059  0.580372  0.000000  1
  In  In18  1  0.278941  0.419628  0.000000  1
  In  In19  1  0.000000  0.000000  0.000000  1
  Ni  Ni20  1  0.745461  0.948478  0.000000  1
  Ni  Ni21  1  0.254539  0.051522  0.000000  1
  Ni  Ni22  1  0.948478  0.745461  0.000000  1
  Ni  Ni23  1  0.051522  0.254539  0.000000  1
