# generated using pymatgen
data_Dy3Lu2ScFeBi2
_symmetry_space_group_name_H-M   'P 1'
_cell_length_a   8.15079400
_cell_length_b   8.14302864
_cell_length_c   4.17586100
_cell_angle_alpha   90.00000000
_cell_angle_beta   90.00000000
_cell_angle_gamma   120.03155865
_symmetry_Int_Tables_number   1
_chemical_formula_structural   Dy3Lu2ScFeBi2
_chemical_formula_sum   'Dy3 Lu2 Sc1 Fe1 Bi2'
_cell_volume   239.95198626
_cell_formula_units_Z   1
loop_
 _symmetry_equiv_pos_site_id
 _symmetry_equiv_pos_as_xyz
  1  'x, y, z'
loop_
 _atom_site_type_symbol
 _atom_site_label
 _atom_site_symmetry_multiplicity
 _atom_site_fract_x
 _atom_site_fract_y
 _atom_site_fract_z
 _atom_site_occupancy
  Dy  Dy0  1  0.607435  0.000000  0.000000  1
  Dy  Dy1  1  0.001608  0.614469  0.000000  1
  Dy  Dy2  1  0.387139  0.385531  0.000000  1
  Lu  Lu3  1  0.001309  0.226642  0.500000  1
  Lu  Lu4  1  0.774667  0.773358  0.500000  1
  Sc  Sc5  1  0.224303  0.000000  0.500000  1
  Fe  Fe6  1  0.007647  0.000000  0.000000  1
  Bi  Bi7  1  0.332776  0.669661  0.500000  1
  Bi  Bi8  1  0.663115  0.330339  0.500000  1
