# generated using pymatgen
data_Dy2GaSiRu2
_symmetry_space_group_name_H-M   'P 1'
_cell_length_a   4.42400400
_cell_length_b   7.05677042
_cell_length_c   7.17505441
_cell_angle_alpha   90.52230550
_cell_angle_beta   90.00000000
_cell_angle_gamma   90.00000000
_symmetry_Int_Tables_number   1
_chemical_formula_structural   Dy2GaSiRu2
_chemical_formula_sum   'Dy4 Ga2 Si2 Ru4'
_cell_volume   223.99001182
_cell_formula_units_Z   2
loop_
 _symmetry_equiv_pos_site_id
 _symmetry_equiv_pos_as_xyz
  1  'x, y, z'
loop_
 _atom_site_type_symbol
 _atom_site_label
 _atom_site_symmetry_multiplicity
 _atom_site_fract_x
 _atom_site_fract_y
 _atom_site_fract_z
 _atom_site_occupancy
  Dy  Dy0  1  0.250000  0.984967  0.807073  1
  Dy  Dy1  1  0.750000  0.015033  0.192927  1
  Dy  Dy2  1  0.250000  0.482082  0.689313  1
  Dy  Dy3  1  0.750000  0.517918  0.310687  1
  Ga  Ga4  1  0.250000  0.307995  0.107876  1
  Ga  Ga5  1  0.750000  0.692005  0.892124  1
  Si  Si6  1  0.250000  0.803176  0.402232  1
  Si  Si7  1  0.750000  0.196824  0.597768  1
  Ru  Ru8  1  0.750000  0.851123  0.554525  1
  Ru  Ru9  1  0.250000  0.148877  0.445475  1
  Ru  Ru10  1  0.750000  0.327424  0.917547  1
  Ru  Ru11  1  0.250000  0.672576  0.082453  1
