# generated using pymatgen
data_Dy19Ho(Ir2Os)4
_symmetry_space_group_name_H-M   'P 1'
_cell_length_a   10.86629100
_cell_length_b   10.86629100
_cell_length_c   6.41943200
_cell_angle_alpha   90.00000000
_cell_angle_beta   90.00000000
_cell_angle_gamma   90.00000000
_symmetry_Int_Tables_number   1
_chemical_formula_structural   Dy19Ho(Ir2Os)4
_chemical_formula_sum   'Dy19 Ho1 Ir8 Os4'
_cell_volume   757.98265089
_cell_formula_units_Z   1
loop_
 _symmetry_equiv_pos_site_id
 _symmetry_equiv_pos_as_xyz
  1  'x, y, z'
loop_
 _atom_site_type_symbol
 _atom_site_label
 _atom_site_symmetry_multiplicity
 _atom_site_fract_x
 _atom_site_fract_y
 _atom_site_fract_z
 _atom_site_occupancy
  Dy  Dy0  1  0.293575  0.086326  0.377032  1
  Dy  Dy1  1  0.293558  0.913688  0.877018  1
  Dy  Dy2  1  0.706442  0.086312  0.877018  1
  Dy  Dy3  1  0.706425  0.913674  0.377032  1
  Dy  Dy4  1  0.586311  0.793501  0.876933  1
  Dy  Dy5  1  0.586304  0.206555  0.376994  1
  Dy  Dy6  1  0.413696  0.793445  0.376994  1
  Dy  Dy7  1  0.413689  0.206499  0.876933  1
  Dy  Dy8  1  0.206555  0.413696  0.623006  1
  Dy  Dy9  1  0.206499  0.586311  0.123067  1
  Dy  Dy10  1  0.793501  0.413689  0.123067  1
  Dy  Dy11  1  0.793445  0.586304  0.623006  1
  Dy  Dy12  1  0.913688  0.706442  0.122982  1
  Dy  Dy13  1  0.913674  0.293575  0.622968  1
  Dy  Dy14  1  0.086326  0.706425  0.622968  1
  Dy  Dy15  1  0.086312  0.293558  0.122982  1
  Dy  Dy16  1  0.000000  0.000000  0.500000  1
  Dy  Dy17  1  0.000000  0.000000  0.000000  1
  Dy  Dy18  1  0.500000  0.500000  0.000000  1
  Ho  Ho19  1  0.500000  0.500000  0.500000  1
  Ir  Ir20  1  0.847778  0.152225  0.250010  1
  Ir  Ir21  1  0.847775  0.847778  0.749990  1
  Ir  Ir22  1  0.152225  0.152222  0.749990  1
  Ir  Ir23  1  0.152222  0.847775  0.250010  1
  Ir  Ir24  1  0.652099  0.347901  0.749762  1
  Ir  Ir25  1  0.652099  0.652099  0.250238  1
  Ir  Ir26  1  0.347901  0.347901  0.250238  1
  Ir  Ir27  1  0.347901  0.652099  0.749762  1
  Os  Os28  1  0.500000  0.000000  0.122337  1
  Os  Os29  1  0.500000  0.000000  0.622281  1
  Os  Os30  1  0.000000  0.500000  0.877663  1
  Os  Os31  1  0.000000  0.500000  0.377719  1
