# generated using pymatgen
data_K2MoOF5
_symmetry_space_group_name_H-M   'P 1'
_cell_length_a   6.38122704
_cell_length_b   6.38122717
_cell_length_c   8.74568950
_cell_angle_alpha   87.30544896
_cell_angle_beta   87.30545158
_cell_angle_gamma   80.24416308
_symmetry_Int_Tables_number   1
_chemical_formula_structural   K2MoOF5
_chemical_formula_sum   'K4 Mo2 O2 F10'
_cell_volume   350.31108712
_cell_formula_units_Z   2
loop_
 _symmetry_equiv_pos_site_id
 _symmetry_equiv_pos_as_xyz
  1  'x, y, z'
loop_
 _atom_site_type_symbol
 _atom_site_label
 _atom_site_symmetry_multiplicity
 _atom_site_fract_x
 _atom_site_fract_y
 _atom_site_fract_z
 _atom_site_occupancy
  K  K0  1  0.299082  0.297119  0.025849  1
  K  K1  1  0.702881  0.700918  0.474151  1
  K  K2  1  0.700918  0.702881  0.974151  1
  K  K3  1  0.297119  0.299082  0.525849  1
  Mo  Mo4  1  0.816361  0.183639  0.250000  1
  Mo  Mo5  1  0.183639  0.816361  0.750000  1
  O  O6  1  0.025156  0.974844  0.250000  1
  O  O7  1  0.974844  0.025156  0.750000  1
  F  F8  1  0.868711  0.301800  0.038176  1
  F  F9  1  0.698200  0.131289  0.461824  1
  F  F10  1  0.131289  0.698200  0.961824  1
  F  F11  1  0.301800  0.868711  0.538176  1
  F  F12  1  0.560577  0.439423  0.250000  1
  F  F13  1  0.439423  0.560577  0.750000  1
  F  F14  1  0.601448  0.019574  0.172366  1
  F  F15  1  0.980426  0.398552  0.327634  1
  F  F16  1  0.398552  0.980426  0.827634  1
  F  F17  1  0.019574  0.601448  0.672366  1
