# generated using pymatgen
data_Ac2ThPd9
_symmetry_space_group_name_H-M   'P 1'
_cell_length_a   4.25902100
_cell_length_b   4.25902100
_cell_length_c   13.02552300
_cell_angle_alpha   90.00000000
_cell_angle_beta   90.00000000
_cell_angle_gamma   90.00000000
_symmetry_Int_Tables_number   1
_chemical_formula_structural   Ac2ThPd9
_chemical_formula_sum   'Ac2 Th1 Pd9'
_cell_volume   236.27334675
_cell_formula_units_Z   1
loop_
 _symmetry_equiv_pos_site_id
 _symmetry_equiv_pos_as_xyz
  1  'x, y, z'
loop_
 _atom_site_type_symbol
 _atom_site_label
 _atom_site_symmetry_multiplicity
 _atom_site_fract_x
 _atom_site_fract_y
 _atom_site_fract_z
 _atom_site_occupancy
  Ac  Ac0  1  0.000000  0.000000  0.332174  1
  Ac  Ac1  1  0.000000  0.000000  0.667826  1
  Th  Th2  1  0.000000  0.000000  0.000000  1
  Pd  Pd3  1  0.500000  0.500000  0.000000  1
  Pd  Pd4  1  0.500000  0.500000  0.330056  1
  Pd  Pd5  1  0.500000  0.500000  0.669944  1
  Pd  Pd6  1  0.500000  0.000000  0.156807  1
  Pd  Pd7  1  0.500000  0.000000  0.500000  1
  Pd  Pd8  1  0.500000  0.000000  0.843193  1
  Pd  Pd9  1  0.000000  0.500000  0.156807  1
  Pd  Pd10  1  0.000000  0.500000  0.500000  1
  Pd  Pd11  1  0.000000  0.500000  0.843193  1
