# generated using pymatgen
data_Dy4CdBiAu4
_symmetry_space_group_name_H-M   'P 1'
_cell_length_a   8.07913700
_cell_length_b   8.07913700
_cell_length_c   7.38592100
_cell_angle_alpha   90.00000000
_cell_angle_beta   90.00000000
_cell_angle_gamma   90.00000000
_symmetry_Int_Tables_number   1
_chemical_formula_structural   Dy4CdBiAu4
_chemical_formula_sum   'Dy8 Cd2 Bi2 Au8'
_cell_volume   482.09719363
_cell_formula_units_Z   2
loop_
 _symmetry_equiv_pos_site_id
 _symmetry_equiv_pos_as_xyz
  1  'x, y, z'
loop_
 _atom_site_type_symbol
 _atom_site_label
 _atom_site_symmetry_multiplicity
 _atom_site_fract_x
 _atom_site_fract_y
 _atom_site_fract_z
 _atom_site_occupancy
  Dy  Dy0  1  0.842205  0.157795  0.500000  1
  Dy  Dy1  1  0.157795  0.842205  0.500000  1
  Dy  Dy2  1  0.342205  0.342205  0.000000  1
  Dy  Dy3  1  0.657795  0.657795  0.000000  1
  Dy  Dy4  1  0.680885  0.680885  0.500000  1
  Dy  Dy5  1  0.319115  0.319115  0.500000  1
  Dy  Dy6  1  0.180885  0.819115  0.000000  1
  Dy  Dy7  1  0.819115  0.180885  0.000000  1
  Cd  Cd8  1  0.500000  0.000000  0.250000  1
  Cd  Cd9  1  0.000000  0.500000  0.750000  1
  Bi  Bi10  1  0.500000  0.000000  0.750000  1
  Bi  Bi11  1  0.000000  0.500000  0.250000  1
  Au  Au12  1  0.619632  0.365451  0.273793  1
  Au  Au13  1  0.380368  0.634549  0.273793  1
  Au  Au14  1  0.119632  0.134549  0.773793  1
  Au  Au15  1  0.880368  0.865451  0.773793  1
  Au  Au16  1  0.365451  0.619632  0.726207  1
  Au  Au17  1  0.634549  0.380368  0.726207  1
  Au  Au18  1  0.865451  0.880368  0.226207  1
  Au  Au19  1  0.134549  0.119632  0.226207  1
