# generated using pymatgen
data_ScTa4Nb(B2Ru5)2
_symmetry_space_group_name_H-M   'P 1'
_cell_length_a   9.46184572
_cell_length_b   9.46184606
_cell_length_c   3.04279400
_cell_angle_alpha   90.00000000
_cell_angle_beta   90.00000000
_cell_angle_gamma   90.07053394
_symmetry_Int_Tables_number   1
_chemical_formula_structural   ScTa4Nb(B2Ru5)2
_chemical_formula_sum   'Sc1 Ta4 Nb1 B4 Ru10'
_cell_volume   272.41057466
_cell_formula_units_Z   1
loop_
 _symmetry_equiv_pos_site_id
 _symmetry_equiv_pos_as_xyz
  1  'x, y, z'
loop_
 _atom_site_type_symbol
 _atom_site_label
 _atom_site_symmetry_multiplicity
 _atom_site_fract_x
 _atom_site_fract_y
 _atom_site_fract_z
 _atom_site_occupancy
  Sc  Sc0  1  0.824270  0.675730  0.000000  1
  Ta  Ta1  1  0.324331  0.822705  0.000000  1
  Ta  Ta2  1  0.677295  0.175669  0.000000  1
  Ta  Ta3  1  0.501697  0.500866  0.000000  1
  Ta  Ta4  1  0.999134  0.998303  0.000000  1
  Nb  Nb5  1  0.176466  0.323534  0.000000  1
  B  B6  1  0.622127  0.877873  0.000000  1
  B  B7  1  0.378043  0.121957  0.000000  1
  B  B8  1  0.120281  0.620776  0.000000  1
  B  B9  1  0.879224  0.379719  0.000000  1
  Ru  Ru10  1  0.564120  0.721124  0.500000  1
  Ru  Ru11  1  0.428335  0.282430  0.500000  1
  Ru  Ru12  1  0.077783  0.783263  0.500000  1
  Ru  Ru13  1  0.929020  0.216948  0.500000  1
  Ru  Ru14  1  0.283052  0.570980  0.500000  1
  Ru  Ru15  1  0.716737  0.422217  0.500000  1
  Ru  Ru16  1  0.217570  0.071665  0.500000  1
  Ru  Ru17  1  0.778876  0.935880  0.500000  1
  Ru  Ru18  1  0.498407  0.001593  0.500000  1
  Ru  Ru19  1  0.003233  0.496767  0.500000  1
