# generated using pymatgen
data_TbEr7Re2(OsC4)2
_symmetry_space_group_name_H-M   'P 1'
_cell_length_a   5.08786700
_cell_length_b   6.50145635
_cell_length_c   9.75392760
_cell_angle_alpha   90.13296092
_cell_angle_beta   90.00000000
_cell_angle_gamma   90.00000000
_symmetry_Int_Tables_number   1
_chemical_formula_structural   TbEr7Re2(OsC4)2
_chemical_formula_sum   'Tb1 Er7 Re2 Os2 C8'
_cell_volume   322.64486657
_cell_formula_units_Z   1
loop_
 _symmetry_equiv_pos_site_id
 _symmetry_equiv_pos_as_xyz
  1  'x, y, z'
loop_
 _atom_site_type_symbol
 _atom_site_label
 _atom_site_symmetry_multiplicity
 _atom_site_fract_x
 _atom_site_fract_y
 _atom_site_fract_z
 _atom_site_occupancy
  Tb  Tb0  1  0.250000  0.528927  0.213162  1
  Er  Er1  1  0.750000  0.823676  0.055102  1
  Er  Er2  1  0.250000  0.676305  0.555339  1
  Er  Er3  1  0.750000  0.320475  0.444098  1
  Er  Er4  1  0.250000  0.179400  0.943459  1
  Er  Er5  1  0.750000  0.469014  0.784114  1
  Er  Er6  1  0.250000  0.030540  0.284232  1
  Er  Er7  1  0.750000  0.970777  0.714523  1
  Re  Re8  1  0.750000  0.780092  0.366933  1
  Re  Re9  1  0.250000  0.720600  0.866225  1
  Os  Os10  1  0.750000  0.278965  0.133100  1
  Os  Os11  1  0.250000  0.220016  0.633445  1
  C  C12  1  0.750000  0.175136  0.947985  1
  C  C13  1  0.250000  0.827371  0.052527  1
  C  C14  1  0.750000  0.675802  0.553645  1
  C  C15  1  0.250000  0.323319  0.448861  1
  C  C16  1  0.750000  0.045788  0.259812  1
  C  C17  1  0.250000  0.454005  0.759825  1
  C  C18  1  0.750000  0.545627  0.242203  1
  C  C19  1  0.250000  0.954164  0.741409  1
