# generated using pymatgen
data_Ca7Yb(VN3)4
_symmetry_space_group_name_H-M   'P 1'
_cell_length_a   5.93597948
_cell_length_b   5.92985559
_cell_length_c   11.62290949
_cell_angle_alpha   89.02688197
_cell_angle_beta   88.98667608
_cell_angle_gamma   123.41958745
_symmetry_Int_Tables_number   1
_chemical_formula_structural   Ca7Yb(VN3)4
_chemical_formula_sum   'Ca7 Yb1 V4 N12'
_cell_volume   341.24795831
_cell_formula_units_Z   1
loop_
 _symmetry_equiv_pos_site_id
 _symmetry_equiv_pos_as_xyz
  1  'x, y, z'
loop_
 _atom_site_type_symbol
 _atom_site_label
 _atom_site_symmetry_multiplicity
 _atom_site_fract_x
 _atom_site_fract_y
 _atom_site_fract_z
 _atom_site_occupancy
  Ca  Ca0  1  0.461228  0.054363  0.352557  1
  Ca  Ca1  1  0.054995  0.461260  0.853256  1
  Ca  Ca2  1  0.538753  0.944880  0.647147  1
  Ca  Ca3  1  0.386098  0.160428  0.923017  1
  Ca  Ca4  1  0.839470  0.614496  0.577205  1
  Ca  Ca5  1  0.160210  0.385293  0.422768  1
  Ca  Ca6  1  0.944965  0.538843  0.146877  1
  Yb  Yb7  1  0.613134  0.836896  0.078206  1
  V  V8  1  0.766739  0.767111  0.838188  1
  V  V9  1  0.233143  0.232911  0.662482  1
  V  V10  1  0.233120  0.232810  0.161972  1
  V  V11  1  0.766413  0.766585  0.337228  1
  N  N12  1  0.089200  0.910814  0.750256  1
  N  N13  1  0.908606  0.086744  0.248317  1
  N  N14  1  0.505457  0.494613  0.750099  1
  N  N15  1  0.494562  0.507733  0.248686  1
  N  N16  1  0.340227  0.012036  0.127763  1
  N  N17  1  0.987444  0.660498  0.371210  1
  N  N18  1  0.661100  0.987392  0.873558  1
  N  N19  1  0.012022  0.338870  0.628475  1
  N  N20  1  0.806736  0.623382  0.963233  1
  N  N21  1  0.622467  0.808168  0.462223  1
  N  N22  1  0.196515  0.381853  0.037859  1
  N  N23  1  0.377395  0.192022  0.537417  1
