# generated using pymatgen
data_Nd4Co3Si12Ni17
_symmetry_space_group_name_H-M   'P 1'
_cell_length_a   3.81943000
_cell_length_b   6.65497730
_cell_length_c   18.90558445
_cell_angle_alpha   90.16354785
_cell_angle_beta   90.00000000
_cell_angle_gamma   90.00000000
_symmetry_Int_Tables_number   1
_chemical_formula_structural   Nd4Co3Si12Ni17
_chemical_formula_sum   'Nd4 Co3 Si12 Ni17'
_cell_volume   480.54434591
_cell_formula_units_Z   1
loop_
 _symmetry_equiv_pos_site_id
 _symmetry_equiv_pos_as_xyz
  1  'x, y, z'
loop_
 _atom_site_type_symbol
 _atom_site_label
 _atom_site_symmetry_multiplicity
 _atom_site_fract_x
 _atom_site_fract_y
 _atom_site_fract_z
 _atom_site_occupancy
  Nd  Nd0  1  0.250000  0.874701  0.356388  1
  Nd  Nd1  1  0.750000  0.126172  0.642905  1
  Nd  Nd2  1  0.750000  0.374591  0.143400  1
  Nd  Nd3  1  0.250000  0.623670  0.856775  1
  Co  Co4  1  0.250000  0.063287  0.205716  1
  Co  Co5  1  0.750000  0.937483  0.794763  1
  Co  Co6  1  0.750000  0.563120  0.294225  1
  Si  Si7  1  0.250000  0.073782  0.086231  1
  Si  Si8  1  0.750000  0.924762  0.914204  1
  Si  Si9  1  0.750000  0.574697  0.413902  1
  Si  Si10  1  0.250000  0.427783  0.585800  1
  Si  Si11  1  0.250000  0.658605  0.072832  1
  Si  Si12  1  0.750000  0.339429  0.927191  1
  Si  Si13  1  0.750000  0.160305  0.426998  1
  Si  Si14  1  0.250000  0.842088  0.572503  1
  Si  Si15  1  0.250000  0.375150  0.262979  1
  Si  Si16  1  0.750000  0.627708  0.737147  1
  Si  Si17  1  0.750000  0.874529  0.236877  1
  Si  Si18  1  0.250000  0.120661  0.763716  1
  Ni  Ni19  1  0.250000  0.432385  0.706517  1
  Ni  Ni20  1  0.250000  0.612982  0.484175  1
  Ni  Ni21  1  0.750000  0.389908  0.515678  1
  Ni  Ni22  1  0.750000  0.111353  0.015845  1
  Ni  Ni23  1  0.250000  0.887809  0.984674  1
  Ni  Ni24  1  0.250000  0.684566  0.200425  1
  Ni  Ni25  1  0.750000  0.315368  0.800313  1
  Ni  Ni26  1  0.750000  0.184905  0.299418  1
  Ni  Ni27  1  0.250000  0.813915  0.699824  1
  Ni  Ni28  1  0.250000  0.360494  0.383085  1
  Ni  Ni29  1  0.750000  0.645001  0.615789  1
  Ni  Ni30  1  0.750000  0.860177  0.116811  1
  Ni  Ni31  1  0.250000  0.138156  0.883658  1
  Ni  Ni32  1  0.250000  0.361976  0.004296  1
  Ni  Ni33  1  0.750000  0.636314  0.995714  1
  Ni  Ni34  1  0.750000  0.864541  0.495157  1
  Ni  Ni35  1  0.250000  0.137629  0.504069  1
