# generated using pymatgen
data_Lu10Si6C
_symmetry_space_group_name_H-M   'P 1'
_cell_length_a   8.24896500
_cell_length_b   8.24896627
_cell_length_c   6.19273300
_cell_angle_alpha   90.00000000
_cell_angle_beta   90.00000000
_cell_angle_gamma   119.99999090
_symmetry_Int_Tables_number   1
_chemical_formula_structural   Lu10Si6C
_chemical_formula_sum   'Lu10 Si6 C1'
_cell_volume   364.93205777
_cell_formula_units_Z   1
loop_
 _symmetry_equiv_pos_site_id
 _symmetry_equiv_pos_as_xyz
  1  'x, y, z'
loop_
 _atom_site_type_symbol
 _atom_site_label
 _atom_site_symmetry_multiplicity
 _atom_site_fract_x
 _atom_site_fract_y
 _atom_site_fract_z
 _atom_site_occupancy
  Lu  Lu0  1  0.000000  0.765339  0.269982  1
  Lu  Lu1  1  0.234661  0.234661  0.269982  1
  Lu  Lu2  1  0.765339  0.000000  0.269982  1
  Lu  Lu3  1  0.000000  0.234661  0.730018  1
  Lu  Lu4  1  0.765339  0.765339  0.730018  1
  Lu  Lu5  1  0.234661  0.000000  0.730018  1
  Lu  Lu6  1  0.333333  0.666667  0.000000  1
  Lu  Lu7  1  0.666667  0.333333  0.000000  1
  Lu  Lu8  1  0.666667  0.333333  0.500000  1
  Lu  Lu9  1  0.333333  0.666667  0.500000  1
  Si  Si10  1  0.000000  0.399410  0.252487  1
  Si  Si11  1  0.600590  0.600590  0.252487  1
  Si  Si12  1  0.399410  0.000000  0.252487  1
  Si  Si13  1  0.000000  0.600590  0.747513  1
  Si  Si14  1  0.399410  0.399410  0.747513  1
  Si  Si15  1  0.600590  0.000000  0.747513  1
  C  C16  1  0.000000  0.000000  0.500000  1
