# generated using pymatgen
data_Pu13Th7Si15Sn
_symmetry_space_group_name_H-M   'P 1'
_cell_length_a   7.56568794
_cell_length_b   7.68995880
_cell_length_c   14.60907000
_cell_angle_alpha   90.01089296
_cell_angle_beta   90.36669244
_cell_angle_gamma   90.02361566
_symmetry_Int_Tables_number   1
_chemical_formula_structural   Pu13Th7Si15Sn
_chemical_formula_sum   'Pu13 Th7 Si15 Sn1'
_cell_volume   849.93569304
_cell_formula_units_Z   1
loop_
 _symmetry_equiv_pos_site_id
 _symmetry_equiv_pos_as_xyz
  1  'x, y, z'
loop_
 _atom_site_type_symbol
 _atom_site_label
 _atom_site_symmetry_multiplicity
 _atom_site_fract_x
 _atom_site_fract_y
 _atom_site_fract_z
 _atom_site_occupancy
  Pu  Pu0  1  0.365563  0.836656  0.876151  1
  Pu  Pu1  1  0.864759  0.669980  0.626309  1
  Pu  Pu2  1  0.623613  0.161179  0.367671  1
  Pu  Pu3  1  0.121753  0.328871  0.122927  1
  Pu  Pu4  1  0.626792  0.161451  0.119878  1
  Pu  Pu5  1  0.120276  0.327949  0.370275  1
  Pu  Pu6  1  0.361051  0.832228  0.625634  1
  Pu  Pu7  1  0.877724  0.665274  0.875150  1
  Pu  Pu8  1  0.503545  0.303633  0.904010  1
  Pu  Pu9  1  0.169826  0.527028  0.753693  1
  Pu  Pu10  1  0.680580  0.975984  0.751679  1
  Pu  Pu11  1  0.838180  0.453141  0.258150  1
  Pu  Pu12  1  0.360619  0.050435  0.259381  1
  Th  Th13  1  0.004117  0.191557  0.597147  1
  Th  Th14  1  0.501235  0.687901  0.409324  1
  Th  Th15  1  0.986331  0.813606  0.081921  1
  Th  Th16  1  0.501770  0.690545  0.090132  1
  Th  Th17  1  0.985515  0.818677  0.416432  1
  Th  Th18  1  0.501163  0.312116  0.597362  1
  Th  Th19  1  0.005645  0.194012  0.904438  1
  Si  Si20  1  0.295719  0.040949  0.038905  1
  Si  Si21  1  0.797359  0.450039  0.463269  1
  Si  Si22  1  0.691740  0.965022  0.540124  1
  Si  Si23  1  0.210722  0.536634  0.960200  1
  Si  Si24  1  0.698302  0.960626  0.956543  1
  Si  Si25  1  0.195666  0.538905  0.536773  1
  Si  Si26  1  0.299092  0.043564  0.462584  1
  Si  Si27  1  0.794210  0.452963  0.036374  1
  Si  Si28  1  0.563669  0.587974  0.753864  1
  Si  Si29  1  0.065040  0.912799  0.750178  1
  Si  Si30  1  0.446711  0.414637  0.245871  1
  Si  Si31  1  0.941655  0.074308  0.246701  1
  Si  Si32  1  0.295992  0.142655  0.751627  1
  Si  Si33  1  0.789348  0.362182  0.751363  1
  Si  Si34  1  0.713382  0.849572  0.248609  1
  Sn  Sn35  1  0.201334  0.664946  0.249349  1
