# generated using pymatgen
data_CdBi3(Pd2O7)2
_symmetry_space_group_name_H-M   'P 1'
_cell_length_a   7.27883821
_cell_length_b   7.27883801
_cell_length_c   7.27883900
_cell_angle_alpha   60.82441131
_cell_angle_beta   60.82441217
_cell_angle_gamma   60.82442164
_symmetry_Int_Tables_number   1
_chemical_formula_structural   CdBi3(Pd2O7)2
_chemical_formula_sum   'Cd1 Bi3 Pd4 O14'
_cell_volume   277.76109013
_cell_formula_units_Z   1
loop_
 _symmetry_equiv_pos_site_id
 _symmetry_equiv_pos_as_xyz
  1  'x, y, z'
loop_
 _atom_site_type_symbol
 _atom_site_label
 _atom_site_symmetry_multiplicity
 _atom_site_fract_x
 _atom_site_fract_y
 _atom_site_fract_z
 _atom_site_occupancy
  Cd  Cd0  1  0.625000  0.625000  0.625000  1
  Bi  Bi1  1  0.125000  0.625000  0.625000  1
  Bi  Bi2  1  0.625000  0.125000  0.625000  1
  Bi  Bi3  1  0.625000  0.625000  0.125000  1
  Pd  Pd4  1  0.625000  0.125000  0.125000  1
  Pd  Pd5  1  0.125000  0.625000  0.125000  1
  Pd  Pd6  1  0.125000  0.125000  0.625000  1
  Pd  Pd7  1  0.125000  0.125000  0.125000  1
  O  O8  1  0.792067  0.792067  0.207705  1
  O  O9  1  0.209155  0.209155  0.791882  1
  O  O10  1  0.792067  0.207705  0.792067  1
  O  O11  1  0.209155  0.791882  0.209155  1
  O  O12  1  0.207705  0.792067  0.792067  1
  O  O13  1  0.791882  0.209155  0.209155  1
  O  O14  1  0.457933  0.457933  0.042295  1
  O  O15  1  0.040845  0.040845  0.458118  1
  O  O16  1  0.457933  0.042295  0.457933  1
  O  O17  1  0.040845  0.458118  0.040845  1
  O  O18  1  0.042295  0.457933  0.457933  1
  O  O19  1  0.458118  0.040845  0.040845  1
  O  O20  1  0.501515  0.501515  0.501515  1
  O  O21  1  0.748485  0.748485  0.748485  1
