# generated using pymatgen
data_Sm2HoEr3(SiRh2)6
_symmetry_space_group_name_H-M   'P 1'
_cell_length_a   5.58514200
_cell_length_b   5.58514076
_cell_length_c   14.97943000
_cell_angle_alpha   90.00000000
_cell_angle_beta   90.00000000
_cell_angle_gamma   119.99999551
_symmetry_Int_Tables_number   1
_chemical_formula_structural   Sm2HoEr3(SiRh2)6
_chemical_formula_sum   'Sm2 Ho1 Er3 Si6 Rh12'
_cell_volume   404.66373099
_cell_formula_units_Z   1
loop_
 _symmetry_equiv_pos_site_id
 _symmetry_equiv_pos_as_xyz
  1  'x, y, z'
loop_
 _atom_site_type_symbol
 _atom_site_label
 _atom_site_symmetry_multiplicity
 _atom_site_fract_x
 _atom_site_fract_y
 _atom_site_fract_z
 _atom_site_occupancy
  Sm  Sm0  1  0.333333  0.666667  0.749988  1
  Sm  Sm1  1  0.666667  0.333333  0.250009  1
  Ho  Ho2  1  0.333333  0.666667  0.536958  1
  Er  Er3  1  0.666667  0.333333  0.463134  1
  Er  Er4  1  0.666667  0.333333  0.036801  1
  Er  Er5  1  0.333333  0.666667  0.963136  1
  Si  Si6  1  0.000000  0.000000  0.249965  1
  Si  Si7  1  0.000000  0.000000  0.750024  1
  Si  Si8  1  0.333333  0.666667  0.249990  1
  Si  Si9  1  0.666667  0.333333  0.750015  1
  Si  Si10  1  0.000000  0.000000  0.999996  1
  Si  Si11  1  0.000000  0.000000  0.500006  1
  Rh  Rh12  1  0.166985  0.333968  0.129467  1
  Rh  Rh13  1  0.833008  0.666017  0.870542  1
  Rh  Rh14  1  0.666032  0.833015  0.129467  1
  Rh  Rh15  1  0.832990  0.665981  0.629536  1
  Rh  Rh16  1  0.333983  0.166992  0.870542  1
  Rh  Rh17  1  0.166924  0.333847  0.370448  1
  Rh  Rh18  1  0.166985  0.833015  0.129467  1
  Rh  Rh19  1  0.334019  0.167010  0.629536  1
  Rh  Rh20  1  0.833008  0.166992  0.870542  1
  Rh  Rh21  1  0.666153  0.833076  0.370448  1
  Rh  Rh22  1  0.832990  0.167010  0.629536  1
  Rh  Rh23  1  0.166924  0.833076  0.370448  1
