# generated using pymatgen
data_DyTmThSi2
_symmetry_space_group_name_H-M   'P 1'
_cell_length_a   7.54803783
_cell_length_b   7.54803783
_cell_length_c   4.21147200
_cell_angle_alpha   90.00000000
_cell_angle_beta   90.00000000
_cell_angle_gamma   89.88449810
_symmetry_Int_Tables_number   1
_chemical_formula_structural   DyTmThSi2
_chemical_formula_sum   'Dy2 Tm2 Th2 Si4'
_cell_volume   239.93918091
_cell_formula_units_Z   2
loop_
 _symmetry_equiv_pos_site_id
 _symmetry_equiv_pos_as_xyz
  1  'x, y, z'
loop_
 _atom_site_type_symbol
 _atom_site_label
 _atom_site_symmetry_multiplicity
 _atom_site_fract_x
 _atom_site_fract_y
 _atom_site_fract_z
 _atom_site_occupancy
  Dy  Dy0  1  0.674223  0.174223  0.500000  1
  Dy  Dy1  1  0.325777  0.825777  0.500000  1
  Tm  Tm2  1  0.500000  0.500000  0.000000  1
  Tm  Tm3  1  0.000000  0.000000  0.000000  1
  Th  Th4  1  0.179300  0.320700  0.500000  1
  Th  Th5  1  0.820700  0.679300  0.500000  1
  Si  Si6  1  0.121112  0.621112  0.000000  1
  Si  Si7  1  0.878888  0.378888  0.000000  1
  Si  Si8  1  0.614404  0.885596  0.000000  1
  Si  Si9  1  0.385596  0.114404  0.000000  1
