# generated using pymatgen
data_CsTa2I11
_symmetry_space_group_name_H-M   'P 1'
_cell_length_a   8.30718040
_cell_length_b   8.38477332
_cell_length_c   20.66861823
_cell_angle_alpha   78.80608208
_cell_angle_beta   78.65488078
_cell_angle_gamma   88.44797122
_symmetry_Int_Tables_number   1
_chemical_formula_structural   CsTa2I11
_chemical_formula_sum   'Cs2 Ta4 I22'
_cell_volume   1384.57232932
_cell_formula_units_Z   2
loop_
 _symmetry_equiv_pos_site_id
 _symmetry_equiv_pos_as_xyz
  1  'x, y, z'
loop_
 _atom_site_type_symbol
 _atom_site_label
 _atom_site_symmetry_multiplicity
 _atom_site_fract_x
 _atom_site_fract_y
 _atom_site_fract_z
 _atom_site_occupancy
  Cs  Cs0  1  0.747402  0.747952  0.503342  1
  Cs  Cs1  1  0.252598  0.252048  0.496658  1
  Ta  Ta2  1  0.325561  0.822332  0.338105  1
  Ta  Ta3  1  0.674439  0.177668  0.661895  1
  Ta  Ta4  1  0.833304  0.332139  0.086065  1
  Ta  Ta5  1  0.166696  0.667861  0.913935  1
  I  I6  1  0.253633  0.766665  0.485746  1
  I  I7  1  0.746367  0.233335  0.514254  1
  I  I8  1  0.572017  0.031040  0.343355  1
  I  I9  1  0.427983  0.968960  0.656645  1
  I  I10  1  0.542174  0.565338  0.350359  1
  I  I11  1  0.457826  0.434662  0.649641  1
  I  I12  1  0.388088  0.865153  0.203916  1
  I  I13  1  0.611912  0.134847  0.796084  1
  I  I14  1  0.070295  0.603316  0.351807  1
  I  I15  1  0.929705  0.396684  0.648193  1
  I  I16  1  0.105314  0.073962  0.340275  1
  I  I17  1  0.894686  0.926038  0.659725  1
  I  I18  1  0.900946  0.034972  0.146729  1
  I  I19  1  0.099054  0.965028  0.853271  1
  I  I20  1  0.530344  0.381537  0.149539  1
  I  I21  1  0.469656  0.618463  0.850461  1
  I  I22  1  0.722967  0.219506  0.987309  1
  I  I23  1  0.277033  0.780494  0.012691  1
  I  I24  1  0.973186  0.478535  0.168301  1
  I  I25  1  0.026814  0.521465  0.831699  1
  I  I26  1  0.163783  0.343313  0.999751  1
  I  I27  1  0.836217  0.656687  0.000249  1
