# generated using pymatgen
data_La2Pr6CdHgPd2
_symmetry_space_group_name_H-M   'P 1'
_cell_length_a   10.11278328
_cell_length_b   10.11278366
_cell_length_c   10.13012600
_cell_angle_alpha   59.94325558
_cell_angle_beta   59.94325432
_cell_angle_gamma   59.90929820
_symmetry_Int_Tables_number   1
_chemical_formula_structural   La2Pr6CdHgPd2
_chemical_formula_sum   'La4 Pr12 Cd2 Hg2 Pd4'
_cell_volume   731.42561446
_cell_formula_units_Z   2
loop_
 _symmetry_equiv_pos_site_id
 _symmetry_equiv_pos_as_xyz
  1  'x, y, z'
loop_
 _atom_site_type_symbol
 _atom_site_label
 _atom_site_symmetry_multiplicity
 _atom_site_fract_x
 _atom_site_fract_y
 _atom_site_fract_z
 _atom_site_occupancy
  La  La0  1  0.351545  0.351545  0.351131  1
  La  La1  1  0.351545  0.351545  0.945781  1
  La  La2  1  0.354623  0.939039  0.353170  1
  La  La3  1  0.939039  0.354623  0.353170  1
  Pr  Pr4  1  0.808844  0.191289  0.192603  1
  Pr  Pr5  1  0.191289  0.808844  0.807265  1
  Pr  Pr6  1  0.191289  0.808844  0.192603  1
  Pr  Pr7  1  0.808844  0.191289  0.807265  1
  Pr  Pr8  1  0.190662  0.190662  0.809338  1
  Pr  Pr9  1  0.806633  0.806633  0.193367  1
  Pr  Pr10  1  0.937124  0.563565  0.566013  1
  Pr  Pr11  1  0.563565  0.937124  0.933298  1
  Pr  Pr12  1  0.563565  0.937124  0.566013  1
  Pr  Pr13  1  0.937124  0.563565  0.933298  1
  Pr  Pr14  1  0.564016  0.564016  0.935984  1
  Pr  Pr15  1  0.934349  0.934349  0.565651  1
  Cd  Cd16  1  0.578546  0.260167  0.580643  1
  Cd  Cd17  1  0.260167  0.578546  0.580643  1
  Hg  Hg18  1  0.583546  0.583546  0.586903  1
  Hg  Hg19  1  0.583546  0.583546  0.246005  1
  Pd  Pd20  1  0.144092  0.144092  0.145141  1
  Pd  Pd21  1  0.144092  0.144092  0.566675  1
  Pd  Pd22  1  0.143310  0.568649  0.144020  1
  Pd  Pd23  1  0.568649  0.143310  0.144020  1
