# generated using pymatgen
data_Y9Ho2In9Ru4
_symmetry_space_group_name_H-M   'P 1'
_cell_length_a   12.84845700
_cell_length_b   12.84845673
_cell_length_c   3.94660000
_cell_angle_alpha   90.00000000
_cell_angle_beta   90.00000000
_cell_angle_gamma   113.43433077
_symmetry_Int_Tables_number   1
_chemical_formula_structural   Y9Ho2In9Ru4
_chemical_formula_sum   'Y9 Ho2 In9 Ru4'
_cell_volume   597.77663291
_cell_formula_units_Z   1
loop_
 _symmetry_equiv_pos_site_id
 _symmetry_equiv_pos_as_xyz
  1  'x, y, z'
loop_
 _atom_site_type_symbol
 _atom_site_label
 _atom_site_symmetry_multiplicity
 _atom_site_fract_x
 _atom_site_fract_y
 _atom_site_fract_z
 _atom_site_occupancy
  Y  Y0  1  0.500000  0.500000  0.500000  1
  Y  Y1  1  0.802486  0.802486  0.500000  1
  Y  Y2  1  0.197514  0.197514  0.500000  1
  Y  Y3  1  0.588015  0.917190  0.500000  1
  Y  Y4  1  0.411985  0.082810  0.500000  1
  Y  Y5  1  0.917190  0.588015  0.500000  1
  Y  Y6  1  0.082810  0.411985  0.500000  1
  Y  Y7  1  0.131828  0.868172  0.500000  1
  Y  Y8  1  0.868172  0.131828  0.500000  1
  Ho  Ho9  1  0.334628  0.665372  0.500000  1
  Ho  Ho10  1  0.665372  0.334628  0.500000  1
  In  In11  1  0.347200  0.871427  0.000000  1
  In  In12  1  0.652800  0.128573  0.000000  1
  In  In13  1  0.871427  0.347200  0.000000  1
  In  In14  1  0.128573  0.652800  0.000000  1
  In  In15  1  0.571405  0.718105  0.000000  1
  In  In16  1  0.428595  0.281895  0.000000  1
  In  In17  1  0.718105  0.571405  0.000000  1
  In  In18  1  0.281895  0.428595  0.000000  1
  In  In19  1  0.000000  0.000000  0.000000  1
  Ru  Ru20  1  0.766624  0.953301  0.000000  1
  Ru  Ru21  1  0.233376  0.046699  0.000000  1
  Ru  Ru22  1  0.953301  0.766624  0.000000  1
  Ru  Ru23  1  0.046699  0.233376  0.000000  1
