# generated using pymatgen
data_Ca9LuSn6F2
_symmetry_space_group_name_H-M   'P 1'
_cell_length_a   9.44827640
_cell_length_b   9.44827563
_cell_length_c   9.44827686
_cell_angle_alpha   129.11745547
_cell_angle_beta   129.11745449
_cell_angle_gamma   74.82165796
_symmetry_Int_Tables_number   1
_chemical_formula_structural   Ca9LuSn6F2
_chemical_formula_sum   'Ca9 Lu1 Sn6 F2'
_cell_volume   494.54054382
_cell_formula_units_Z   1
loop_
 _symmetry_equiv_pos_site_id
 _symmetry_equiv_pos_as_xyz
  1  'x, y, z'
loop_
 _atom_site_type_symbol
 _atom_site_label
 _atom_site_symmetry_multiplicity
 _atom_site_fract_x
 _atom_site_fract_y
 _atom_site_fract_z
 _atom_site_occupancy
  Ca  Ca0  1  0.000000  0.000000  0.000000  1
  Ca  Ca1  1  0.508807  0.009009  0.820965  1
  Ca  Ca2  1  0.188044  0.687840  0.179035  1
  Ca  Ca3  1  0.009009  0.188044  0.500203  1
  Ca  Ca4  1  0.687840  0.508807  0.499797  1
  Ca  Ca5  1  0.491193  0.990991  0.179035  1
  Ca  Ca6  1  0.811956  0.312160  0.820965  1
  Ca  Ca7  1  0.990991  0.811956  0.499797  1
  Ca  Ca8  1  0.312160  0.491193  0.500203  1
  Lu  Lu9  1  0.500000  0.500000  0.000000  1
  Sn  Sn10  1  0.252739  0.252739  0.000000  1
  Sn  Sn11  1  0.747261  0.747261  0.000000  1
  Sn  Sn12  1  0.863282  0.375503  0.238785  1
  Sn  Sn13  1  0.136718  0.624497  0.761215  1
  Sn  Sn14  1  0.375503  0.136718  0.512221  1
  Sn  Sn15  1  0.624497  0.863282  0.487779  1
  F  F16  1  0.250000  0.750000  0.500000  1
  F  F17  1  0.750000  0.250000  0.500000  1
