# generated using pymatgen
data_La5Pr2Lu3Si8O3
_symmetry_space_group_name_H-M   'P 1'
_cell_length_a   10.70567300
_cell_length_b   10.72772703
_cell_length_c   4.47356300
_cell_angle_alpha   90.00000000
_cell_angle_beta   90.00000000
_cell_angle_gamma   119.93202729
_symmetry_Int_Tables_number   1
_chemical_formula_structural   La5Pr2Lu3Si8O3
_chemical_formula_sum   'La5 Pr2 Lu3 Si8 O3'
_cell_volume   445.24898198
_cell_formula_units_Z   1
loop_
 _symmetry_equiv_pos_site_id
 _symmetry_equiv_pos_as_xyz
  1  'x, y, z'
loop_
 _atom_site_type_symbol
 _atom_site_label
 _atom_site_symmetry_multiplicity
 _atom_site_fract_x
 _atom_site_fract_y
 _atom_site_fract_z
 _atom_site_occupancy
  La  La0  1  0.787825  0.575650  0.000000  1
  La  La1  1  0.999873  0.999745  0.000000  1
  La  La2  1  0.212253  0.424504  0.000000  1
  La  La3  1  0.424327  0.211796  0.000000  1
  La  La4  1  0.787468  0.211796  0.000000  1
  Pr  Pr5  1  0.212048  0.788707  0.000000  1
  Pr  Pr6  1  0.576660  0.788707  0.000000  1
  Lu  Lu7  1  0.000764  0.501009  0.500000  1
  Lu  Lu8  1  0.500245  0.501009  0.500000  1
  Lu  Lu9  1  0.499209  0.998419  0.500000  1
  Si  Si10  1  0.000059  0.774741  0.500000  1
  Si  Si11  1  0.999741  0.224548  0.500000  1
  Si  Si12  1  0.224807  0.224548  0.500000  1
  Si  Si13  1  0.774488  0.999648  0.500000  1
  Si  Si14  1  0.333609  0.667218  0.500000  1
  Si  Si15  1  0.225160  0.999648  0.500000  1
  Si  Si16  1  0.666634  0.333267  0.500000  1
  Si  Si17  1  0.774682  0.774741  0.500000  1
  O  O18  1  0.000466  0.500289  0.000000  1
  O  O19  1  0.499823  0.500289  0.000000  1
  O  O20  1  0.499861  0.999721  0.000000  1
