# generated using pymatgen
data_TmLu7B24IrRu3
_symmetry_space_group_name_H-M   'P 1'
_cell_length_a   3.59851200
_cell_length_b   9.03624020
_cell_length_c   11.38141900
_cell_angle_alpha   90.03045065
_cell_angle_beta   90.00000000
_cell_angle_gamma   90.00000000
_symmetry_Int_Tables_number   1
_chemical_formula_structural   TmLu7B24IrRu3
_chemical_formula_sum   'Tm1 Lu7 B24 Ir1 Ru3'
_cell_volume   370.08976317
_cell_formula_units_Z   1
loop_
 _symmetry_equiv_pos_site_id
 _symmetry_equiv_pos_as_xyz
  1  'x, y, z'
loop_
 _atom_site_type_symbol
 _atom_site_label
 _atom_site_symmetry_multiplicity
 _atom_site_fract_x
 _atom_site_fract_y
 _atom_site_fract_z
 _atom_site_occupancy
  Tm  Tm0  1  0.000000  0.318080  0.414443  1
  Lu  Lu1  1  0.000000  0.680105  0.589106  1
  Lu  Lu2  1  0.000000  0.822484  0.083942  1
  Lu  Lu3  1  0.000000  0.179609  0.913298  1
  Lu  Lu4  1  0.000000  0.945703  0.373509  1
  Lu  Lu5  1  0.000000  0.055886  0.626782  1
  Lu  Lu6  1  0.000000  0.441864  0.125191  1
  Lu  Lu7  1  0.000000  0.555921  0.873543  1
  B  B8  1  0.500000  0.553819  0.434527  1
  B  B9  1  0.500000  0.446358  0.566336  1
  B  B10  1  0.500000  0.053879  0.066087  1
  B  B11  1  0.500000  0.946398  0.933618  1
  B  B12  1  0.500000  0.750383  0.421895  1
  B  B13  1  0.500000  0.250415  0.579717  1
  B  B14  1  0.500000  0.248852  0.079048  1
  B  B15  1  0.500000  0.751059  0.920707  1
  B  B16  1  0.500000  0.793177  0.264890  1
  B  B17  1  0.500000  0.207825  0.734420  1
  B  B18  1  0.500000  0.292351  0.234576  1
  B  B19  1  0.500000  0.707652  0.765646  1
  B  B20  1  0.500000  0.631624  0.182921  1
  B  B21  1  0.500000  0.368868  0.815594  1
  B  B22  1  0.500000  0.131142  0.315673  1
  B  B23  1  0.500000  0.868437  0.684486  1
  B  B24  1  0.500000  0.981535  0.212962  1
  B  B25  1  0.500000  0.018238  0.786885  1
  B  B26  1  0.500000  0.480846  0.286421  1
  B  B27  1  0.500000  0.518291  0.713295  1
  B  B28  1  0.500000  0.607623  0.029820  1
  B  B29  1  0.500000  0.392479  0.970396  1
  B  B30  1  0.500000  0.106597  0.470707  1
  B  B31  1  0.500000  0.892370  0.529298  1
  Ir  Ir32  1  0.000000  0.637841  0.321392  1
  Ru  Ru33  1  0.000000  0.362407  0.678778  1
  Ru  Ru34  1  0.000000  0.137800  0.179187  1
  Ru  Ru35  1  0.000000  0.862084  0.820904  1
