# generated using pymatgen
data_Sc4Ge2B4Ir7Ru3
_symmetry_space_group_name_H-M   'P 1'
_cell_length_a   9.43876878
_cell_length_b   9.44410315
_cell_length_c   3.03184700
_cell_angle_alpha   90.00000000
_cell_angle_beta   90.00000000
_cell_angle_gamma   89.54948840
_symmetry_Int_Tables_number   1
_chemical_formula_structural   Sc4Ge2B4Ir7Ru3
_chemical_formula_sum   'Sc4 Ge2 B4 Ir7 Ru3'
_cell_volume   270.25262752
_cell_formula_units_Z   1
loop_
 _symmetry_equiv_pos_site_id
 _symmetry_equiv_pos_as_xyz
  1  'x, y, z'
loop_
 _atom_site_type_symbol
 _atom_site_label
 _atom_site_symmetry_multiplicity
 _atom_site_fract_x
 _atom_site_fract_y
 _atom_site_fract_z
 _atom_site_occupancy
  Sc  Sc0  1  0.671910  0.178630  0.000000  1
  Sc  Sc1  1  0.328090  0.821370  0.000000  1
  Sc  Sc2  1  0.176620  0.327845  0.000000  1
  Sc  Sc3  1  0.823380  0.672155  0.000000  1
  Ge  Ge4  1  0.000000  0.000000  0.000000  1
  Ge  Ge5  1  0.500000  0.500000  0.000000  1
  B  B6  1  0.122153  0.620703  0.000000  1
  B  B7  1  0.877847  0.379297  0.000000  1
  B  B8  1  0.622647  0.870191  0.000000  1
  B  B9  1  0.377353  0.129809  0.000000  1
  Ir  Ir10  1  0.215921  0.069772  0.500000  1
  Ir  Ir11  1  0.784079  0.930228  0.500000  1
  Ir  Ir12  1  0.070150  0.785805  0.500000  1
  Ir  Ir13  1  0.716557  0.427848  0.500000  1
  Ir  Ir14  1  0.929850  0.214195  0.500000  1
  Ir  Ir15  1  0.283443  0.572152  0.500000  1
  Ir  Ir16  1  0.500000  0.000000  0.500000  1
  Ru  Ru17  1  0.570319  0.712995  0.500000  1
  Ru  Ru18  1  0.429681  0.287005  0.500000  1
  Ru  Ru19  1  0.000000  0.500000  0.500000  1
