# generated using pymatgen
data_La3Pr(CoSi3)2
_symmetry_space_group_name_H-M   'P 1'
_cell_length_a   8.12312100
_cell_length_b   8.12312106
_cell_length_c   4.29498600
_cell_angle_alpha   90.00000000
_cell_angle_beta   90.00000000
_cell_angle_gamma   119.52927457
_symmetry_Int_Tables_number   1
_chemical_formula_structural   La3Pr(CoSi3)2
_chemical_formula_sum   'La3 Pr1 Co2 Si6'
_cell_volume   246.59187224
_cell_formula_units_Z   1
loop_
 _symmetry_equiv_pos_site_id
 _symmetry_equiv_pos_as_xyz
  1  'x, y, z'
loop_
 _atom_site_type_symbol
 _atom_site_label
 _atom_site_symmetry_multiplicity
 _atom_site_fract_x
 _atom_site_fract_y
 _atom_site_fract_z
 _atom_site_occupancy
  La  La0  1  0.000000  0.500000  0.000000  1
  La  La1  1  0.500000  0.000000  0.000000  1
  La  La2  1  0.000000  0.000000  0.000000  1
  Pr  Pr3  1  0.500000  0.500000  0.000000  1
  Co  Co4  1  0.334074  0.665926  0.500000  1
  Co  Co5  1  0.665926  0.334074  0.500000  1
  Si  Si6  1  0.829455  0.658684  0.500000  1
  Si  Si7  1  0.171053  0.828947  0.500000  1
  Si  Si8  1  0.658684  0.829455  0.500000  1
  Si  Si9  1  0.170545  0.341316  0.500000  1
  Si  Si10  1  0.828947  0.171053  0.500000  1
  Si  Si11  1  0.341316  0.170545  0.500000  1
