# generated using pymatgen
data_Sr3Ga3Si2AsO14
_symmetry_space_group_name_H-M   'P 1'
_cell_length_a   8.31679800
_cell_length_b   8.31679770
_cell_length_c   5.04701300
_cell_angle_alpha   90.00000000
_cell_angle_beta   90.00000000
_cell_angle_gamma   120.00000119
_symmetry_Int_Tables_number   1
_chemical_formula_structural   Sr3Ga3Si2AsO14
_chemical_formula_sum   'Sr3 Ga3 Si2 As1 O14'
_cell_volume   302.32728291
_cell_formula_units_Z   1
loop_
 _symmetry_equiv_pos_site_id
 _symmetry_equiv_pos_as_xyz
  1  'x, y, z'
loop_
 _atom_site_type_symbol
 _atom_site_label
 _atom_site_symmetry_multiplicity
 _atom_site_fract_x
 _atom_site_fract_y
 _atom_site_fract_z
 _atom_site_occupancy
  Sr  Sr0  1  0.572582  0.572582  0.000000  1
  Sr  Sr1  1  0.427418  0.000000  0.000000  1
  Sr  Sr2  1  0.000000  0.427418  0.000000  1
  Ga  Ga3  1  0.242705  0.242705  0.500000  1
  Ga  Ga4  1  0.000000  0.757295  0.500000  1
  Ga  Ga5  1  0.757295  0.000000  0.500000  1
  Si  Si6  1  0.333333  0.666667  0.528487  1
  Si  Si7  1  0.666667  0.333333  0.471513  1
  As  As8  1  0.000000  0.000000  0.000000  1
  O  O9  1  0.087795  0.210159  0.217059  1
  O  O10  1  0.789841  0.877637  0.217059  1
  O  O11  1  0.122363  0.912205  0.217059  1
  O  O12  1  0.877637  0.789841  0.782941  1
  O  O13  1  0.912205  0.122363  0.782941  1
  O  O14  1  0.210159  0.087795  0.782941  1
  O  O15  1  0.300811  0.470230  0.662004  1
  O  O16  1  0.529770  0.830580  0.662004  1
  O  O17  1  0.169420  0.699189  0.662004  1
  O  O18  1  0.333333  0.666667  0.209178  1
  O  O19  1  0.666667  0.333333  0.790822  1
  O  O20  1  0.470230  0.300811  0.337996  1
  O  O21  1  0.699189  0.169420  0.337996  1
  O  O22  1  0.830580  0.529770  0.337996  1
