# generated using pymatgen
data_Y8Sc2Bi5As
_symmetry_space_group_name_H-M   'P 1'
_cell_length_a   8.02920900
_cell_length_b   9.31614900
_cell_length_c   11.90723000
_cell_angle_alpha   90.00000000
_cell_angle_beta   90.00000000
_cell_angle_gamma   90.00000000
_symmetry_Int_Tables_number   1
_chemical_formula_structural   Y8Sc2Bi5As
_chemical_formula_sum   'Y16 Sc4 Bi10 As2'
_cell_volume   890.67637147
_cell_formula_units_Z   2
loop_
 _symmetry_equiv_pos_site_id
 _symmetry_equiv_pos_as_xyz
  1  'x, y, z'
loop_
 _atom_site_type_symbol
 _atom_site_label
 _atom_site_symmetry_multiplicity
 _atom_site_fract_x
 _atom_site_fract_y
 _atom_site_fract_z
 _atom_site_occupancy
  Y  Y0  1  0.167555  0.750000  0.712669  1
  Y  Y1  1  0.667555  0.750000  0.787331  1
  Y  Y2  1  0.816865  0.250000  0.278541  1
  Y  Y3  1  0.316865  0.250000  0.221459  1
  Y  Y4  1  0.308572  0.451924  0.940240  1
  Y  Y5  1  0.808572  0.048076  0.559760  1
  Y  Y6  1  0.689884  0.931053  0.056414  1
  Y  Y7  1  0.189884  0.568947  0.443586  1
  Y  Y8  1  0.689884  0.568947  0.056414  1
  Y  Y9  1  0.189884  0.931053  0.443586  1
  Y  Y10  1  0.308572  0.048076  0.940240  1
  Y  Y11  1  0.808572  0.451924  0.559760  1
  Y  Y12  1  0.352596  0.750000  0.205704  1
  Y  Y13  1  0.852596  0.750000  0.294296  1
  Y  Y14  1  0.647771  0.250000  0.783617  1
  Y  Y15  1  0.147771  0.250000  0.716383  1
  Sc  Sc16  1  0.036179  0.750000  0.986624  1
  Sc  Sc17  1  0.536179  0.750000  0.513376  1
  Sc  Sc18  1  0.979155  0.250000  0.009469  1
  Sc  Sc19  1  0.479155  0.250000  0.490531  1
  Bi  Bi20  1  0.433082  0.001205  0.668935  1
  Bi  Bi21  1  0.933082  0.498795  0.831065  1
  Bi  Bi22  1  0.564322  0.504606  0.331643  1
  Bi  Bi23  1  0.064322  0.995394  0.168357  1
  Bi  Bi24  1  0.564322  0.995394  0.331643  1
  Bi  Bi25  1  0.064322  0.504606  0.168357  1
  Bi  Bi26  1  0.433082  0.498795  0.668935  1
  Bi  Bi27  1  0.933082  0.001205  0.831065  1
  Bi  Bi28  1  0.596605  0.250000  0.041094  1
  Bi  Bi29  1  0.096605  0.250000  0.458906  1
  As  As30  1  0.411554  0.750000  0.965330  1
  As  As31  1  0.911554  0.750000  0.534670  1
