# generated using pymatgen
data_Sm2(CO3)3
_symmetry_space_group_name_H-M   'P 1'
_cell_length_a   8.49227807
_cell_length_b   8.44175204
_cell_length_c   8.47279137
_cell_angle_alpha   119.89668237
_cell_angle_beta   90.06458094
_cell_angle_gamma   90.01881034
_symmetry_Int_Tables_number   1
_chemical_formula_structural   Sm2(CO3)3
_chemical_formula_sum   'Sm4 C6 O18'
_cell_volume   526.58033822
_cell_formula_units_Z   2
loop_
 _symmetry_equiv_pos_site_id
 _symmetry_equiv_pos_as_xyz
  1  'x, y, z'
loop_
 _atom_site_type_symbol
 _atom_site_label
 _atom_site_symmetry_multiplicity
 _atom_site_fract_x
 _atom_site_fract_y
 _atom_site_fract_z
 _atom_site_occupancy
  Sm  Sm0  1  0.968725  0.665218  0.332229  1
  Sm  Sm1  1  0.531346  0.667610  0.333579  1
  Sm  Sm2  1  0.468654  0.332390  0.666421  1
  Sm  Sm3  1  0.031275  0.334782  0.667771  1
  C  C4  1  0.249409  0.968525  0.373826  1
  C  C5  1  0.250172  0.405799  0.032094  1
  C  C6  1  0.749615  0.372370  0.405385  1
  C  C7  1  0.250385  0.627630  0.594615  1
  C  C8  1  0.749828  0.594201  0.967906  1
  C  C9  1  0.750591  0.031475  0.626174  1
  O  O10  1  0.117086  0.883370  0.322683  1
  O  O11  1  0.382593  0.885390  0.323678  1
  O  O12  1  0.749619  0.664222  0.144951  1
  O  O13  1  0.382681  0.440366  0.116698  1
  O  O14  1  0.117271  0.438444  0.115454  1
  O  O15  1  0.749231  0.479334  0.334574  1
  O  O16  1  0.751251  0.853843  0.518468  1
  O  O17  1  0.117389  0.677257  0.560259  1
  O  O18  1  0.382871  0.678452  0.560715  1
  O  O19  1  0.617129  0.321548  0.439285  1
  O  O20  1  0.882611  0.322743  0.439741  1
  O  O21  1  0.248749  0.146157  0.481532  1
  O  O22  1  0.250769  0.520666  0.665426  1
  O  O23  1  0.882729  0.561556  0.884546  1
  O  O24  1  0.617319  0.559634  0.883302  1
  O  O25  1  0.250381  0.335778  0.855049  1
  O  O26  1  0.617407  0.114610  0.676322  1
  O  O27  1  0.882914  0.116630  0.677317  1
