# generated using pymatgen
data_Li3(GaNi)2
_symmetry_space_group_name_H-M   'P 1'
_cell_length_a   6.59890773
_cell_length_b   6.59890744
_cell_length_c   6.59890583
_cell_angle_alpha   36.42679378
_cell_angle_beta   36.42678036
_cell_angle_gamma   36.42679009
_symmetry_Int_Tables_number   1
_chemical_formula_structural   Li3(GaNi)2
_chemical_formula_sum   'Li3 Ga2 Ni2'
_cell_volume   90.69029785
_cell_formula_units_Z   1
loop_
 _symmetry_equiv_pos_site_id
 _symmetry_equiv_pos_as_xyz
  1  'x, y, z'
loop_
 _atom_site_type_symbol
 _atom_site_label
 _atom_site_symmetry_multiplicity
 _atom_site_fract_x
 _atom_site_fract_y
 _atom_site_fract_z
 _atom_site_occupancy
  Li  Li0  1  0.643899  0.643899  0.643899  1
  Li  Li1  1  0.356101  0.356101  0.356101  1
  Li  Li2  1  0.500000  0.500000  0.500000  1
  Ga  Ga3  1  0.916904  0.916904  0.916904  1
  Ga  Ga4  1  0.083096  0.083096  0.083096  1
  Ni  Ni5  1  0.785249  0.785249  0.785249  1
  Ni  Ni6  1  0.214752  0.214752  0.214752  1
