# generated using pymatgen
data_CePPtRh
_symmetry_space_group_name_H-M   'P 1'
_cell_length_a   9.42726744
_cell_length_b   9.42726760
_cell_length_c   4.08908300
_cell_angle_alpha   90.00000000
_cell_angle_beta   90.00000000
_cell_angle_gamma   156.12981754
_symmetry_Int_Tables_number   1
_chemical_formula_structural   CePPtRh
_chemical_formula_sum   'Ce2 P2 Pt2 Rh2'
_cell_volume   147.05981917
_cell_formula_units_Z   2
loop_
 _symmetry_equiv_pos_site_id
 _symmetry_equiv_pos_as_xyz
  1  'x, y, z'
loop_
 _atom_site_type_symbol
 _atom_site_label
 _atom_site_symmetry_multiplicity
 _atom_site_fract_x
 _atom_site_fract_y
 _atom_site_fract_z
 _atom_site_occupancy
  Ce  Ce0  1  0.106087  0.893913  0.750000  1
  Ce  Ce1  1  0.893913  0.106087  0.250000  1
  P  P2  1  0.322416  0.677584  0.750000  1
  P  P3  1  0.677584  0.322416  0.250000  1
  Pt  Pt4  1  0.549230  0.450770  0.250000  1
  Pt  Pt5  1  0.450770  0.549230  0.750000  1
  Rh  Rh6  1  0.248397  0.751603  0.250000  1
  Rh  Rh7  1  0.751603  0.248397  0.750000  1
