# generated using pymatgen
data_YbGd4Er3(B6Ru)4
_symmetry_space_group_name_H-M   'P 1'
_cell_length_a   3.67063900
_cell_length_b   9.14269700
_cell_length_c   11.53354400
_cell_angle_alpha   89.99960075
_cell_angle_beta   90.00000000
_cell_angle_gamma   90.00000000
_symmetry_Int_Tables_number   1
_chemical_formula_structural   YbGd4Er3(B6Ru)4
_chemical_formula_sum   'Yb1 Gd4 Er3 B24 Ru4'
_cell_volume   387.06043320
_cell_formula_units_Z   1
loop_
 _symmetry_equiv_pos_site_id
 _symmetry_equiv_pos_as_xyz
  1  'x, y, z'
loop_
 _atom_site_type_symbol
 _atom_site_label
 _atom_site_symmetry_multiplicity
 _atom_site_fract_x
 _atom_site_fract_y
 _atom_site_fract_z
 _atom_site_occupancy
  Yb  Yb0  1  0.000000  0.943651  0.371142  1
  Gd  Gd1  1  0.000000  0.322314  0.413123  1
  Gd  Gd2  1  0.000000  0.677758  0.584314  1
  Gd  Gd3  1  0.000000  0.823480  0.087718  1
  Gd  Gd4  1  0.000000  0.177107  0.915186  1
  Er  Er5  1  0.000000  0.055773  0.627061  1
  Er  Er6  1  0.000000  0.443818  0.128364  1
  Er  Er7  1  0.000000  0.556262  0.871987  1
  B  B8  1  0.500000  0.554708  0.431780  1
  B  B9  1  0.500000  0.445021  0.567899  1
  B  B10  1  0.500000  0.054765  0.068312  1
  B  B11  1  0.500000  0.945355  0.932130  1
  B  B12  1  0.500000  0.749172  0.418509  1
  B  B13  1  0.500000  0.250631  0.580673  1
  B  B14  1  0.500000  0.248984  0.081034  1
  B  B15  1  0.500000  0.750956  0.919140  1
  B  B16  1  0.500000  0.791371  0.266809  1
  B  B17  1  0.500000  0.208528  0.733505  1
  B  B18  1  0.500000  0.290720  0.233415  1
  B  B19  1  0.500000  0.708909  0.766384  1
  B  B20  1  0.500000  0.631633  0.185587  1
  B  B21  1  0.500000  0.368413  0.815034  1
  B  B22  1  0.500000  0.130957  0.314702  1
  B  B23  1  0.500000  0.868364  0.684593  1
  B  B24  1  0.500000  0.984568  0.213436  1
  B  B25  1  0.500000  0.015785  0.786651  1
  B  B26  1  0.500000  0.484157  0.287006  1
  B  B27  1  0.500000  0.515703  0.713199  1
  B  B28  1  0.500000  0.606087  0.029131  1
  B  B29  1  0.500000  0.393954  0.970750  1
  B  B30  1  0.500000  0.105596  0.471407  1
  B  B31  1  0.500000  0.894839  0.529405  1
  Ru  Ru32  1  0.000000  0.638536  0.320141  1
  Ru  Ru33  1  0.000000  0.361208  0.680265  1
  Ru  Ru34  1  0.000000  0.139469  0.179406  1
  Ru  Ru35  1  0.000000  0.861449  0.820804  1
