# generated using pymatgen
data_CaNd2Sn5Pd6
_symmetry_space_group_name_H-M   'P 1'
_cell_length_a   4.55690800
_cell_length_b   9.58121000
_cell_length_c   14.06892900
_cell_angle_alpha   90.00000000
_cell_angle_beta   90.00000000
_cell_angle_gamma   90.00000000
_symmetry_Int_Tables_number   1
_chemical_formula_structural   CaNd2Sn5Pd6
_chemical_formula_sum   'Ca2 Nd4 Sn10 Pd12'
_cell_volume   614.25918285
_cell_formula_units_Z   2
loop_
 _symmetry_equiv_pos_site_id
 _symmetry_equiv_pos_as_xyz
  1  'x, y, z'
loop_
 _atom_site_type_symbol
 _atom_site_label
 _atom_site_symmetry_multiplicity
 _atom_site_fract_x
 _atom_site_fract_y
 _atom_site_fract_z
 _atom_site_occupancy
  Ca  Ca0  1  0.000000  0.226082  0.000000  1
  Ca  Ca1  1  0.500000  0.773918  0.500000  1
  Nd  Nd2  1  0.000000  0.247598  0.319039  1
  Nd  Nd3  1  0.500000  0.752402  0.180961  1
  Nd  Nd4  1  0.000000  0.247598  0.680961  1
  Nd  Nd5  1  0.500000  0.752402  0.819039  1
  Sn  Sn6  1  0.000000  0.517601  0.117564  1
  Sn  Sn7  1  0.500000  0.482399  0.382436  1
  Sn  Sn8  1  0.000000  0.517601  0.882436  1
  Sn  Sn9  1  0.500000  0.482399  0.617564  1
  Sn  Sn10  1  0.000000  0.875223  0.329632  1
  Sn  Sn11  1  0.500000  0.124777  0.170368  1
  Sn  Sn12  1  0.000000  0.875223  0.670368  1
  Sn  Sn13  1  0.500000  0.124777  0.829632  1
  Sn  Sn14  1  0.000000  0.800134  0.000000  1
  Sn  Sn15  1  0.500000  0.199866  0.500000  1
  Pd  Pd16  1  0.000000  0.987831  0.144303  1
  Pd  Pd17  1  0.500000  0.012169  0.355697  1
  Pd  Pd18  1  0.000000  0.987831  0.855697  1
  Pd  Pd19  1  0.500000  0.012169  0.644303  1
  Pd  Pd20  1  0.500000  0.973900  0.000000  1
  Pd  Pd21  1  0.000000  0.026100  0.500000  1
  Pd  Pd22  1  0.000000  0.595581  0.305180  1
  Pd  Pd23  1  0.500000  0.404419  0.194820  1
  Pd  Pd24  1  0.000000  0.595581  0.694820  1
  Pd  Pd25  1  0.500000  0.404419  0.805180  1
  Pd  Pd26  1  0.500000  0.503505  0.000000  1
  Pd  Pd27  1  0.000000  0.496495  0.500000  1
