# generated using pymatgen
data_Dy17Y3Zn3Cd3Ru2
_symmetry_space_group_name_H-M   'P 1'
_cell_length_a   9.54716300
_cell_length_b   9.54716302
_cell_length_c   9.71571000
_cell_angle_alpha   90.00000000
_cell_angle_beta   90.00000000
_cell_angle_gamma   119.99999648
_symmetry_Int_Tables_number   1
_chemical_formula_structural   Dy17Y3Zn3Cd3Ru2
_chemical_formula_sum   'Dy17 Y3 Zn3 Cd3 Ru2'
_cell_volume   766.92671455
_cell_formula_units_Z   1
loop_
 _symmetry_equiv_pos_site_id
 _symmetry_equiv_pos_as_xyz
  1  'x, y, z'
loop_
 _atom_site_type_symbol
 _atom_site_label
 _atom_site_symmetry_multiplicity
 _atom_site_fract_x
 _atom_site_fract_y
 _atom_site_fract_z
 _atom_site_occupancy
  Dy  Dy0  1  0.000000  0.000000  0.474640  1
  Dy  Dy1  1  0.000000  0.000000  0.025360  1
  Dy  Dy2  1  0.208263  0.791737  0.438336  1
  Dy  Dy3  1  0.208263  0.416526  0.438336  1
  Dy  Dy4  1  0.583474  0.791737  0.438336  1
  Dy  Dy5  1  0.790763  0.209237  0.557405  1
  Dy  Dy6  1  0.790763  0.581526  0.557405  1
  Dy  Dy7  1  0.418474  0.209237  0.557405  1
  Dy  Dy8  1  0.790763  0.209237  0.942595  1
  Dy  Dy9  1  0.790763  0.581526  0.942595  1
  Dy  Dy10  1  0.418474  0.209237  0.942595  1
  Dy  Dy11  1  0.208263  0.791737  0.061664  1
  Dy  Dy12  1  0.208263  0.416526  0.061664  1
  Dy  Dy13  1  0.583474  0.791737  0.061664  1
  Dy  Dy14  1  0.541567  0.458433  0.250000  1
  Dy  Dy15  1  0.541567  0.083135  0.250000  1
  Dy  Dy16  1  0.916865  0.458433  0.250000  1
  Y  Y17  1  0.458888  0.541112  0.750000  1
  Y  Y18  1  0.458888  0.917776  0.750000  1
  Y  Y19  1  0.082224  0.541112  0.750000  1
  Zn  Zn20  1  0.878342  0.121658  0.250000  1
  Zn  Zn21  1  0.878342  0.756687  0.250000  1
  Zn  Zn22  1  0.243313  0.121658  0.250000  1
  Cd  Cd23  1  0.110489  0.889511  0.750000  1
  Cd  Cd24  1  0.110489  0.220976  0.750000  1
  Cd  Cd25  1  0.779024  0.889511  0.750000  1
  Ru  Ru26  1  0.333333  0.666667  0.250000  1
  Ru  Ru27  1  0.666667  0.333333  0.750000  1
