# generated using pymatgen
data_HoEr11(C2I11)2
_symmetry_space_group_name_H-M   'P 1'
_cell_length_a   9.49555189
_cell_length_b   10.78700787
_cell_length_c   15.07487357
_cell_angle_alpha   90.42107115
_cell_angle_beta   104.24524885
_cell_angle_gamma   109.91671627
_symmetry_Int_Tables_number   1
_chemical_formula_structural   HoEr11(C2I11)2
_chemical_formula_sum   'Ho1 Er11 C4 I22'
_cell_volume   1400.04403089
_cell_formula_units_Z   1
loop_
 _symmetry_equiv_pos_site_id
 _symmetry_equiv_pos_as_xyz
  1  'x, y, z'
loop_
 _atom_site_type_symbol
 _atom_site_label
 _atom_site_symmetry_multiplicity
 _atom_site_fract_x
 _atom_site_fract_y
 _atom_site_fract_z
 _atom_site_occupancy
  Ho  Ho0  1  0.385610  0.478971  0.119896  1
  Er  Er1  1  0.613572  0.520370  0.879883  1
  Er  Er2  1  0.428196  0.780404  0.266199  1
  Er  Er3  1  0.571898  0.219703  0.733880  1
  Er  Er4  1  0.626142  0.584219  0.358208  1
  Er  Er5  1  0.374083  0.415950  0.641923  1
  Er  Er6  1  0.830871  0.650160  0.201248  1
  Er  Er7  1  0.169204  0.349852  0.798711  1
  Er  Er8  1  0.629730  0.840760  0.106321  1
  Er  Er9  1  0.370305  0.159191  0.893619  1
  Er  Er10  1  0.860208  0.945626  0.347640  1
  Er  Er11  1  0.140035  0.054602  0.652470  1
  C  C12  1  0.431237  0.344671  0.797460  1
  C  C13  1  0.568940  0.655460  0.202668  1
  C  C14  1  0.314753  0.231514  0.739897  1
  C  C15  1  0.685439  0.768674  0.260159  1
  I  I16  1  0.387176  0.311815  0.273761  1
  I  I17  1  0.613321  0.687989  0.727094  1
  I  I18  1  0.123729  0.558695  0.150907  1
  I  I19  1  0.875534  0.441938  0.849395  1
  I  I20  1  0.628004  0.377519  0.062043  1
  I  I21  1  0.372594  0.622600  0.937275  1
  I  I22  1  0.121003  0.207312  0.481521  1
  I  I23  1  0.879120  0.792808  0.518515  1
  I  I24  1  0.616505  0.033634  0.390462  1
  I  I25  1  0.383610  0.966443  0.609564  1
  I  I26  1  0.126908  0.869403  0.305644  1
  I  I27  1  0.873049  0.130820  0.694302  1
  I  I28  1  0.131795  0.527063  0.653055  1
  I  I29  1  0.868218  0.472939  0.346912  1
  I  I30  1  0.615315  0.366896  0.566610  1
  I  I31  1  0.384889  0.633316  0.433566  1
  I  I32  1  0.140417  0.221521  0.977552  1
  I  I33  1  0.858436  0.777383  0.021779  1
  I  I34  1  0.624236  0.057250  0.896228  1
  I  I35  1  0.375801  0.942650  0.103725  1
  I  I36  1  0.128669  0.893631  0.815328  1
  I  I37  1  0.871446  0.106246  0.184577  1
