# generated using pymatgen
data_Tb11Y5In6FeCo
_symmetry_space_group_name_H-M   'P 1'
_cell_length_a   10.43818300
_cell_length_b   10.44353743
_cell_length_c   7.08680149
_cell_angle_alpha   90.08692757
_cell_angle_beta   90.00000000
_cell_angle_gamma   119.98304454
_symmetry_Int_Tables_number   1
_chemical_formula_structural   Tb11Y5In6FeCo
_chemical_formula_sum   'Tb11 Y5 In6 Fe1 Co1'
_cell_volume   669.15533297
_cell_formula_units_Z   1
loop_
 _symmetry_equiv_pos_site_id
 _symmetry_equiv_pos_as_xyz
  1  'x, y, z'
loop_
 _atom_site_type_symbol
 _atom_site_label
 _atom_site_symmetry_multiplicity
 _atom_site_fract_x
 _atom_site_fract_y
 _atom_site_fract_z
 _atom_site_occupancy
  Tb  Tb0  1  0.463389  0.536778  0.483219  1
  Tb  Tb1  1  0.073389  0.536778  0.483219  1
  Tb  Tb2  1  0.463875  0.927748  0.483052  1
  Tb  Tb3  1  0.535712  0.464269  0.982537  1
  Tb  Tb4  1  0.928558  0.464269  0.982537  1
  Tb  Tb5  1  0.535703  0.071405  0.982672  1
  Tb  Tb6  1  0.822236  0.178233  0.276870  1
  Tb  Tb7  1  0.355997  0.178233  0.276870  1
  Tb  Tb8  1  0.821987  0.643973  0.277277  1
  Tb  Tb9  1  0.178390  0.821545  0.776264  1
  Tb  Tb10  1  0.643155  0.821545  0.776264  1
  Y  Y11  1  0.177865  0.355728  0.775624  1
  Y  Y12  1  0.333236  0.666473  0.092911  1
  Y  Y13  1  0.666760  0.333518  0.592355  1
  Y  Y14  1  0.999942  0.999884  0.495413  1
  Y  Y15  1  0.999505  0.999011  0.995658  1
  In  In16  1  0.162830  0.837021  0.234210  1
  In  In17  1  0.674192  0.837021  0.234210  1
  In  In18  1  0.162867  0.325734  0.233346  1
  In  In19  1  0.836884  0.163226  0.733736  1
  In  In20  1  0.326342  0.163226  0.733736  1
  In  In21  1  0.836744  0.673489  0.734063  1
  Fe  Fe22  1  0.333791  0.667582  0.703701  1
  Co  Co23  1  0.666655  0.333308  0.204809  1
