# generated using pymatgen
data_Nd12Sn(IrI4)3
_symmetry_space_group_name_H-M   'P 1'
_cell_length_a   11.07815828
_cell_length_b   11.07815813
_cell_length_c   11.07815906
_cell_angle_alpha   110.23186670
_cell_angle_beta   110.23186207
_cell_angle_gamma   110.23187305
_symmetry_Int_Tables_number   1
_chemical_formula_structural   Nd12Sn(IrI4)3
_chemical_formula_sum   'Nd12 Sn1 Ir3 I12'
_cell_volume   1016.05819582
_cell_formula_units_Z   1
loop_
 _symmetry_equiv_pos_site_id
 _symmetry_equiv_pos_as_xyz
  1  'x, y, z'
loop_
 _atom_site_type_symbol
 _atom_site_label
 _atom_site_symmetry_multiplicity
 _atom_site_fract_x
 _atom_site_fract_y
 _atom_site_fract_z
 _atom_site_occupancy
  Nd  Nd0  1  0.464283  0.497755  0.220334  1
  Nd  Nd1  1  0.750000  0.227349  0.272651  1
  Nd  Nd2  1  0.750000  0.020362  0.479638  1
  Nd  Nd3  1  0.220334  0.464283  0.497755  1
  Nd  Nd4  1  0.272651  0.750000  0.227349  1
  Nd  Nd5  1  0.035717  0.279666  0.002245  1
  Nd  Nd6  1  0.002245  0.035717  0.279666  1
  Nd  Nd7  1  0.479638  0.750000  0.020362  1
  Nd  Nd8  1  0.497755  0.220334  0.464283  1
  Nd  Nd9  1  0.020362  0.479638  0.750000  1
  Nd  Nd10  1  0.279666  0.002245  0.035717  1
  Nd  Nd11  1  0.227349  0.272651  0.750000  1
  Sn  Sn12  1  0.250000  0.250000  0.250000  1
  Ir  Ir13  1  0.502791  0.997209  0.250000  1
  Ir  Ir14  1  0.997209  0.250000  0.502791  1
  Ir  Ir15  1  0.250000  0.502791  0.997209  1
  I  I16  1  0.250000  0.762566  0.737434  1
  I  I17  1  0.512315  0.502677  0.752858  1
  I  I18  1  0.987685  0.747142  0.997323  1
  I  I19  1  0.737434  0.250000  0.762566  1
  I  I20  1  0.997323  0.987685  0.747142  1
  I  I21  1  0.250000  0.997454  0.502546  1
  I  I22  1  0.752858  0.512315  0.502677  1
  I  I23  1  0.502546  0.250000  0.997454  1
  I  I24  1  0.762566  0.737434  0.250000  1
  I  I25  1  0.747142  0.997323  0.987685  1
  I  I26  1  0.997454  0.502546  0.250000  1
  I  I27  1  0.502677  0.752858  0.512315  1
