# generated using pymatgen
data_YPdF7
_symmetry_space_group_name_H-M   'P 1'
_cell_length_a   5.51575200
_cell_length_b   8.87872271
_cell_length_c   11.98378845
_cell_angle_alpha   62.30234423
_cell_angle_beta   90.00000000
_cell_angle_gamma   90.00000000
_symmetry_Int_Tables_number   1
_chemical_formula_structural   YPdF7
_chemical_formula_sum   'Y4 Pd4 F28'
_cell_volume   519.63103007
_cell_formula_units_Z   4
loop_
 _symmetry_equiv_pos_site_id
 _symmetry_equiv_pos_as_xyz
  1  'x, y, z'
loop_
 _atom_site_type_symbol
 _atom_site_label
 _atom_site_symmetry_multiplicity
 _atom_site_fract_x
 _atom_site_fract_y
 _atom_site_fract_z
 _atom_site_occupancy
  Y  Y0  1  0.262865  0.814200  0.263367  1
  Y  Y1  1  0.737135  0.185800  0.736633  1
  Y  Y2  1  0.762865  0.185800  0.236633  1
  Y  Y3  1  0.237135  0.814200  0.763367  1
  Pd  Pd4  1  0.759183  0.726751  0.042585  1
  Pd  Pd5  1  0.240817  0.273249  0.957415  1
  Pd  Pd6  1  0.259183  0.273249  0.457415  1
  Pd  Pd7  1  0.740817  0.726751  0.542585  1
  F  F8  1  0.933346  0.705544  0.414971  1
  F  F9  1  0.066654  0.294456  0.585029  1
  F  F10  1  0.433346  0.294456  0.085029  1
  F  F11  1  0.566654  0.705544  0.914971  1
  F  F12  1  0.465407  0.726873  0.132551  1
  F  F13  1  0.534593  0.273127  0.867449  1
  F  F14  1  0.965407  0.273127  0.367449  1
  F  F15  1  0.034593  0.726873  0.632551  1
  F  F16  1  0.948166  0.741030  0.175172  1
  F  F17  1  0.051834  0.258970  0.824828  1
  F  F18  1  0.448166  0.258970  0.324828  1
  F  F19  1  0.551834  0.741030  0.675172  1
  F  F20  1  0.769032  0.479660  0.140334  1
  F  F21  1  0.230968  0.520340  0.859666  1
  F  F22  1  0.269032  0.520340  0.359666  1
  F  F23  1  0.730968  0.479660  0.640334  1
  F  F24  1  0.941924  0.281651  0.041302  1
  F  F25  1  0.058076  0.718349  0.958698  1
  F  F26  1  0.441924  0.718349  0.458698  1
  F  F27  1  0.558076  0.281651  0.541302  1
  F  F28  1  0.740063  0.973248  0.451042  1
  F  F29  1  0.259937  0.026752  0.548958  1
  F  F30  1  0.240063  0.026752  0.048958  1
  F  F31  1  0.759937  0.973248  0.951042  1
  F  F32  1  0.592835  0.967828  0.230945  1
  F  F33  1  0.407165  0.032172  0.769055  1
  F  F34  1  0.092835  0.032172  0.269055  1
  F  F35  1  0.907165  0.967828  0.730945  1
