# generated using pymatgen
data_LiEr2(ScSi2)2
_symmetry_space_group_name_H-M   'P 1'
_cell_length_a   6.84515600
_cell_length_b   7.37478000
_cell_length_c   14.01368500
_cell_angle_alpha   90.00000000
_cell_angle_beta   90.00000000
_cell_angle_gamma   90.00000000
_symmetry_Int_Tables_number   1
_chemical_formula_structural   LiEr2(ScSi2)2
_chemical_formula_sum   'Li4 Er8 Sc8 Si16'
_cell_volume   707.43211351
_cell_formula_units_Z   4
loop_
 _symmetry_equiv_pos_site_id
 _symmetry_equiv_pos_as_xyz
  1  'x, y, z'
loop_
 _atom_site_type_symbol
 _atom_site_label
 _atom_site_symmetry_multiplicity
 _atom_site_fract_x
 _atom_site_fract_y
 _atom_site_fract_z
 _atom_site_occupancy
  Li  Li0  1  0.158808  0.508270  0.750000  1
  Li  Li1  1  0.841192  0.491730  0.250000  1
  Li  Li2  1  0.341192  0.008270  0.250000  1
  Li  Li3  1  0.658808  0.991730  0.750000  1
  Er  Er4  1  0.012967  0.182722  0.098465  1
  Er  Er5  1  0.987033  0.817278  0.901535  1
  Er  Er6  1  0.487033  0.682722  0.901535  1
  Er  Er7  1  0.987033  0.817278  0.598465  1
  Er  Er8  1  0.512967  0.317278  0.098465  1
  Er  Er9  1  0.012967  0.182722  0.401535  1
  Er  Er10  1  0.512967  0.317278  0.401535  1
  Er  Er11  1  0.487033  0.682722  0.598465  1
  Sc  Sc12  1  0.329676  0.178924  0.626800  1
  Sc  Sc13  1  0.670324  0.821076  0.373200  1
  Sc  Sc14  1  0.170324  0.678924  0.373200  1
  Sc  Sc15  1  0.670324  0.821076  0.126800  1
  Sc  Sc16  1  0.829676  0.321076  0.626800  1
  Sc  Sc17  1  0.329676  0.178924  0.873200  1
  Sc  Sc18  1  0.829676  0.321076  0.873200  1
  Sc  Sc19  1  0.170324  0.678924  0.126800  1
  Si  Si20  1  0.029170  0.100919  0.750000  1
  Si  Si21  1  0.970830  0.899081  0.250000  1
  Si  Si22  1  0.470830  0.600919  0.250000  1
  Si  Si23  1  0.529170  0.399081  0.750000  1
  Si  Si24  1  0.281861  0.878472  0.750000  1
  Si  Si25  1  0.718139  0.121528  0.250000  1
  Si  Si26  1  0.218139  0.378472  0.250000  1
  Si  Si27  1  0.781861  0.621528  0.750000  1
  Si  Si28  1  0.159670  0.463499  0.535202  1
  Si  Si29  1  0.840330  0.536501  0.464798  1
  Si  Si30  1  0.340330  0.963499  0.464798  1
  Si  Si31  1  0.840330  0.536501  0.035202  1
  Si  Si32  1  0.659670  0.036501  0.535202  1
  Si  Si33  1  0.159670  0.463499  0.964798  1
  Si  Si34  1  0.659670  0.036501  0.964798  1
  Si  Si35  1  0.340330  0.963499  0.035202  1
