# generated using pymatgen
data_MnGa4PbBr16
_symmetry_space_group_name_H-M   'P 1'
_cell_length_a   10.88538859
_cell_length_b   10.88538916
_cell_length_c   13.05150300
_cell_angle_alpha   55.04908800
_cell_angle_beta   55.04908588
_cell_angle_gamma   49.34745535
_symmetry_Int_Tables_number   1
_chemical_formula_structural   MnGa4PbBr16
_chemical_formula_sum   'Mn1 Ga4 Pb1 Br16'
_cell_volume   910.75531989
_cell_formula_units_Z   1
loop_
 _symmetry_equiv_pos_site_id
 _symmetry_equiv_pos_as_xyz
  1  'x, y, z'
loop_
 _atom_site_type_symbol
 _atom_site_label
 _atom_site_symmetry_multiplicity
 _atom_site_fract_x
 _atom_site_fract_y
 _atom_site_fract_z
 _atom_site_occupancy
  Mn  Mn0  1  0.010172  0.989828  0.750000  1
  Ga  Ga1  1  0.331085  0.839828  0.478548  1
  Ga  Ga2  1  0.160172  0.668915  0.021452  1
  Ga  Ga3  1  0.670489  0.158316  0.545164  1
  Ga  Ga4  1  0.841684  0.329511  0.954836  1
  Pb  Pb5  1  0.003145  0.996855  0.250000  1
  Br  Br6  1  0.609896  0.700538  0.468503  1
  Br  Br7  1  0.299462  0.390104  0.031497  1
  Br  Br8  1  0.386146  0.303982  0.565330  1
  Br  Br9  1  0.696018  0.613854  0.934670  1
  Br  Br10  1  0.167803  0.121147  0.496322  1
  Br  Br11  1  0.878853  0.832197  0.003678  1
  Br  Br12  1  0.806277  0.877514  0.540380  1
  Br  Br13  1  0.122486  0.193723  0.959620  1
  Br  Br14  1  0.338762  0.849810  0.287541  1
  Br  Br15  1  0.150190  0.661238  0.212459  1
  Br  Br16  1  0.699425  0.138036  0.724169  1
  Br  Br17  1  0.861964  0.300575  0.775831  1
  Br  Br18  1  0.157030  0.719948  0.678191  1
  Br  Br19  1  0.280052  0.842970  0.821809  1
  Br  Br20  1  0.824536  0.295648  0.339463  1
  Br  Br21  1  0.704352  0.175464  0.160537  1
