# generated using pymatgen
data_Tb3YGa18(PdRh2)2
_symmetry_space_group_name_H-M   'P 1'
_cell_length_a   7.61978915
_cell_length_b   7.61945000
_cell_length_c   9.52929400
_cell_angle_alpha   90.00002547
_cell_angle_beta   90.00000000
_cell_angle_gamma   119.83735365
_symmetry_Int_Tables_number   1
_chemical_formula_structural   Tb3YGa18(PdRh2)2
_chemical_formula_sum   'Tb3 Y1 Ga18 Pd2 Rh4'
_cell_volume   479.91838141
_cell_formula_units_Z   1
loop_
 _symmetry_equiv_pos_site_id
 _symmetry_equiv_pos_as_xyz
  1  'x, y, z'
loop_
 _atom_site_type_symbol
 _atom_site_label
 _atom_site_symmetry_multiplicity
 _atom_site_fract_x
 _atom_site_fract_y
 _atom_site_fract_z
 _atom_site_occupancy
  Tb  Tb0  1  0.003317  0.330573  0.749999  1
  Tb  Tb1  1  0.669390  0.996643  0.250000  1
  Tb  Tb2  1  0.330606  0.003318  0.750000  1
  Y  Y3  1  0.996627  0.669392  0.250000  1
  Ga  Ga4  1  0.129216  0.129268  0.250000  1
  Ga  Ga5  1  0.870714  0.870709  0.750000  1
  Ga  Ga6  1  0.999539  0.337455  0.079798  1
  Ga  Ga7  1  0.000494  0.662577  0.920239  1
  Ga  Ga8  1  0.000494  0.662577  0.579761  1
  Ga  Ga9  1  0.337377  0.999492  0.420196  1
  Ga  Ga10  1  0.999538  0.337456  0.420203  1
  Ga  Ga11  1  0.662575  0.000461  0.579779  1
  Ga  Ga12  1  0.662575  0.000461  0.920221  1
  Ga  Ga13  1  0.337379  0.999493  0.079803  1
  Ga  Ga14  1  0.336542  0.336543  0.565542  1
  Ga  Ga15  1  0.663463  0.663446  0.434436  1
  Ga  Ga16  1  0.663463  0.663446  0.065563  1
  Ga  Ga17  1  0.336542  0.336543  0.934458  1
  Ga  Ga18  1  0.336901  0.546672  0.250000  1
  Ga  Ga19  1  0.663193  0.453443  0.750000  1
  Ga  Ga20  1  0.546618  0.336787  0.250000  1
  Ga  Ga21  1  0.453424  0.663199  0.750000  1
  Pd  Pd22  1  0.999999  0.000020  0.000019  1
  Pd  Pd23  1  0.999999  0.000019  0.499981  1
  Rh  Rh24  1  0.671249  0.328739  0.000026  1
  Rh  Rh25  1  0.328755  0.671263  0.000019  1
  Rh  Rh26  1  0.328759  0.671261  0.499982  1
  Rh  Rh27  1  0.671251  0.328745  0.499974  1
