# generated using pymatgen
data_Ac7Yb(AgSn)8
_symmetry_space_group_name_H-M   'P 1'
_cell_length_a   9.80459900
_cell_length_b   9.80459942
_cell_length_c   8.19144900
_cell_angle_alpha   90.00000000
_cell_angle_beta   90.00000000
_cell_angle_gamma   120.00000197
_symmetry_Int_Tables_number   1
_chemical_formula_structural   Ac7Yb(AgSn)8
_chemical_formula_sum   'Ac7 Yb1 Ag8 Sn8'
_cell_volume   681.94766292
_cell_formula_units_Z   1
loop_
 _symmetry_equiv_pos_site_id
 _symmetry_equiv_pos_as_xyz
  1  'x, y, z'
loop_
 _atom_site_type_symbol
 _atom_site_label
 _atom_site_symmetry_multiplicity
 _atom_site_fract_x
 _atom_site_fract_y
 _atom_site_fract_z
 _atom_site_occupancy
  Ac  Ac0  1  0.514202  0.028403  0.497002  1
  Ac  Ac1  1  0.514202  0.485798  0.497002  1
  Ac  Ac2  1  0.971597  0.485798  0.497002  1
  Ac  Ac3  1  0.484896  0.969793  0.996040  1
  Ac  Ac4  1  0.484896  0.515104  0.996040  1
  Ac  Ac5  1  0.030207  0.515104  0.996040  1
  Ac  Ac6  1  0.000000  0.000000  0.495124  1
  Yb  Yb7  1  0.000000  0.000000  0.990554  1
  Ag  Ag8  1  0.165353  0.330705  0.281811  1
  Ag  Ag9  1  0.165353  0.834647  0.281811  1
  Ag  Ag10  1  0.669295  0.834647  0.281811  1
  Ag  Ag11  1  0.837153  0.674307  0.807382  1
  Ag  Ag12  1  0.837153  0.162847  0.807382  1
  Ag  Ag13  1  0.325693  0.162847  0.807382  1
  Ag  Ag14  1  0.333333  0.666667  0.697196  1
  Ag  Ag15  1  0.666667  0.333333  0.203545  1
  Sn  Sn16  1  0.165088  0.330179  0.714253  1
  Sn  Sn17  1  0.165088  0.834912  0.714253  1
  Sn  Sn18  1  0.669821  0.834912  0.714253  1
  Sn  Sn19  1  0.836525  0.673050  0.204654  1
  Sn  Sn20  1  0.836525  0.163475  0.204654  1
  Sn  Sn21  1  0.326950  0.163475  0.204654  1
  Sn  Sn22  1  0.333333  0.666667  0.281292  1
  Sn  Sn23  1  0.666667  0.333333  0.770864  1
