# generated using pymatgen
data_Ac5OsRu
_symmetry_space_group_name_H-M   'P 1'
_cell_length_a   9.48184834
_cell_length_b   9.48184928
_cell_length_c   7.78353010
_cell_angle_alpha   84.14239881
_cell_angle_beta   84.14239944
_cell_angle_gamma   43.28336748
_symmetry_Int_Tables_number   1
_chemical_formula_structural   Ac5OsRu
_chemical_formula_sum   'Ac10 Os2 Ru2'
_cell_volume   476.87470074
_cell_formula_units_Z   2
loop_
 _symmetry_equiv_pos_site_id
 _symmetry_equiv_pos_as_xyz
  1  'x, y, z'
loop_
 _atom_site_type_symbol
 _atom_site_label
 _atom_site_symmetry_multiplicity
 _atom_site_fract_x
 _atom_site_fract_y
 _atom_site_fract_z
 _atom_site_occupancy
  Ac  Ac0  1  0.004922  0.808636  0.909226  1
  Ac  Ac1  1  0.191364  0.995078  0.590774  1
  Ac  Ac2  1  0.995350  0.191730  0.091029  1
  Ac  Ac3  1  0.808270  0.004650  0.408971  1
  Ac  Ac4  1  0.360441  0.212486  0.818290  1
  Ac  Ac5  1  0.787514  0.639559  0.681710  1
  Ac  Ac6  1  0.639110  0.787601  0.181316  1
  Ac  Ac7  1  0.212399  0.360890  0.318684  1
  Ac  Ac8  1  0.570736  0.429264  0.750000  1
  Ac  Ac9  1  0.427479  0.572521  0.250000  1
  Os  Os10  1  0.176948  0.601733  0.578209  1
  Os  Os11  1  0.398267  0.823052  0.921791  1
  Ru  Ru12  1  0.824346  0.397146  0.420871  1
  Ru  Ru13  1  0.602854  0.175654  0.079129  1
