# generated using pymatgen
data_Th3Mg3Os2Rh
_symmetry_space_group_name_H-M   'P 1'
_cell_length_a   7.45281100
_cell_length_b   7.45281205
_cell_length_c   4.08645100
_cell_angle_alpha   90.00000000
_cell_angle_beta   90.00000000
_cell_angle_gamma   120.00000866
_symmetry_Int_Tables_number   1
_chemical_formula_structural   Th3Mg3Os2Rh
_chemical_formula_sum   'Th3 Mg3 Os2 Rh1'
_cell_volume   196.56996770
_cell_formula_units_Z   1
loop_
 _symmetry_equiv_pos_site_id
 _symmetry_equiv_pos_as_xyz
  1  'x, y, z'
loop_
 _atom_site_type_symbol
 _atom_site_label
 _atom_site_symmetry_multiplicity
 _atom_site_fract_x
 _atom_site_fract_y
 _atom_site_fract_z
 _atom_site_occupancy
  Th  Th0  1  0.419737  0.419737  0.500000  1
  Th  Th1  1  0.580263  0.000000  0.500000  1
  Th  Th2  1  0.000000  0.580263  0.500000  1
  Mg  Mg3  1  0.763179  0.763179  0.000000  1
  Mg  Mg4  1  0.236821  0.000000  0.000000  1
  Mg  Mg5  1  0.000000  0.236821  0.000000  1
  Os  Os6  1  0.666667  0.333333  0.000000  1
  Os  Os7  1  0.333333  0.666667  0.000000  1
  Rh  Rh8  1  0.000000  0.000000  0.500000  1
