# generated using pymatgen
data_Zr3Mn(Co3B)2
_symmetry_space_group_name_H-M   'P 1'
_cell_length_a   4.95933301
_cell_length_b   4.95941716
_cell_length_c   13.73001200
_cell_angle_alpha   90.00000000
_cell_angle_beta   90.00000000
_cell_angle_gamma   119.99971671
_symmetry_Int_Tables_number   1
_chemical_formula_structural   Zr3Mn(Co3B)2
_chemical_formula_sum   'Zr6 Mn2 Co12 B4'
_cell_volume   292.45341718
_cell_formula_units_Z   2
loop_
 _symmetry_equiv_pos_site_id
 _symmetry_equiv_pos_as_xyz
  1  'x, y, z'
loop_
 _atom_site_type_symbol
 _atom_site_label
 _atom_site_symmetry_multiplicity
 _atom_site_fract_x
 _atom_site_fract_y
 _atom_site_fract_z
 _atom_site_occupancy
  Zr  Zr0  1  0.333346  0.666729  0.250000  1
  Zr  Zr1  1  0.666654  0.333271  0.750000  1
  Zr  Zr2  1  0.333327  0.666669  0.036228  1
  Zr  Zr3  1  0.666673  0.333331  0.536228  1
  Zr  Zr4  1  0.666673  0.333331  0.963772  1
  Zr  Zr5  1  0.333327  0.666669  0.463772  1
  Mn  Mn6  1  0.000000  0.000000  0.000000  1
  Mn  Mn7  1  0.000000  0.000000  0.500000  1
  Co  Co8  1  0.833371  0.666779  0.144682  1
  Co  Co9  1  0.166628  0.833309  0.644665  1
  Co  Co10  1  0.666713  0.833309  0.644664  1
  Co  Co11  1  0.333287  0.166691  0.144664  1
  Co  Co12  1  0.833372  0.166691  0.144665  1
  Co  Co13  1  0.166629  0.333221  0.855318  1
  Co  Co14  1  0.166628  0.833309  0.855335  1
  Co  Co15  1  0.166629  0.333221  0.644682  1
  Co  Co16  1  0.666713  0.833309  0.855336  1
  Co  Co17  1  0.333287  0.166691  0.355336  1
  Co  Co18  1  0.833371  0.666779  0.355318  1
  Co  Co19  1  0.833372  0.166691  0.355335  1
  B  B20  1  0.000031  0.000107  0.250000  1
  B  B21  1  0.999969  0.999893  0.750000  1
  B  B22  1  0.333341  0.666667  0.750000  1
  B  B23  1  0.666659  0.333333  0.250000  1
