# generated using pymatgen
data_MnV17(Si6Ni)2
_symmetry_space_group_name_H-M   'P 1'
_cell_length_a   6.99678577
_cell_length_b   6.99678595
_cell_length_c   13.16831900
_cell_angle_alpha   90.00000000
_cell_angle_beta   90.00000000
_cell_angle_gamma   140.64141044
_symmetry_Int_Tables_number   1
_chemical_formula_structural   MnV17(Si6Ni)2
_chemical_formula_sum   'Mn1 V17 Si12 Ni2'
_cell_volume   408.82219688
_cell_formula_units_Z   1
loop_
 _symmetry_equiv_pos_site_id
 _symmetry_equiv_pos_as_xyz
  1  'x, y, z'
loop_
 _atom_site_type_symbol
 _atom_site_label
 _atom_site_symmetry_multiplicity
 _atom_site_fract_x
 _atom_site_fract_y
 _atom_site_fract_z
 _atom_site_occupancy
  Mn  Mn0  1  0.497942  0.497942  0.500000  1
  V  V1  1  0.068656  0.421504  0.400314  1
  V  V2  1  0.569280  0.933372  0.901414  1
  V  V3  1  0.421504  0.068656  0.599686  1
  V  V4  1  0.933372  0.569280  0.098586  1
  V  V5  1  0.852243  0.655928  0.678897  1
  V  V6  1  0.349755  0.150407  0.179605  1
  V  V7  1  0.655928  0.852243  0.321103  1
  V  V8  1  0.150407  0.349755  0.820395  1
  V  V9  1  0.655928  0.852243  0.678897  1
  V  V10  1  0.150407  0.349755  0.179605  1
  V  V11  1  0.852243  0.655928  0.321103  1
  V  V12  1  0.349755  0.150407  0.820395  1
  V  V13  1  0.421504  0.068656  0.400314  1
  V  V14  1  0.933372  0.569280  0.901414  1
  V  V15  1  0.068656  0.421504  0.599686  1
  V  V16  1  0.569280  0.933372  0.098586  1
  V  V17  1  0.998104  0.998104  0.500000  1
  Si  Si18  1  0.250656  0.749445  0.749768  1
  Si  Si19  1  0.749445  0.250656  0.250232  1
  Si  Si20  1  0.749445  0.250656  0.749768  1
  Si  Si21  1  0.250656  0.749445  0.250232  1
  Si  Si22  1  0.257275  0.257275  0.662006  1
  Si  Si23  1  0.751536  0.751536  0.155390  1
  Si  Si24  1  0.257275  0.257275  0.337994  1
  Si  Si25  1  0.751536  0.751536  0.844610  1
  Si  Si26  1  0.577034  0.901993  0.500000  1
  Si  Si27  1  0.096325  0.406344  0.000000  1
  Si  Si28  1  0.901993  0.577034  0.500000  1
  Si  Si29  1  0.406344  0.096325  0.000000  1
  Ni  Ni30  1  0.500797  0.500797  0.000000  1
  Ni  Ni31  1  0.001347  0.001347  0.000000  1
