# generated using pymatgen
data_Sc2MnInCo8
_symmetry_space_group_name_H-M   'P 1'
_cell_length_a   4.83673068
_cell_length_b   4.83672907
_cell_length_c   8.41892437
_cell_angle_alpha   106.69361779
_cell_angle_beta   73.30638767
_cell_angle_gamma   120.00000063
_symmetry_Int_Tables_number   1
_chemical_formula_structural   Sc2MnInCo8
_chemical_formula_sum   'Sc2 Mn1 In1 Co8'
_cell_volume   160.90928811
_cell_formula_units_Z   1
loop_
 _symmetry_equiv_pos_site_id
 _symmetry_equiv_pos_as_xyz
  1  'x, y, z'
loop_
 _atom_site_type_symbol
 _atom_site_label
 _atom_site_symmetry_multiplicity
 _atom_site_fract_x
 _atom_site_fract_y
 _atom_site_fract_z
 _atom_site_occupancy
  Sc  Sc0  1  0.997266  0.002734  0.008200  1
  Sc  Sc1  1  0.502310  0.497690  0.493068  1
  Mn  Mn2  1  0.874327  0.125673  0.377018  1
  In  In3  1  0.375219  0.624781  0.874344  1
  Co  Co4  1  0.436397  0.563603  0.191917  1
  Co  Co5  1  0.937743  0.062257  0.682309  1
  Co  Co6  1  0.436397  0.064712  0.191917  1
  Co  Co7  1  0.937743  0.557796  0.682309  1
  Co  Co8  1  0.188033  0.811967  0.435898  1
  Co  Co9  1  0.687068  0.312932  0.938796  1
  Co  Co10  1  0.935288  0.563603  0.191917  1
  Co  Co11  1  0.442204  0.062257  0.682309  1
