# generated using pymatgen
data_Ba8Ti4Mn(FeO8)3
_symmetry_space_group_name_H-M   'P 1'
_cell_length_a   5.82464601
_cell_length_b   10.07206980
_cell_length_c   10.08375803
_cell_angle_alpha   109.48378350
_cell_angle_beta   90.00661955
_cell_angle_gamma   89.99688179
_symmetry_Int_Tables_number   1
_chemical_formula_structural   Ba8Ti4Mn(FeO8)3
_chemical_formula_sum   'Ba8 Ti4 Mn1 Fe3 O24'
_cell_volume   557.70011734
_cell_formula_units_Z   1
loop_
 _symmetry_equiv_pos_site_id
 _symmetry_equiv_pos_as_xyz
  1  'x, y, z'
loop_
 _atom_site_type_symbol
 _atom_site_label
 _atom_site_symmetry_multiplicity
 _atom_site_fract_x
 _atom_site_fract_y
 _atom_site_fract_z
 _atom_site_occupancy
  Ba  Ba0  1  0.500047  0.216570  0.146630  1
  Ba  Ba1  1  0.999994  0.713798  0.144291  1
  Ba  Ba2  1  0.499956  0.783436  0.853392  1
  Ba  Ba3  1  0.000000  0.286188  0.855694  1
  Ba  Ba4  1  0.499973  0.371229  0.611921  1
  Ba  Ba5  1  0.000004  0.870851  0.611957  1
  Ba  Ba6  1  0.500031  0.628760  0.388132  1
  Ba  Ba7  1  0.999997  0.129150  0.388081  1
  Ti  Ti8  1  0.999981  0.594525  0.782490  1
  Ti  Ti9  1  0.499959  0.094309  0.784102  1
  Ti  Ti10  1  0.999986  0.405543  0.217453  1
  Ti  Ti11  1  0.500044  0.905734  0.215836  1
  Mn  Mn12  1  0.000011  0.499902  0.499979  1
  Fe  Fe13  1  0.500001  0.000025  0.500022  1
  Fe  Fe14  1  0.499974  0.500128  0.999981  1
  Fe  Fe15  1  0.000005  0.000093  0.999969  1
  O  O16  1  0.753015  0.456408  0.122036  1
  O  O17  1  0.253003  0.957251  0.124103  1
  O  O18  1  0.247206  0.456403  0.122182  1
  O  O19  1  0.746959  0.957289  0.124113  1
  O  O20  1  0.000098  0.208927  0.121649  1
  O  O21  1  0.500015  0.709963  0.124008  1
  O  O22  1  0.246982  0.543589  0.877955  1
  O  O23  1  0.747026  0.042720  0.875942  1
  O  O24  1  0.752788  0.543592  0.877812  1
  O  O25  1  0.253012  0.042680  0.875932  1
  O  O26  1  0.999903  0.791032  0.878373  1
  O  O27  1  0.499980  0.290025  0.876033  1
  O  O28  1  0.776772  0.615993  0.626574  1
  O  O29  1  0.279046  0.114426  0.622727  1
  O  O30  1  0.223151  0.616025  0.626631  1
  O  O31  1  0.720964  0.114426  0.622700  1
  O  O32  1  0.999927  0.393016  0.626265  1
  O  O33  1  0.499995  0.893703  0.622967  1
  O  O34  1  0.223285  0.383895  0.373386  1
  O  O35  1  0.720948  0.885624  0.377288  1
  O  O36  1  0.776831  0.383876  0.373331  1
  O  O37  1  0.279045  0.885625  0.377316  1
  O  O38  1  0.000076  0.606882  0.373696  1
  O  O39  1  0.500007  0.106386  0.377050  1
