# generated using pymatgen
data_Sm4Er2CoI10
_symmetry_space_group_name_H-M   'P 1'
_cell_length_a   7.77396900
_cell_length_b   9.72712391
_cell_length_c   9.86217299
_cell_angle_alpha   107.42219164
_cell_angle_beta   96.69648192
_cell_angle_gamma   104.43188963
_symmetry_Int_Tables_number   1
_chemical_formula_structural   Sm4Er2CoI10
_chemical_formula_sum   'Sm4 Er2 Co1 I10'
_cell_volume   674.17703754
_cell_formula_units_Z   1
loop_
 _symmetry_equiv_pos_site_id
 _symmetry_equiv_pos_as_xyz
  1  'x, y, z'
loop_
 _atom_site_type_symbol
 _atom_site_label
 _atom_site_symmetry_multiplicity
 _atom_site_fract_x
 _atom_site_fract_y
 _atom_site_fract_z
 _atom_site_occupancy
  Sm  Sm0  1  0.884875  0.958122  0.240177  1
  Sm  Sm1  1  0.115125  0.041878  0.759823  1
  Sm  Sm2  1  0.032499  0.727826  0.918903  1
  Sm  Sm3  1  0.967501  0.272174  0.081097  1
  Er  Er4  1  0.660925  0.879344  0.839402  1
  Er  Er5  1  0.339075  0.120656  0.160598  1
  Co  Co6  1  0.000000  0.000000  0.000000  1
  I  I7  1  0.646891  0.553670  0.729098  1
  I  I8  1  0.353109  0.446330  0.270902  1
  I  I9  1  0.736142  0.911055  0.543540  1
  I  I10  1  0.263858  0.088945  0.456460  1
  I  I11  1  0.085797  0.372668  0.820235  1
  I  I12  1  0.914203  0.627332  0.179765  1
  I  I13  1  0.454236  0.817268  0.088936  1
  I  I14  1  0.545764  0.182732  0.911064  1
  I  I15  1  0.231640  0.744029  0.656679  1
  I  I16  1  0.768360  0.255971  0.343321  1
