# generated using pymatgen
data_Sr2NiPtN2
_symmetry_space_group_name_H-M   'P 1'
_cell_length_a   5.25907300
_cell_length_b   5.25907300
_cell_length_c   7.68362300
_cell_angle_alpha   90.00000000
_cell_angle_beta   90.00000000
_cell_angle_gamma   90.00000000
_symmetry_Int_Tables_number   1
_chemical_formula_structural   Sr2NiPtN2
_chemical_formula_sum   'Sr4 Ni2 Pt2 N4'
_cell_volume   212.51248332
_cell_formula_units_Z   2
loop_
 _symmetry_equiv_pos_site_id
 _symmetry_equiv_pos_as_xyz
  1  'x, y, z'
loop_
 _atom_site_type_symbol
 _atom_site_label
 _atom_site_symmetry_multiplicity
 _atom_site_fract_x
 _atom_site_fract_y
 _atom_site_fract_z
 _atom_site_occupancy
  Sr  Sr0  1  0.000000  0.500000  0.750000  1
  Sr  Sr1  1  0.000000  0.500000  0.250000  1
  Sr  Sr2  1  0.500000  0.000000  0.250000  1
  Sr  Sr3  1  0.500000  0.000000  0.750000  1
  Ni  Ni4  1  0.500000  0.500000  0.500000  1
  Ni  Ni5  1  0.000000  0.000000  0.000000  1
  Pt  Pt6  1  0.000000  0.000000  0.500000  1
  Pt  Pt7  1  0.500000  0.500000  0.000000  1
  N  N8  1  0.736876  0.736876  0.500000  1
  N  N9  1  0.763124  0.236876  0.000000  1
  N  N10  1  0.263124  0.263124  0.500000  1
  N  N11  1  0.236876  0.763124  0.000000  1
