# generated using pymatgen
data_ZrSc5MnTe2
_symmetry_space_group_name_H-M   'P 1'
_cell_length_a   7.69990600
_cell_length_b   7.78937356
_cell_length_c   3.80389300
_cell_angle_alpha   90.00000000
_cell_angle_beta   90.00000000
_cell_angle_gamma   119.62076455
_symmetry_Int_Tables_number   1
_chemical_formula_structural   ZrSc5MnTe2
_chemical_formula_sum   'Zr1 Sc5 Mn1 Te2'
_cell_volume   198.33248447
_cell_formula_units_Z   1
loop_
 _symmetry_equiv_pos_site_id
 _symmetry_equiv_pos_as_xyz
  1  'x, y, z'
loop_
 _atom_site_type_symbol
 _atom_site_label
 _atom_site_symmetry_multiplicity
 _atom_site_fract_x
 _atom_site_fract_y
 _atom_site_fract_z
 _atom_site_occupancy
  Zr  Zr0  1  0.234871  0.000000  0.500000  1
  Sc  Sc1  1  0.002129  0.238345  0.500000  1
  Sc  Sc2  1  0.763785  0.761655  0.500000  1
  Sc  Sc3  1  0.609975  0.000000  0.000000  1
  Sc  Sc4  1  0.001697  0.615136  0.000000  1
  Sc  Sc5  1  0.386561  0.384864  0.000000  1
  Mn  Mn6  1  0.999664  0.000000  0.000000  1
  Te  Te7  1  0.332923  0.664530  0.500000  1
  Te  Te8  1  0.668394  0.335470  0.500000  1
