# generated using pymatgen
data_ErTm5(Si3Pt2)4
_symmetry_space_group_name_H-M   'P 1'
_cell_length_a   4.22293900
_cell_length_b   8.52208863
_cell_length_c   12.89492300
_cell_angle_alpha   80.26306666
_cell_angle_beta   90.00000000
_cell_angle_gamma   90.00000000
_symmetry_Int_Tables_number   1
_chemical_formula_structural   ErTm5(Si3Pt2)4
_chemical_formula_sum   'Er1 Tm5 Si12 Pt8'
_cell_volume   457.38081844
_cell_formula_units_Z   1
loop_
 _symmetry_equiv_pos_site_id
 _symmetry_equiv_pos_as_xyz
  1  'x, y, z'
loop_
 _atom_site_type_symbol
 _atom_site_label
 _atom_site_symmetry_multiplicity
 _atom_site_fract_x
 _atom_site_fract_y
 _atom_site_fract_z
 _atom_site_occupancy
  Er  Er0  1  0.250000  0.071374  0.184443  1
  Tm  Tm1  1  0.250000  0.766306  0.438628  1
  Tm  Tm2  1  0.250000  0.585754  0.186758  1
  Tm  Tm3  1  0.750000  0.233565  0.561385  1
  Tm  Tm4  1  0.750000  0.413588  0.813528  1
  Tm  Tm5  1  0.750000  0.929628  0.815745  1
  Si  Si6  1  0.750000  0.589001  0.571163  1
  Si  Si7  1  0.750000  0.126883  0.005802  1
  Si  Si8  1  0.750000  0.872564  0.573438  1
  Si  Si9  1  0.250000  0.696592  0.712569  1
  Si  Si10  1  0.750000  0.303336  0.287182  1
  Si  Si11  1  0.750000  0.805073  0.277086  1
  Si  Si12  1  0.250000  0.872942  0.994111  1
  Si  Si13  1  0.250000  0.194715  0.722932  1
  Si  Si14  1  0.250000  0.379473  0.001492  1
  Si  Si15  1  0.250000  0.127588  0.426473  1
  Si  Si16  1  0.750000  0.621064  0.998000  1
  Si  Si17  1  0.250000  0.410794  0.428716  1
  Pt  Pt18  1  0.750000  0.352646  0.100555  1
  Pt  Pt19  1  0.250000  0.971501  0.624226  1
  Pt  Pt20  1  0.750000  0.848125  0.088986  1
  Pt  Pt21  1  0.750000  0.028018  0.376629  1
  Pt  Pt22  1  0.250000  0.648207  0.898801  1
  Pt  Pt23  1  0.250000  0.151460  0.910967  1
  Pt  Pt24  1  0.750000  0.533189  0.376743  1
  Pt  Pt25  1  0.250000  0.466615  0.623641  1
