# generated using pymatgen
data_Sr2Nb3Ni9As7
_symmetry_space_group_name_H-M   'P 1'
_cell_length_a   3.92717500
_cell_length_b   9.71767133
_cell_length_c   9.71738400
_cell_angle_alpha   119.99844616
_cell_angle_beta   90.00000000
_cell_angle_gamma   90.00000000
_symmetry_Int_Tables_number   1
_chemical_formula_structural   Sr2Nb3Ni9As7
_chemical_formula_sum   'Sr2 Nb3 Ni9 As7'
_cell_volume   321.16577386
_cell_formula_units_Z   1
loop_
 _symmetry_equiv_pos_site_id
 _symmetry_equiv_pos_as_xyz
  1  'x, y, z'
loop_
 _atom_site_type_symbol
 _atom_site_label
 _atom_site_symmetry_multiplicity
 _atom_site_fract_x
 _atom_site_fract_y
 _atom_site_fract_z
 _atom_site_occupancy
  Sr  Sr0  1  0.000000  0.666661  0.333300  1
  Sr  Sr1  1  0.500000  0.333295  0.666653  1
  Nb  Nb2  1  0.500000  0.781027  0.893219  1
  Nb  Nb3  1  0.500000  0.112175  0.218957  1
  Nb  Nb4  1  0.500000  0.106795  0.887853  1
  Ni  Ni5  1  0.000000  0.578382  0.936934  1
  Ni  Ni6  1  0.000000  0.358621  0.421681  1
  Ni  Ni7  1  0.000000  0.063063  0.641436  1
  Ni  Ni8  1  0.000000  0.871760  0.150620  1
  Ni  Ni9  1  0.000000  0.278905  0.128321  1
  Ni  Ni10  1  0.000000  0.849406  0.721120  1
  Ni  Ni11  1  0.500000  0.944592  0.377152  1
  Ni  Ni12  1  0.500000  0.432557  0.055366  1
  Ni  Ni13  1  0.500000  0.622823  0.567444  1
  As  As14  1  0.500000  0.704392  0.110679  1
  As  As15  1  0.500000  0.406271  0.295540  1
  As  As16  1  0.500000  0.889262  0.593640  1
  As  As17  1  0.000000  0.000007  0.000019  1
  As  As18  1  0.000000  0.587449  0.690148  1
  As  As19  1  0.000000  0.102660  0.412517  1
  As  As20  1  0.000000  0.309899  0.897398  1
