# generated using pymatgen
data_TbY15Cd3AgIr4
_symmetry_space_group_name_H-M   'P 1'
_cell_length_a   9.68360890
_cell_length_b   9.68360886
_cell_length_c   9.68360975
_cell_angle_alpha   59.78791926
_cell_angle_beta   59.78792027
_cell_angle_gamma   59.78792382
_symmetry_Int_Tables_number   1
_chemical_formula_structural   TbY15Cd3AgIr4
_chemical_formula_sum   'Tb1 Y15 Cd3 Ag1 Ir4'
_cell_volume   638.99976580
_cell_formula_units_Z   1
loop_
 _symmetry_equiv_pos_site_id
 _symmetry_equiv_pos_as_xyz
  1  'x, y, z'
loop_
 _atom_site_type_symbol
 _atom_site_label
 _atom_site_symmetry_multiplicity
 _atom_site_fract_x
 _atom_site_fract_y
 _atom_site_fract_z
 _atom_site_occupancy
  Tb  Tb0  1  0.348847  0.348847  0.348847  1
  Y  Y1  1  0.350024  0.350024  0.952029  1
  Y  Y2  1  0.350024  0.952029  0.350024  1
  Y  Y3  1  0.952029  0.350024  0.350024  1
  Y  Y4  1  0.809389  0.189772  0.189772  1
  Y  Y5  1  0.187552  0.809741  0.809741  1
  Y  Y6  1  0.189772  0.809389  0.189772  1
  Y  Y7  1  0.809741  0.187552  0.809741  1
  Y  Y8  1  0.189772  0.189772  0.809389  1
  Y  Y9  1  0.809741  0.809741  0.187552  1
  Y  Y10  1  0.937150  0.561140  0.561140  1
  Y  Y11  1  0.561982  0.936646  0.936646  1
  Y  Y12  1  0.561140  0.937150  0.561140  1
  Y  Y13  1  0.936646  0.561982  0.936646  1
  Y  Y14  1  0.561140  0.561140  0.937150  1
  Y  Y15  1  0.936646  0.936646  0.561982  1
  Cd  Cd16  1  0.581607  0.581607  0.258753  1
  Cd  Cd17  1  0.581607  0.258753  0.581607  1
  Cd  Cd18  1  0.258753  0.581607  0.581607  1
  Ag  Ag19  1  0.582862  0.582862  0.582862  1
  Ir  Ir20  1  0.141436  0.141436  0.141436  1
  Ir  Ir21  1  0.143226  0.143226  0.575691  1
  Ir  Ir22  1  0.143226  0.575691  0.143226  1
  Ir  Ir23  1  0.575691  0.143226  0.143226  1
