# generated using pymatgen
data_Tb2Lu14Cd3InNi4
_symmetry_space_group_name_H-M   'P 1'
_cell_length_a   9.37657345
_cell_length_b   9.37657476
_cell_length_c   9.38271021
_cell_angle_alpha   60.06297978
_cell_angle_beta   60.06297626
_cell_angle_gamma   60.03268303
_symmetry_Int_Tables_number   1
_chemical_formula_structural   Tb2Lu14Cd3InNi4
_chemical_formula_sum   'Tb2 Lu14 Cd3 In1 Ni4'
_cell_volume   584.01204099
_cell_formula_units_Z   1
loop_
 _symmetry_equiv_pos_site_id
 _symmetry_equiv_pos_as_xyz
  1  'x, y, z'
loop_
 _atom_site_type_symbol
 _atom_site_label
 _atom_site_symmetry_multiplicity
 _atom_site_fract_x
 _atom_site_fract_y
 _atom_site_fract_z
 _atom_site_occupancy
  Tb  Tb0  1  0.348540  0.348540  0.349638  1
  Tb  Tb1  1  0.348831  0.348831  0.952654  1
  Lu  Lu2  1  0.348666  0.953278  0.349397  1
  Lu  Lu3  1  0.953278  0.348666  0.349397  1
  Lu  Lu4  1  0.812784  0.187699  0.187439  1
  Lu  Lu5  1  0.188087  0.812182  0.811202  1
  Lu  Lu6  1  0.187699  0.812784  0.187439  1
  Lu  Lu7  1  0.812182  0.188087  0.811202  1
  Lu  Lu8  1  0.187155  0.187155  0.812580  1
  Lu  Lu9  1  0.811179  0.811179  0.188487  1
  Lu  Lu10  1  0.937607  0.563776  0.564272  1
  Lu  Lu11  1  0.564247  0.936256  0.936502  1
  Lu  Lu12  1  0.563776  0.937607  0.564272  1
  Lu  Lu13  1  0.936256  0.564247  0.936502  1
  Lu  Lu14  1  0.564159  0.564159  0.937549  1
  Lu  Lu15  1  0.936818  0.936818  0.563871  1
  Cd  Cd16  1  0.582129  0.582129  0.252577  1
  Cd  Cd17  1  0.582567  0.252363  0.581482  1
  Cd  Cd18  1  0.252363  0.582567  0.581482  1
  In  In19  1  0.582696  0.582696  0.581114  1
  Ni  Ni20  1  0.141776  0.141776  0.143056  1
  Ni  Ni21  1  0.141559  0.141559  0.573884  1
  Ni  Ni22  1  0.140854  0.574788  0.142000  1
  Ni  Ni23  1  0.574788  0.140854  0.142000  1
