# generated using pymatgen
data_TbBeRu2C
_symmetry_space_group_name_H-M   'P 1'
_cell_length_a   5.66904903
_cell_length_b   5.66904964
_cell_length_c   7.04178400
_cell_angle_alpha   90.00000000
_cell_angle_beta   90.00000000
_cell_angle_gamma   140.71093677
_symmetry_Int_Tables_number   1
_chemical_formula_structural   TbBeRu2C
_chemical_formula_sum   'Tb2 Be2 Ru4 C2'
_cell_volume   143.30680492
_cell_formula_units_Z   2
loop_
 _symmetry_equiv_pos_site_id
 _symmetry_equiv_pos_as_xyz
  1  'x, y, z'
loop_
 _atom_site_type_symbol
 _atom_site_label
 _atom_site_symmetry_multiplicity
 _atom_site_fract_x
 _atom_site_fract_y
 _atom_site_fract_z
 _atom_site_occupancy
  Tb  Tb0  1  0.544689  0.455311  0.250000  1
  Tb  Tb1  1  0.455311  0.544689  0.750000  1
  Be  Be2  1  0.271519  0.728481  0.250000  1
  Be  Be3  1  0.728481  0.271519  0.750000  1
  Ru  Ru4  1  0.826701  0.173299  0.057050  1
  Ru  Ru5  1  0.173299  0.826701  0.942950  1
  Ru  Ru6  1  0.173299  0.826701  0.557050  1
  Ru  Ru7  1  0.826701  0.173299  0.442950  1
  C  C8  1  0.000000  0.000000  0.000000  1
  C  C9  1  0.000000  0.000000  0.500000  1
