# generated using pymatgen
data_K3AgS13
_symmetry_space_group_name_H-M   'P 1'
_cell_length_a   4.90996600
_cell_length_b   13.45306558
_cell_length_c   14.89287551
_cell_angle_alpha   86.52315986
_cell_angle_beta   90.00000000
_cell_angle_gamma   90.00000000
_symmetry_Int_Tables_number   1
_chemical_formula_structural   K3AgS13
_chemical_formula_sum   'K6 Ag2 S26'
_cell_volume   981.92473799
_cell_formula_units_Z   2
loop_
 _symmetry_equiv_pos_site_id
 _symmetry_equiv_pos_as_xyz
  1  'x, y, z'
loop_
 _atom_site_type_symbol
 _atom_site_label
 _atom_site_symmetry_multiplicity
 _atom_site_fract_x
 _atom_site_fract_y
 _atom_site_fract_z
 _atom_site_occupancy
  K  K0  1  0.226678  0.179603  0.711185  1
  K  K1  1  0.226678  0.320397  0.288815  1
  K  K2  1  0.175507  0.250000  0.000000  1
  K  K3  1  0.824493  0.750000  0.000000  1
  K  K4  1  0.773322  0.820397  0.288815  1
  K  K5  1  0.773322  0.679603  0.711185  1
  Ag  Ag6  1  0.000000  0.500000  0.500000  1
  Ag  Ag7  1  0.000000  0.000000  0.500000  1
  S  S8  1  0.281342  0.547119  0.626302  1
  S  S9  1  0.669048  0.560743  0.273084  1
  S  S10  1  0.330952  0.060743  0.273084  1
  S  S11  1  0.330952  0.439257  0.726916  1
  S  S12  1  0.910334  0.522365  0.162491  1
  S  S13  1  0.910334  0.977635  0.837509  1
  S  S14  1  0.089666  0.477635  0.837509  1
  S  S15  1  0.089666  0.022365  0.162491  1
  S  S16  1  0.681801  0.426773  0.089638  1
  S  S17  1  0.669048  0.939257  0.726916  1
  S  S18  1  0.318199  0.573227  0.910362  1
  S  S19  1  0.318199  0.926773  0.089638  1
  S  S20  1  0.702951  0.283352  0.145104  1
  S  S21  1  0.702951  0.216648  0.854896  1
  S  S22  1  0.297049  0.716648  0.854896  1
  S  S23  1  0.297049  0.783352  0.145104  1
  S  S24  1  0.096838  0.661773  0.423194  1
  S  S25  1  0.096838  0.838227  0.576806  1
  S  S26  1  0.903162  0.338227  0.576806  1
  S  S27  1  0.903162  0.161773  0.423194  1
  S  S28  1  0.667038  0.250000  0.500000  1
  S  S29  1  0.332962  0.750000  0.500000  1
  S  S30  1  0.718658  0.452881  0.373698  1
  S  S31  1  0.718658  0.047119  0.626302  1
  S  S32  1  0.681801  0.073227  0.910362  1
  S  S33  1  0.281342  0.952881  0.373698  1
