# generated using pymatgen
data_Y8Si16(Mo3W)3
_symmetry_space_group_name_H-M   'P 1'
_cell_length_a   6.78328201
_cell_length_b   6.96005610
_cell_length_c   12.93418900
_cell_angle_alpha   90.00000000
_cell_angle_beta   90.00000000
_cell_angle_gamma   89.99394610
_symmetry_Int_Tables_number   1
_chemical_formula_structural   Y8Si16(Mo3W)3
_chemical_formula_sum   'Y8 Si16 Mo9 W3'
_cell_volume   610.64923003
_cell_formula_units_Z   1
loop_
 _symmetry_equiv_pos_site_id
 _symmetry_equiv_pos_as_xyz
  1  'x, y, z'
loop_
 _atom_site_type_symbol
 _atom_site_label
 _atom_site_symmetry_multiplicity
 _atom_site_fract_x
 _atom_site_fract_y
 _atom_site_fract_z
 _atom_site_occupancy
  Y  Y0  1  0.497324  0.332668  0.093848  1
  Y  Y1  1  0.997320  0.167174  0.406004  1
  Y  Y2  1  0.502420  0.667152  0.594012  1
  Y  Y3  1  0.003024  0.832636  0.905928  1
  Y  Y4  1  0.502420  0.667152  0.905988  1
  Y  Y5  1  0.003024  0.832636  0.594072  1
  Y  Y6  1  0.497324  0.332668  0.406152  1
  Y  Y7  1  0.997320  0.167174  0.093996  1
  Si  Si8  1  0.659150  0.042143  0.547903  1
  Si  Si9  1  0.158903  0.457345  0.952182  1
  Si  Si10  1  0.340901  0.957951  0.047705  1
  Si  Si11  1  0.841515  0.543086  0.451998  1
  Si  Si12  1  0.340901  0.957951  0.452295  1
  Si  Si13  1  0.841515  0.543086  0.048002  1
  Si  Si14  1  0.659150  0.042143  0.952097  1
  Si  Si15  1  0.158903  0.457345  0.547818  1
  Si  Si16  1  0.534984  0.367074  0.750000  1
  Si  Si17  1  0.034442  0.132809  0.750000  1
  Si  Si18  1  0.465442  0.633109  0.250000  1
  Si  Si19  1  0.964890  0.865762  0.250000  1
  Si  Si20  1  0.802361  0.630222  0.750000  1
  Si  Si21  1  0.302606  0.870065  0.750000  1
  Si  Si22  1  0.197304  0.370844  0.250000  1
  Si  Si23  1  0.697323  0.129146  0.250000  1
  Mo  Mo24  1  0.830791  0.335991  0.625627  1
  Mo  Mo25  1  0.331169  0.164274  0.874123  1
  Mo  Mo26  1  0.169835  0.664698  0.125616  1
  Mo  Mo27  1  0.668270  0.835801  0.374288  1
  Mo  Mo28  1  0.169835  0.664698  0.374384  1
  Mo  Mo29  1  0.668270  0.835801  0.125712  1
  Mo  Mo30  1  0.830791  0.335991  0.874373  1
  Mo  Mo31  1  0.331169  0.164274  0.625877  1
  Mo  Mo32  1  0.834494  0.499863  0.250000  1
  W  W33  1  0.665357  0.000439  0.750000  1
  W  W34  1  0.165098  0.499326  0.750000  1
  W  W35  1  0.334456  0.999503  0.250000  1
