# generated using pymatgen
data_Th5P12Ir4Ru15
_symmetry_space_group_name_H-M   'P 1'
_cell_length_a   12.72733100
_cell_length_b   12.72733128
_cell_length_c   4.00958200
_cell_angle_alpha   90.00000000
_cell_angle_beta   90.00000000
_cell_angle_gamma   120.00000188
_symmetry_Int_Tables_number   1
_chemical_formula_structural   Th5P12Ir4Ru15
_chemical_formula_sum   'Th5 P12 Ir4 Ru15'
_cell_volume   562.47653625
_cell_formula_units_Z   1
loop_
 _symmetry_equiv_pos_site_id
 _symmetry_equiv_pos_as_xyz
  1  'x, y, z'
loop_
 _atom_site_type_symbol
 _atom_site_label
 _atom_site_symmetry_multiplicity
 _atom_site_fract_x
 _atom_site_fract_y
 _atom_site_fract_z
 _atom_site_occupancy
  Th  Th0  1  0.333333  0.666667  0.000000  1
  Th  Th1  1  0.666667  0.333333  0.000000  1
  Th  Th2  1  0.809412  0.998798  0.500000  1
  Th  Th3  1  0.001202  0.810614  0.500000  1
  Th  Th4  1  0.189386  0.190588  0.500000  1
  P  P5  1  0.184021  0.997820  0.000000  1
  P  P6  1  0.002180  0.186201  0.000000  1
  P  P7  1  0.813799  0.815979  0.000000  1
  P  P8  1  0.171150  0.477368  0.500000  1
  P  P9  1  0.522632  0.693782  0.500000  1
  P  P10  1  0.306218  0.828850  0.500000  1
  P  P11  1  0.687334  0.520176  0.500000  1
  P  P12  1  0.832841  0.312666  0.500000  1
  P  P13  1  0.479824  0.167159  0.500000  1
  P  P14  1  0.623363  0.995358  0.000000  1
  P  P15  1  0.004642  0.628004  0.000000  1
  P  P16  1  0.371996  0.376637  0.000000  1
  Ir  Ir17  1  0.809837  0.626532  0.000000  1
  Ir  Ir18  1  0.816695  0.190163  0.000000  1
  Ir  Ir19  1  0.373468  0.183305  0.000000  1
  Ir  Ir20  1  0.000000  0.000000  0.000000  1
  Ru  Ru21  1  0.449560  0.005940  0.000000  1
  Ru  Ru22  1  0.994060  0.443620  0.000000  1
  Ru  Ru23  1  0.556380  0.550440  0.000000  1
  Ru  Ru24  1  0.367053  0.491340  0.500000  1
  Ru  Ru25  1  0.508660  0.875714  0.500000  1
  Ru  Ru26  1  0.124286  0.632947  0.500000  1
  Ru  Ru27  1  0.870657  0.509414  0.500000  1
  Ru  Ru28  1  0.638755  0.129343  0.500000  1
  Ru  Ru29  1  0.490586  0.361245  0.500000  1
  Ru  Ru30  1  0.180707  0.377832  0.000000  1
  Ru  Ru31  1  0.622168  0.802876  0.000000  1
  Ru  Ru32  1  0.197124  0.819293  0.000000  1
  Ru  Ru33  1  0.286444  0.001689  0.500000  1
  Ru  Ru34  1  0.998311  0.284755  0.500000  1
  Ru  Ru35  1  0.715245  0.713556  0.500000  1
