# generated using pymatgen
data_DyHoBC
_symmetry_space_group_name_H-M   'P 1'
_cell_length_a   6.36697222
_cell_length_b   6.36697209
_cell_length_c   9.15925704
_cell_angle_alpha   51.84743310
_cell_angle_beta   51.84743279
_cell_angle_gamma   31.88488550
_symmetry_Int_Tables_number   1
_chemical_formula_structural   DyHoBC
_chemical_formula_sum   'Dy2 Ho2 B2 C2'
_cell_volume   150.29419283
_cell_formula_units_Z   2
loop_
 _symmetry_equiv_pos_site_id
 _symmetry_equiv_pos_as_xyz
  1  'x, y, z'
loop_
 _atom_site_type_symbol
 _atom_site_label
 _atom_site_symmetry_multiplicity
 _atom_site_fract_x
 _atom_site_fract_y
 _atom_site_fract_z
 _atom_site_occupancy
  Dy  Dy0  1  0.562672  0.562672  0.639864  1
  Dy  Dy1  1  0.437328  0.437328  0.360136  1
  Ho  Ho2  1  0.202523  0.202523  0.886413  1
  Ho  Ho3  1  0.797477  0.797477  0.113587  1
  B  B4  1  0.918520  0.918520  0.609228  1
  B  B5  1  0.081480  0.081480  0.390772  1
  C  C6  1  0.127081  0.127081  0.194109  1
  C  C7  1  0.872919  0.872919  0.805891  1
