# generated using pymatgen
data_K15Rb(VS4)4
_symmetry_space_group_name_H-M   'P 1'
_cell_length_a   8.02579634
_cell_length_b   9.49863088
_cell_length_c   14.04881300
_cell_angle_alpha   90.30074504
_cell_angle_beta   90.36777281
_cell_angle_gamma   89.73910802
_symmetry_Int_Tables_number   1
_chemical_formula_structural   K15Rb(VS4)4
_chemical_formula_sum   'K15 Rb1 V4 S16'
_cell_volume   1070.95053401
_cell_formula_units_Z   1
loop_
 _symmetry_equiv_pos_site_id
 _symmetry_equiv_pos_as_xyz
  1  'x, y, z'
loop_
 _atom_site_type_symbol
 _atom_site_label
 _atom_site_symmetry_multiplicity
 _atom_site_fract_x
 _atom_site_fract_y
 _atom_site_fract_z
 _atom_site_occupancy
  K  K0  1  0.500000  0.000000  0.500000  1
  K  K1  1  0.000000  0.500000  0.000000  1
  K  K2  1  0.500000  0.500000  0.500000  1
  K  K3  1  0.987942  0.750008  0.426222  1
  K  K4  1  0.486179  0.249984  0.074540  1
  K  K5  1  0.012058  0.249992  0.573778  1
  K  K6  1  0.513821  0.750016  0.925460  1
  K  K7  1  0.840545  0.053726  0.278491  1
  K  K8  1  0.339306  0.943735  0.224240  1
  K  K9  1  0.158762  0.554885  0.721443  1
  K  K10  1  0.658489  0.445774  0.777312  1
  K  K11  1  0.159455  0.946274  0.721509  1
  K  K12  1  0.660694  0.056265  0.775760  1
  K  K13  1  0.841238  0.445115  0.278557  1
  K  K14  1  0.341511  0.554226  0.222688  1
  Rb  Rb15  1  0.000000  0.000000  0.000000  1
  V  V16  1  0.758204  0.749711  0.665285  1
  V  V17  1  0.241796  0.250289  0.334715  1
  V  V18  1  0.738330  0.747821  0.167981  1
  V  V19  1  0.261670  0.252179  0.832019  1
  S  S20  1  0.983045  0.251793  0.821742  1
  S  S21  1  0.520905  0.250043  0.325175  1
  S  S22  1  0.479095  0.749957  0.674825  1
  S  S23  1  0.016955  0.748207  0.178258  1
  S  S24  1  0.655945  0.556257  0.091187  1
  S  S25  1  0.156729  0.442678  0.410111  1
  S  S26  1  0.352041  0.061422  0.905979  1
  S  S27  1  0.843523  0.941237  0.590263  1
  S  S28  1  0.344055  0.443743  0.908813  1
  S  S29  1  0.843271  0.557322  0.589889  1
  S  S30  1  0.647959  0.938578  0.094021  1
  S  S31  1  0.156477  0.058763  0.409737  1
  S  S32  1  0.631966  0.748090  0.315341  1
  S  S33  1  0.132465  0.250044  0.186333  1
  S  S34  1  0.368034  0.251910  0.684659  1
  S  S35  1  0.867535  0.749956  0.813667  1
