# generated using pymatgen
data_Tm12ZnGaTc3
_symmetry_space_group_name_H-M   'P 1'
_cell_length_a   8.30739254
_cell_length_b   8.30739151
_cell_length_c   8.30739100
_cell_angle_alpha   108.73923181
_cell_angle_beta   109.59656736
_cell_angle_gamma   110.08070227
_symmetry_Int_Tables_number   1
_chemical_formula_structural   Tm12ZnGaTc3
_chemical_formula_sum   'Tm12 Zn1 Ga1 Tc3'
_cell_volume   441.27693470
_cell_formula_units_Z   1
loop_
 _symmetry_equiv_pos_site_id
 _symmetry_equiv_pos_as_xyz
  1  'x, y, z'
loop_
 _atom_site_type_symbol
 _atom_site_label
 _atom_site_symmetry_multiplicity
 _atom_site_fract_x
 _atom_site_fract_y
 _atom_site_fract_z
 _atom_site_occupancy
  Tm  Tm0  1  0.182853  0.429957  0.247104  1
  Tm  Tm1  1  0.817147  0.570043  0.752896  1
  Tm  Tm2  1  0.182853  0.935750  0.752896  1
  Tm  Tm3  1  0.935620  0.182670  0.752950  1
  Tm  Tm4  1  0.817147  0.064250  0.247104  1
  Tm  Tm5  1  0.064380  0.817330  0.247050  1
  Tm  Tm6  1  0.429720  0.182670  0.247051  1
  Tm  Tm7  1  0.570280  0.817330  0.752949  1
  Tm  Tm8  1  0.320822  0.319208  0.640031  1
  Tm  Tm9  1  0.679178  0.680792  0.359969  1
  Tm  Tm10  1  0.679179  0.319208  0.998386  1
  Tm  Tm11  1  0.320821  0.680792  0.001614  1
  Zn  Zn12  1  0.000000  0.500000  0.500000  1
  Ga  Ga13  1  0.500000  0.000000  0.500000  1
  Tc  Tc14  1  0.335147  0.335147  0.000000  1
  Tc  Tc15  1  0.664853  0.664853  0.000000  1
  Tc  Tc16  1  0.000000  0.000000  0.000000  1
