# generated using pymatgen
data_U2Co5P6Ru5
_symmetry_space_group_name_H-M   'P 1'
_cell_length_a   3.75905200
_cell_length_b   10.63908200
_cell_length_c   11.95768900
_cell_angle_alpha   90.00000000
_cell_angle_beta   90.00000000
_cell_angle_gamma   90.00000000
_symmetry_Int_Tables_number   1
_chemical_formula_structural   U2Co5P6Ru5
_chemical_formula_sum   'U4 Co10 P12 Ru10'
_cell_volume   478.22221164
_cell_formula_units_Z   2
loop_
 _symmetry_equiv_pos_site_id
 _symmetry_equiv_pos_as_xyz
  1  'x, y, z'
loop_
 _atom_site_type_symbol
 _atom_site_label
 _atom_site_symmetry_multiplicity
 _atom_site_fract_x
 _atom_site_fract_y
 _atom_site_fract_z
 _atom_site_occupancy
  U  U0  1  0.250000  0.589089  0.707966  1
  U  U1  1  0.250000  0.910911  0.207966  1
  U  U2  1  0.750000  0.415810  0.294420  1
  U  U3  1  0.750000  0.084190  0.794420  1
  Co  Co4  1  0.750000  0.778299  0.822661  1
  Co  Co5  1  0.750000  0.721701  0.322661  1
  Co  Co6  1  0.250000  0.881323  0.698894  1
  Co  Co7  1  0.250000  0.618677  0.198894  1
  Co  Co8  1  0.750000  0.109509  0.302174  1
  Co  Co9  1  0.750000  0.390491  0.802174  1
  Co  Co10  1  0.250000  0.465937  0.931835  1
  Co  Co11  1  0.250000  0.034063  0.431835  1
  Co  Co12  1  0.750000  0.534776  0.069956  1
  Co  Co13  1  0.750000  0.965224  0.569956  1
  P  P14  1  0.250000  0.427450  0.112763  1
  P  P15  1  0.250000  0.072550  0.612763  1
  P  P16  1  0.750000  0.580906  0.888180  1
  P  P17  1  0.750000  0.919094  0.388180  1
  P  P18  1  0.250000  0.277612  0.870203  1
  P  P19  1  0.250000  0.222388  0.370203  1
  P  P20  1  0.750000  0.723210  0.135480  1
  P  P21  1  0.750000  0.776790  0.635480  1
  P  P22  1  0.250000  0.606189  0.382643  1
  P  P23  1  0.250000  0.893811  0.882643  1
  P  P24  1  0.750000  0.400243  0.614705  1
  P  P25  1  0.750000  0.099757  0.114705  1
  Ru  Ru26  1  0.250000  0.710826  0.985543  1
  Ru  Ru27  1  0.250000  0.789174  0.485543  1
  Ru  Ru28  1  0.750000  0.285932  0.008357  1
  Ru  Ru29  1  0.750000  0.214068  0.508357  1
  Ru  Ru30  1  0.250000  0.408862  0.476410  1
  Ru  Ru31  1  0.250000  0.091138  0.976410  1
  Ru  Ru32  1  0.750000  0.596870  0.519724  1
  Ru  Ru33  1  0.750000  0.903130  0.019724  1
  Ru  Ru34  1  0.250000  0.223389  0.178086  1
  Ru  Ru35  1  0.250000  0.276611  0.678086  1
