# generated using pymatgen
data_YbDy3OsRu7
_symmetry_space_group_name_H-M   'P 1'
_cell_length_a   5.21041465
_cell_length_b   5.33515130
_cell_length_c   8.97782615
_cell_angle_alpha   90.00000036
_cell_angle_beta   90.05012883
_cell_angle_gamma   120.79513378
_symmetry_Int_Tables_number   1
_chemical_formula_structural   YbDy3OsRu7
_chemical_formula_sum   'Yb1 Dy3 Os1 Ru7'
_cell_volume   214.38029613
_cell_formula_units_Z   1
loop_
 _symmetry_equiv_pos_site_id
 _symmetry_equiv_pos_as_xyz
  1  'x, y, z'
loop_
 _atom_site_type_symbol
 _atom_site_label
 _atom_site_symmetry_multiplicity
 _atom_site_fract_x
 _atom_site_fract_y
 _atom_site_fract_z
 _atom_site_occupancy
  Yb  Yb0  1  0.327085  0.663543  0.064519  1
  Dy  Dy1  1  0.328989  0.664494  0.428413  1
  Dy  Dy2  1  0.662131  0.331066  0.567522  1
  Dy  Dy3  1  0.660400  0.330200  0.937810  1
  Os  Os4  1  0.675388  0.837694  0.750728  1
  Ru  Ru5  1  0.986672  0.993336  0.501425  1
  Ru  Ru6  1  0.983590  0.991795  0.999870  1
  Ru  Ru7  1  0.831096  0.164311  0.249969  1
  Ru  Ru8  1  0.831096  0.666785  0.249969  1
  Ru  Ru9  1  0.352079  0.176039  0.250859  1
  Ru  Ru10  1  0.180736  0.830071  0.749458  1
  Ru  Ru11  1  0.180736  0.350666  0.749458  1
