# generated using pymatgen
data_AcPr2(BN2)2
_symmetry_space_group_name_H-M   'P 1'
_cell_length_a   6.60133068
_cell_length_b   6.60133106
_cell_length_c   6.60133079
_cell_angle_alpha   147.51644130
_cell_angle_beta   121.42305509
_cell_angle_gamma   68.59866046
_symmetry_Int_Tables_number   1
_chemical_formula_structural   AcPr2(BN2)2
_chemical_formula_sum   'Ac1 Pr2 B2 N4'
_cell_volume   130.06523571
_cell_formula_units_Z   1
loop_
 _symmetry_equiv_pos_site_id
 _symmetry_equiv_pos_as_xyz
  1  'x, y, z'
loop_
 _atom_site_type_symbol
 _atom_site_label
 _atom_site_symmetry_multiplicity
 _atom_site_fract_x
 _atom_site_fract_y
 _atom_site_fract_z
 _atom_site_occupancy
  Ac  Ac0  1  0.000000  0.000000  0.000000  1
  Pr  Pr1  1  0.700350  0.200350  0.500000  1
  Pr  Pr2  1  0.299650  0.799650  0.500000  1
  B  B3  1  0.360504  0.500000  0.860504  1
  B  B4  1  0.639496  0.500000  0.139496  1
  N  N5  1  0.370492  0.619779  0.750714  1
  N  N6  1  0.869066  0.619779  0.249286  1
  N  N7  1  0.130934  0.380221  0.750714  1
  N  N8  1  0.629508  0.380221  0.249286  1
