# generated using pymatgen
data_Ta2Nb8Si5Ge
_symmetry_space_group_name_H-M   'P 1'
_cell_length_a   7.58645318
_cell_length_b   7.58645328
_cell_length_c   7.58645362
_cell_angle_alpha   128.07685067
_cell_angle_beta   128.07684265
_cell_angle_gamma   76.50056914
_symmetry_Int_Tables_number   1
_chemical_formula_structural   Ta2Nb8Si5Ge
_chemical_formula_sum   'Ta2 Nb8 Si5 Ge1'
_cell_volume   262.85016675
_cell_formula_units_Z   1
loop_
 _symmetry_equiv_pos_site_id
 _symmetry_equiv_pos_as_xyz
  1  'x, y, z'
loop_
 _atom_site_type_symbol
 _atom_site_label
 _atom_site_symmetry_multiplicity
 _atom_site_fract_x
 _atom_site_fract_y
 _atom_site_fract_z
 _atom_site_occupancy
  Ta  Ta0  1  0.500625  0.500625  0.000000  1
  Ta  Ta1  1  0.999375  0.999375  0.000000  1
  Nb  Nb2  1  0.015323  0.184164  0.495235  1
  Nb  Nb3  1  0.520088  0.015323  0.831159  1
  Nb  Nb4  1  0.184164  0.688929  0.168841  1
  Nb  Nb5  1  0.484677  0.979912  0.168841  1
  Nb  Nb6  1  0.688929  0.520088  0.504765  1
  Nb  Nb7  1  0.979912  0.811071  0.495235  1
  Nb  Nb8  1  0.315836  0.484677  0.504765  1
  Nb  Nb9  1  0.811071  0.315836  0.831159  1
  Si  Si10  1  0.129682  0.629682  0.759366  1
  Si  Si11  1  0.629682  0.870318  0.500000  1
  Si  Si12  1  0.370318  0.129682  0.500000  1
  Si  Si13  1  0.870318  0.370318  0.240634  1
  Si  Si14  1  0.750000  0.750000  0.000000  1
  Ge  Ge15  1  0.250000  0.250000  0.000000  1
