# generated using pymatgen
data_Dy10Tl7In(RhAu)2
_symmetry_space_group_name_H-M   'P 1'
_cell_length_a   3.65763500
_cell_length_b   8.25164346
_cell_length_c   18.46082257
_cell_angle_alpha   90.12428764
_cell_angle_beta   90.00000000
_cell_angle_gamma   90.00000000
_symmetry_Int_Tables_number   1
_chemical_formula_structural   Dy10Tl7In(RhAu)2
_chemical_formula_sum   'Dy10 Tl7 In1 Rh2 Au2'
_cell_volume   557.17400452
_cell_formula_units_Z   1
loop_
 _symmetry_equiv_pos_site_id
 _symmetry_equiv_pos_as_xyz
  1  'x, y, z'
loop_
 _atom_site_type_symbol
 _atom_site_label
 _atom_site_symmetry_multiplicity
 _atom_site_fract_x
 _atom_site_fract_y
 _atom_site_fract_z
 _atom_site_occupancy
  Dy  Dy0  1  0.000000  0.113712  0.412050  1
  Dy  Dy1  1  0.000000  0.886401  0.587297  1
  Dy  Dy2  1  0.000000  0.380044  0.915207  1
  Dy  Dy3  1  0.000000  0.620140  0.084827  1
  Dy  Dy4  1  0.000000  0.228332  0.222862  1
  Dy  Dy5  1  0.000000  0.772022  0.777670  1
  Dy  Dy6  1  0.000000  0.241142  0.717344  1
  Dy  Dy7  1  0.000000  0.757453  0.282429  1
  Dy  Dy8  1  0.000000  0.000073  0.999946  1
  Dy  Dy9  1  0.000000  0.501803  0.499973  1
  Tl  Tl10  1  0.500000  0.420397  0.354810  1
  Tl  Tl11  1  0.500000  0.582963  0.645696  1
  Tl  Tl12  1  0.500000  0.073663  0.851481  1
  Tl  Tl13  1  0.500000  0.926934  0.148820  1
  Tl  Tl14  1  0.500000  0.291903  0.063477  1
  Tl  Tl15  1  0.500000  0.707944  0.936614  1
  Tl  Tl16  1  0.500000  0.206103  0.565526  1
  In  In17  1  0.500000  0.794565  0.432925  1
  Rh  Rh18  1  0.500000  0.019843  0.305915  1
  Rh  Rh19  1  0.500000  0.975638  0.695340  1
  Au  Au20  1  0.500000  0.474755  0.801002  1
  Au  Au21  1  0.500000  0.524169  0.198791  1
