# generated using pymatgen
data_Er2Si14Ir5Ru
_symmetry_space_group_name_H-M   'P 1'
_cell_length_a   7.99840630
_cell_length_b   7.99840600
_cell_length_c   8.02778038
_cell_angle_alpha   56.78800883
_cell_angle_beta   56.78801234
_cell_angle_gamma   56.85639060
_symmetry_Int_Tables_number   1
_chemical_formula_structural   Er2Si14Ir5Ru
_chemical_formula_sum   'Er2 Si14 Ir5 Ru1'
_cell_volume   336.42145193
_cell_formula_units_Z   1
loop_
 _symmetry_equiv_pos_site_id
 _symmetry_equiv_pos_as_xyz
  1  'x, y, z'
loop_
 _atom_site_type_symbol
 _atom_site_label
 _atom_site_symmetry_multiplicity
 _atom_site_fract_x
 _atom_site_fract_y
 _atom_site_fract_z
 _atom_site_occupancy
  Er  Er0  1  0.000869  0.001506  0.998274  1
  Er  Er1  1  0.498494  0.499131  0.501726  1
  Si  Si2  1  0.753667  0.746333  0.750000  1
  Si  Si3  1  0.249524  0.250476  0.250000  1
  Si  Si4  1  0.850459  0.065449  0.671959  1
  Si  Si5  1  0.671457  0.851984  0.064578  1
  Si  Si6  1  0.064588  0.669502  0.850590  1
  Si  Si7  1  0.648016  0.828543  0.435422  1
  Si  Si8  1  0.434551  0.649541  0.828041  1
  Si  Si9  1  0.830498  0.435412  0.649410  1
  Si  Si10  1  0.171230  0.563481  0.355202  1
  Si  Si11  1  0.566054  0.351156  0.171267  1
  Si  Si12  1  0.349215  0.174418  0.566325  1
  Si  Si13  1  0.936519  0.328770  0.144798  1
  Si  Si14  1  0.325582  0.150785  0.933675  1
  Si  Si15  1  0.148844  0.933946  0.328733  1
  Ir  Ir16  1  0.250145  0.927906  0.571953  1
  Ir  Ir17  1  0.572094  0.249855  0.928047  1
  Ir  Ir18  1  0.926455  0.573545  0.250000  1
  Ir  Ir19  1  0.427776  0.750194  0.072088  1
  Ir  Ir20  1  0.749806  0.072224  0.427912  1
  Ru  Ru21  1  0.074158  0.425842  0.750000  1
