# generated using pymatgen
data_Ce6Al24HgOs7
_symmetry_space_group_name_H-M   'P 1'
_cell_length_a   8.94686223
_cell_length_b   8.94686289
_cell_length_c   9.58943618
_cell_angle_alpha   90.06693337
_cell_angle_beta   89.93306659
_cell_angle_gamma   119.80696538
_symmetry_Int_Tables_number   1
_chemical_formula_structural   Ce6Al24HgOs7
_chemical_formula_sum   'Ce6 Al24 Hg1 Os7'
_cell_volume   666.04922031
_cell_formula_units_Z   1
loop_
 _symmetry_equiv_pos_site_id
 _symmetry_equiv_pos_as_xyz
  1  'x, y, z'
loop_
 _atom_site_type_symbol
 _atom_site_label
 _atom_site_symmetry_multiplicity
 _atom_site_fract_x
 _atom_site_fract_y
 _atom_site_fract_z
 _atom_site_occupancy
  Ce  Ce0  1  0.189747  0.385546  0.251728  1
  Ce  Ce1  1  0.810253  0.614454  0.748272  1
  Ce  Ce2  1  0.614454  0.810253  0.251728  1
  Ce  Ce3  1  0.385546  0.189747  0.748272  1
  Ce  Ce4  1  0.194379  0.805621  0.259622  1
  Ce  Ce5  1  0.805621  0.194379  0.740378  1
  Al  Al6  1  0.325519  0.674481  0.027496  1
  Al  Al7  1  0.674481  0.325519  0.972504  1
  Al  Al8  1  0.666252  0.333748  0.518864  1
  Al  Al9  1  0.333748  0.666252  0.481136  1
  Al  Al10  1  0.162387  0.324782  0.574321  1
  Al  Al11  1  0.837613  0.675218  0.425679  1
  Al  Al12  1  0.675218  0.837613  0.574321  1
  Al  Al13  1  0.856702  0.681316  0.080636  1
  Al  Al14  1  0.324782  0.162387  0.425679  1
  Al  Al15  1  0.143298  0.318684  0.919364  1
  Al  Al16  1  0.163182  0.836818  0.578248  1
  Al  Al17  1  0.318684  0.143298  0.080636  1
  Al  Al18  1  0.836818  0.163182  0.421752  1
  Al  Al19  1  0.681316  0.856702  0.919364  1
  Al  Al20  1  0.836794  0.163206  0.077646  1
  Al  Al21  1  0.163206  0.836794  0.922354  1
  Al  Al22  1  0.562222  0.123961  0.249629  1
  Al  Al23  1  0.437778  0.876039  0.750371  1
  Al  Al24  1  0.876039  0.437778  0.249629  1
  Al  Al25  1  0.123961  0.562222  0.750371  1
  Al  Al26  1  0.566072  0.433928  0.260740  1
  Al  Al27  1  0.433928  0.566072  0.739260  1
  Al  Al28  1  0.999083  0.000917  0.250578  1
  Al  Al29  1  0.000917  0.999083  0.749422  1
  Hg  Hg30  1  0.500000  0.500000  0.000000  1
  Os  Os31  1  0.500000  0.000000  0.000000  1
  Os  Os32  1  0.000000  0.500000  0.000000  1
  Os  Os33  1  0.500000  0.000000  0.500000  1
  Os  Os34  1  0.000000  0.500000  0.500000  1
  Os  Os35  1  0.500000  0.500000  0.500000  1
  Os  Os36  1  0.000000  0.000000  0.000000  1
  Os  Os37  1  0.000000  0.000000  0.500000  1
