# generated using pymatgen
data_YSc5H18
_symmetry_space_group_name_H-M   'P 1'
_cell_length_a   5.90143542
_cell_length_b   5.90001895
_cell_length_c   6.20789176
_cell_angle_alpha   90.15597559
_cell_angle_beta   89.92202570
_cell_angle_gamma   119.99205337
_symmetry_Int_Tables_number   1
_chemical_formula_structural   YSc5H18
_chemical_formula_sum   'Y1 Sc5 H18'
_cell_volume   187.20566854
_cell_formula_units_Z   1
loop_
 _symmetry_equiv_pos_site_id
 _symmetry_equiv_pos_as_xyz
  1  'x, y, z'
loop_
 _atom_site_type_symbol
 _atom_site_label
 _atom_site_symmetry_multiplicity
 _atom_site_fract_x
 _atom_site_fract_y
 _atom_site_fract_z
 _atom_site_occupancy
  Y  Y0  1  0.000000  0.667969  0.250337  1
  Sc  Sc1  1  0.668810  0.670861  0.750146  1
  Sc  Sc2  1  0.331190  0.002051  0.750146  1
  Sc  Sc3  1  0.000000  0.327114  0.749325  1
  Sc  Sc4  1  0.329960  0.329704  0.249723  1
  Sc  Sc5  1  0.670040  0.999744  0.249723  1
  H  H6  1  0.301804  0.300765  0.591179  1
  H  H7  1  0.698196  0.998961  0.591179  1
  H  H8  1  0.000000  0.702619  0.601279  1
  H  H9  1  0.687732  0.699026  0.084883  1
  H  H10  1  0.312268  0.011295  0.084883  1
  H  H11  1  0.000000  0.301569  0.090188  1
  H  H12  1  0.355777  0.356574  0.908123  1
  H  H13  1  0.644223  0.000797  0.908123  1
  H  H14  1  0.000000  0.642104  0.897837  1
  H  H15  1  0.636131  0.641622  0.411741  1
  H  H16  1  0.363869  0.005492  0.411741  1
  H  H17  1  0.000000  0.343527  0.416068  1
  H  H18  1  0.000000  0.998830  0.814224  1
  H  H19  1  0.000000  0.014331  0.315401  1
  H  H20  1  0.331763  0.666565  0.708367  1
  H  H21  1  0.668237  0.334801  0.708367  1
  H  H22  1  0.651424  0.317551  0.206516  1
  H  H23  1  0.348576  0.666128  0.206516  1
