# generated using pymatgen
data_BaSiPtRh
_symmetry_space_group_name_H-M   'P 1'
_cell_length_a   9.32035982
_cell_length_b   9.32036033
_cell_length_c   4.31358500
_cell_angle_alpha   90.00000000
_cell_angle_beta   90.00000000
_cell_angle_gamma   152.97279557
_symmetry_Int_Tables_number   1
_chemical_formula_structural   BaSiPtRh
_chemical_formula_sum   'Ba2 Si2 Pt2 Rh2'
_cell_volume   170.27660071
_cell_formula_units_Z   2
loop_
 _symmetry_equiv_pos_site_id
 _symmetry_equiv_pos_as_xyz
  1  'x, y, z'
loop_
 _atom_site_type_symbol
 _atom_site_label
 _atom_site_symmetry_multiplicity
 _atom_site_fract_x
 _atom_site_fract_y
 _atom_site_fract_z
 _atom_site_occupancy
  Ba  Ba0  1  0.097835  0.902165  0.750000  1
  Ba  Ba1  1  0.902165  0.097835  0.250000  1
  Si  Si2  1  0.314189  0.685811  0.750000  1
  Si  Si3  1  0.685811  0.314189  0.250000  1
  Pt  Pt4  1  0.551380  0.448620  0.250000  1
  Pt  Pt5  1  0.448620  0.551380  0.750000  1
  Rh  Rh6  1  0.249313  0.750687  0.250000  1
  Rh  Rh7  1  0.750687  0.249313  0.750000  1
