# generated using pymatgen
data_Ti7PdRuPt19
_symmetry_space_group_name_H-M   'P 1'
_cell_length_a   5.58811378
_cell_length_b   5.56507322
_cell_length_c   15.94496906
_cell_angle_alpha   90.02806081
_cell_angle_beta   90.02978137
_cell_angle_gamma   119.81334095
_symmetry_Int_Tables_number   1
_chemical_formula_structural   Ti7PdRuPt19
_chemical_formula_sum   'Ti7 Pd1 Ru1 Pt19'
_cell_volume   430.23328971
_cell_formula_units_Z   1
loop_
 _symmetry_equiv_pos_site_id
 _symmetry_equiv_pos_as_xyz
  1  'x, y, z'
loop_
 _atom_site_type_symbol
 _atom_site_label
 _atom_site_symmetry_multiplicity
 _atom_site_fract_x
 _atom_site_fract_y
 _atom_site_fract_z
 _atom_site_occupancy
  Ti  Ti0  1  0.998965  0.999961  0.720503  1
  Ti  Ti1  1  0.678688  0.338746  0.861349  1
  Ti  Ti2  1  0.321513  0.661328  0.138263  1
  Ti  Ti3  1  0.001758  0.001572  0.280090  1
  Ti  Ti4  1  0.663356  0.330204  0.427885  1
  Ti  Ti5  1  0.999608  0.999520  0.000008  1
  Ti  Ti6  1  0.335718  0.667516  0.571829  1
  Pd  Pd7  1  0.833821  0.666287  0.571434  1
  Ru  Ru8  1  0.000167  0.500744  0.000127  1
  Pt  Pt9  1  0.334136  0.166941  0.570697  1
  Pt  Pt10  1  0.170528  0.336142  0.857955  1
  Pt  Pt11  1  0.166839  0.333417  0.429359  1
  Pt  Pt12  1  0.167253  0.833882  0.428797  1
  Pt  Pt13  1  0.499059  0.001493  0.712976  1
  Pt  Pt14  1  0.665622  0.833417  0.429581  1
  Pt  Pt15  1  0.170325  0.830717  0.857616  1
  Pt  Pt16  1  0.671857  0.834838  0.856560  1
  Pt  Pt17  1  0.828880  0.168252  0.142136  1
  Pt  Pt18  1  0.833245  0.166414  0.571365  1
  Pt  Pt19  1  0.499123  0.497425  0.713320  1
  Pt  Pt20  1  0.327084  0.164808  0.143078  1
  Pt  Pt21  1  0.829199  0.662514  0.142511  1
  Pt  Pt22  1  0.501779  0.503650  0.286610  1
  Pt  Pt23  1  0.500906  0.999596  0.286092  1
  Pt  Pt24  1  0.500039  0.000383  0.999714  1
  Pt  Pt25  1  0.998484  0.499836  0.286777  1
  Pt  Pt26  1  0.001694  0.499763  0.713272  1
  Pt  Pt27  1  0.500355  0.500634  0.000099  1
