# generated using pymatgen
data_La2PuInO7
_symmetry_space_group_name_H-M   'P 1'
_cell_length_a   7.79879226
_cell_length_b   7.79879194
_cell_length_c   7.89322700
_cell_angle_alpha   59.59862043
_cell_angle_beta   59.59862183
_cell_angle_gamma   59.35173680
_symmetry_Int_Tables_number   1
_chemical_formula_structural   La2PuInO7
_chemical_formula_sum   'La4 Pu2 In2 O14'
_cell_volume   335.72647392
_cell_formula_units_Z   2
loop_
 _symmetry_equiv_pos_site_id
 _symmetry_equiv_pos_as_xyz
  1  'x, y, z'
loop_
 _atom_site_type_symbol
 _atom_site_label
 _atom_site_symmetry_multiplicity
 _atom_site_fract_x
 _atom_site_fract_y
 _atom_site_fract_z
 _atom_site_occupancy
  La  La0  1  0.625000  0.125000  0.125000  1
  La  La1  1  0.125000  0.125000  0.125000  1
  La  La2  1  0.125000  0.625000  0.125000  1
  La  La3  1  0.125000  0.125000  0.625000  1
  Pu  Pu4  1  0.625000  0.625000  0.125000  1
  Pu  Pu5  1  0.625000  0.625000  0.625000  1
  In  In6  1  0.625000  0.125000  0.625000  1
  In  In7  1  0.125000  0.625000  0.625000  1
  O  O8  1  0.708242  0.294077  0.280565  1
  O  O9  1  0.710294  0.710294  0.289706  1
  O  O10  1  0.294077  0.708242  0.280565  1
  O  O11  1  0.998681  0.998681  0.001319  1
  O  O12  1  0.708242  0.294077  0.717115  1
  O  O13  1  0.955923  0.541758  0.532885  1
  O  O14  1  0.294077  0.708242  0.717115  1
  O  O15  1  0.541758  0.955923  0.532885  1
  O  O16  1  0.251319  0.251319  0.248681  1
  O  O17  1  0.955923  0.541758  0.969435  1
  O  O18  1  0.539706  0.539706  0.960294  1
  O  O19  1  0.968201  0.968201  0.531799  1
  O  O20  1  0.541758  0.955923  0.969435  1
  O  O21  1  0.281799  0.281799  0.718201  1
