# generated using pymatgen
data_Al2GaCu10
_symmetry_space_group_name_H-M   'P 1'
_cell_length_a   9.40899301
_cell_length_b   9.40937423
_cell_length_c   4.21526400
_cell_angle_alpha   90.00000000
_cell_angle_beta   90.00000000
_cell_angle_gamma   119.99254784
_symmetry_Int_Tables_number   1
_chemical_formula_structural   Al2GaCu10
_chemical_formula_sum   'Al4 Ga2 Cu20'
_cell_volume   323.21529692
_cell_formula_units_Z   2
loop_
 _symmetry_equiv_pos_site_id
 _symmetry_equiv_pos_as_xyz
  1  'x, y, z'
loop_
 _atom_site_type_symbol
 _atom_site_label
 _atom_site_symmetry_multiplicity
 _atom_site_fract_x
 _atom_site_fract_y
 _atom_site_fract_z
 _atom_site_occupancy
  Al  Al0  1  0.363527  0.105727  0.250000  1
  Al  Al1  1  0.893424  0.256697  0.250000  1
  Al  Al2  1  0.742153  0.637319  0.250000  1
  Al  Al3  1  0.637875  0.894843  0.750000  1
  Ga  Ga4  1  0.105778  0.742735  0.750000  1
  Ga  Ga5  1  0.257526  0.363116  0.750000  1
  Cu  Cu6  1  0.334250  0.667181  0.750000  1
  Cu  Cu7  1  0.666623  0.333671  0.250000  1
  Cu  Cu8  1  0.125757  0.177325  0.250000  1
  Cu  Cu9  1  0.821786  0.948106  0.250000  1
  Cu  Cu10  1  0.051931  0.874320  0.250000  1
  Cu  Cu11  1  0.872961  0.821833  0.750000  1
  Cu  Cu12  1  0.178560  0.052326  0.750000  1
  Cu  Cu13  1  0.946702  0.125832  0.750000  1
  Cu  Cu14  1  0.434904  0.411358  0.250000  1
  Cu  Cu15  1  0.588959  0.022795  0.250000  1
  Cu  Cu16  1  0.976492  0.564978  0.250000  1
  Cu  Cu17  1  0.566740  0.589744  0.750000  1
  Cu  Cu18  1  0.412038  0.977679  0.750000  1
  Cu  Cu19  1  0.021942  0.433284  0.750000  1
  Cu  Cu20  1  0.203546  0.487040  0.250000  1
  Cu  Cu21  1  0.513159  0.717349  0.250000  1
  Cu  Cu22  1  0.284116  0.796011  0.250000  1
  Cu  Cu23  1  0.795011  0.512391  0.750000  1
  Cu  Cu24  1  0.487791  0.282540  0.750000  1
  Cu  Cu25  1  0.716451  0.203800  0.750000  1
