# generated using pymatgen
data_LiErTmZnPt2
_symmetry_space_group_name_H-M   'P 1'
_cell_length_a   4.01829000
_cell_length_b   6.94276400
_cell_length_c   8.28773400
_cell_angle_alpha   90.00000000
_cell_angle_beta   90.00000000
_cell_angle_gamma   90.00000000
_symmetry_Int_Tables_number   1
_chemical_formula_structural   LiErTmZnPt2
_chemical_formula_sum   'Li2 Er2 Tm2 Zn2 Pt4'
_cell_volume   231.21152763
_cell_formula_units_Z   2
loop_
 _symmetry_equiv_pos_site_id
 _symmetry_equiv_pos_as_xyz
  1  'x, y, z'
loop_
 _atom_site_type_symbol
 _atom_site_label
 _atom_site_symmetry_multiplicity
 _atom_site_fract_x
 _atom_site_fract_y
 _atom_site_fract_z
 _atom_site_occupancy
  Li  Li0  1  0.250000  0.629613  0.559585  1
  Li  Li1  1  0.250000  0.129613  0.940415  1
  Er  Er2  1  0.250000  0.045461  0.318970  1
  Er  Er3  1  0.250000  0.545461  0.181030  1
  Tm  Tm4  1  0.750000  0.955221  0.685005  1
  Tm  Tm5  1  0.750000  0.455221  0.814995  1
  Zn  Zn6  1  0.750000  0.370645  0.437617  1
  Zn  Zn7  1  0.750000  0.870645  0.062383  1
  Pt  Pt8  1  0.250000  0.246690  0.622267  1
  Pt  Pt9  1  0.250000  0.746690  0.877733  1
  Pt  Pt10  1  0.750000  0.752371  0.377998  1
  Pt  Pt11  1  0.750000  0.252371  0.122002  1
