# generated using pymatgen
data_Tb3Nd(ScSb5)4
_symmetry_space_group_name_H-M   'P 1'
_cell_length_a   4.20149700
_cell_length_b   13.07487328
_cell_length_c   14.24259500
_cell_angle_alpha   78.64461783
_cell_angle_beta   90.00000000
_cell_angle_gamma   90.00000000
_symmetry_Int_Tables_number   1
_chemical_formula_structural   Tb3Nd(ScSb5)4
_chemical_formula_sum   'Tb3 Nd1 Sc4 Sb20'
_cell_volume   767.08759348
_cell_formula_units_Z   1
loop_
 _symmetry_equiv_pos_site_id
 _symmetry_equiv_pos_as_xyz
  1  'x, y, z'
loop_
 _atom_site_type_symbol
 _atom_site_label
 _atom_site_symmetry_multiplicity
 _atom_site_fract_x
 _atom_site_fract_y
 _atom_site_fract_z
 _atom_site_occupancy
  Tb  Tb0  1  0.250000  0.668530  0.575439  1
  Tb  Tb1  1  0.750000  0.331457  0.423357  1
  Tb  Tb2  1  0.250000  0.952969  0.354177  1
  Nd  Nd3  1  0.750000  0.046721  0.646825  1
  Sc  Sc4  1  0.250000  0.398155  0.773204  1
  Sc  Sc5  1  0.750000  0.602708  0.226949  1
  Sc  Sc6  1  0.250000  0.656298  0.859344  1
  Sc  Sc7  1  0.750000  0.342796  0.141192  1
  Sb  Sb8  1  0.250000  0.151804  0.783723  1
  Sb  Sb9  1  0.750000  0.851052  0.218585  1
  Sb  Sb10  1  0.250000  0.144197  0.479192  1
  Sb  Sb11  1  0.750000  0.855722  0.516979  1
  Sb  Sb12  1  0.250000  0.163242  0.159163  1
  Sb  Sb13  1  0.750000  0.835279  0.841364  1
  Sb  Sb14  1  0.250000  0.422218  0.975061  1
  Sb  Sb15  1  0.750000  0.577597  0.025363  1
  Sb  Sb16  1  0.750000  0.028479  0.913542  1
  Sb  Sb17  1  0.250000  0.971364  0.086927  1
  Sb  Sb18  1  0.750000  0.143544  0.313446  1
  Sb  Sb19  1  0.250000  0.853170  0.686655  1
  Sb  Sb20  1  0.750000  0.280864  0.936568  1
  Sb  Sb21  1  0.250000  0.719155  0.063621  1
  Sb  Sb22  1  0.750000  0.291795  0.659959  1
  Sb  Sb23  1  0.250000  0.709961  0.340297  1
  Sb  Sb24  1  0.750000  0.573233  0.742169  1
  Sb  Sb25  1  0.250000  0.426925  0.257683  1
  Sb  Sb26  1  0.750000  0.570592  0.443000  1
  Sb  Sb27  1  0.250000  0.430174  0.556218  1
