# generated using pymatgen
data_NdLu9(InSb2)2
_symmetry_space_group_name_H-M   'P 1'
_cell_length_a   6.37164701
_cell_length_b   8.79765825
_cell_length_c   8.84844076
_cell_angle_alpha   119.81034147
_cell_angle_beta   90.00269605
_cell_angle_gamma   89.99457277
_symmetry_Int_Tables_number   1
_chemical_formula_structural   NdLu9(InSb2)2
_chemical_formula_sum   'Nd1 Lu9 In2 Sb4'
_cell_volume   430.37099623
_cell_formula_units_Z   1
loop_
 _symmetry_equiv_pos_site_id
 _symmetry_equiv_pos_as_xyz
  1  'x, y, z'
loop_
 _atom_site_type_symbol
 _atom_site_label
 _atom_site_symmetry_multiplicity
 _atom_site_fract_x
 _atom_site_fract_y
 _atom_site_fract_z
 _atom_site_occupancy
  Nd  Nd0  1  0.750063  0.239489  0.000000  1
  Lu  Lu1  1  0.499205  0.332945  0.665791  1
  Lu  Lu2  1  0.499205  0.667154  0.334209  1
  Lu  Lu3  1  0.000770  0.667120  0.334187  1
  Lu  Lu4  1  0.000770  0.332933  0.665813  1
  Lu  Lu5  1  0.750034  0.761201  0.758336  1
  Lu  Lu6  1  0.750034  0.002865  0.241664  1
  Lu  Lu7  1  0.249960  0.765412  0.000000  1
  Lu  Lu8  1  0.249984  0.237515  0.244366  1
  Lu  Lu9  1  0.249984  0.993149  0.755634  1
  In  In10  1  0.249979  0.604840  0.605896  1
  In  In11  1  0.249979  0.998944  0.394104  1
  Sb  Sb12  1  0.750007  0.612720  0.000000  1
  Sb  Sb13  1  0.750015  0.396994  0.400644  1
  Sb  Sb14  1  0.750015  0.996349  0.599356  1
  Sb  Sb15  1  0.249997  0.390372  0.000000  1
