# generated using pymatgen
data_YHo(FeOs)2
_symmetry_space_group_name_H-M   'P 1'
_cell_length_a   5.21835320
_cell_length_b   5.27358964
_cell_length_c   5.27358772
_cell_angle_alpha   59.76457749
_cell_angle_beta   60.34586364
_cell_angle_gamma   60.34587894
_symmetry_Int_Tables_number   1
_chemical_formula_structural   YHo(FeOs)2
_chemical_formula_sum   'Y1 Ho1 Fe2 Os2'
_cell_volume   102.96630759
_cell_formula_units_Z   1
loop_
 _symmetry_equiv_pos_site_id
 _symmetry_equiv_pos_as_xyz
  1  'x, y, z'
loop_
 _atom_site_type_symbol
 _atom_site_label
 _atom_site_symmetry_multiplicity
 _atom_site_fract_x
 _atom_site_fract_y
 _atom_site_fract_z
 _atom_site_occupancy
  Y  Y0  1  0.997876  0.002124  0.002124  1
  Ho  Ho1  1  0.252231  0.247769  0.247769  1
  Fe  Fe2  1  0.125371  0.624952  0.624952  1
  Fe  Fe3  1  0.624725  0.624952  0.624952  1
  Os  Os4  1  0.624898  0.625064  0.125138  1
  Os  Os5  1  0.624898  0.125138  0.625064  1
