# generated using pymatgen
data_Er3AlCo2Si
_symmetry_space_group_name_H-M   'P 1'
_cell_length_a   5.41799800
_cell_length_b   7.72925700
_cell_length_c   12.70120600
_cell_angle_alpha   90.00000000
_cell_angle_beta   90.00000000
_cell_angle_gamma   90.00000000
_symmetry_Int_Tables_number   1
_chemical_formula_structural   Er3AlCo2Si
_chemical_formula_sum   'Er12 Al4 Co8 Si4'
_cell_volume   531.88966067
_cell_formula_units_Z   4
loop_
 _symmetry_equiv_pos_site_id
 _symmetry_equiv_pos_as_xyz
  1  'x, y, z'
loop_
 _atom_site_type_symbol
 _atom_site_label
 _atom_site_symmetry_multiplicity
 _atom_site_fract_x
 _atom_site_fract_y
 _atom_site_fract_z
 _atom_site_occupancy
  Er  Er0  1  0.635168  0.254964  0.250000  1
  Er  Er1  1  0.364832  0.745036  0.750000  1
  Er  Er2  1  0.364832  0.754964  0.250000  1
  Er  Er3  1  0.635168  0.245036  0.750000  1
  Er  Er4  1  0.147081  0.397073  0.101201  1
  Er  Er5  1  0.852919  0.602927  0.898799  1
  Er  Er6  1  0.852919  0.602927  0.601201  1
  Er  Er7  1  0.852919  0.897073  0.398799  1
  Er  Er8  1  0.147081  0.397073  0.398799  1
  Er  Er9  1  0.147081  0.102927  0.601201  1
  Er  Er10  1  0.147081  0.102927  0.898799  1
  Er  Er11  1  0.852919  0.897073  0.101201  1
  Al  Al12  1  0.623618  0.250000  0.000000  1
  Al  Al13  1  0.376382  0.750000  0.000000  1
  Al  Al14  1  0.376382  0.750000  0.500000  1
  Al  Al15  1  0.623618  0.250000  0.500000  1
  Co  Co16  1  0.360093  0.029763  0.092071  1
  Co  Co17  1  0.639907  0.970237  0.907929  1
  Co  Co18  1  0.639907  0.970237  0.592071  1
  Co  Co19  1  0.639907  0.529763  0.407929  1
  Co  Co20  1  0.360093  0.029763  0.407929  1
  Co  Co21  1  0.360093  0.470237  0.592071  1
  Co  Co22  1  0.360093  0.470237  0.907929  1
  Co  Co23  1  0.639907  0.529763  0.092071  1
  Si  Si24  1  0.149368  0.103440  0.250000  1
  Si  Si25  1  0.850632  0.896560  0.750000  1
  Si  Si26  1  0.850632  0.603440  0.250000  1
  Si  Si27  1  0.149368  0.396560  0.750000  1
