# generated using pymatgen
data_Yb(FeCl4)2
_symmetry_space_group_name_H-M   'P 1'
_cell_length_a   7.16383400
_cell_length_b   7.39565122
_cell_length_c   13.46972262
_cell_angle_alpha   86.79430916
_cell_angle_beta   90.00000000
_cell_angle_gamma   90.00000000
_symmetry_Int_Tables_number   1
_chemical_formula_structural   Yb(FeCl4)2
_chemical_formula_sum   'Yb2 Fe4 Cl16'
_cell_volume   712.52560945
_cell_formula_units_Z   2
loop_
 _symmetry_equiv_pos_site_id
 _symmetry_equiv_pos_as_xyz
  1  'x, y, z'
loop_
 _atom_site_type_symbol
 _atom_site_label
 _atom_site_symmetry_multiplicity
 _atom_site_fract_x
 _atom_site_fract_y
 _atom_site_fract_z
 _atom_site_occupancy
  Yb  Yb0  1  0.753765  0.074774  0.816311  1
  Yb  Yb1  1  0.246235  0.074774  0.316311  1
  Fe  Fe2  1  0.935553  0.219039  0.579259  1
  Fe  Fe3  1  0.064447  0.219039  0.079259  1
  Fe  Fe4  1  0.568004  0.639480  0.779522  1
  Fe  Fe5  1  0.431996  0.639480  0.279522  1
  Cl  Cl6  1  0.425666  0.614550  0.640934  1
  Cl  Cl7  1  0.574334  0.614550  0.140934  1
  Cl  Cl8  1  0.862429  0.737050  0.759334  1
  Cl  Cl9  1  0.137571  0.737050  0.259334  1
  Cl  Cl10  1  0.938969  0.474420  0.496197  1
  Cl  Cl11  1  0.061031  0.474420  0.996197  1
  Cl  Cl12  1  0.919811  0.004793  0.996077  1
  Cl  Cl13  1  0.080189  0.004793  0.496077  1
  Cl  Cl14  1  0.644982  0.131490  0.620434  1
  Cl  Cl15  1  0.355018  0.131490  0.120434  1
  Cl  Cl16  1  0.566494  0.375783  0.870850  1
  Cl  Cl17  1  0.433506  0.375783  0.370850  1
  Cl  Cl18  1  0.445219  0.866070  0.862842  1
  Cl  Cl19  1  0.554781  0.866070  0.362842  1
  Cl  Cl20  1  0.933728  0.229951  0.230441  1
  Cl  Cl21  1  0.066272  0.229951  0.730441  1
