# generated using pymatgen
data_Rb4(AlAu3)5
_symmetry_space_group_name_H-M   'P 1'
_cell_length_a   5.73610048
_cell_length_b   7.21281995
_cell_length_c   13.72779687
_cell_angle_alpha   88.94824899
_cell_angle_beta   89.87673426
_cell_angle_gamma   90.17269907
_symmetry_Int_Tables_number   1
_chemical_formula_structural   Rb4(AlAu3)5
_chemical_formula_sum   'Rb4 Al5 Au15'
_cell_volume   567.86680237
_cell_formula_units_Z   1
loop_
 _symmetry_equiv_pos_site_id
 _symmetry_equiv_pos_as_xyz
  1  'x, y, z'
loop_
 _atom_site_type_symbol
 _atom_site_label
 _atom_site_symmetry_multiplicity
 _atom_site_fract_x
 _atom_site_fract_y
 _atom_site_fract_z
 _atom_site_occupancy
  Rb  Rb0  1  0.245104  0.107669  0.074293  1
  Rb  Rb1  1  0.266453  0.398795  0.577847  1
  Rb  Rb2  1  0.740194  0.891860  0.923677  1
  Rb  Rb3  1  0.751574  0.601964  0.425496  1
  Al  Al4  1  0.998521  0.901238  0.651802  1
  Al  Al5  1  0.500639  0.604097  0.157021  1
  Al  Al6  1  0.494331  0.100689  0.348118  1
  Al  Al7  1  0.004114  0.395519  0.847411  1
  Al  Al8  1  0.994554  0.102696  0.342223  1
  Au  Au9  1  0.503369  0.383840  0.844212  1
  Au  Au10  1  0.499778  0.892116  0.650012  1
  Au  Au11  1  0.000128  0.612852  0.155472  1
  Au  Au12  1  0.215470  0.097916  0.787917  1
  Au  Au13  1  0.257288  0.382925  0.292246  1
  Au  Au14  1  0.727694  0.899802  0.221534  1
  Au  Au15  1  0.783967  0.601715  0.710434  1
  Au  Au16  1  0.230088  0.703222  0.793493  1
  Au  Au17  1  0.256828  0.804291  0.292296  1
  Au  Au18  1  0.732543  0.295768  0.213791  1
  Au  Au19  1  0.773289  0.205794  0.702069  1
  Au  Au20  1  0.278370  0.584665  0.992531  1
  Au  Au21  1  0.220726  0.925787  0.486296  1
  Au  Au22  1  0.773069  0.415423  0.010077  1
  Au  Au23  1  0.751907  0.089356  0.499733  1
