# generated using pymatgen
data_Th6Sc8Al8Ir7
_symmetry_space_group_name_H-M   'P 1'
_cell_length_a   9.35002957
_cell_length_b   9.35002376
_cell_length_c   9.35007700
_cell_angle_alpha   59.99984129
_cell_angle_beta   59.99980226
_cell_angle_gamma   59.99973863
_symmetry_Int_Tables_number   1
_chemical_formula_structural   Th6Sc8Al8Ir7
_chemical_formula_sum   'Th6 Sc8 Al8 Ir7'
_cell_volume   577.99470621
_cell_formula_units_Z   1
loop_
 _symmetry_equiv_pos_site_id
 _symmetry_equiv_pos_as_xyz
  1  'x, y, z'
loop_
 _atom_site_type_symbol
 _atom_site_label
 _atom_site_symmetry_multiplicity
 _atom_site_fract_x
 _atom_site_fract_y
 _atom_site_fract_z
 _atom_site_occupancy
  Th  Th0  1  0.688212  0.688207  0.311789  1
  Th  Th1  1  0.311788  0.688209  0.311793  1
  Th  Th2  1  0.688212  0.311791  0.311791  1
  Th  Th3  1  0.311788  0.311793  0.688211  1
  Th  Th4  1  0.688212  0.311791  0.688207  1
  Th  Th5  1  0.311788  0.688209  0.688209  1
  Sc  Sc6  1  0.879149  0.879153  0.362547  1
  Sc  Sc7  1  0.879147  0.362544  0.879155  1
  Sc  Sc8  1  0.362547  0.879149  0.879151  1
  Sc  Sc9  1  0.879152  0.879152  0.879152  1
  Sc  Sc10  1  0.120851  0.120847  0.637453  1
  Sc  Sc11  1  0.120853  0.637456  0.120845  1
  Sc  Sc12  1  0.637453  0.120851  0.120849  1
  Sc  Sc13  1  0.120848  0.120848  0.120848  1
  Al  Al14  1  0.670816  0.670818  0.987545  1
  Al  Al15  1  0.670818  0.987544  0.670817  1
  Al  Al16  1  0.987543  0.670820  0.670817  1
  Al  Al17  1  0.670816  0.670820  0.670819  1
  Al  Al18  1  0.329184  0.329182  0.012455  1
  Al  Al19  1  0.329182  0.012456  0.329183  1
  Al  Al20  1  0.012457  0.329180  0.329183  1
  Al  Al21  1  0.329184  0.329180  0.329181  1
  Ir  Ir22  1  0.000000  0.000000  0.000000  1
  Ir  Ir23  1  0.000000  0.000000  0.500000  1
  Ir  Ir24  1  0.500000  0.000000  0.500000  1
  Ir  Ir25  1  0.000000  0.500000  0.500000  1
  Ir  Ir26  1  0.500000  0.500000  0.000000  1
  Ir  Ir27  1  0.000000  0.500000  0.000000  1
  Ir  Ir28  1  0.500000  0.000000  0.000000  1
