# generated using pymatgen
data_K5BiAu2
_symmetry_space_group_name_H-M   'P 1'
_cell_length_a   10.28853737
_cell_length_b   10.28853674
_cell_length_c   10.28853671
_cell_angle_alpha   128.93150344
_cell_angle_beta   128.93149888
_cell_angle_gamma   75.12081211
_symmetry_Int_Tables_number   1
_chemical_formula_structural   K5BiAu2
_chemical_formula_sum   'K10 Bi2 Au4'
_cell_volume   641.64114423
_cell_formula_units_Z   2
loop_
 _symmetry_equiv_pos_site_id
 _symmetry_equiv_pos_as_xyz
  1  'x, y, z'
loop_
 _atom_site_type_symbol
 _atom_site_label
 _atom_site_symmetry_multiplicity
 _atom_site_fract_x
 _atom_site_fract_y
 _atom_site_fract_z
 _atom_site_occupancy
  K  K0  1  0.500000  0.500000  0.000000  1
  K  K1  1  0.000000  0.000000  0.000000  1
  K  K2  1  0.533358  0.033358  0.852357  1
  K  K3  1  0.181000  0.681000  0.147643  1
  K  K4  1  0.033358  0.181000  0.500000  1
  K  K5  1  0.681000  0.533358  0.500000  1
  K  K6  1  0.466642  0.966642  0.147643  1
  K  K7  1  0.819000  0.319000  0.852357  1
  K  K8  1  0.966642  0.819000  0.500000  1
  K  K9  1  0.319000  0.466642  0.500000  1
  Bi  Bi10  1  0.250000  0.250000  0.000000  1
  Bi  Bi11  1  0.750000  0.750000  0.000000  1
  Au  Au12  1  0.116196  0.616196  0.732392  1
  Au  Au13  1  0.883804  0.383804  0.267608  1
  Au  Au14  1  0.616196  0.883804  0.500000  1
  Au  Au15  1  0.383804  0.116196  0.500000  1
