# generated using pymatgen
data_Fe(IrS4)2
_symmetry_space_group_name_H-M   'P 1'
_cell_length_a   5.60444640
_cell_length_b   5.62309148
_cell_length_c   5.61670283
_cell_angle_alpha   89.82077986
_cell_angle_beta   89.73787110
_cell_angle_gamma   89.39568335
_symmetry_Int_Tables_number   1
_chemical_formula_structural   Fe(IrS4)2
_chemical_formula_sum   'Fe1 Ir2 S8'
_cell_volume   176.99400379
_cell_formula_units_Z   1
loop_
 _symmetry_equiv_pos_site_id
 _symmetry_equiv_pos_as_xyz
  1  'x, y, z'
loop_
 _atom_site_type_symbol
 _atom_site_label
 _atom_site_symmetry_multiplicity
 _atom_site_fract_x
 _atom_site_fract_y
 _atom_site_fract_z
 _atom_site_occupancy
  Fe  Fe0  1  0.000000  0.500000  0.500000  1
  Ir  Ir1  1  0.500000  0.000000  0.500000  1
  Ir  Ir2  1  0.500000  0.500000  0.000000  1
  S  S3  1  0.388310  0.893336  0.107041  1
  S  S4  1  0.104455  0.397223  0.879529  1
  S  S5  1  0.895228  0.119612  0.396870  1
  S  S6  1  0.611690  0.106664  0.892959  1
  S  S7  1  0.895545  0.602777  0.120471  1
  S  S8  1  0.104772  0.880388  0.603130  1
  S  S9  1  0.627531  0.610058  0.610201  1
  S  S10  1  0.372469  0.389942  0.389799  1
