# generated using pymatgen
data_LuTh3(NiAs)4
_symmetry_space_group_name_H-M   'P 1'
_cell_length_a   4.11042500
_cell_length_b   4.11042571
_cell_length_c   15.71929700
_cell_angle_alpha   90.00000000
_cell_angle_beta   90.00000000
_cell_angle_gamma   120.00000234
_symmetry_Int_Tables_number   1
_chemical_formula_structural   LuTh3(NiAs)4
_chemical_formula_sum   'Lu1 Th3 Ni4 As4'
_cell_volume   230.00499761
_cell_formula_units_Z   1
loop_
 _symmetry_equiv_pos_site_id
 _symmetry_equiv_pos_as_xyz
  1  'x, y, z'
loop_
 _atom_site_type_symbol
 _atom_site_label
 _atom_site_symmetry_multiplicity
 _atom_site_fract_x
 _atom_site_fract_y
 _atom_site_fract_z
 _atom_site_occupancy
  Lu  Lu0  1  0.000000  0.000000  0.250000  1
  Th  Th1  1  0.000000  0.000000  0.750000  1
  Th  Th2  1  0.000000  0.000000  0.006851  1
  Th  Th3  1  0.000000  0.000000  0.493149  1
  Ni  Ni4  1  0.333333  0.666667  0.148619  1
  Ni  Ni5  1  0.666667  0.333333  0.878112  1
  Ni  Ni6  1  0.666667  0.333333  0.621888  1
  Ni  Ni7  1  0.333333  0.666667  0.351381  1
  As  As8  1  0.333333  0.666667  0.621213  1
  As  As9  1  0.666667  0.333333  0.371287  1
  As  As10  1  0.666667  0.333333  0.128713  1
  As  As11  1  0.333333  0.666667  0.878787  1
