# generated using pymatgen
data_CeTh2BiSb3
_symmetry_space_group_name_H-M   'P 1'
_cell_length_a   8.20900454
_cell_length_b   8.20040684
_cell_length_c   8.22626716
_cell_angle_alpha   109.35963968
_cell_angle_beta   109.58018055
_cell_angle_gamma   109.33235273
_symmetry_Int_Tables_number   1
_chemical_formula_structural   CeTh2BiSb3
_chemical_formula_sum   'Ce2 Th4 Bi2 Sb6'
_cell_volume   427.03258748
_cell_formula_units_Z   2
loop_
 _symmetry_equiv_pos_site_id
 _symmetry_equiv_pos_as_xyz
  1  'x, y, z'
loop_
 _atom_site_type_symbol
 _atom_site_label
 _atom_site_symmetry_multiplicity
 _atom_site_fract_x
 _atom_site_fract_y
 _atom_site_fract_z
 _atom_site_occupancy
  Ce  Ce0  1  0.623308  0.372696  0.241442  1
  Ce  Ce1  1  0.240852  0.619897  0.372586  1
  Th  Th2  1  0.756026  0.877140  0.127354  1
  Th  Th3  1  0.127604  0.749329  0.871730  1
  Th  Th4  1  0.368669  0.247258  0.628806  1
  Th  Th5  1  0.883769  0.133654  0.759135  1
  Bi  Bi6  1  0.499261  0.998528  0.342863  1
  Bi  Bi7  1  0.655763  0.656487  0.651305  1
  Sb  Sb8  1  0.163260  0.159601  0.162320  1
  Sb  Sb9  1  0.501587  0.999626  0.839852  1
  Sb  Sb10  1  0.840760  0.501685  0.998437  1
  Sb  Sb11  1  0.996672  0.838598  0.499048  1
  Sb  Sb12  1  0.345254  0.505053  0.006739  1
  Sb  Sb13  1  0.997215  0.340449  0.498382  1
