# generated using pymatgen
data_ErZr(Sn2Rh5)2
_symmetry_space_group_name_H-M   'P 1'
_cell_length_a   5.63611907
_cell_length_b   5.63611912
_cell_length_c   8.52097445
_cell_angle_alpha   89.97061742
_cell_angle_beta   89.97062292
_cell_angle_gamma   99.18178492
_symmetry_Int_Tables_number   1
_chemical_formula_structural   ErZr(Sn2Rh5)2
_chemical_formula_sum   'Er1 Zr1 Sn4 Rh10'
_cell_volume   267.20765543
_cell_formula_units_Z   1
loop_
 _symmetry_equiv_pos_site_id
 _symmetry_equiv_pos_as_xyz
  1  'x, y, z'
loop_
 _atom_site_type_symbol
 _atom_site_label
 _atom_site_symmetry_multiplicity
 _atom_site_fract_x
 _atom_site_fract_y
 _atom_site_fract_z
 _atom_site_occupancy
  Er  Er0  1  0.781727  0.218273  0.500000  1
  Zr  Zr1  1  0.784718  0.215282  0.000000  1
  Sn  Sn2  1  0.514187  0.485196  0.750330  1
  Sn  Sn3  1  0.514804  0.485813  0.249670  1
  Sn  Sn4  1  0.208580  0.791420  0.000000  1
  Sn  Sn5  1  0.207983  0.792017  0.500000  1
  Rh  Rh6  1  0.718075  0.721868  0.999866  1
  Rh  Rh7  1  0.719942  0.722153  0.500176  1
  Rh  Rh8  1  0.278132  0.281925  0.000134  1
  Rh  Rh9  1  0.277847  0.280058  0.499824  1
  Rh  Rh10  1  0.487814  0.976962  0.754498  1
  Rh  Rh11  1  0.487852  0.977199  0.245479  1
  Rh  Rh12  1  0.986218  0.013717  0.243863  1
  Rh  Rh13  1  0.986283  0.013782  0.756137  1
  Rh  Rh14  1  0.022801  0.512148  0.754521  1
  Rh  Rh15  1  0.023038  0.512186  0.245502  1
