# generated using pymatgen
data_YHo2As4Pd7
_symmetry_space_group_name_H-M   'P 1'
_cell_length_a   8.10377880
_cell_length_b   8.10377835
_cell_length_c   9.64616395
_cell_angle_alpha   55.66927581
_cell_angle_beta   55.66927809
_cell_angle_gamma   29.50220686
_symmetry_Int_Tables_number   1
_chemical_formula_structural   YHo2As4Pd7
_chemical_formula_sum   'Y1 Ho2 As4 Pd7'
_cell_volume   253.41576799
_cell_formula_units_Z   1
loop_
 _symmetry_equiv_pos_site_id
 _symmetry_equiv_pos_as_xyz
  1  'x, y, z'
loop_
 _atom_site_type_symbol
 _atom_site_label
 _atom_site_symmetry_multiplicity
 _atom_site_fract_x
 _atom_site_fract_y
 _atom_site_fract_z
 _atom_site_occupancy
  Y  Y0  1  0.000000  0.000000  0.000000  1
  Ho  Ho1  1  0.677262  0.677262  0.328703  1
  Ho  Ho2  1  0.322738  0.322738  0.671297  1
  As  As3  1  0.340697  0.340697  0.251163  1
  As  As4  1  0.659303  0.659303  0.748837  1
  As  As5  1  0.893868  0.893868  0.822216  1
  As  As6  1  0.106132  0.106132  0.177784  1
  Pd  Pd7  1  0.305748  0.305748  0.026051  1
  Pd  Pd8  1  0.694252  0.694252  0.973949  1
  Pd  Pd9  1  0.512563  0.512563  0.704682  1
  Pd  Pd10  1  0.831768  0.831768  0.429293  1
  Pd  Pd11  1  0.487437  0.487437  0.295318  1
  Pd  Pd12  1  0.168232  0.168232  0.570707  1
  Pd  Pd13  1  0.000000  0.000000  0.500000  1
