# generated using pymatgen
data_MnAg6Pt2F18
_symmetry_space_group_name_H-M   'P 1'
_cell_length_a   9.85393000
_cell_length_b   9.85392989
_cell_length_c   5.30498100
_cell_angle_alpha   90.00000000
_cell_angle_beta   90.00000000
_cell_angle_gamma   120.00000709
_symmetry_Int_Tables_number   1
_chemical_formula_structural   MnAg6Pt2F18
_chemical_formula_sum   'Mn1 Ag6 Pt2 F18'
_cell_volume   446.10118220
_cell_formula_units_Z   1
loop_
 _symmetry_equiv_pos_site_id
 _symmetry_equiv_pos_as_xyz
  1  'x, y, z'
loop_
 _atom_site_type_symbol
 _atom_site_label
 _atom_site_symmetry_multiplicity
 _atom_site_fract_x
 _atom_site_fract_y
 _atom_site_fract_z
 _atom_site_occupancy
  Mn  Mn0  1  0.000000  0.000000  0.500000  1
  Ag  Ag1  1  0.000000  0.633449  0.500000  1
  Ag  Ag2  1  0.633449  0.000000  0.500000  1
  Ag  Ag3  1  0.366551  0.366551  0.500000  1
  Ag  Ag4  1  0.286733  0.000000  0.000000  1
  Ag  Ag5  1  0.713267  0.713267  0.000000  1
  Ag  Ag6  1  0.000000  0.286733  0.000000  1
  Pt  Pt7  1  0.333333  0.666667  0.003363  1
  Pt  Pt8  1  0.666667  0.333333  0.996637  1
  F  F9  1  0.084625  0.902785  0.301626  1
  F  F10  1  0.818159  0.915375  0.301626  1
  F  F11  1  0.097215  0.181841  0.301626  1
  F  F12  1  0.915375  0.818159  0.698374  1
  F  F13  1  0.902785  0.084625  0.698374  1
  F  F14  1  0.181841  0.097215  0.698374  1
  F  F15  1  0.222447  0.747618  0.792374  1
  F  F16  1  0.525172  0.777553  0.792374  1
  F  F17  1  0.252382  0.474828  0.792374  1
  F  F18  1  0.777553  0.525172  0.207626  1
  F  F19  1  0.747618  0.222447  0.207626  1
  F  F20  1  0.474828  0.252382  0.207626  1
  F  F21  1  0.409364  0.858034  0.214030  1
  F  F22  1  0.448671  0.590636  0.214030  1
  F  F23  1  0.141966  0.551329  0.214030  1
  F  F24  1  0.590636  0.448671  0.785970  1
  F  F25  1  0.858034  0.409364  0.785970  1
  F  F26  1  0.551329  0.141966  0.785970  1
