# generated using pymatgen
data_Dy4Si7Tc16Ge
_symmetry_space_group_name_H-M   'P 1'
_cell_length_a   4.18432400
_cell_length_b   7.28716808
_cell_length_c   15.46901200
_cell_angle_alpha   90.00871958
_cell_angle_beta   90.00000000
_cell_angle_gamma   90.00000000
_symmetry_Int_Tables_number   1
_chemical_formula_structural   Dy4Si7Tc16Ge
_chemical_formula_sum   'Dy4 Si7 Tc16 Ge1'
_cell_volume   471.67913317
_cell_formula_units_Z   1
loop_
 _symmetry_equiv_pos_site_id
 _symmetry_equiv_pos_as_xyz
  1  'x, y, z'
loop_
 _atom_site_type_symbol
 _atom_site_label
 _atom_site_symmetry_multiplicity
 _atom_site_fract_x
 _atom_site_fract_y
 _atom_site_fract_z
 _atom_site_occupancy
  Dy  Dy0  1  0.000000  0.581616  0.116579  1
  Dy  Dy1  1  0.000000  0.416573  0.883386  1
  Dy  Dy2  1  0.500000  0.086735  0.381867  1
  Dy  Dy3  1  0.500000  0.919679  0.619330  1
  Si  Si4  1  0.000000  0.178958  0.525939  1
  Si  Si5  1  0.500000  0.327277  0.024502  1
  Si  Si6  1  0.500000  0.670862  0.975422  1
  Si  Si7  1  0.000000  0.293071  0.272271  1
  Si  Si8  1  0.000000  0.704915  0.726797  1
  Si  Si9  1  0.500000  0.792352  0.226474  1
  Si  Si10  1  0.500000  0.206182  0.774195  1
  Tc  Tc11  1  0.000000  0.139003  0.052186  1
  Tc  Tc12  1  0.000000  0.858995  0.948051  1
  Tc  Tc13  1  0.500000  0.636073  0.446143  1
  Tc  Tc14  1  0.500000  0.361285  0.552180  1
  Tc  Tc15  1  0.000000  0.729859  0.319140  1
  Tc  Tc16  1  0.000000  0.269156  0.680728  1
  Tc  Tc17  1  0.500000  0.230238  0.179023  1
  Tc  Tc18  1  0.500000  0.767769  0.820530  1
  Tc  Tc19  1  0.000000  0.433424  0.417991  1
  Tc  Tc20  1  0.000000  0.563461  0.581122  1
  Tc  Tc21  1  0.500000  0.933490  0.081142  1
  Tc  Tc22  1  0.500000  0.064063  0.919069  1
  Tc  Tc23  1  0.000000  0.987835  0.205644  1
  Tc  Tc24  1  0.000000  0.009377  0.794284  1
  Tc  Tc25  1  0.500000  0.487719  0.292900  1
  Tc  Tc26  1  0.500000  0.510055  0.706509  1
  Ge  Ge27  1  0.000000  0.839977  0.476596  1
