# generated using pymatgen
data_Dy2Ho2Lu(CoB3)2
_symmetry_space_group_name_H-M   'P 1'
_cell_length_a   5.39006662
_cell_length_b   5.39006652
_cell_length_c   8.24351400
_cell_angle_alpha   70.91759547
_cell_angle_beta   70.91759585
_cell_angle_gamma   60.00002079
_symmetry_Int_Tables_number   1
_chemical_formula_structural   Dy2Ho2Lu(CoB3)2
_chemical_formula_sum   'Dy2 Ho2 Lu1 Co2 B6'
_cell_volume   192.06408007
_cell_formula_units_Z   1
loop_
 _symmetry_equiv_pos_site_id
 _symmetry_equiv_pos_as_xyz
  1  'x, y, z'
loop_
 _atom_site_type_symbol
 _atom_site_label
 _atom_site_symmetry_multiplicity
 _atom_site_fract_x
 _atom_site_fract_y
 _atom_site_fract_z
 _atom_site_occupancy
  Dy  Dy0  1  0.252893  0.252893  0.241322  1
  Dy  Dy1  1  0.747107  0.747107  0.758678  1
  Ho  Ho2  1  0.415458  0.415458  0.753625  1
  Ho  Ho3  1  0.584542  0.584542  0.246375  1
  Lu  Lu4  1  0.000000  0.000000  0.000000  1
  Co  Co5  1  0.119082  0.119082  0.642755  1
  Co  Co6  1  0.880918  0.880918  0.357245  1
  B  B7  1  0.168628  0.831372  0.500000  1
  B  B8  1  0.831372  0.500000  0.500000  1
  B  B9  1  0.500000  0.168628  0.500000  1
  B  B10  1  0.168628  0.500000  0.500000  1
  B  B11  1  0.500000  0.831372  0.500000  1
  B  B12  1  0.831372  0.168628  0.500000  1
