# generated using pymatgen
data_YbDySc2(Ga3Ir)6
_symmetry_space_group_name_H-M   'P 1'
_cell_length_a   7.52273255
_cell_length_b   7.53470663
_cell_length_c   9.47606800
_cell_angle_alpha   90.00000000
_cell_angle_beta   90.00000000
_cell_angle_gamma   119.77381644
_symmetry_Int_Tables_number   1
_chemical_formula_structural   YbDySc2(Ga3Ir)6
_chemical_formula_sum   'Yb1 Dy1 Sc2 Ga18 Ir6'
_cell_volume   466.21484430
_cell_formula_units_Z   1
loop_
 _symmetry_equiv_pos_site_id
 _symmetry_equiv_pos_as_xyz
  1  'x, y, z'
loop_
 _atom_site_type_symbol
 _atom_site_label
 _atom_site_symmetry_multiplicity
 _atom_site_fract_x
 _atom_site_fract_y
 _atom_site_fract_z
 _atom_site_occupancy
  Yb  Yb0  1  0.996619  0.668575  0.250000  1
  Dy  Dy1  1  0.668722  0.997483  0.250000  1
  Sc  Sc2  1  0.999680  0.330707  0.750000  1
  Sc  Sc3  1  0.330035  0.999105  0.750000  1
  Ga  Ga4  1  0.127815  0.128790  0.250000  1
  Ga  Ga5  1  0.877752  0.876963  0.750000  1
  Ga  Ga6  1  0.001678  0.336761  0.076732  1
  Ga  Ga7  1  0.003768  0.664843  0.914865  1
  Ga  Ga8  1  0.003768  0.664843  0.585135  1
  Ga  Ga9  1  0.333117  0.999663  0.424150  1
  Ga  Ga10  1  0.001678  0.336761  0.423268  1
  Ga  Ga11  1  0.665221  0.004581  0.587019  1
  Ga  Ga12  1  0.665221  0.004581  0.912981  1
  Ga  Ga13  1  0.333117  0.999663  0.075850  1
  Ga  Ga14  1  0.328713  0.328575  0.573335  1
  Ga  Ga15  1  0.668645  0.666830  0.440404  1
  Ga  Ga16  1  0.668645  0.666830  0.059596  1
  Ga  Ga17  1  0.328713  0.328575  0.926665  1
  Ga  Ga18  1  0.338904  0.546105  0.250000  1
  Ga  Ga19  1  0.661157  0.448646  0.750000  1
  Ga  Ga20  1  0.544872  0.336470  0.250000  1
  Ga  Ga21  1  0.448251  0.660368  0.750000  1
  Ir  Ir22  1  0.671475  0.328835  0.998815  1
  Ir  Ir23  1  0.330037  0.672299  0.998631  1
  Ir  Ir24  1  0.330037  0.672299  0.501369  1
  Ir  Ir25  1  0.671475  0.328835  0.501185  1
  Ir  Ir26  1  0.000442  0.001007  0.998239  1
  Ir  Ir27  1  0.000442  0.001007  0.501761  1
