# generated using pymatgen
data_Th2Al16(Ir2Pt)3
_symmetry_space_group_name_H-M   'P 1'
_cell_length_a   11.09605501
_cell_length_b   11.10226782
_cell_length_c   11.10226716
_cell_angle_alpha   158.25750914
_cell_angle_beta   117.80611048
_cell_angle_gamma   66.71535841
_symmetry_Int_Tables_number   1
_chemical_formula_structural   Th2Al16(Ir2Pt)3
_chemical_formula_sum   'Th2 Al16 Ir6 Pt3'
_cell_volume   445.12123269
_cell_formula_units_Z   1
loop_
 _symmetry_equiv_pos_site_id
 _symmetry_equiv_pos_as_xyz
  1  'x, y, z'
loop_
 _atom_site_type_symbol
 _atom_site_label
 _atom_site_symmetry_multiplicity
 _atom_site_fract_x
 _atom_site_fract_y
 _atom_site_fract_z
 _atom_site_occupancy
  Th  Th0  1  0.232422  0.233692  0.998730  1
  Th  Th1  1  0.773266  0.768229  0.005037  1
  Al  Al2  1  0.274234  0.397984  0.876250  1
  Al  Al3  1  0.084521  0.915143  0.169379  1
  Al  Al4  1  0.513279  0.203153  0.310128  1
  Al  Al5  1  0.256048  0.083213  0.172835  1
  Al  Al6  1  0.918281  0.416282  0.501999  1
  Al  Al7  1  0.721897  0.600735  0.121163  1
  Al  Al8  1  0.895196  0.203338  0.691858  1
  Al  Al9  1  0.489682  0.797802  0.691878  1
  Al  Al10  1  0.379848  0.999430  0.380418  1
  Al  Al11  1  0.618513  0.999567  0.618947  1
  Al  Al12  1  0.479950  0.600531  0.879419  1
  Al  Al13  1  0.102047  0.797593  0.304455  1
  Al  Al14  1  0.911106  0.082987  0.828118  1
  Al  Al15  1  0.747333  0.916994  0.830338  1
  Al  Al16  1  0.519078  0.399366  0.119712  1
  Al  Al17  1  0.084477  0.583355  0.501123  1
  Ir  Ir18  1  0.784022  0.499654  0.284368  1
  Ir  Ir19  1  0.020116  0.337629  0.682487  1
  Ir  Ir20  1  0.621175  0.121103  0.500072  1
  Ir  Ir21  1  0.214300  0.500485  0.713815  1
  Ir  Ir22  1  0.377189  0.877542  0.499646  1
  Ir  Ir23  1  0.001356  0.001063  0.000293  1
  Pt  Pt24  1  0.653486  0.337912  0.315573  1
  Pt  Pt25  1  0.347720  0.663047  0.684674  1
  Pt  Pt26  1  0.979456  0.662171  0.317285  1
