# generated using pymatgen
data_TbTiP3Rh4
_symmetry_space_group_name_H-M   'P 1'
_cell_length_a   3.91046700
_cell_length_b   11.00578100
_cell_length_c   12.63266600
_cell_angle_alpha   90.00000000
_cell_angle_beta   90.00000000
_cell_angle_gamma   90.00000000
_symmetry_Int_Tables_number   1
_chemical_formula_structural   TbTiP3Rh4
_chemical_formula_sum   'Tb4 Ti4 P12 Rh16'
_cell_volume   543.68143789
_cell_formula_units_Z   4
loop_
 _symmetry_equiv_pos_site_id
 _symmetry_equiv_pos_as_xyz
  1  'x, y, z'
loop_
 _atom_site_type_symbol
 _atom_site_label
 _atom_site_symmetry_multiplicity
 _atom_site_fract_x
 _atom_site_fract_y
 _atom_site_fract_z
 _atom_site_occupancy
  Tb  Tb0  1  0.250000  0.580859  0.706057  1
  Tb  Tb1  1  0.250000  0.919141  0.206057  1
  Tb  Tb2  1  0.750000  0.419141  0.293943  1
  Tb  Tb3  1  0.750000  0.080859  0.793943  1
  Ti  Ti4  1  0.250000  0.705617  0.990121  1
  Ti  Ti5  1  0.250000  0.794383  0.490121  1
  Ti  Ti6  1  0.750000  0.294383  0.009879  1
  Ti  Ti7  1  0.750000  0.205617  0.509879  1
  P  P8  1  0.250000  0.419987  0.116532  1
  P  P9  1  0.250000  0.080013  0.616532  1
  P  P10  1  0.750000  0.580013  0.883468  1
  P  P11  1  0.750000  0.919987  0.383468  1
  P  P12  1  0.250000  0.262605  0.866652  1
  P  P13  1  0.250000  0.237395  0.366652  1
  P  P14  1  0.750000  0.737395  0.133348  1
  P  P15  1  0.750000  0.762605  0.633348  1
  P  P16  1  0.250000  0.595262  0.391078  1
  P  P17  1  0.250000  0.904738  0.891078  1
  P  P18  1  0.750000  0.404738  0.608922  1
  P  P19  1  0.750000  0.095262  0.108922  1
  Rh  Rh20  1  0.250000  0.405978  0.486761  1
  Rh  Rh21  1  0.250000  0.094022  0.986761  1
  Rh  Rh22  1  0.750000  0.594022  0.513239  1
  Rh  Rh23  1  0.750000  0.905978  0.013239  1
  Rh  Rh24  1  0.250000  0.227711  0.179127  1
  Rh  Rh25  1  0.250000  0.272289  0.679127  1
  Rh  Rh26  1  0.750000  0.772289  0.820873  1
  Rh  Rh27  1  0.750000  0.727711  0.320873  1
  Rh  Rh28  1  0.250000  0.888709  0.703312  1
  Rh  Rh29  1  0.250000  0.611291  0.203312  1
  Rh  Rh30  1  0.750000  0.111291  0.296688  1
  Rh  Rh31  1  0.750000  0.388709  0.796688  1
  Rh  Rh32  1  0.250000  0.461387  0.933591  1
  Rh  Rh33  1  0.250000  0.038613  0.433591  1
  Rh  Rh34  1  0.750000  0.538613  0.066409  1
  Rh  Rh35  1  0.750000  0.961387  0.566409  1
