# generated using pymatgen
data_KEr(PS3)2
_symmetry_space_group_name_H-M   'P 1'
_cell_length_a   7.34532600
_cell_length_b   6.52759719
_cell_length_c   10.19983292
_cell_angle_alpha   86.69194144
_cell_angle_beta   90.00000000
_cell_angle_gamma   90.00000000
_symmetry_Int_Tables_number   1
_chemical_formula_structural   KEr(PS3)2
_chemical_formula_sum   'K2 Er2 P4 S12'
_cell_volume   488.23984190
_cell_formula_units_Z   2
loop_
 _symmetry_equiv_pos_site_id
 _symmetry_equiv_pos_as_xyz
  1  'x, y, z'
loop_
 _atom_site_type_symbol
 _atom_site_label
 _atom_site_symmetry_multiplicity
 _atom_site_fract_x
 _atom_site_fract_y
 _atom_site_fract_z
 _atom_site_occupancy
  K  K0  1  0.475329  0.693818  0.501204  1
  K  K1  1  0.975329  0.306182  0.498796  1
  Er  Er2  1  0.202990  0.217801  0.997894  1
  Er  Er3  1  0.702990  0.782199  0.002106  1
  P  P4  1  0.686757  0.329300  0.834596  1
  P  P5  1  0.962203  0.800044  0.284129  1
  P  P6  1  0.186757  0.670700  0.165404  1
  P  P7  1  0.462203  0.199956  0.715871  1
  S  S8  1  0.775656  0.600361  0.755192  1
  S  S9  1  0.546674  0.170917  0.533087  1
  S  S10  1  0.757050  0.599772  0.261475  1
  S  S11  1  0.564779  0.375840  0.012704  1
  S  S12  1  0.397006  0.947050  0.838161  1
  S  S13  1  0.257050  0.400228  0.738525  1
  S  S14  1  0.064779  0.624160  0.987296  1
  S  S15  1  0.897006  0.052950  0.161839  1
  S  S16  1  0.046674  0.829083  0.466913  1
  S  S17  1  0.380447  0.900321  0.155946  1
  S  S18  1  0.880447  0.099679  0.844054  1
  S  S19  1  0.275656  0.399639  0.244808  1
