# generated using pymatgen
data_Nd2Dy7Ho(In2Pt)4
_symmetry_space_group_name_H-M   'P 1'
_cell_length_a   3.64182900
_cell_length_b   8.21252607
_cell_length_c   18.42298116
_cell_angle_alpha   90.01504394
_cell_angle_beta   90.00000000
_cell_angle_gamma   90.00000000
_symmetry_Int_Tables_number   1
_chemical_formula_structural   Nd2Dy7Ho(In2Pt)4
_chemical_formula_sum   'Nd2 Dy7 Ho1 In8 Pt4'
_cell_volume   551.00584283
_cell_formula_units_Z   1
loop_
 _symmetry_equiv_pos_site_id
 _symmetry_equiv_pos_as_xyz
  1  'x, y, z'
loop_
 _atom_site_type_symbol
 _atom_site_label
 _atom_site_symmetry_multiplicity
 _atom_site_fract_x
 _atom_site_fract_y
 _atom_site_fract_z
 _atom_site_occupancy
  Nd  Nd0  1  0.000000  0.000003  0.000006  1
  Nd  Nd1  1  0.000000  0.499995  0.499996  1
  Dy  Dy2  1  0.000000  0.118698  0.414019  1
  Dy  Dy3  1  0.000000  0.881279  0.585970  1
  Dy  Dy4  1  0.000000  0.381276  0.914033  1
  Dy  Dy5  1  0.000000  0.618725  0.085988  1
  Dy  Dy6  1  0.000000  0.242359  0.219938  1
  Dy  Dy7  1  0.000000  0.757641  0.780061  1
  Dy  Dy8  1  0.000000  0.257649  0.719938  1
  Ho  Ho9  1  0.000000  0.742416  0.280025  1
  In  In10  1  0.500000  0.422087  0.348502  1
  In  In11  1  0.500000  0.577971  0.651486  1
  In  In12  1  0.500000  0.077972  0.848516  1
  In  In13  1  0.500000  0.921984  0.151517  1
  In  In14  1  0.500000  0.298459  0.067743  1
  In  In15  1  0.500000  0.701551  0.932258  1
  In  In16  1  0.500000  0.201553  0.567744  1
  In  In17  1  0.500000  0.798428  0.432220  1
  Pt  Pt18  1  0.500000  0.024119  0.303485  1
  Pt  Pt19  1  0.500000  0.975684  0.696497  1
  Pt  Pt20  1  0.500000  0.475682  0.803501  1
  Pt  Pt21  1  0.500000  0.524468  0.196557  1
