# generated using pymatgen
data_CaPr16Hg3Rh4
_symmetry_space_group_name_H-M   'P 1'
_cell_length_a   10.09845359
_cell_length_b   10.09845319
_cell_length_c   10.09845291
_cell_angle_alpha   60.12426651
_cell_angle_beta   60.12426749
_cell_angle_gamma   60.12426891
_symmetry_Int_Tables_number   1
_chemical_formula_structural   CaPr16Hg3Rh4
_chemical_formula_sum   'Ca1 Pr16 Hg3 Rh4'
_cell_volume   730.24821558
_cell_formula_units_Z   1
loop_
 _symmetry_equiv_pos_site_id
 _symmetry_equiv_pos_as_xyz
  1  'x, y, z'
loop_
 _atom_site_type_symbol
 _atom_site_label
 _atom_site_symmetry_multiplicity
 _atom_site_fract_x
 _atom_site_fract_y
 _atom_site_fract_z
 _atom_site_occupancy
  Ca  Ca0  1  0.563350  0.563350  0.563350  1
  Pr  Pr1  1  0.350716  0.350716  0.350716  1
  Pr  Pr2  1  0.345898  0.345898  0.962509  1
  Pr  Pr3  1  0.345898  0.962509  0.345898  1
  Pr  Pr4  1  0.962509  0.345898  0.345898  1
  Pr  Pr5  1  0.809074  0.193332  0.193332  1
  Pr  Pr6  1  0.183425  0.815927  0.815926  1
  Pr  Pr7  1  0.193332  0.809074  0.193331  1
  Pr  Pr8  1  0.815926  0.183425  0.815926  1
  Pr  Pr9  1  0.193332  0.193332  0.809074  1
  Pr  Pr10  1  0.815927  0.815927  0.183424  1
  Pr  Pr11  1  0.937282  0.563570  0.563570  1
  Pr  Pr12  1  0.562182  0.939259  0.939259  1
  Pr  Pr13  1  0.563570  0.937282  0.563570  1
  Pr  Pr14  1  0.939259  0.562182  0.939259  1
  Pr  Pr15  1  0.563570  0.563570  0.937282  1
  Pr  Pr16  1  0.939259  0.939259  0.562182  1
  Hg  Hg17  1  0.589132  0.589132  0.231759  1
  Hg  Hg18  1  0.589132  0.231759  0.589132  1
  Hg  Hg19  1  0.231759  0.589132  0.589132  1
  Rh  Rh20  1  0.142962  0.142962  0.142962  1
  Rh  Rh21  1  0.143814  0.143814  0.574875  1
  Rh  Rh22  1  0.143814  0.574875  0.143814  1
  Rh  Rh23  1  0.574875  0.143814  0.143814  1
