# generated using pymatgen
data_Tm2Zn14CoNi2
_symmetry_space_group_name_H-M   'P 1'
_cell_length_a   6.63600850
_cell_length_b   6.63667471
_cell_length_c   6.65551562
_cell_angle_alpha   82.67951515
_cell_angle_beta   97.29095544
_cell_angle_gamma   96.82905482
_symmetry_Int_Tables_number   1
_chemical_formula_structural   Tm2Zn14CoNi2
_chemical_formula_sum   'Tm2 Zn14 Co1 Ni2'
_cell_volume   286.79925074
_cell_formula_units_Z   1
loop_
 _symmetry_equiv_pos_site_id
 _symmetry_equiv_pos_as_xyz
  1  'x, y, z'
loop_
 _atom_site_type_symbol
 _atom_site_label
 _atom_site_symmetry_multiplicity
 _atom_site_fract_x
 _atom_site_fract_y
 _atom_site_fract_z
 _atom_site_occupancy
  Tm  Tm0  1  0.665098  0.334890  0.337535  1
  Tm  Tm1  1  0.334904  0.665109  0.662464  1
  Zn  Zn2  1  0.296759  0.296760  0.999998  1
  Zn  Zn3  1  0.703243  0.703240  0.000001  1
  Zn  Zn4  1  0.895566  0.104478  0.109308  1
  Zn  Zn5  1  0.348243  0.651746  0.150079  1
  Zn  Zn6  1  0.000035  0.706287  0.294333  1
  Zn  Zn7  1  0.293742  0.999968  0.294358  1
  Zn  Zn8  1  0.653322  0.852518  0.348198  1
  Zn  Zn9  1  0.147476  0.346661  0.348177  1
  Zn  Zn10  1  0.852526  0.653338  0.651824  1
  Zn  Zn11  1  0.346679  0.147481  0.651802  1
  Zn  Zn12  1  0.999966  0.293713  0.705667  1
  Zn  Zn13  1  0.706260  0.000032  0.705641  1
  Zn  Zn14  1  0.651758  0.348255  0.849919  1
  Zn  Zn15  1  0.104435  0.895521  0.890691  1
  Co  Co16  1  0.000000  0.000001  0.499999  1
  Ni  Ni17  1  0.499995  0.999999  0.000001  1
  Ni  Ni18  1  0.999992  0.500000  0.000002  1
