# generated using pymatgen
data_Ba9Ca3(WN4)4
_symmetry_space_group_name_H-M   'P 1'
_cell_length_a   10.12469636
_cell_length_b   10.59423700
_cell_length_c   12.17125400
_cell_angle_alpha   90.00000000
_cell_angle_beta   89.94102742
_cell_angle_gamma   90.00000000
_symmetry_Int_Tables_number   1
_chemical_formula_structural   Ba9Ca3(WN4)4
_chemical_formula_sum   'Ba18 Ca6 W8 N32'
_cell_volume   1305.52979426
_cell_formula_units_Z   2
loop_
 _symmetry_equiv_pos_site_id
 _symmetry_equiv_pos_as_xyz
  1  'x, y, z'
loop_
 _atom_site_type_symbol
 _atom_site_label
 _atom_site_symmetry_multiplicity
 _atom_site_fract_x
 _atom_site_fract_y
 _atom_site_fract_z
 _atom_site_occupancy
  Ba  Ba0  1  0.621976  0.028894  0.646346  1
  Ba  Ba1  1  0.878024  0.528894  0.353655  1
  Ba  Ba2  1  0.119673  0.954840  0.859810  1
  Ba  Ba3  1  0.380327  0.454840  0.140190  1
  Ba  Ba4  1  0.381249  0.974527  0.355090  1
  Ba  Ba5  1  0.118751  0.474527  0.644910  1
  Ba  Ba6  1  0.881527  0.041033  0.145770  1
  Ba  Ba7  1  0.618473  0.541033  0.854230  1
  Ba  Ba8  1  0.304522  0.769182  0.617147  1
  Ba  Ba9  1  0.195478  0.269182  0.382853  1
  Ba  Ba10  1  0.794545  0.230742  0.884210  1
  Ba  Ba11  1  0.705455  0.730742  0.115790  1
  Ba  Ba12  1  0.691918  0.234243  0.380620  1
  Ba  Ba13  1  0.808082  0.734243  0.619380  1
  Ba  Ba14  1  0.196632  0.763364  0.118981  1
  Ba  Ba15  1  0.303368  0.263364  0.881019  1
  Ba  Ba16  1  0.962497  0.127085  0.609139  1
  Ba  Ba17  1  0.537503  0.627085  0.390861  1
  Ca  Ca18  1  0.467056  0.882269  0.898986  1
  Ca  Ca19  1  0.032944  0.382269  0.101014  1
  Ca  Ca20  1  0.038691  0.880657  0.393035  1
  Ca  Ca21  1  0.461309  0.380657  0.606965  1
  Ca  Ca22  1  0.532157  0.110420  0.102206  1
  Ca  Ca23  1  0.967843  0.610420  0.897794  1
  W  W24  1  0.297864  0.095301  0.618537  1
  W  W25  1  0.202136  0.595301  0.381463  1
  W  W26  1  0.782465  0.898548  0.884965  1
  W  W27  1  0.717535  0.398548  0.115035  1
  W  W28  1  0.717413  0.911795  0.374704  1
  W  W29  1  0.782587  0.411795  0.625296  1
  W  W30  1  0.216245  0.093263  0.121326  1
  W  W31  1  0.283755  0.593263  0.878674  1
  N  N32  1  0.187975  0.991359  0.529785  1
  N  N33  1  0.312025  0.491359  0.470215  1
  N  N34  1  0.670239  0.996694  0.975259  1
  N  N35  1  0.829761  0.496694  0.024741  1
  N  N36  1  0.840974  0.014876  0.446382  1
  N  N37  1  0.659026  0.514876  0.553618  1
  N  N38  1  0.326278  0.992059  0.030977  1
  N  N39  1  0.173722  0.492059  0.969023  1
  N  N40  1  0.428695  0.168241  0.527066  1
  N  N41  1  0.071305  0.668241  0.472934  1
  N  N42  1  0.913343  0.817455  0.972447  1
  N  N43  1  0.586657  0.317455  0.027553  1
  N  N44  1  0.591126  0.853180  0.477891  1
  N  N45  1  0.908874  0.353180  0.522109  1
  N  N46  1  0.088152  0.172798  0.031214  1
  N  N47  1  0.411848  0.672798  0.968786  1
  N  N48  1  0.374614  0.990185  0.727939  1
  N  N49  1  0.125386  0.490185  0.272061  1
  N  N50  1  0.869286  0.007315  0.786977  1
  N  N51  1  0.630714  0.507315  0.213023  1
  N  N52  1  0.630055  0.012755  0.268625  1
  N  N53  1  0.869945  0.512755  0.731375  1
  N  N54  1  0.129255  0.986961  0.223620  1
  N  N55  1  0.370745  0.486961  0.776380  1
  N  N56  1  0.195898  0.222998  0.684591  1
  N  N57  1  0.304102  0.722998  0.315409  1
  N  N58  1  0.669255  0.790185  0.805776  1
  N  N59  1  0.830745  0.290185  0.194224  1
  N  N60  1  0.815810  0.780722  0.308917  1
  N  N61  1  0.684190  0.280722  0.691083  1
  N  N62  1  0.329603  0.206049  0.196515  1
  N  N63  1  0.170397  0.706049  0.803485  1
