# generated using pymatgen
data_TbDyHo2(Ga3Ir)6
_symmetry_space_group_name_H-M   'P 1'
_cell_length_a   7.58977502
_cell_length_b   7.59239709
_cell_length_c   9.49659000
_cell_angle_alpha   90.00176640
_cell_angle_beta   90.00226097
_cell_angle_gamma   119.94527838
_symmetry_Int_Tables_number   1
_chemical_formula_structural   TbDyHo2(Ga3Ir)6
_chemical_formula_sum   'Tb1 Dy1 Ho2 Ga18 Ir6'
_cell_volume   474.18230897
_cell_formula_units_Z   1
loop_
 _symmetry_equiv_pos_site_id
 _symmetry_equiv_pos_as_xyz
  1  'x, y, z'
loop_
 _atom_site_type_symbol
 _atom_site_label
 _atom_site_symmetry_multiplicity
 _atom_site_fract_x
 _atom_site_fract_y
 _atom_site_fract_z
 _atom_site_occupancy
  Tb  Tb0  1  0.002749  0.331861  0.750027  1
  Dy  Dy1  1  0.997212  0.668109  0.249974  1
  Ho  Ho2  1  0.668131  0.997331  0.249965  1
  Ho  Ho3  1  0.331833  0.002613  0.750034  1
  Ga  Ga4  1  0.126822  0.126954  0.250008  1
  Ga  Ga5  1  0.873185  0.873016  0.749992  1
  Ga  Ga6  1  0.999160  0.333740  0.080337  1
  Ga  Ga7  1  0.000866  0.666374  0.919727  1
  Ga  Ga8  1  0.000862  0.666374  0.580286  1
  Ga  Ga9  1  0.334382  0.999419  0.419927  1
  Ga  Ga10  1  0.999166  0.333739  0.419651  1
  Ga  Ga11  1  0.665549  0.000510  0.580059  1
  Ga  Ga12  1  0.665554  0.000518  0.919953  1
  Ga  Ga13  1  0.334376  0.999413  0.080060  1
  Ga  Ga14  1  0.332728  0.332384  0.564026  1
  Ga  Ga15  1  0.667333  0.667609  0.435899  1
  Ga  Ga16  1  0.667305  0.667579  0.064088  1
  Ga  Ga17  1  0.332756  0.332412  0.935987  1
  Ga  Ga18  1  0.339279  0.546550  0.250009  1
  Ga  Ga19  1  0.660676  0.453425  0.749993  1
  Ga  Ga20  1  0.546218  0.338826  0.250007  1
  Ga  Ga21  1  0.453793  0.661221  0.749992  1
  Ir  Ir22  1  0.671470  0.328502  0.000002  1
  Ir  Ir23  1  0.328580  0.671571  0.000004  1
  Ir  Ir24  1  0.328570  0.671580  0.499996  1
  Ir  Ir25  1  0.671482  0.328495  0.499998  1
  Ir  Ir26  1  0.999981  0.999936  0.000016  1
  Ir  Ir27  1  0.999982  0.999938  0.499983  1
