# generated using pymatgen
data_Sm8TiPd23Pt
_symmetry_space_group_name_H-M   'P 1'
_cell_length_a   8.44906200
_cell_length_b   8.45640300
_cell_length_c   8.45640300
_cell_angle_alpha   90.00000000
_cell_angle_beta   90.00000000
_cell_angle_gamma   90.00000000
_symmetry_Int_Tables_number   1
_chemical_formula_structural   Sm8TiPd23Pt
_chemical_formula_sum   'Sm8 Ti1 Pd23 Pt1'
_cell_volume   604.19877477
_cell_formula_units_Z   1
loop_
 _symmetry_equiv_pos_site_id
 _symmetry_equiv_pos_as_xyz
  1  'x, y, z'
loop_
 _atom_site_type_symbol
 _atom_site_label
 _atom_site_symmetry_multiplicity
 _atom_site_fract_x
 _atom_site_fract_y
 _atom_site_fract_z
 _atom_site_occupancy
  Sm  Sm0  1  0.252388  0.252175  0.252175  1
  Sm  Sm1  1  0.747463  0.747052  0.747052  1
  Sm  Sm2  1  0.747463  0.747052  0.252948  1
  Sm  Sm3  1  0.747463  0.252948  0.747052  1
  Sm  Sm4  1  0.252388  0.252175  0.747825  1
  Sm  Sm5  1  0.252388  0.747825  0.252175  1
  Sm  Sm6  1  0.252388  0.747825  0.747825  1
  Sm  Sm7  1  0.747463  0.252948  0.252948  1
  Ti  Ti8  1  0.003203  0.000000  0.000000  1
  Pd  Pd9  1  0.262298  0.500000  0.000000  1
  Pd  Pd10  1  0.737602  0.500000  0.000000  1
  Pd  Pd11  1  0.999959  0.262418  0.500000  1
  Pd  Pd12  1  0.499835  0.262545  0.000000  1
  Pd  Pd13  1  0.999959  0.737582  0.500000  1
  Pd  Pd14  1  0.499835  0.737455  0.000000  1
  Pd  Pd15  1  0.499835  0.000000  0.262545  1
  Pd  Pd16  1  0.262298  0.000000  0.500000  1
  Pd  Pd17  1  0.499835  0.000000  0.737455  1
  Pd  Pd18  1  0.737602  0.000000  0.500000  1
  Pd  Pd19  1  0.999959  0.500000  0.262418  1
  Pd  Pd20  1  0.999959  0.500000  0.737582  1
  Pd  Pd21  1  0.253569  0.500000  0.500000  1
  Pd  Pd22  1  0.746490  0.500000  0.500000  1
  Pd  Pd23  1  0.500074  0.253635  0.500000  1
  Pd  Pd24  1  0.500074  0.746365  0.500000  1
  Pd  Pd25  1  0.500074  0.500000  0.253635  1
  Pd  Pd26  1  0.500074  0.500000  0.746365  1
  Pd  Pd27  1  0.704545  0.000000  0.000000  1
  Pd  Pd28  1  0.999352  0.296651  0.000000  1
  Pd  Pd29  1  0.999352  0.703349  0.000000  1
  Pd  Pd30  1  0.999352  0.000000  0.296651  1
  Pd  Pd31  1  0.999352  0.000000  0.703349  1
  Pt  Pt32  1  0.296111  0.000000  0.000000  1
