# generated using pymatgen
data_Nd6Zn23S
_symmetry_space_group_name_H-M   'P 1'
_cell_length_a   9.19510034
_cell_length_b   9.19510081
_cell_length_c   9.19510100
_cell_angle_alpha   59.99999573
_cell_angle_beta   59.99999401
_cell_angle_gamma   59.99999565
_symmetry_Int_Tables_number   1
_chemical_formula_structural   Nd6Zn23S
_chemical_formula_sum   'Nd6 Zn23 S1'
_cell_volume   549.73631360
_cell_formula_units_Z   1
loop_
 _symmetry_equiv_pos_site_id
 _symmetry_equiv_pos_as_xyz
  1  'x, y, z'
loop_
 _atom_site_type_symbol
 _atom_site_label
 _atom_site_symmetry_multiplicity
 _atom_site_fract_x
 _atom_site_fract_y
 _atom_site_fract_z
 _atom_site_occupancy
  Nd  Nd0  1  0.716596  0.283404  0.283404  1
  Nd  Nd1  1  0.716596  0.283404  0.716596  1
  Nd  Nd2  1  0.716596  0.716596  0.283404  1
  Nd  Nd3  1  0.283404  0.716596  0.716596  1
  Nd  Nd4  1  0.283404  0.716596  0.283404  1
  Nd  Nd5  1  0.283404  0.283404  0.716596  1
  Zn  Zn6  1  0.623475  0.125508  0.125508  1
  Zn  Zn7  1  0.125508  0.623475  0.125508  1
  Zn  Zn8  1  0.125508  0.125508  0.623475  1
  Zn  Zn9  1  0.125508  0.125508  0.125508  1
  Zn  Zn10  1  0.376525  0.874492  0.874492  1
  Zn  Zn11  1  0.874492  0.376525  0.874492  1
  Zn  Zn12  1  0.874492  0.874492  0.376525  1
  Zn  Zn13  1  0.874492  0.874492  0.874492  1
  Zn  Zn14  1  0.500000  0.000000  0.000000  1
  Zn  Zn15  1  0.500000  0.000000  0.500000  1
  Zn  Zn16  1  0.500000  0.500000  0.000000  1
  Zn  Zn17  1  0.000000  0.500000  0.500000  1
  Zn  Zn18  1  0.000000  0.500000  0.000000  1
  Zn  Zn19  1  0.000000  0.000000  0.500000  1
  Zn  Zn20  1  0.000000  0.000000  0.000000  1
  Zn  Zn21  1  0.018994  0.327002  0.327002  1
  Zn  Zn22  1  0.327002  0.018994  0.327002  1
  Zn  Zn23  1  0.327002  0.327002  0.018994  1
  Zn  Zn24  1  0.327002  0.327002  0.327002  1
  Zn  Zn25  1  0.981006  0.672998  0.672998  1
  Zn  Zn26  1  0.672998  0.981006  0.672998  1
  Zn  Zn27  1  0.672998  0.672998  0.981006  1
  Zn  Zn28  1  0.672998  0.672998  0.672998  1
  S  S29  1  0.500000  0.500000  0.500000  1
