# generated using pymatgen
data_Er6Al24GaFe7
_symmetry_space_group_name_H-M   'P 1'
_cell_length_a   8.67658587
_cell_length_b   8.67658581
_cell_length_c   9.29504800
_cell_angle_alpha   90.20745581
_cell_angle_beta   89.79255079
_cell_angle_gamma   119.78827612
_symmetry_Int_Tables_number   1
_chemical_formula_structural   Er6Al24GaFe7
_chemical_formula_sum   'Er6 Al24 Ga1 Fe7'
_cell_volume   607.29374349
_cell_formula_units_Z   1
loop_
 _symmetry_equiv_pos_site_id
 _symmetry_equiv_pos_as_xyz
  1  'x, y, z'
loop_
 _atom_site_type_symbol
 _atom_site_label
 _atom_site_symmetry_multiplicity
 _atom_site_fract_x
 _atom_site_fract_y
 _atom_site_fract_z
 _atom_site_occupancy
  Er  Er0  1  0.804487  0.195513  0.743365  1
  Er  Er1  1  0.195513  0.804487  0.256635  1
  Er  Er2  1  0.387158  0.194307  0.752863  1
  Er  Er3  1  0.612842  0.805693  0.247137  1
  Er  Er4  1  0.805693  0.612842  0.752863  1
  Er  Er5  1  0.194307  0.387158  0.247137  1
  Al  Al6  1  0.676045  0.323955  0.986144  1
  Al  Al7  1  0.323955  0.676045  0.013856  1
  Al  Al8  1  0.333441  0.666559  0.483639  1
  Al  Al9  1  0.666559  0.333441  0.516361  1
  Al  Al10  1  0.838254  0.161746  0.423049  1
  Al  Al11  1  0.161746  0.838254  0.576951  1
  Al  Al12  1  0.322309  0.160018  0.428260  1
  Al  Al13  1  0.160266  0.839734  0.921425  1
  Al  Al14  1  0.677691  0.839982  0.571740  1
  Al  Al15  1  0.839734  0.160266  0.078575  1
  Al  Al16  1  0.839982  0.677691  0.428260  1
  Al  Al17  1  0.682323  0.856775  0.919763  1
  Al  Al18  1  0.160018  0.322309  0.571740  1
  Al  Al19  1  0.317677  0.143225  0.080237  1
  Al  Al20  1  0.143225  0.317677  0.919763  1
  Al  Al21  1  0.856775  0.682323  0.080237  1
  Al  Al22  1  0.435515  0.564485  0.737042  1
  Al  Al23  1  0.564485  0.435515  0.262958  1
  Al  Al24  1  0.114878  0.558725  0.750405  1
  Al  Al25  1  0.885122  0.441275  0.249595  1
  Al  Al26  1  0.441275  0.885122  0.750405  1
  Al  Al27  1  0.558725  0.114878  0.249595  1
  Al  Al28  1  0.000689  0.999311  0.748875  1
  Al  Al29  1  0.999311  0.000689  0.251125  1
  Ga  Ga30  1  0.500000  0.500000  0.000000  1
  Fe  Fe31  1  0.000000  0.500000  0.000000  1
  Fe  Fe32  1  0.500000  0.500000  0.500000  1
  Fe  Fe33  1  0.500000  0.000000  0.000000  1
  Fe  Fe34  1  0.000000  0.500000  0.500000  1
  Fe  Fe35  1  0.500000  0.000000  0.500000  1
  Fe  Fe36  1  0.000000  0.000000  0.000000  1
  Fe  Fe37  1  0.000000  0.000000  0.500000  1
