# generated using pymatgen
data_Dy3Lu2Sn3P
_symmetry_space_group_name_H-M   'P 1'
_cell_length_a   9.01496500
_cell_length_b   9.01496537
_cell_length_c   6.61754700
_cell_angle_alpha   90.00000000
_cell_angle_beta   90.00000000
_cell_angle_gamma   119.99998763
_symmetry_Int_Tables_number   1
_chemical_formula_structural   Dy3Lu2Sn3P
_chemical_formula_sum   'Dy6 Lu4 Sn6 P2'
_cell_volume   465.75317931
_cell_formula_units_Z   2
loop_
 _symmetry_equiv_pos_site_id
 _symmetry_equiv_pos_as_xyz
  1  'x, y, z'
loop_
 _atom_site_type_symbol
 _atom_site_label
 _atom_site_symmetry_multiplicity
 _atom_site_fract_x
 _atom_site_fract_y
 _atom_site_fract_z
 _atom_site_occupancy
  Dy  Dy0  1  0.757283  0.757283  0.750000  1
  Dy  Dy1  1  0.242717  0.000000  0.750000  1
  Dy  Dy2  1  0.000000  0.242717  0.750000  1
  Dy  Dy3  1  0.242717  0.242717  0.250000  1
  Dy  Dy4  1  0.757283  0.000000  0.250000  1
  Dy  Dy5  1  0.000000  0.757283  0.250000  1
  Lu  Lu6  1  0.666667  0.333333  0.000000  1
  Lu  Lu7  1  0.333333  0.666667  0.000000  1
  Lu  Lu8  1  0.333333  0.666667  0.500000  1
  Lu  Lu9  1  0.666667  0.333333  0.500000  1
  Sn  Sn10  1  0.400214  0.400214  0.750000  1
  Sn  Sn11  1  0.599786  0.000000  0.750000  1
  Sn  Sn12  1  0.000000  0.599786  0.750000  1
  Sn  Sn13  1  0.599786  0.599786  0.250000  1
  Sn  Sn14  1  0.400214  0.000000  0.250000  1
  Sn  Sn15  1  0.000000  0.400214  0.250000  1
  P  P16  1  0.000000  0.000000  0.000000  1
  P  P17  1  0.000000  0.000000  0.500000  1
