# generated using pymatgen
data_Th2GeAs(PIr2)2
_symmetry_space_group_name_H-M   'P 1'
_cell_length_a   4.26698300
_cell_length_b   4.26698300
_cell_length_c   9.81696900
_cell_angle_alpha   90.00000000
_cell_angle_beta   90.00000000
_cell_angle_gamma   90.00000000
_symmetry_Int_Tables_number   1
_chemical_formula_structural   Th2GeAs(PIr2)2
_chemical_formula_sum   'Th2 Ge1 As1 P2 Ir4'
_cell_volume   178.73896746
_cell_formula_units_Z   1
loop_
 _symmetry_equiv_pos_site_id
 _symmetry_equiv_pos_as_xyz
  1  'x, y, z'
loop_
 _atom_site_type_symbol
 _atom_site_label
 _atom_site_symmetry_multiplicity
 _atom_site_fract_x
 _atom_site_fract_y
 _atom_site_fract_z
 _atom_site_occupancy
  Th  Th0  1  0.000000  0.500000  0.257844  1
  Th  Th1  1  0.500000  0.000000  0.741022  1
  Ge  Ge2  1  0.500000  0.000000  0.143163  1
  As  As3  1  0.000000  0.500000  0.857403  1
  P  P4  1  0.000000  0.000000  0.499913  1
  P  P5  1  0.500000  0.500000  0.499913  1
  Ir  Ir6  1  0.000000  0.000000  0.999815  1
  Ir  Ir7  1  0.500000  0.500000  0.999815  1
  Ir  Ir8  1  0.000000  0.500000  0.603275  1
  Ir  Ir9  1  0.500000  0.000000  0.397836  1
