# generated using pymatgen
data_Zr8Ti12Si15Pt
_symmetry_space_group_name_H-M   'P 1'
_cell_length_a   6.87610919
_cell_length_b   6.86020587
_cell_length_c   12.59634619
_cell_angle_alpha   89.91105905
_cell_angle_beta   89.86955075
_cell_angle_gamma   90.17177676
_symmetry_Int_Tables_number   1
_chemical_formula_structural   Zr8Ti12Si15Pt
_chemical_formula_sum   'Zr8 Ti12 Si15 Pt1'
_cell_volume   594.18392150
_cell_formula_units_Z   1
loop_
 _symmetry_equiv_pos_site_id
 _symmetry_equiv_pos_as_xyz
  1  'x, y, z'
loop_
 _atom_site_type_symbol
 _atom_site_label
 _atom_site_symmetry_multiplicity
 _atom_site_fract_x
 _atom_site_fract_y
 _atom_site_fract_z
 _atom_site_occupancy
  Zr  Zr0  1  0.344463  0.996701  0.464643  1
  Zr  Zr1  1  0.508177  0.836823  0.717842  1
  Zr  Zr2  1  0.498003  0.157134  0.216907  1
  Zr  Zr3  1  0.843537  0.499733  0.282220  1
  Zr  Zr4  1  0.153731  0.502852  0.785025  1
  Zr  Zr5  1  0.658239  0.000799  0.968250  1
  Zr  Zr6  1  0.995731  0.344086  0.530216  1
  Zr  Zr7  1  0.001103  0.658082  0.032828  1
  Ti  Ti8  1  0.328737  0.329803  0.001175  1
  Ti  Ti9  1  0.172288  0.828859  0.249629  1
  Ti  Ti10  1  0.827334  0.172904  0.750725  1
  Ti  Ti11  1  0.671322  0.672093  0.499819  1
  Ti  Ti12  1  0.153793  0.006866  0.877368  1
  Ti  Ti13  1  0.496639  0.654053  0.122877  1
  Ti  Ti14  1  0.501338  0.346488  0.621801  1
  Ti  Ti15  1  0.653405  0.496651  0.878373  1
  Ti  Ti16  1  0.346076  0.503411  0.376597  1
  Ti  Ti17  1  0.847315  0.995109  0.373108  1
  Ti  Ti18  1  0.004249  0.153528  0.126917  1
  Ti  Ti19  1  0.990953  0.846463  0.622134  1
  Si  Si20  1  0.366996  0.707784  0.928028  1
  Si  Si21  1  0.631634  0.292348  0.426221  1
  Si  Si22  1  0.706095  0.366061  0.073170  1
  Si  Si23  1  0.294732  0.635411  0.570764  1
  Si  Si24  1  0.794207  0.865698  0.177740  1
  Si  Si25  1  0.134385  0.205264  0.321452  1
  Si  Si26  1  0.867264  0.795574  0.822578  1
  Si  Si27  1  0.294272  0.955043  0.065696  1
  Si  Si28  1  0.546474  0.791181  0.313127  1
  Si  Si29  1  0.456215  0.206933  0.816504  1
  Si  Si30  1  0.793725  0.544421  0.686541  1
  Si  Si31  1  0.207035  0.454958  0.185960  1
  Si  Si32  1  0.703562  0.046277  0.563324  1
  Si  Si33  1  0.953817  0.293797  0.937407  1
  Si  Si34  1  0.046482  0.707415  0.433912  1
  Pt  Pt35  1  0.206671  0.129396  0.679124  1
