# generated using pymatgen
data_Pr10Nd2Rh3AuBr12
_symmetry_space_group_name_H-M   'P 1'
_cell_length_a   10.62423363
_cell_length_b   10.62485136
_cell_length_c   10.62620550
_cell_angle_alpha   109.86448937
_cell_angle_beta   109.81108091
_cell_angle_gamma   109.80429987
_symmetry_Int_Tables_number   1
_chemical_formula_structural   Pr10Nd2Rh3AuBr12
_chemical_formula_sum   'Pr10 Nd2 Rh3 Au1 Br12'
_cell_volume   911.01936537
_cell_formula_units_Z   1
loop_
 _symmetry_equiv_pos_site_id
 _symmetry_equiv_pos_as_xyz
  1  'x, y, z'
loop_
 _atom_site_type_symbol
 _atom_site_label
 _atom_site_symmetry_multiplicity
 _atom_site_fract_x
 _atom_site_fract_y
 _atom_site_fract_z
 _atom_site_occupancy
  Pr  Pr0  1  0.749876  0.014291  0.485531  1
  Pr  Pr1  1  0.231273  0.472437  0.492506  1
  Pr  Pr2  1  0.266301  0.749709  0.233614  1
  Pr  Pr3  1  0.027567  0.268638  0.007404  1
  Pr  Pr4  1  0.007249  0.027602  0.268691  1
  Pr  Pr5  1  0.485792  0.750079  0.014356  1
  Pr  Pr6  1  0.492789  0.231476  0.472485  1
  Pr  Pr7  1  0.014163  0.485596  0.749693  1
  Pr  Pr8  1  0.268797  0.007583  0.027646  1
  Pr  Pr9  1  0.233889  0.266432  0.750365  1
  Nd  Nd10  1  0.471924  0.492305  0.231095  1
  Nd  Nd11  1  0.749992  0.233391  0.266627  1
  Rh  Rh12  1  0.501928  0.999020  0.250004  1
  Rh  Rh13  1  0.998019  0.249978  0.501016  1
  Rh  Rh14  1  0.250514  0.501515  0.999037  1
  Au  Au15  1  0.250509  0.250534  0.250028  1
  Br  Br16  1  0.249991  0.756101  0.743887  1
  Br  Br17  1  0.508424  0.503045  0.753074  1
  Br  Br18  1  0.991619  0.747008  0.996914  1
  Br  Br19  1  0.743921  0.250009  0.756073  1
  Br  Br20  1  0.996879  0.991550  0.746952  1
  Br  Br21  1  0.250036  0.996904  0.503145  1
  Br  Br22  1  0.752745  0.508055  0.502371  1
  Br  Br23  1  0.503561  0.250490  0.997606  1
  Br  Br24  1  0.755640  0.743526  0.249992  1
  Br  Br25  1  0.746924  0.997377  0.991936  1
  Br  Br26  1  0.996510  0.502765  0.249920  1
  Br  Br27  1  0.503166  0.752583  0.508034  1
