# generated using pymatgen
data_Ho20Si12H
_symmetry_space_group_name_H-M   'P 1'
_cell_length_a   6.27626401
_cell_length_b   8.37982486
_cell_length_c   14.62080100
_cell_angle_alpha   90.00000684
_cell_angle_beta   90.00000000
_cell_angle_gamma   89.97007891
_symmetry_Int_Tables_number   1
_chemical_formula_structural   Ho20Si12H
_chemical_formula_sum   'Ho20 Si12 H1'
_cell_volume   768.96620388
_cell_formula_units_Z   1
loop_
 _symmetry_equiv_pos_site_id
 _symmetry_equiv_pos_as_xyz
  1  'x, y, z'
loop_
 _atom_site_type_symbol
 _atom_site_label
 _atom_site_symmetry_multiplicity
 _atom_site_fract_x
 _atom_site_fract_y
 _atom_site_fract_z
 _atom_site_occupancy
  Ho  Ho0  1  0.500002  0.000001  0.334012  1
  Ho  Ho1  1  0.500001  0.500002  0.830876  1
  Ho  Ho2  1  0.500001  0.500002  0.169124  1
  Ho  Ho3  1  0.500002  0.000001  0.665988  1
  Ho  Ho4  1  0.000000  0.499998  0.165343  1
  Ho  Ho5  1  0.000002  0.000000  0.667996  1
  Ho  Ho6  1  0.000002  0.000000  0.332004  1
  Ho  Ho7  1  0.000000  0.499998  0.834657  1
  Ho  Ho8  1  0.748816  0.246637  0.000000  1
  Ho  Ho9  1  0.751621  0.743814  0.500000  1
  Ho  Ho10  1  0.750832  0.377279  0.378953  1
  Ho  Ho11  1  0.752413  0.876284  0.877377  1
  Ho  Ho12  1  0.752413  0.876284  0.122623  1
  Ho  Ho13  1  0.750832  0.377279  0.621047  1
  Ho  Ho14  1  0.251172  0.753354  0.000000  1
  Ho  Ho15  1  0.248379  0.256188  0.500000  1
  Ho  Ho16  1  0.247588  0.123712  0.122622  1
  Ho  Ho17  1  0.249168  0.622722  0.621048  1
  Ho  Ho18  1  0.249168  0.622722  0.378952  1
  Ho  Ho19  1  0.247588  0.123712  0.877378  1
  Si  Si20  1  0.745351  0.607887  0.000000  1
  Si  Si21  1  0.752622  0.106542  0.500000  1
  Si  Si22  1  0.749820  0.195488  0.196318  1
  Si  Si23  1  0.752226  0.696482  0.697442  1
  Si  Si24  1  0.752226  0.696482  0.302558  1
  Si  Si25  1  0.749820  0.195488  0.803682  1
  Si  Si26  1  0.254650  0.392110  0.000000  1
  Si  Si27  1  0.247381  0.893462  0.500000  1
  Si  Si28  1  0.247776  0.303520  0.302558  1
  Si  Si29  1  0.250178  0.804513  0.803682  1
  Si  Si30  1  0.250178  0.804513  0.196318  1
  Si  Si31  1  0.247776  0.303520  0.697442  1
  H  H32  1  0.499996  0.000002  0.000000  1
