# generated using pymatgen
data_Er8Ga(Pd11Pt)2
_symmetry_space_group_name_H-M   'P 1'
_cell_length_a   8.32759700
_cell_length_b   8.32423501
_cell_length_c   8.32423501
_cell_angle_alpha   90.00415734
_cell_angle_beta   90.00000000
_cell_angle_gamma   90.00000000
_symmetry_Int_Tables_number   1
_chemical_formula_structural   Er8Ga(Pd11Pt)2
_chemical_formula_sum   'Er8 Ga1 Pd22 Pt2'
_cell_volume   577.04324826
_cell_formula_units_Z   1
loop_
 _symmetry_equiv_pos_site_id
 _symmetry_equiv_pos_as_xyz
  1  'x, y, z'
loop_
 _atom_site_type_symbol
 _atom_site_label
 _atom_site_symmetry_multiplicity
 _atom_site_fract_x
 _atom_site_fract_y
 _atom_site_fract_z
 _atom_site_occupancy
  Er  Er0  1  0.251987  0.251723  0.748277  1
  Er  Er1  1  0.251613  0.748544  0.251456  1
  Er  Er2  1  0.748164  0.251489  0.251730  1
  Er  Er3  1  0.748164  0.748270  0.748511  1
  Er  Er4  1  0.748387  0.748544  0.251456  1
  Er  Er5  1  0.748013  0.251723  0.748277  1
  Er  Er6  1  0.251836  0.748270  0.748511  1
  Er  Er7  1  0.251836  0.251489  0.251730  1
  Ga  Ga8  1  0.000000  0.000093  0.999907  1
  Pd  Pd9  1  0.252910  0.500004  0.499996  1
  Pd  Pd10  1  0.500000  0.499944  0.253012  1
  Pd  Pd11  1  0.500000  0.746988  0.500056  1
  Pd  Pd12  1  0.747090  0.500004  0.499996  1
  Pd  Pd13  1  0.000000  0.999884  0.708477  1
  Pd  Pd14  1  0.000000  0.291523  0.000116  1
  Pd  Pd15  1  0.291476  0.999891  0.000109  1
  Pd  Pd16  1  0.000000  0.999869  0.291557  1
  Pd  Pd17  1  0.000000  0.708443  0.000131  1
  Pd  Pd18  1  0.708524  0.999891  0.000109  1
  Pd  Pd19  1  0.000000  0.500071  0.739705  1
  Pd  Pd20  1  0.500000  0.260168  0.999936  1
  Pd  Pd21  1  0.260209  0.000045  0.499906  1
  Pd  Pd22  1  0.000000  0.260295  0.499929  1
  Pd  Pd23  1  0.500000  0.000064  0.739832  1
  Pd  Pd24  1  0.260209  0.500094  0.999955  1
  Pd  Pd25  1  0.000000  0.500071  0.260202  1
  Pd  Pd26  1  0.500000  0.739851  0.999938  1
  Pd  Pd27  1  0.000000  0.739798  0.499929  1
  Pd  Pd28  1  0.500000  0.000062  0.260149  1
  Pd  Pd29  1  0.739791  0.000045  0.499906  1
  Pd  Pd30  1  0.739791  0.500094  0.999955  1
  Pt  Pt31  1  0.500000  0.499984  0.747229  1
  Pt  Pt32  1  0.500000  0.252771  0.500016  1
