# generated using pymatgen
data_SrLa5NdOsBr12
_symmetry_space_group_name_H-M   'P 1'
_cell_length_a   9.67292890
_cell_length_b   9.81660977
_cell_length_c   9.65645477
_cell_angle_alpha   106.56307630
_cell_angle_beta   106.30685343
_cell_angle_gamma   106.01068748
_symmetry_Int_Tables_number   1
_chemical_formula_structural   SrLa5NdOsBr12
_chemical_formula_sum   'Sr1 La5 Nd1 Os1 Br12'
_cell_volume   777.86307946
_cell_formula_units_Z   1
loop_
 _symmetry_equiv_pos_site_id
 _symmetry_equiv_pos_as_xyz
  1  'x, y, z'
loop_
 _atom_site_type_symbol
 _atom_site_label
 _atom_site_symmetry_multiplicity
 _atom_site_fract_x
 _atom_site_fract_y
 _atom_site_fract_z
 _atom_site_occupancy
  Sr  Sr0  1  0.500583  0.499705  0.501068  1
  La  La1  1  0.108148  0.321996  0.019924  1
  La  La2  1  0.306969  0.019654  0.103405  1
  La  La3  1  0.020048  0.102611  0.307978  1
  La  La4  1  0.979343  0.894898  0.691013  1
  La  La5  1  0.693167  0.981052  0.896482  1
  Nd  Nd6  1  0.892704  0.683898  0.979495  1
  Os  Os7  1  0.999829  0.000277  0.999255  1
  Br  Br8  1  0.213107  0.680375  0.070243  1
  Br  Br9  1  0.450891  0.366740  0.154281  1
  Br  Br10  1  0.678580  0.070971  0.218827  1
  Br  Br11  1  0.927709  0.780304  0.315990  1
  Br  Br12  1  0.154236  0.449776  0.368746  1
  Br  Br13  1  0.370046  0.157489  0.453282  1
  Br  Br14  1  0.629871  0.841609  0.546609  1
  Br  Br15  1  0.846923  0.549911  0.636325  1
  Br  Br16  1  0.070354  0.215225  0.678164  1
  Br  Br17  1  0.321289  0.928366  0.780872  1
  Br  Br18  1  0.553758  0.633119  0.848933  1
  Br  Br19  1  0.782445  0.322025  0.929107  1
