# generated using pymatgen
data_KSiSbS4
_symmetry_space_group_name_H-M   'P 1'
_cell_length_a   7.02483200
_cell_length_b   6.53456377
_cell_length_c   8.75265563
_cell_angle_alpha   72.76988059
_cell_angle_beta   90.00000000
_cell_angle_gamma   90.00000000
_symmetry_Int_Tables_number   1
_chemical_formula_structural   KSiSbS4
_chemical_formula_sum   'K2 Si2 Sb2 S8'
_cell_volume   383.75282724
_cell_formula_units_Z   2
loop_
 _symmetry_equiv_pos_site_id
 _symmetry_equiv_pos_as_xyz
  1  'x, y, z'
loop_
 _atom_site_type_symbol
 _atom_site_label
 _atom_site_symmetry_multiplicity
 _atom_site_fract_x
 _atom_site_fract_y
 _atom_site_fract_z
 _atom_site_occupancy
  K  K0  1  0.967308  0.719644  0.068378  1
  K  K1  1  0.467308  0.280356  0.931622  1
  Si  Si2  1  0.445534  0.797073  0.313183  1
  Si  Si3  1  0.945534  0.202927  0.686817  1
  Sb  Sb4  1  0.562011  0.240485  0.440495  1
  Sb  Sb5  1  0.062011  0.759515  0.559505  1
  S  S6  1  0.494395  0.577650  0.178568  1
  S  S7  1  0.205314  0.995963  0.254311  1
  S  S8  1  0.694317  0.997645  0.283071  1
  S  S9  1  0.898122  0.388229  0.438570  1
  S  S10  1  0.398122  0.611771  0.561430  1
  S  S11  1  0.194317  0.002355  0.716929  1
  S  S12  1  0.705314  0.004037  0.745689  1
  S  S13  1  0.994395  0.422350  0.821432  1
