# generated using pymatgen
data_Gd3Ag3Pb2Au
_symmetry_space_group_name_H-M   'P 1'
_cell_length_a   8.31762700
_cell_length_b   8.31762824
_cell_length_c   3.76316100
_cell_angle_alpha   90.00000000
_cell_angle_beta   90.00000000
_cell_angle_gamma   119.99999110
_symmetry_Int_Tables_number   1
_chemical_formula_structural   Gd3Ag3Pb2Au
_chemical_formula_sum   'Gd3 Ag3 Pb2 Au1'
_cell_volume   225.46670395
_cell_formula_units_Z   1
loop_
 _symmetry_equiv_pos_site_id
 _symmetry_equiv_pos_as_xyz
  1  'x, y, z'
loop_
 _atom_site_type_symbol
 _atom_site_label
 _atom_site_symmetry_multiplicity
 _atom_site_fract_x
 _atom_site_fract_y
 _atom_site_fract_z
 _atom_site_occupancy
  Gd  Gd0  1  0.590482  0.970945  0.500000  1
  Gd  Gd1  1  0.380463  0.409518  0.500000  1
  Gd  Gd2  1  0.029055  0.619537  0.500000  1
  Ag  Ag3  1  0.707835  0.714346  0.000000  1
  Ag  Ag4  1  0.006511  0.292165  0.000000  1
  Ag  Ag5  1  0.285654  0.993489  0.000000  1
  Pb  Pb6  1  0.000000  0.000000  0.500000  1
  Pb  Pb7  1  0.666667  0.333333  0.000000  1
  Au  Au8  1  0.333333  0.666667  0.000000  1
