# generated using pymatgen
data_Nd3Tm2Sn3Cl
_symmetry_space_group_name_H-M   'P 1'
_cell_length_a   9.28029900
_cell_length_b   9.28029902
_cell_length_c   6.65248600
_cell_angle_alpha   90.00000000
_cell_angle_beta   90.00000000
_cell_angle_gamma   119.99999637
_symmetry_Int_Tables_number   1
_chemical_formula_structural   Nd3Tm2Sn3Cl
_chemical_formula_sum   'Nd6 Tm4 Sn6 Cl2'
_cell_volume   496.17920115
_cell_formula_units_Z   2
loop_
 _symmetry_equiv_pos_site_id
 _symmetry_equiv_pos_as_xyz
  1  'x, y, z'
loop_
 _atom_site_type_symbol
 _atom_site_label
 _atom_site_symmetry_multiplicity
 _atom_site_fract_x
 _atom_site_fract_y
 _atom_site_fract_z
 _atom_site_occupancy
  Nd  Nd0  1  0.739289  0.000000  0.750000  1
  Nd  Nd1  1  0.739289  0.739289  0.250000  1
  Nd  Nd2  1  0.000000  0.260711  0.250000  1
  Nd  Nd3  1  0.000000  0.739289  0.750000  1
  Nd  Nd4  1  0.260711  0.260711  0.750000  1
  Nd  Nd5  1  0.260711  0.000000  0.250000  1
  Tm  Tm6  1  0.666667  0.333333  0.000000  1
  Tm  Tm7  1  0.333333  0.666667  0.500000  1
  Tm  Tm8  1  0.666667  0.333333  0.500000  1
  Tm  Tm9  1  0.333333  0.666667  0.000000  1
  Sn  Sn10  1  0.606770  0.606770  0.750000  1
  Sn  Sn11  1  0.000000  0.606770  0.250000  1
  Sn  Sn12  1  0.606770  0.000000  0.250000  1
  Sn  Sn13  1  0.393230  0.000000  0.750000  1
  Sn  Sn14  1  0.000000  0.393230  0.750000  1
  Sn  Sn15  1  0.393230  0.393230  0.250000  1
  Cl  Cl16  1  0.000000  0.000000  0.500000  1
  Cl  Cl17  1  0.000000  0.000000  0.000000  1
