# generated using pymatgen
data_Cs2PuF5
_symmetry_space_group_name_H-M   'P 1'
_cell_length_a   6.79282400
_cell_length_b   8.64347000
_cell_length_c   13.21473200
_cell_angle_alpha   90.00000000
_cell_angle_beta   90.00000000
_cell_angle_gamma   90.00000000
_symmetry_Int_Tables_number   1
_chemical_formula_structural   Cs2PuF5
_chemical_formula_sum   'Cs8 Pu4 F20'
_cell_volume   775.88409838
_cell_formula_units_Z   4
loop_
 _symmetry_equiv_pos_site_id
 _symmetry_equiv_pos_as_xyz
  1  'x, y, z'
loop_
 _atom_site_type_symbol
 _atom_site_label
 _atom_site_symmetry_multiplicity
 _atom_site_fract_x
 _atom_site_fract_y
 _atom_site_fract_z
 _atom_site_occupancy
  Cs  Cs0  1  0.250000  0.003161  0.237049  1
  Cs  Cs1  1  0.750000  0.996839  0.762951  1
  Cs  Cs2  1  0.750000  0.496839  0.737049  1
  Cs  Cs3  1  0.250000  0.503161  0.262951  1
  Cs  Cs4  1  0.250000  0.650909  0.922668  1
  Cs  Cs5  1  0.750000  0.349091  0.077332  1
  Cs  Cs6  1  0.750000  0.849091  0.422668  1
  Cs  Cs7  1  0.250000  0.150909  0.577332  1
  Pu  Pu8  1  0.250000  0.665476  0.565880  1
  Pu  Pu9  1  0.750000  0.334524  0.434120  1
  Pu  Pu10  1  0.750000  0.834524  0.065880  1
  Pu  Pu11  1  0.250000  0.165476  0.934120  1
  F  F12  1  0.250000  0.778614  0.409810  1
  F  F13  1  0.750000  0.221386  0.590190  1
  F  F14  1  0.750000  0.721386  0.909810  1
  F  F15  1  0.250000  0.278614  0.090190  1
  F  F16  1  0.997443  0.819883  0.612222  1
  F  F17  1  0.002557  0.180117  0.387778  1
  F  F18  1  0.002557  0.680117  0.112222  1
  F  F19  1  0.497443  0.180117  0.387778  1
  F  F20  1  0.997443  0.319883  0.887778  1
  F  F21  1  0.502557  0.819883  0.612222  1
  F  F22  1  0.502557  0.319883  0.887778  1
  F  F23  1  0.497443  0.680117  0.112222  1
  F  F24  1  0.000000  0.500000  0.500000  1
  F  F25  1  0.000000  0.000000  0.000000  1
  F  F26  1  0.500000  0.500000  0.500000  1
  F  F27  1  0.500000  0.000000  0.000000  1
  F  F28  1  0.250000  0.523666  0.707708  1
  F  F29  1  0.750000  0.476334  0.292292  1
  F  F30  1  0.750000  0.976334  0.207708  1
  F  F31  1  0.250000  0.023666  0.792292  1
