# generated using pymatgen
data_Tm4InIr
_symmetry_space_group_name_H-M   'P 1'
_cell_length_a   9.53134347
_cell_length_b   9.53134256
_cell_length_c   9.53134300
_cell_angle_alpha   60.00000196
_cell_angle_beta   60.00000510
_cell_angle_gamma   60.00000627
_symmetry_Int_Tables_number   1
_chemical_formula_structural   Tm4InIr
_chemical_formula_sum   'Tm16 In4 Ir4'
_cell_volume   612.27615070
_cell_formula_units_Z   4
loop_
 _symmetry_equiv_pos_site_id
 _symmetry_equiv_pos_as_xyz
  1  'x, y, z'
loop_
 _atom_site_type_symbol
 _atom_site_label
 _atom_site_symmetry_multiplicity
 _atom_site_fract_x
 _atom_site_fract_y
 _atom_site_fract_z
 _atom_site_occupancy
  Tm  Tm0  1  0.808064  0.191936  0.808064  1
  Tm  Tm1  1  0.939899  0.560101  0.560101  1
  Tm  Tm2  1  0.560101  0.939899  0.560101  1
  Tm  Tm3  1  0.808064  0.191936  0.191936  1
  Tm  Tm4  1  0.191936  0.808064  0.191936  1
  Tm  Tm5  1  0.349642  0.951074  0.349642  1
  Tm  Tm6  1  0.939899  0.939899  0.560101  1
  Tm  Tm7  1  0.560101  0.939899  0.939899  1
  Tm  Tm8  1  0.191936  0.808064  0.808064  1
  Tm  Tm9  1  0.349642  0.349642  0.951074  1
  Tm  Tm10  1  0.560101  0.560101  0.939899  1
  Tm  Tm11  1  0.349642  0.349642  0.349642  1
  Tm  Tm12  1  0.191936  0.191936  0.808064  1
  Tm  Tm13  1  0.808064  0.808064  0.191936  1
  Tm  Tm14  1  0.939899  0.560101  0.939899  1
  Tm  Tm15  1  0.951074  0.349642  0.349642  1
  In  In16  1  0.583441  0.583441  0.583441  1
  In  In17  1  0.583441  0.249677  0.583441  1
  In  In18  1  0.583441  0.583441  0.249677  1
  In  In19  1  0.249677  0.583441  0.583441  1
  Ir  Ir20  1  0.141153  0.141153  0.576541  1
  Ir  Ir21  1  0.576541  0.141153  0.141153  1
  Ir  Ir22  1  0.141153  0.576541  0.141153  1
  Ir  Ir23  1  0.141153  0.141153  0.141153  1
