# generated using pymatgen
data_Tb2Yb3Pb3Cl
_symmetry_space_group_name_H-M   'P 1'
_cell_length_a   9.24880800
_cell_length_b   9.24880914
_cell_length_c   6.93805000
_cell_angle_alpha   90.00000000
_cell_angle_beta   90.00000000
_cell_angle_gamma   119.99999592
_symmetry_Int_Tables_number   1
_chemical_formula_structural   Tb2Yb3Pb3Cl
_chemical_formula_sum   'Tb4 Yb6 Pb6 Cl2'
_cell_volume   513.97223175
_cell_formula_units_Z   2
loop_
 _symmetry_equiv_pos_site_id
 _symmetry_equiv_pos_as_xyz
  1  'x, y, z'
loop_
 _atom_site_type_symbol
 _atom_site_label
 _atom_site_symmetry_multiplicity
 _atom_site_fract_x
 _atom_site_fract_y
 _atom_site_fract_z
 _atom_site_occupancy
  Tb  Tb0  1  0.333333  0.666667  0.000000  1
  Tb  Tb1  1  0.666667  0.333333  0.000000  1
  Tb  Tb2  1  0.666667  0.333333  0.500000  1
  Tb  Tb3  1  0.333333  0.666667  0.500000  1
  Yb  Yb4  1  0.251107  0.000000  0.250000  1
  Yb  Yb5  1  0.748893  0.000000  0.750000  1
  Yb  Yb6  1  0.000000  0.251107  0.250000  1
  Yb  Yb7  1  0.000000  0.748893  0.750000  1
  Yb  Yb8  1  0.748893  0.748893  0.250000  1
  Yb  Yb9  1  0.251107  0.251107  0.750000  1
  Pb  Pb10  1  0.597923  0.000000  0.250000  1
  Pb  Pb11  1  0.402077  0.000000  0.750000  1
  Pb  Pb12  1  0.000000  0.597923  0.250000  1
  Pb  Pb13  1  0.000000  0.402077  0.750000  1
  Pb  Pb14  1  0.402077  0.402077  0.250000  1
  Pb  Pb15  1  0.597923  0.597923  0.750000  1
  Cl  Cl16  1  0.000000  0.000000  0.000000  1
  Cl  Cl17  1  0.000000  0.000000  0.500000  1
