# generated using pymatgen
data_Y3Cd3PdPb2
_symmetry_space_group_name_H-M   'P 1'
_cell_length_a   7.55411912
_cell_length_b   7.55411733
_cell_length_c   4.55804400
_cell_angle_alpha   90.00000000
_cell_angle_beta   90.00000000
_cell_angle_gamma   120.02250528
_symmetry_Int_Tables_number   1
_chemical_formula_structural   Y3Cd3PdPb2
_chemical_formula_sum   'Y3 Cd3 Pd1 Pb2'
_cell_volume   225.20507180
_cell_formula_units_Z   1
loop_
 _symmetry_equiv_pos_site_id
 _symmetry_equiv_pos_as_xyz
  1  'x, y, z'
loop_
 _atom_site_type_symbol
 _atom_site_label
 _atom_site_symmetry_multiplicity
 _atom_site_fract_x
 _atom_site_fract_y
 _atom_site_fract_z
 _atom_site_occupancy
  Y  Y0  1  0.999864  0.602320  0.500000  1
  Y  Y1  1  0.602320  0.999864  0.500000  1
  Y  Y2  1  0.396198  0.396198  0.500000  1
  Cd  Cd3  1  0.771269  0.771269  0.000000  1
  Cd  Cd4  1  0.230959  0.998339  0.000000  1
  Cd  Cd5  1  0.998339  0.230959  0.000000  1
  Pd  Pd6  1  0.000955  0.000955  0.500000  1
  Pb  Pb7  1  0.666205  0.333893  0.000000  1
  Pb  Pb8  1  0.333893  0.666205  0.000000  1
