# generated using pymatgen
data_Ce5Co3Mo3P12Ru13
_symmetry_space_group_name_H-M   'P 1'
_cell_length_a   12.66885900
_cell_length_b   12.66885848
_cell_length_c   3.87936700
_cell_angle_alpha   90.00000000
_cell_angle_beta   90.00000000
_cell_angle_gamma   119.99999352
_symmetry_Int_Tables_number   1
_chemical_formula_structural   Ce5Co3Mo3P12Ru13
_chemical_formula_sum   'Ce5 Co3 Mo3 P12 Ru13'
_cell_volume   539.22064893
_cell_formula_units_Z   1
loop_
 _symmetry_equiv_pos_site_id
 _symmetry_equiv_pos_as_xyz
  1  'x, y, z'
loop_
 _atom_site_type_symbol
 _atom_site_label
 _atom_site_symmetry_multiplicity
 _atom_site_fract_x
 _atom_site_fract_y
 _atom_site_fract_z
 _atom_site_occupancy
  Ce  Ce0  1  0.183841  0.183841  0.500000  1
  Ce  Ce1  1  0.816159  0.000000  0.500000  1
  Ce  Ce2  1  0.000000  0.816159  0.500000  1
  Ce  Ce3  1  0.333333  0.666667  0.000000  1
  Ce  Ce4  1  0.666667  0.333333  0.000000  1
  Co  Co5  1  0.717235  0.717235  0.500000  1
  Co  Co6  1  0.282765  0.000000  0.500000  1
  Co  Co7  1  0.000000  0.282765  0.500000  1
  Mo  Mo8  1  0.562418  0.562418  0.000000  1
  Mo  Mo9  1  0.437582  0.000000  0.000000  1
  Mo  Mo10  1  0.000000  0.437582  0.000000  1
  P  P11  1  0.813145  0.813145  0.000000  1
  P  P12  1  0.186855  0.000000  0.000000  1
  P  P13  1  0.000000  0.186855  0.000000  1
  P  P14  1  0.160891  0.473916  0.500000  1
  P  P15  1  0.526084  0.686975  0.500000  1
  P  P16  1  0.313025  0.839109  0.500000  1
  P  P17  1  0.686975  0.526084  0.500000  1
  P  P18  1  0.839109  0.313025  0.500000  1
  P  P19  1  0.473916  0.160891  0.500000  1
  P  P20  1  0.372573  0.372573  0.000000  1
  P  P21  1  0.627427  0.000000  0.000000  1
  P  P22  1  0.000000  0.627427  0.000000  1
  Ru  Ru23  1  0.178795  0.372302  0.000000  1
  Ru  Ru24  1  0.627698  0.806492  0.000000  1
  Ru  Ru25  1  0.193508  0.821205  0.000000  1
  Ru  Ru26  1  0.806492  0.627698  0.000000  1
  Ru  Ru27  1  0.821205  0.193508  0.000000  1
  Ru  Ru28  1  0.372302  0.178795  0.000000  1
  Ru  Ru29  1  0.359262  0.487407  0.500000  1
  Ru  Ru30  1  0.512593  0.871855  0.500000  1
  Ru  Ru31  1  0.128145  0.640738  0.500000  1
  Ru  Ru32  1  0.871855  0.512593  0.500000  1
  Ru  Ru33  1  0.640738  0.128145  0.500000  1
  Ru  Ru34  1  0.487407  0.359262  0.500000  1
  Ru  Ru35  1  0.000000  0.000000  0.000000  1
