# generated using pymatgen
data_Ti24PS7
_symmetry_space_group_name_H-M   'P 1'
_cell_length_a   9.82278600
_cell_length_b   9.83561371
_cell_length_c   4.98028331
_cell_angle_alpha   89.84839651
_cell_angle_beta   89.92771543
_cell_angle_gamma   89.99031630
_symmetry_Int_Tables_number   1
_chemical_formula_structural   Ti24PS7
_chemical_formula_sum   'Ti24 P1 S7'
_cell_volume   481.15867818
_cell_formula_units_Z   1
loop_
 _symmetry_equiv_pos_site_id
 _symmetry_equiv_pos_as_xyz
  1  'x, y, z'
loop_
 _atom_site_type_symbol
 _atom_site_label
 _atom_site_symmetry_multiplicity
 _atom_site_fract_x
 _atom_site_fract_y
 _atom_site_fract_z
 _atom_site_occupancy
  Ti  Ti0  1  0.971379  0.860908  0.278830  1
  Ti  Ti1  1  0.360684  0.527280  0.779456  1
  Ti  Ti2  1  0.639153  0.471081  0.779325  1
  Ti  Ti3  1  0.028126  0.139740  0.280064  1
  Ti  Ti4  1  0.528091  0.639069  0.220535  1
  Ti  Ti5  1  0.140976  0.973915  0.721122  1
  Ti  Ti6  1  0.859912  0.030607  0.720771  1
  Ti  Ti7  1  0.471933  0.359925  0.220336  1
  Ti  Ti8  1  0.819264  0.284183  0.016555  1
  Ti  Ti9  1  0.783866  0.679318  0.514318  1
  Ti  Ti10  1  0.215825  0.319004  0.515928  1
  Ti  Ti11  1  0.181575  0.715381  0.015379  1
  Ti  Ti12  1  0.679744  0.215390  0.484017  1
  Ti  Ti13  1  0.715121  0.820222  0.983545  1
  Ti  Ti14  1  0.284749  0.180899  0.984842  1
  Ti  Ti15  1  0.319664  0.784339  0.485062  1
  Ti  Ti16  1  0.914017  0.392756  0.541249  1
  Ti  Ti17  1  0.893249  0.585109  0.038520  1
  Ti  Ti18  1  0.106778  0.413942  0.041168  1
  Ti  Ti19  1  0.085670  0.605525  0.542381  1
  Ti  Ti20  1  0.585293  0.106747  0.959248  1
  Ti  Ti21  1  0.606229  0.914511  0.460336  1
  Ti  Ti22  1  0.393926  0.085646  0.458951  1
  Ti  Ti23  1  0.414830  0.894144  0.958767  1
  P  P24  1  0.960305  0.794303  0.784816  1
  S  S25  1  0.460330  0.292297  0.713212  1
  S  S26  1  0.792115  0.039615  0.214056  1
  S  S27  1  0.207678  0.960045  0.213550  1
  S  S28  1  0.539620  0.707349  0.713772  1
  S  S29  1  0.039763  0.207547  0.786976  1
  S  S30  1  0.707369  0.459929  0.286388  1
  S  S31  1  0.292767  0.539275  0.286523  1
