# generated using pymatgen
data_La13Nd(IrRh2)2
_symmetry_space_group_name_H-M   'P 1'
_cell_length_a   6.55692207
_cell_length_b   10.21347492
_cell_length_c   10.20302342
_cell_angle_alpha   120.03389843
_cell_angle_beta   89.88053538
_cell_angle_gamma   89.99992621
_symmetry_Int_Tables_number   1
_chemical_formula_structural   La13Nd(IrRh2)2
_chemical_formula_sum   'La13 Nd1 Ir2 Rh4'
_cell_volume   591.53896138
_cell_formula_units_Z   1
loop_
 _symmetry_equiv_pos_site_id
 _symmetry_equiv_pos_as_xyz
  1  'x, y, z'
loop_
 _atom_site_type_symbol
 _atom_site_label
 _atom_site_symmetry_multiplicity
 _atom_site_fract_x
 _atom_site_fract_y
 _atom_site_fract_z
 _atom_site_occupancy
  La  La0  1  0.474976  0.334424  0.668802  1
  La  La1  1  0.975689  0.665782  0.331531  1
  La  La2  1  0.237841  0.126119  0.875567  1
  La  La3  1  0.237837  0.749431  0.875533  1
  La  La4  1  0.239340  0.124406  0.248794  1
  La  La5  1  0.740971  0.873308  0.125143  1
  La  La6  1  0.741028  0.251739  0.125135  1
  La  La7  1  0.738474  0.875834  0.751648  1
  La  La8  1  0.434434  0.538387  0.461281  1
  La  La9  1  0.434466  0.922858  0.461247  1
  La  La10  1  0.435824  0.538533  0.077093  1
  La  La11  1  0.934166  0.461514  0.540243  1
  La  La12  1  0.934156  0.078766  0.540273  1
  Nd  Nd13  1  0.940633  0.461145  0.922240  1
  Ir  Ir14  1  0.197343  0.812103  0.186593  1
  Ir  Ir15  1  0.197309  0.374471  0.186596  1
  Rh  Rh16  1  0.196798  0.812130  0.624289  1
  Rh  Rh17  1  0.697667  0.184506  0.810733  1
  Rh  Rh18  1  0.697707  0.626236  0.810717  1
  Rh  Rh19  1  0.699339  0.188308  0.376543  1
