# generated using pymatgen
data_Y6Lu4Si6H
_symmetry_space_group_name_H-M   'P 1'
_cell_length_a   8.41796000
_cell_length_b   8.41796069
_cell_length_c   6.21267500
_cell_angle_alpha   90.00000000
_cell_angle_beta   90.00000000
_cell_angle_gamma   119.99999730
_symmetry_Int_Tables_number   1
_chemical_formula_structural   Y6Lu4Si6H
_chemical_formula_sum   'Y6 Lu4 Si6 H1'
_cell_volume   381.26156797
_cell_formula_units_Z   1
loop_
 _symmetry_equiv_pos_site_id
 _symmetry_equiv_pos_as_xyz
  1  'x, y, z'
loop_
 _atom_site_type_symbol
 _atom_site_label
 _atom_site_symmetry_multiplicity
 _atom_site_fract_x
 _atom_site_fract_y
 _atom_site_fract_z
 _atom_site_occupancy
  Y  Y0  1  0.000000  0.751734  0.247994  1
  Y  Y1  1  0.248266  0.248266  0.247994  1
  Y  Y2  1  0.751734  0.000000  0.247994  1
  Y  Y3  1  0.000000  0.248266  0.752006  1
  Y  Y4  1  0.751734  0.751734  0.752006  1
  Y  Y5  1  0.248266  0.000000  0.752006  1
  Lu  Lu6  1  0.333333  0.666667  0.500000  1
  Lu  Lu7  1  0.666667  0.333333  0.500000  1
  Lu  Lu8  1  0.666667  0.333333  0.000000  1
  Lu  Lu9  1  0.333333  0.666667  0.000000  1
  Si  Si10  1  0.000000  0.392590  0.249978  1
  Si  Si11  1  0.607410  0.607410  0.249978  1
  Si  Si12  1  0.392590  0.000000  0.249978  1
  Si  Si13  1  0.000000  0.607410  0.750022  1
  Si  Si14  1  0.392590  0.392590  0.750022  1
  Si  Si15  1  0.607410  0.000000  0.750022  1
  H  H16  1  0.000000  0.000000  0.500000  1
