# generated using pymatgen
data_Tb15Ho3(LuPb8)2
_symmetry_space_group_name_H-M   'P 1'
_cell_length_a   8.20980402
_cell_length_b   8.30123451
_cell_length_c   15.69929400
_cell_angle_alpha   89.99027497
_cell_angle_beta   89.99629418
_cell_angle_gamma   90.01767560
_symmetry_Int_Tables_number   1
_chemical_formula_structural   Tb15Ho3(LuPb8)2
_chemical_formula_sum   'Tb15 Ho3 Lu2 Pb16'
_cell_volume   1069.93049938
_cell_formula_units_Z   1
loop_
 _symmetry_equiv_pos_site_id
 _symmetry_equiv_pos_as_xyz
  1  'x, y, z'
loop_
 _atom_site_type_symbol
 _atom_site_label
 _atom_site_symmetry_multiplicity
 _atom_site_fract_x
 _atom_site_fract_y
 _atom_site_fract_z
 _atom_site_occupancy
  Tb  Tb0  1  0.467814  0.823592  0.400377  1
  Tb  Tb1  1  0.032135  0.323492  0.900471  1
  Tb  Tb2  1  0.032181  0.323480  0.599427  1
  Tb  Tb3  1  0.875159  0.840509  0.879509  1
  Tb  Tb4  1  0.467879  0.823510  0.099660  1
  Tb  Tb5  1  0.376430  0.658750  0.879133  1
  Tb  Tb6  1  0.624950  0.340550  0.120659  1
  Tb  Tb7  1  0.624821  0.340578  0.379442  1
  Tb  Tb8  1  0.532837  0.177589  0.599204  1
  Tb  Tb9  1  0.376342  0.658784  0.620757  1
  Tb  Tb10  1  0.532758  0.177522  0.900821  1
  Tb  Tb11  1  0.967226  0.677610  0.400796  1
  Tb  Tb12  1  0.967274  0.677485  0.099286  1
  Tb  Tb13  1  0.123572  0.158725  0.120976  1
  Tb  Tb14  1  0.875094  0.840372  0.620540  1
  Ho  Ho15  1  0.292614  0.496483  0.250085  1
  Ho  Ho16  1  0.207317  0.996561  0.749943  1
  Ho  Ho17  1  0.123683  0.158612  0.378939  1
  Lu  Lu18  1  0.792050  0.004160  0.249970  1
  Lu  Lu19  1  0.708047  0.504146  0.750030  1
  Pb  Pb20  1  0.844084  0.154267  0.750008  1
  Pb  Pb21  1  0.717384  0.533075  0.543807  1
  Pb  Pb22  1  0.928803  0.373747  0.250265  1
  Pb  Pb23  1  0.217683  0.966217  0.956897  1
  Pb  Pb24  1  0.282376  0.466298  0.043373  1
  Pb  Pb25  1  0.571680  0.874233  0.749991  1
  Pb  Pb26  1  0.345618  0.346988  0.750035  1
  Pb  Pb27  1  0.070260  0.624565  0.749968  1
  Pb  Pb28  1  0.783310  0.033211  0.455916  1
  Pb  Pb29  1  0.281807  0.465540  0.456565  1
  Pb  Pb30  1  0.154310  0.847264  0.250143  1
  Pb  Pb31  1  0.217314  0.966798  0.542508  1
  Pb  Pb32  1  0.782455  0.033142  0.044058  1
  Pb  Pb33  1  0.655880  0.654213  0.250019  1
  Pb  Pb34  1  0.717384  0.533153  0.956193  1
  Pb  Pb35  1  0.429471  0.124784  0.250229  1
