# generated using pymatgen
data_Tb19Y(CoSb2)4
_symmetry_space_group_name_H-M   'P 1'
_cell_length_a   7.96637827
_cell_length_b   8.76316000
_cell_length_c   12.27969142
_cell_angle_alpha   90.00000000
_cell_angle_beta   89.97010585
_cell_angle_gamma   90.00000000
_symmetry_Int_Tables_number   1
_chemical_formula_structural   Tb19Y(CoSb2)4
_chemical_formula_sum   'Tb19 Y1 Co4 Sb8'
_cell_volume   857.25309119
_cell_formula_units_Z   1
loop_
 _symmetry_equiv_pos_site_id
 _symmetry_equiv_pos_as_xyz
  1  'x, y, z'
loop_
 _atom_site_type_symbol
 _atom_site_label
 _atom_site_symmetry_multiplicity
 _atom_site_fract_x
 _atom_site_fract_y
 _atom_site_fract_z
 _atom_site_occupancy
  Tb  Tb0  1  0.654464  0.250000  0.297075  1
  Tb  Tb1  1  0.845993  0.250000  0.797648  1
  Tb  Tb2  1  0.345598  0.750000  0.702831  1
  Tb  Tb3  1  0.455201  0.750000  0.997950  1
  Tb  Tb4  1  0.955300  0.250000  0.501879  1
  Tb  Tb5  1  0.544718  0.250000  0.002035  1
  Tb  Tb6  1  0.044734  0.750000  0.498096  1
  Tb  Tb7  1  0.621860  0.750000  0.306087  1
  Tb  Tb8  1  0.121696  0.250000  0.193567  1
  Tb  Tb9  1  0.378044  0.250000  0.693907  1
  Tb  Tb10  1  0.877481  0.750000  0.805511  1
  Tb  Tb11  1  0.821005  0.965277  0.065030  1
  Tb  Tb12  1  0.321079  0.034755  0.434941  1
  Tb  Tb13  1  0.178877  0.464831  0.935090  1
  Tb  Tb14  1  0.678896  0.534890  0.565092  1
  Tb  Tb15  1  0.178877  0.035169  0.935090  1
  Tb  Tb16  1  0.678896  0.965110  0.565092  1
  Tb  Tb17  1  0.821005  0.534723  0.065030  1
  Tb  Tb18  1  0.321079  0.465245  0.434941  1
  Y  Y19  1  0.154957  0.750000  0.203864  1
  Co  Co20  1  0.435409  0.750000  0.490452  1
  Co  Co21  1  0.935357  0.250000  0.009642  1
  Co  Co22  1  0.564978  0.250000  0.509397  1
  Co  Co23  1  0.064384  0.750000  0.989986  1
  Sb  Sb24  1  0.928267  0.991532  0.326600  1
  Sb  Sb25  1  0.427635  0.007971  0.173315  1
  Sb  Sb26  1  0.072115  0.491747  0.673257  1
  Sb  Sb27  1  0.572040  0.508060  0.826710  1
  Sb  Sb28  1  0.072115  0.008253  0.673257  1
  Sb  Sb29  1  0.572040  0.991940  0.826710  1
  Sb  Sb30  1  0.928267  0.508468  0.326600  1
  Sb  Sb31  1  0.427635  0.492029  0.173315  1
