# generated using pymatgen
data_LiErAg5NO11
_symmetry_space_group_name_H-M   'P 1'
_cell_length_a   7.22957571
_cell_length_b   6.99732476
_cell_length_c   6.99732444
_cell_angle_alpha   60.03221382
_cell_angle_beta   59.70140386
_cell_angle_gamma   59.70139417
_symmetry_Int_Tables_number   1
_chemical_formula_structural   LiErAg5NO11
_chemical_formula_sum   'Li1 Er1 Ag5 N1 O11'
_cell_volume   249.22497864
_cell_formula_units_Z   1
loop_
 _symmetry_equiv_pos_site_id
 _symmetry_equiv_pos_as_xyz
  1  'x, y, z'
loop_
 _atom_site_type_symbol
 _atom_site_label
 _atom_site_symmetry_multiplicity
 _atom_site_fract_x
 _atom_site_fract_y
 _atom_site_fract_z
 _atom_site_occupancy
  Li  Li0  1  0.507919  0.996850  0.996850  1
  Er  Er1  1  0.999860  0.998738  0.998738  1
  Ag  Ag2  1  0.499515  0.499703  0.000377  1
  Ag  Ag3  1  0.499515  0.000377  0.499703  1
  Ag  Ag4  1  0.003112  0.997436  0.496867  1
  Ag  Ag5  1  0.990999  0.498537  0.498537  1
  Ag  Ag6  1  0.003112  0.496867  0.997436  1
  N  N7  1  0.498362  0.504772  0.504772  1
  O  O8  1  0.594427  0.138628  0.138628  1
  O  O9  1  0.145984  0.578761  0.132228  1
  O  O10  1  0.134018  0.134754  0.134754  1
  O  O11  1  0.145984  0.132228  0.578761  1
  O  O12  1  0.600759  0.641501  0.326503  1
  O  O13  1  0.600759  0.326503  0.641501  1
  O  O14  1  0.290774  0.548629  0.548629  1
  O  O15  1  0.852812  0.866197  0.418231  1
  O  O16  1  0.852812  0.418231  0.866197  1
  O  O17  1  0.874027  0.859347  0.859347  1
  O  O18  1  0.405249  0.861940  0.861940  1
