# generated using pymatgen
data_Dy3Y5(ZnCo)2
_symmetry_space_group_name_H-M   'P 1'
_cell_length_a   9.37252781
_cell_length_b   9.38056508
_cell_length_c   9.38366132
_cell_angle_alpha   59.90477420
_cell_angle_beta   60.04191622
_cell_angle_gamma   60.03088586
_symmetry_Int_Tables_number   1
_chemical_formula_structural   Dy3Y5(ZnCo)2
_chemical_formula_sum   'Dy6 Y10 Zn4 Co4'
_cell_volume   583.26769317
_cell_formula_units_Z   2
loop_
 _symmetry_equiv_pos_site_id
 _symmetry_equiv_pos_as_xyz
  1  'x, y, z'
loop_
 _atom_site_type_symbol
 _atom_site_label
 _atom_site_symmetry_multiplicity
 _atom_site_fract_x
 _atom_site_fract_y
 _atom_site_fract_z
 _atom_site_occupancy
  Dy  Dy0  1  0.599766  0.599769  0.599558  1
  Dy  Dy1  1  0.599568  0.599948  0.200909  1
  Dy  Dy2  1  0.599611  0.200980  0.599790  1
  Dy  Dy3  1  0.200863  0.599779  0.599574  1
  Dy  Dy4  1  0.059020  0.441026  0.440971  1
  Dy  Dy5  1  0.440963  0.058861  0.059194  1
  Y  Y6  1  0.441145  0.058690  0.441190  1
  Y  Y7  1  0.058807  0.441235  0.058763  1
  Y  Y8  1  0.441167  0.441251  0.058811  1
  Y  Y9  1  0.059015  0.058637  0.441176  1
  Y  Y10  1  0.188492  0.811600  0.811443  1
  Y  Y11  1  0.811642  0.188328  0.188343  1
  Y  Y12  1  0.811340  0.188625  0.811379  1
  Y  Y13  1  0.188817  0.811275  0.188777  1
  Y  Y14  1  0.811142  0.811337  0.188753  1
  Y  Y15  1  0.188701  0.188638  0.811329  1
  Zn  Zn16  1  0.827109  0.826893  0.826826  1
  Zn  Zn17  1  0.826813  0.827182  0.519176  1
  Zn  Zn18  1  0.826855  0.519110  0.827164  1
  Zn  Zn19  1  0.519180  0.826888  0.826819  1
  Co  Co20  1  0.390791  0.393290  0.393309  1
  Co  Co21  1  0.393293  0.390773  0.822640  1
  Co  Co22  1  0.393297  0.822599  0.390801  1
  Co  Co23  1  0.822604  0.393289  0.393306  1
