# generated using pymatgen
data_Dy20Ir4Ru5Rh3
_symmetry_space_group_name_H-M   'P 1'
_cell_length_a   10.86465985
_cell_length_b   10.86401186
_cell_length_c   6.40723121
_cell_angle_alpha   89.94520730
_cell_angle_beta   89.98177760
_cell_angle_gamma   89.98974743
_symmetry_Int_Tables_number   1
_chemical_formula_structural   Dy20Ir4Ru5Rh3
_chemical_formula_sum   'Dy20 Ir4 Ru5 Rh3'
_cell_volume   756.26940888
_cell_formula_units_Z   1
loop_
 _symmetry_equiv_pos_site_id
 _symmetry_equiv_pos_as_xyz
  1  'x, y, z'
loop_
 _atom_site_type_symbol
 _atom_site_label
 _atom_site_symmetry_multiplicity
 _atom_site_fract_x
 _atom_site_fract_y
 _atom_site_fract_z
 _atom_site_occupancy
  Dy  Dy0  1  0.293405  0.086781  0.378734  1
  Dy  Dy1  1  0.292667  0.914105  0.879598  1
  Dy  Dy2  1  0.706955  0.087227  0.880117  1
  Dy  Dy3  1  0.706285  0.913808  0.377242  1
  Dy  Dy4  1  0.586840  0.793830  0.879922  1
  Dy  Dy5  1  0.587215  0.206167  0.378398  1
  Dy  Dy6  1  0.413533  0.793924  0.377992  1
  Dy  Dy7  1  0.412191  0.206035  0.879084  1
  Dy  Dy8  1  0.206174  0.412351  0.620332  1
  Dy  Dy9  1  0.206062  0.586466  0.121844  1
  Dy  Dy10  1  0.793814  0.412828  0.121748  1
  Dy  Dy11  1  0.793937  0.587000  0.620680  1
  Dy  Dy12  1  0.913591  0.705868  0.122048  1
  Dy  Dy13  1  0.913778  0.292472  0.620068  1
  Dy  Dy14  1  0.086906  0.706795  0.620188  1
  Dy  Dy15  1  0.086587  0.292966  0.121947  1
  Dy  Dy16  1  0.999733  0.001296  0.499305  1
  Dy  Dy17  1  0.999227  0.000633  0.000625  1
  Dy  Dy18  1  0.500164  0.500109  0.000626  1
  Dy  Dy19  1  0.499969  0.499837  0.499426  1
  Ir  Ir20  1  0.153440  0.153151  0.750261  1
  Ir  Ir21  1  0.152805  0.846804  0.250049  1
  Ir  Ir22  1  0.652738  0.652380  0.249789  1
  Ir  Ir23  1  0.347845  0.347567  0.250212  1
  Ru  Ru24  1  0.847749  0.151864  0.250000  1
  Ru  Ru25  1  0.500512  0.999957  0.123339  1
  Ru  Ru26  1  0.500262  0.999828  0.624182  1
  Ru  Ru27  1  0.999753  0.500511  0.875772  1
  Ru  Ru28  1  0.999574  0.500173  0.376698  1
  Rh  Rh29  1  0.846885  0.846630  0.749755  1
  Rh  Rh30  1  0.651940  0.348087  0.750034  1
  Rh  Rh31  1  0.347462  0.652552  0.749983  1
