# generated using pymatgen
data_GdSb3Pb4O13
_symmetry_space_group_name_H-M   'P 1'
_cell_length_a   7.70939894
_cell_length_b   7.70939840
_cell_length_c   7.70939859
_cell_angle_alpha   59.66846313
_cell_angle_beta   59.66846420
_cell_angle_gamma   59.66845623
_symmetry_Int_Tables_number   1
_chemical_formula_structural   GdSb3Pb4O13
_chemical_formula_sum   'Gd1 Sb3 Pb4 O13'
_cell_volume   321.56063645
_cell_formula_units_Z   1
loop_
 _symmetry_equiv_pos_site_id
 _symmetry_equiv_pos_as_xyz
  1  'x, y, z'
loop_
 _atom_site_type_symbol
 _atom_site_label
 _atom_site_symmetry_multiplicity
 _atom_site_fract_x
 _atom_site_fract_y
 _atom_site_fract_z
 _atom_site_occupancy
  Gd  Gd0  1  0.500148  0.500148  0.500148  1
  Sb  Sb1  1  0.001079  0.500074  0.500074  1
  Sb  Sb2  1  0.500074  0.500074  0.001079  1
  Sb  Sb3  1  0.500074  0.001079  0.500074  1
  Pb  Pb4  1  0.999100  0.999100  0.999100  1
  Pb  Pb5  1  0.496843  0.002986  0.002986  1
  Pb  Pb6  1  0.002986  0.002986  0.496843  1
  Pb  Pb7  1  0.002986  0.496843  0.002986  1
  O  O8  1  0.860700  0.413968  0.413968  1
  O  O9  1  0.418135  0.814171  0.814171  1
  O  O10  1  0.413968  0.413968  0.860700  1
  O  O11  1  0.814171  0.814171  0.418135  1
  O  O12  1  0.814171  0.418135  0.814171  1
  O  O13  1  0.413968  0.860700  0.413968  1
  O  O14  1  0.145263  0.582613  0.582613  1
  O  O15  1  0.581938  0.186621  0.186621  1
  O  O16  1  0.582613  0.582613  0.145263  1
  O  O17  1  0.186621  0.186621  0.581938  1
  O  O18  1  0.186621  0.581938  0.186621  1
  O  O19  1  0.582613  0.145263  0.582613  1
  O  O20  1  0.120927  0.120927  0.120927  1
