# generated using pymatgen
data_TlAg2Bi(Ru2O7)2
_symmetry_space_group_name_H-M   'P 1'
_cell_length_a   7.34026739
_cell_length_b   7.25296312
_cell_length_c   7.25296216
_cell_angle_alpha   59.69742450
_cell_angle_beta   59.90958380
_cell_angle_gamma   59.90959479
_symmetry_Int_Tables_number   1
_chemical_formula_structural   TlAg2Bi(Ru2O7)2
_chemical_formula_sum   'Tl1 Ag2 Bi1 Ru4 O14'
_cell_volume   272.03994065
_cell_formula_units_Z   1
loop_
 _symmetry_equiv_pos_site_id
 _symmetry_equiv_pos_as_xyz
  1  'x, y, z'
loop_
 _atom_site_type_symbol
 _atom_site_label
 _atom_site_symmetry_multiplicity
 _atom_site_fract_x
 _atom_site_fract_y
 _atom_site_fract_z
 _atom_site_occupancy
  Tl  Tl0  1  0.125000  0.125000  0.125000  1
  Ag  Ag1  1  0.125000  0.125000  0.625000  1
  Ag  Ag2  1  0.125000  0.625000  0.125000  1
  Bi  Bi3  1  0.625000  0.125000  0.125000  1
  Ru  Ru4  1  0.625000  0.625000  0.125000  1
  Ru  Ru5  1  0.625000  0.125000  0.625000  1
  Ru  Ru6  1  0.125000  0.625000  0.625000  1
  Ru  Ru7  1  0.625000  0.625000  0.625000  1
  O  O8  1  0.238946  0.262619  0.262619  1
  O  O9  1  0.011054  0.987381  0.987381  1
  O  O10  1  0.566212  0.947652  0.540174  1
  O  O11  1  0.307718  0.697070  0.303532  1
  O  O12  1  0.566212  0.540174  0.947652  1
  O  O13  1  0.937725  0.560188  0.560188  1
  O  O14  1  0.558859  0.951105  0.951105  1
  O  O15  1  0.942282  0.946468  0.552930  1
  O  O16  1  0.942282  0.552930  0.946468  1
  O  O17  1  0.691141  0.298895  0.298895  1
  O  O18  1  0.312275  0.689812  0.689812  1
  O  O19  1  0.683788  0.302348  0.709826  1
  O  O20  1  0.307718  0.303532  0.697070  1
  O  O21  1  0.683788  0.709826  0.302348  1
