# generated using pymatgen
data_NpTePd2F24
_symmetry_space_group_name_H-M   'P 1'
_cell_length_a   5.42040699
_cell_length_b   9.52509300
_cell_length_c   10.46469476
_cell_angle_alpha   90.00000000
_cell_angle_beta   89.18473990
_cell_angle_gamma   90.00000000
_symmetry_Int_Tables_number   1
_chemical_formula_structural   NpTePd2F24
_chemical_formula_sum   'Np1 Te1 Pd2 F24'
_cell_volume   540.23624800
_cell_formula_units_Z   1
loop_
 _symmetry_equiv_pos_site_id
 _symmetry_equiv_pos_as_xyz
  1  'x, y, z'
loop_
 _atom_site_type_symbol
 _atom_site_label
 _atom_site_symmetry_multiplicity
 _atom_site_fract_x
 _atom_site_fract_y
 _atom_site_fract_z
 _atom_site_occupancy
  Np  Np0  1  0.584764  0.750000  0.130982  1
  Te  Te1  1  0.416571  0.250000  0.868395  1
  Pd  Pd2  1  0.924003  0.750000  0.627658  1
  Pd  Pd3  1  0.074837  0.250000  0.372618  1
  F  F4  1  0.212372  0.750000  0.522673  1
  F  F5  1  0.784732  0.250000  0.475927  1
  F  F6  1  0.692135  0.250000  0.973676  1
  F  F7  1  0.287439  0.750000  0.020560  1
  F  F8  1  0.636086  0.750000  0.733534  1
  F  F9  1  0.364593  0.250000  0.268312  1
  F  F10  1  0.138515  0.250000  0.765487  1
  F  F11  1  0.882685  0.750000  0.240706  1
  F  F12  1  0.783149  0.609425  0.522868  1
  F  F13  1  0.213873  0.391104  0.477085  1
  F  F14  1  0.272610  0.388758  0.971772  1
  F  F15  1  0.213873  0.108896  0.477085  1
  F  F16  1  0.738725  0.602351  0.021652  1
  F  F17  1  0.783149  0.890575  0.522868  1
  F  F18  1  0.738725  0.897649  0.021652  1
  F  F19  1  0.272610  0.111242  0.971772  1
  F  F20  1  0.063481  0.609274  0.732419  1
  F  F21  1  0.936866  0.391119  0.267131  1
  F  F22  1  0.561108  0.389022  0.766724  1
  F  F23  1  0.936866  0.108881  0.267131  1
  F  F24  1  0.430823  0.602570  0.240085  1
  F  F25  1  0.063481  0.890726  0.732419  1
  F  F26  1  0.430823  0.897430  0.240085  1
  F  F27  1  0.561108  0.110978  0.766724  1
