# generated using pymatgen
data_Tm2Co2P6Ir7Rh
_symmetry_space_group_name_H-M   'P 1'
_cell_length_a   3.90632300
_cell_length_b   10.70914400
_cell_length_c   12.38750000
_cell_angle_alpha   90.00000000
_cell_angle_beta   90.00000000
_cell_angle_gamma   90.00000000
_symmetry_Int_Tables_number   1
_chemical_formula_structural   Tm2Co2P6Ir7Rh
_chemical_formula_sum   'Tm4 Co4 P12 Ir14 Rh2'
_cell_volume   518.21093922
_cell_formula_units_Z   2
loop_
 _symmetry_equiv_pos_site_id
 _symmetry_equiv_pos_as_xyz
  1  'x, y, z'
loop_
 _atom_site_type_symbol
 _atom_site_label
 _atom_site_symmetry_multiplicity
 _atom_site_fract_x
 _atom_site_fract_y
 _atom_site_fract_z
 _atom_site_occupancy
  Tm  Tm0  1  0.250000  0.585725  0.710112  1
  Tm  Tm1  1  0.250000  0.914275  0.210112  1
  Tm  Tm2  1  0.750000  0.416090  0.290934  1
  Tm  Tm3  1  0.750000  0.083910  0.790934  1
  Co  Co4  1  0.250000  0.459897  0.933710  1
  Co  Co5  1  0.250000  0.040103  0.433710  1
  Co  Co6  1  0.750000  0.536507  0.066206  1
  Co  Co7  1  0.750000  0.963493  0.566206  1
  P  P8  1  0.250000  0.426960  0.106042  1
  P  P9  1  0.250000  0.073040  0.606042  1
  P  P10  1  0.750000  0.574473  0.894297  1
  P  P11  1  0.750000  0.925527  0.394297  1
  P  P12  1  0.250000  0.269728  0.870868  1
  P  P13  1  0.250000  0.230272  0.370868  1
  P  P14  1  0.750000  0.729486  0.128350  1
  P  P15  1  0.750000  0.770514  0.628350  1
  P  P16  1  0.250000  0.596396  0.385723  1
  P  P17  1  0.250000  0.903604  0.885723  1
  P  P18  1  0.750000  0.405899  0.615423  1
  P  P19  1  0.750000  0.094101  0.115423  1
  Ir  Ir20  1  0.750000  0.279088  0.018415  1
  Ir  Ir21  1  0.750000  0.220912  0.518415  1
  Ir  Ir22  1  0.250000  0.407295  0.477175  1
  Ir  Ir23  1  0.250000  0.092705  0.977175  1
  Ir  Ir24  1  0.750000  0.591841  0.522472  1
  Ir  Ir25  1  0.750000  0.908159  0.022472  1
  Ir  Ir26  1  0.250000  0.233120  0.180114  1
  Ir  Ir27  1  0.250000  0.266880  0.680114  1
  Ir  Ir28  1  0.750000  0.768091  0.819506  1
  Ir  Ir29  1  0.750000  0.731909  0.319506  1
  Ir  Ir30  1  0.250000  0.886658  0.699068  1
  Ir  Ir31  1  0.250000  0.613342  0.199068  1
  Ir  Ir32  1  0.750000  0.113459  0.300846  1
  Ir  Ir33  1  0.750000  0.386541  0.800846  1
  Rh  Rh34  1  0.250000  0.718863  0.980738  1
  Rh  Rh35  1  0.250000  0.781137  0.480738  1
