# generated using pymatgen
data_Sc20(SiBi3)3
_symmetry_space_group_name_H-M   'P 1'
_cell_length_a   7.64313095
_cell_length_b   8.78676100
_cell_length_c   11.28097779
_cell_angle_alpha   90.00000000
_cell_angle_beta   90.20310349
_cell_angle_gamma   90.00000000
_symmetry_Int_Tables_number   1
_chemical_formula_structural   Sc20(SiBi3)3
_chemical_formula_sum   'Sc20 Si3 Bi9'
_cell_volume   757.60726415
_cell_formula_units_Z   1
loop_
 _symmetry_equiv_pos_site_id
 _symmetry_equiv_pos_as_xyz
  1  'x, y, z'
loop_
 _atom_site_type_symbol
 _atom_site_label
 _atom_site_symmetry_multiplicity
 _atom_site_fract_x
 _atom_site_fract_y
 _atom_site_fract_z
 _atom_site_occupancy
  Sc  Sc0  1  0.190462  0.042420  0.935228  1
  Sc  Sc1  1  0.322723  0.055999  0.443578  1
  Sc  Sc2  1  0.322723  0.444001  0.443578  1
  Sc  Sc3  1  0.330187  0.750000  0.711159  1
  Sc  Sc4  1  0.460994  0.750000  0.003479  1
  Sc  Sc5  1  0.161148  0.250000  0.218619  1
  Sc  Sc6  1  0.817947  0.926611  0.061827  1
  Sc  Sc7  1  0.642122  0.750000  0.295774  1
  Sc  Sc8  1  0.037693  0.750000  0.503417  1
  Sc  Sc9  1  0.680447  0.942189  0.558771  1
  Sc  Sc10  1  0.190462  0.457580  0.935228  1
  Sc  Sc11  1  0.356626  0.250000  0.708008  1
  Sc  Sc12  1  0.166784  0.750000  0.212498  1
  Sc  Sc13  1  0.965859  0.250000  0.496234  1
  Sc  Sc14  1  0.680447  0.557811  0.558771  1
  Sc  Sc15  1  0.663997  0.250000  0.292750  1
  Sc  Sc16  1  0.817947  0.573389  0.061827  1
  Sc  Sc17  1  0.518368  0.250000  0.993733  1
  Sc  Sc18  1  0.809463  0.250000  0.763026  1
  Sc  Sc19  1  0.859164  0.750000  0.793119  1
  Si  Si20  1  0.409697  0.750000  0.477131  1
  Si  Si21  1  0.088700  0.750000  0.977158  1
  Si  Si22  1  0.596833  0.250000  0.530690  1
  Bi  Bi23  1  0.064722  0.488798  0.674620  1
  Bi  Bi24  1  0.565433  0.513887  0.824344  1
  Bi  Bi25  1  0.935253  0.989713  0.325115  1
  Bi  Bi26  1  0.436155  0.009142  0.176061  1
  Bi  Bi27  1  0.565433  0.986113  0.824344  1
  Bi  Bi28  1  0.436155  0.490858  0.176061  1
  Bi  Bi29  1  0.064722  0.011202  0.674620  1
  Bi  Bi30  1  0.935253  0.510287  0.325115  1
  Bi  Bi31  1  0.906078  0.250000  0.024117  1
