# generated using pymatgen
data_GaFe2Sb11Pt2
_symmetry_space_group_name_H-M   'P 1'
_cell_length_a   7.92518901
_cell_length_b   7.92518813
_cell_length_c   7.92918100
_cell_angle_alpha   109.28441447
_cell_angle_beta   109.74753537
_cell_angle_gamma   109.36163255
_symmetry_Int_Tables_number   1
_chemical_formula_structural   GaFe2Sb11Pt2
_chemical_formula_sum   'Ga1 Fe2 Sb11 Pt2'
_cell_volume   383.46621764
_cell_formula_units_Z   1
loop_
 _symmetry_equiv_pos_site_id
 _symmetry_equiv_pos_as_xyz
  1  'x, y, z'
loop_
 _atom_site_type_symbol
 _atom_site_label
 _atom_site_symmetry_multiplicity
 _atom_site_fract_x
 _atom_site_fract_y
 _atom_site_fract_z
 _atom_site_occupancy
  Ga  Ga0  1  0.852721  0.700195  0.552918  1
  Fe  Fe1  1  0.999399  0.493756  0.000172  1
  Fe  Fe2  1  0.506416  0.000773  0.000172  1
  Sb  Sb3  1  0.846203  0.293216  0.139421  1
  Sb  Sb4  1  0.148860  0.677995  0.826853  1
  Sb  Sb5  1  0.332807  0.494253  0.145215  1
  Sb  Sb6  1  0.150144  0.353379  0.503523  1
  Sb  Sb7  1  0.650963  0.812409  0.145215  1
  Sb  Sb8  1  0.175775  0.829048  0.326175  1
  Sb  Sb9  1  0.672458  0.504375  0.852023  1
  Sb  Sb10  1  0.816530  0.164775  0.666004  1
  Sb  Sb11  1  0.347647  0.179565  0.852023  1
  Sb  Sb12  1  0.501230  0.849473  0.666004  1
  Sb  Sb13  1  0.497125  0.150401  0.326175  1
  Pt  Pt14  1  0.997769  0.995101  0.499054  1
  Pt  Pt15  1  0.503953  0.501285  0.499054  1
