# generated using pymatgen
data_SmZn4CuAg
_symmetry_space_group_name_H-M   'P 1'
_cell_length_a   5.16825800
_cell_length_b   8.38492700
_cell_length_c   10.83245400
_cell_angle_alpha   90.00000000
_cell_angle_beta   90.00000000
_cell_angle_gamma   90.00000000
_symmetry_Int_Tables_number   1
_chemical_formula_structural   SmZn4CuAg
_chemical_formula_sum   'Sm4 Zn16 Cu4 Ag4'
_cell_volume   469.42944252
_cell_formula_units_Z   4
loop_
 _symmetry_equiv_pos_site_id
 _symmetry_equiv_pos_as_xyz
  1  'x, y, z'
loop_
 _atom_site_type_symbol
 _atom_site_label
 _atom_site_symmetry_multiplicity
 _atom_site_fract_x
 _atom_site_fract_y
 _atom_site_fract_z
 _atom_site_occupancy
  Sm  Sm0  1  0.250000  0.248743  0.555738  1
  Sm  Sm1  1  0.750000  0.751257  0.444262  1
  Sm  Sm2  1  0.250000  0.748743  0.944262  1
  Sm  Sm3  1  0.750000  0.251257  0.055738  1
  Zn  Zn4  1  0.506739  0.566747  0.181435  1
  Zn  Zn5  1  0.006739  0.433253  0.818565  1
  Zn  Zn6  1  0.993261  0.066747  0.318565  1
  Zn  Zn7  1  0.493261  0.933253  0.681435  1
  Zn  Zn8  1  0.493261  0.433253  0.818565  1
  Zn  Zn9  1  0.993261  0.566747  0.181435  1
  Zn  Zn10  1  0.006739  0.933253  0.681435  1
  Zn  Zn11  1  0.506739  0.066747  0.318565  1
  Zn  Zn12  1  0.750000  0.942014  0.899199  1
  Zn  Zn13  1  0.250000  0.057986  0.100801  1
  Zn  Zn14  1  0.750000  0.442014  0.600801  1
  Zn  Zn15  1  0.250000  0.557986  0.399199  1
  Zn  Zn16  1  0.750000  0.686563  0.752303  1
  Zn  Zn17  1  0.250000  0.313437  0.247697  1
  Zn  Zn18  1  0.750000  0.186563  0.747697  1
  Zn  Zn19  1  0.250000  0.813437  0.252303  1
  Cu  Cu20  1  0.750000  0.591884  0.979910  1
  Cu  Cu21  1  0.250000  0.408116  0.020090  1
  Cu  Cu22  1  0.750000  0.091884  0.520090  1
  Cu  Cu23  1  0.250000  0.908116  0.479910  1
  Ag  Ag24  1  0.250000  0.130694  0.858933  1
  Ag  Ag25  1  0.750000  0.869306  0.141067  1
  Ag  Ag26  1  0.250000  0.630694  0.641067  1
  Ag  Ag27  1  0.750000  0.369306  0.358933  1
