# generated using pymatgen
data_Tm16Cd4NiRu3
_symmetry_space_group_name_H-M   'P 1'
_cell_length_a   9.42884267
_cell_length_b   9.50349522
_cell_length_c   9.50349500
_cell_angle_alpha   60.00000426
_cell_angle_beta   59.73774916
_cell_angle_gamma   59.73775498
_symmetry_Int_Tables_number   1
_chemical_formula_structural   Tm16Cd4NiRu3
_chemical_formula_sum   'Tm16 Cd4 Ni1 Ru3'
_cell_volume   599.75959645
_cell_formula_units_Z   1
loop_
 _symmetry_equiv_pos_site_id
 _symmetry_equiv_pos_as_xyz
  1  'x, y, z'
loop_
 _atom_site_type_symbol
 _atom_site_label
 _atom_site_symmetry_multiplicity
 _atom_site_fract_x
 _atom_site_fract_y
 _atom_site_fract_z
 _atom_site_occupancy
  Tm  Tm0  1  0.350713  0.346076  0.346076  1
  Tm  Tm1  1  0.350713  0.346076  0.957136  1
  Tm  Tm2  1  0.350713  0.957136  0.346076  1
  Tm  Tm3  1  0.957268  0.347577  0.347577  1
  Tm  Tm4  1  0.811492  0.187788  0.187788  1
  Tm  Tm5  1  0.186959  0.812123  0.812123  1
  Tm  Tm6  1  0.186959  0.812123  0.188795  1
  Tm  Tm7  1  0.811492  0.187788  0.812932  1
  Tm  Tm8  1  0.186959  0.188795  0.812123  1
  Tm  Tm9  1  0.811492  0.812932  0.187788  1
  Tm  Tm10  1  0.938698  0.561315  0.561315  1
  Tm  Tm11  1  0.560241  0.936998  0.936998  1
  Tm  Tm12  1  0.560241  0.936998  0.565763  1
  Tm  Tm13  1  0.938698  0.561315  0.938671  1
  Tm  Tm14  1  0.560241  0.565763  0.936998  1
  Tm  Tm15  1  0.938698  0.938671  0.561315  1
  Cd  Cd16  1  0.579274  0.580395  0.580395  1
  Cd  Cd17  1  0.579274  0.580395  0.259938  1
  Cd  Cd18  1  0.579274  0.259938  0.580395  1
  Cd  Cd19  1  0.257097  0.580968  0.580968  1
  Ni  Ni20  1  0.575046  0.141652  0.141652  1
  Ru  Ru21  1  0.142820  0.140762  0.140762  1
  Ru  Ru22  1  0.142820  0.140762  0.575658  1
  Ru  Ru23  1  0.142820  0.575658  0.140762  1
