# generated using pymatgen
data_Sr8As5Br
_symmetry_space_group_name_H-M   'P 1'
_cell_length_a   8.29315599
_cell_length_b   8.29315613
_cell_length_c   8.29315601
_cell_angle_alpha   109.30300460
_cell_angle_beta   109.30300215
_cell_angle_gamma   109.80818217
_symmetry_Int_Tables_number   1
_chemical_formula_structural   Sr8As5Br
_chemical_formula_sum   'Sr8 As5 Br1'
_cell_volume   439.06249716
_cell_formula_units_Z   1
loop_
 _symmetry_equiv_pos_site_id
 _symmetry_equiv_pos_as_xyz
  1  'x, y, z'
loop_
 _atom_site_type_symbol
 _atom_site_label
 _atom_site_symmetry_multiplicity
 _atom_site_fract_x
 _atom_site_fract_y
 _atom_site_fract_z
 _atom_site_occupancy
  Sr  Sr0  1  0.737067  0.362304  0.240895  1
  Sr  Sr1  1  0.980221  0.736594  0.097603  1
  Sr  Sr2  1  0.638993  0.882618  0.902397  1
  Sr  Sr3  1  0.121409  0.496172  0.759105  1
  Sr  Sr4  1  0.637696  0.878591  0.374765  1
  Sr  Sr5  1  0.503828  0.262933  0.625235  1
  Sr  Sr6  1  0.263406  0.361007  0.243626  1
  Sr  Sr7  1  0.117382  0.019779  0.756374  1
  As  As8  1  0.745744  0.632380  0.618063  1
  As  As9  1  0.367620  0.985683  0.113364  1
  As  As10  1  0.014317  0.127681  0.381937  1
  As  As11  1  0.500000  0.500000  0.000000  1
  As  As12  1  0.872319  0.254256  0.886636  1
  Br  Br13  1  0.250000  0.750000  0.500000  1
