# generated using pymatgen
data_La15Tb5Ir11Ru
_symmetry_space_group_name_H-M   'P 1'
_cell_length_a   11.35910111
_cell_length_b   11.34595380
_cell_length_c   6.57291449
_cell_angle_alpha   89.97414520
_cell_angle_beta   90.03766103
_cell_angle_gamma   90.17658274
_symmetry_Int_Tables_number   1
_chemical_formula_structural   La15Tb5Ir11Ru
_chemical_formula_sum   'La15 Tb5 Ir11 Ru1'
_cell_volume   847.11185282
_cell_formula_units_Z   1
loop_
 _symmetry_equiv_pos_site_id
 _symmetry_equiv_pos_as_xyz
  1  'x, y, z'
loop_
 _atom_site_type_symbol
 _atom_site_label
 _atom_site_symmetry_multiplicity
 _atom_site_fract_x
 _atom_site_fract_y
 _atom_site_fract_z
 _atom_site_occupancy
  La  La0  1  0.286745  0.090433  0.386954  1
  La  La1  1  0.290565  0.911831  0.892375  1
  La  La2  1  0.710008  0.087981  0.895134  1
  La  La3  1  0.709826  0.911748  0.390776  1
  La  La4  1  0.588692  0.789627  0.892276  1
  La  La5  1  0.587546  0.210127  0.390040  1
  La  La6  1  0.411082  0.790294  0.389896  1
  La  La7  1  0.410507  0.209763  0.894317  1
  La  La8  1  0.210515  0.407853  0.611586  1
  La  La9  1  0.210921  0.584627  0.109857  1
  La  La10  1  0.790425  0.410950  0.109533  1
  La  La11  1  0.787993  0.588272  0.609609  1
  La  La12  1  0.912388  0.712618  0.110262  1
  La  La13  1  0.913370  0.286951  0.611118  1
  La  La14  1  0.089598  0.711227  0.610204  1
  Tb  Tb15  1  0.086133  0.291315  0.107697  1
  Tb  Tb16  1  0.999417  0.999821  0.497829  1
  Tb  Tb17  1  0.002449  0.003758  0.998903  1
  Tb  Tb18  1  0.500265  0.498755  0.999269  1
  Tb  Tb19  1  0.498683  0.499663  0.498595  1
  Ir  Ir20  1  0.856657  0.153680  0.245074  1
  Ir  Ir21  1  0.851729  0.850865  0.749964  1
  Ir  Ir22  1  0.148879  0.150462  0.752022  1
  Ir  Ir23  1  0.149193  0.850986  0.250385  1
  Ir  Ir24  1  0.648348  0.351069  0.748873  1
  Ir  Ir25  1  0.649559  0.649051  0.249908  1
  Ir  Ir26  1  0.346232  0.350726  0.247956  1
  Ir  Ir27  1  0.351012  0.648622  0.750331  1
  Ir  Ir28  1  0.499875  0.000345  0.624247  1
  Ir  Ir29  1  0.001187  0.497007  0.877245  1
  Ir  Ir30  1  0.000314  0.499054  0.375342  1
  Ru  Ru31  1  0.499886  0.000519  0.122421  1
