# generated using pymatgen
data_SmEr2Si3P3Pd20
_symmetry_space_group_name_H-M   'P 1'
_cell_length_a   8.68839133
_cell_length_b   8.68972933
_cell_length_c   8.69705470
_cell_angle_alpha   59.96193536
_cell_angle_beta   60.04819865
_cell_angle_gamma   60.06087019
_symmetry_Int_Tables_number   1
_chemical_formula_structural   SmEr2Si3P3Pd20
_chemical_formula_sum   'Sm1 Er2 Si3 P3 Pd20'
_cell_volume   464.55272454
_cell_formula_units_Z   1
loop_
 _symmetry_equiv_pos_site_id
 _symmetry_equiv_pos_as_xyz
  1  'x, y, z'
loop_
 _atom_site_type_symbol
 _atom_site_label
 _atom_site_symmetry_multiplicity
 _atom_site_fract_x
 _atom_site_fract_y
 _atom_site_fract_z
 _atom_site_occupancy
  Sm  Sm0  1  0.250398  0.249602  0.250398  1
  Er  Er1  1  0.999371  0.000629  0.999371  1
  Er  Er2  1  0.750437  0.749563  0.750437  1
  Si  Si3  1  0.733493  0.266507  0.733493  1
  Si  Si4  1  0.266301  0.264841  0.735224  1
  Si  Si5  1  0.735224  0.733633  0.266301  1
  P  P6  1  0.736064  0.264012  0.265862  1
  P  P7  1  0.265862  0.734062  0.736064  1
  P  P8  1  0.264614  0.735386  0.264614  1
  Pd  Pd9  1  0.346826  0.997739  0.000843  1
  Pd  Pd10  1  0.654843  0.999303  0.999378  1
  Pd  Pd11  1  0.999378  0.346475  0.654843  1
  Pd  Pd12  1  0.000843  0.654592  0.346826  1
  Pd  Pd13  1  0.997558  0.346569  0.999439  1
  Pd  Pd14  1  0.654830  0.001043  0.344955  1
  Pd  Pd15  1  0.999439  0.656433  0.997558  1
  Pd  Pd16  1  0.344955  0.999173  0.654830  1
  Pd  Pd17  1  0.999830  0.998693  0.345018  1
  Pd  Pd18  1  0.000225  0.998359  0.656183  1
  Pd  Pd19  1  0.656183  0.345233  0.000225  1
  Pd  Pd20  1  0.345018  0.656459  0.999830  1
  Pd  Pd21  1  0.386560  0.386547  0.384559  1
  Pd  Pd22  1  0.615809  0.618150  0.617560  1
  Pd  Pd23  1  0.384358  0.387060  0.843809  1
  Pd  Pd24  1  0.384559  0.842337  0.386560  1
  Pd  Pd25  1  0.616223  0.616468  0.149430  1
  Pd  Pd26  1  0.617560  0.148478  0.615809  1
  Pd  Pd27  1  0.843809  0.384775  0.384358  1
  Pd  Pd28  1  0.149430  0.617877  0.616223  1
