# generated using pymatgen
data_Ca12Ge7AsRh8
_symmetry_space_group_name_H-M   'P 1'
_cell_length_a   5.76387700
_cell_length_b   7.80569200
_cell_length_c   13.61946300
_cell_angle_alpha   90.00000000
_cell_angle_beta   90.00000000
_cell_angle_gamma   89.99607911
_symmetry_Int_Tables_number   1
_chemical_formula_structural   Ca12Ge7AsRh8
_chemical_formula_sum   'Ca12 Ge7 As1 Rh8'
_cell_volume   612.75392086
_cell_formula_units_Z   1
loop_
 _symmetry_equiv_pos_site_id
 _symmetry_equiv_pos_as_xyz
  1  'x, y, z'
loop_
 _atom_site_type_symbol
 _atom_site_label
 _atom_site_symmetry_multiplicity
 _atom_site_fract_x
 _atom_site_fract_y
 _atom_site_fract_z
 _atom_site_occupancy
  Ca  Ca0  1  0.629778  0.239202  0.250000  1
  Ca  Ca1  1  0.367697  0.760758  0.750000  1
  Ca  Ca2  1  0.362566  0.744703  0.250000  1
  Ca  Ca3  1  0.633995  0.259315  0.750000  1
  Ca  Ca4  1  0.142131  0.394373  0.100186  1
  Ca  Ca5  1  0.859489  0.605486  0.901012  1
  Ca  Ca6  1  0.859489  0.605486  0.598988  1
  Ca  Ca7  1  0.862439  0.893953  0.400501  1
  Ca  Ca8  1  0.142131  0.394373  0.399814  1
  Ca  Ca9  1  0.139768  0.105364  0.599117  1
  Ca  Ca10  1  0.139768  0.105364  0.900883  1
  Ca  Ca11  1  0.862439  0.893953  0.099499  1
  Ge  Ge12  1  0.851645  0.910781  0.750000  1
  Ge  Ge13  1  0.847379  0.590411  0.250000  1
  Ge  Ge14  1  0.149541  0.410358  0.750000  1
  Ge  Ge15  1  0.608919  0.250429  0.000218  1
  Ge  Ge16  1  0.391084  0.748306  0.999665  1
  Ge  Ge17  1  0.391084  0.748306  0.500335  1
  Ge  Ge18  1  0.608919  0.250429  0.499782  1
  As  As19  1  0.142698  0.094860  0.250000  1
  Rh  Rh20  1  0.367065  0.027384  0.090675  1
  Rh  Rh21  1  0.636275  0.970733  0.910147  1
  Rh  Rh22  1  0.636275  0.970733  0.589853  1
  Rh  Rh23  1  0.637071  0.529176  0.407958  1
  Rh  Rh24  1  0.367065  0.027384  0.409325  1
  Rh  Rh25  1  0.363110  0.469602  0.591482  1
  Rh  Rh26  1  0.363110  0.469602  0.908518  1
  Rh  Rh27  1  0.637071  0.529176  0.092042  1
