# generated using pymatgen
data_Sr3Ca3(PtO6)2
_symmetry_space_group_name_H-M   'P 1'
_cell_length_a   5.72691600
_cell_length_b   5.91839357
_cell_length_c   8.17825500
_cell_angle_alpha   90.14028705
_cell_angle_beta   90.43492624
_cell_angle_gamma   89.95392958
_symmetry_Int_Tables_number   1
_chemical_formula_structural   Sr3Ca3(PtO6)2
_chemical_formula_sum   'Sr3 Ca3 Pt2 O12'
_cell_volume   277.18604016
_cell_formula_units_Z   1
loop_
 _symmetry_equiv_pos_site_id
 _symmetry_equiv_pos_as_xyz
  1  'x, y, z'
loop_
 _atom_site_type_symbol
 _atom_site_label
 _atom_site_symmetry_multiplicity
 _atom_site_fract_x
 _atom_site_fract_y
 _atom_site_fract_z
 _atom_site_occupancy
  Sr  Sr0  1  0.986334  0.947521  0.747894  1
  Sr  Sr1  1  0.514506  0.451733  0.750651  1
  Sr  Sr2  1  0.009926  0.051295  0.251065  1
  Ca  Ca3  1  0.483544  0.558122  0.248029  1
  Ca  Ca4  1  0.000883  0.499237  0.497613  1
  Ca  Ca5  1  0.498462  0.002833  0.001283  1
  Pt  Pt6  1  0.998268  0.500802  0.003529  1
  Pt  Pt7  1  0.501936  0.999008  0.497245  1
  O  O8  1  0.225267  0.807751  0.455649  1
  O  O9  1  0.725091  0.693999  0.955840  1
  O  O10  1  0.780987  0.186443  0.538865  1
  O  O11  1  0.279594  0.317622  0.056043  1
  O  O12  1  0.685891  0.725740  0.551183  1
  O  O13  1  0.189096  0.770587  0.055641  1
  O  O14  1  0.324811  0.278674  0.439969  1
  O  O15  1  0.818251  0.224364  0.950915  1
  O  O16  1  0.587483  0.953240  0.267099  1
  O  O17  1  0.087785  0.524238  0.770298  1
  O  O18  1  0.413285  0.032604  0.729726  1
  O  O19  1  0.888601  0.474187  0.231465  1
