# generated using pymatgen
data_YbHo19Ir11Ru
_symmetry_space_group_name_H-M   'P 1'
_cell_length_a   10.81891948
_cell_length_b   10.83344214
_cell_length_c   6.37913463
_cell_angle_alpha   89.93449140
_cell_angle_beta   90.12158812
_cell_angle_gamma   89.83400898
_symmetry_Int_Tables_number   1
_chemical_formula_structural   YbHo19Ir11Ru
_chemical_formula_sum   'Yb1 Ho19 Ir11 Ru1'
_cell_volume   747.66841931
_cell_formula_units_Z   1
loop_
 _symmetry_equiv_pos_site_id
 _symmetry_equiv_pos_as_xyz
  1  'x, y, z'
loop_
 _atom_site_type_symbol
 _atom_site_label
 _atom_site_symmetry_multiplicity
 _atom_site_fract_x
 _atom_site_fract_y
 _atom_site_fract_z
 _atom_site_occupancy
  Yb  Yb0  1  0.290380  0.087700  0.375060  1
  Ho  Ho1  1  0.293448  0.912936  0.881399  1
  Ho  Ho2  1  0.706432  0.085594  0.881712  1
  Ho  Ho3  1  0.707798  0.913287  0.377736  1
  Ho  Ho4  1  0.587992  0.794162  0.880894  1
  Ho  Ho5  1  0.585013  0.206818  0.377435  1
  Ho  Ho6  1  0.412341  0.794475  0.377853  1
  Ho  Ho7  1  0.413237  0.206547  0.881241  1
  Ho  Ho8  1  0.208927  0.412018  0.622459  1
  Ho  Ho9  1  0.209748  0.587314  0.120743  1
  Ho  Ho10  1  0.790910  0.411647  0.120388  1
  Ho  Ho11  1  0.791272  0.587982  0.620395  1
  Ho  Ho12  1  0.912631  0.708950  0.120924  1
  Ho  Ho13  1  0.911342  0.290513  0.622183  1
  Ho  Ho14  1  0.088056  0.708837  0.621192  1
  Ho  Ho15  1  0.088226  0.290856  0.120560  1
  Ho  Ho16  1  0.002107  0.999986  0.498602  1
  Ho  Ho17  1  0.999254  0.000127  0.998370  1
  Ho  Ho18  1  0.500337  0.500490  0.997761  1
  Ho  Ho19  1  0.499630  0.500845  0.497662  1
  Ir  Ir20  1  0.847966  0.153815  0.250600  1
  Ir  Ir21  1  0.848446  0.846816  0.748491  1
  Ir  Ir22  1  0.151086  0.153966  0.756455  1
  Ir  Ir23  1  0.149952  0.841787  0.245692  1
  Ir  Ir24  1  0.652280  0.346799  0.749206  1
  Ir  Ir25  1  0.653174  0.653045  0.250232  1
  Ir  Ir26  1  0.347399  0.351815  0.247319  1
  Ir  Ir27  1  0.346670  0.653438  0.748625  1
  Ir  Ir28  1  0.502247  0.999052  0.625423  1
  Ir  Ir29  1  0.000107  0.499653  0.878934  1
  Ir  Ir30  1  0.000104  0.499410  0.378916  1
  Ru  Ru31  1  0.501489  0.999318  0.125546  1
