# generated using pymatgen
data_LiTm8Sc9(Si8W)2
_symmetry_space_group_name_H-M   'P 1'
_cell_length_a   6.92290596
_cell_length_b   7.23344667
_cell_length_c   13.77072600
_cell_angle_alpha   90.00000000
_cell_angle_beta   90.00000000
_cell_angle_gamma   90.00829807
_symmetry_Int_Tables_number   1
_chemical_formula_structural   LiTm8Sc9(Si8W)2
_chemical_formula_sum   'Li1 Tm8 Sc9 Si16 W2'
_cell_volume   689.58935499
_cell_formula_units_Z   1
loop_
 _symmetry_equiv_pos_site_id
 _symmetry_equiv_pos_as_xyz
  1  'x, y, z'
loop_
 _atom_site_type_symbol
 _atom_site_label
 _atom_site_symmetry_multiplicity
 _atom_site_fract_x
 _atom_site_fract_y
 _atom_site_fract_z
 _atom_site_occupancy
  Li  Li0  1  0.841706  0.487915  0.250000  1
  Tm  Tm1  1  0.014290  0.181349  0.096710  1
  Tm  Tm2  1  0.990145  0.821342  0.902491  1
  Tm  Tm3  1  0.485568  0.675001  0.904071  1
  Tm  Tm4  1  0.990145  0.821342  0.597509  1
  Tm  Tm5  1  0.513661  0.322438  0.099286  1
  Tm  Tm6  1  0.014290  0.181349  0.403290  1
  Tm  Tm7  1  0.513661  0.322438  0.400714  1
  Tm  Tm8  1  0.485568  0.675001  0.595929  1
  Sc  Sc9  1  0.654019  0.993095  0.750000  1
  Sc  Sc10  1  0.324414  0.175154  0.623407  1
  Sc  Sc11  1  0.678948  0.823871  0.371652  1
  Sc  Sc12  1  0.167905  0.672640  0.374287  1
  Sc  Sc13  1  0.678948  0.823871  0.128348  1
  Sc  Sc14  1  0.825241  0.326651  0.627886  1
  Sc  Sc15  1  0.324414  0.175154  0.876593  1
  Sc  Sc16  1  0.825241  0.326651  0.872114  1
  Sc  Sc17  1  0.167905  0.672640  0.125713  1
  Si  Si18  1  0.031042  0.121104  0.750000  1
  Si  Si19  1  0.985098  0.907434  0.250000  1
  Si  Si20  1  0.465020  0.619659  0.250000  1
  Si  Si21  1  0.515641  0.395991  0.750000  1
  Si  Si22  1  0.281453  0.856241  0.750000  1
  Si  Si23  1  0.713301  0.125138  0.250000  1
  Si  Si24  1  0.226758  0.360019  0.250000  1
  Si  Si25  1  0.789530  0.630445  0.750000  1
  Si  Si26  1  0.151131  0.468446  0.547515  1
  Si  Si27  1  0.840473  0.537336  0.466009  1
  Si  Si28  1  0.348368  0.967965  0.449921  1
  Si  Si29  1  0.840473  0.537336  0.033991  1
  Si  Si30  1  0.657521  0.034117  0.536950  1
  Si  Si31  1  0.151131  0.468446  0.952485  1
  Si  Si32  1  0.657521  0.034117  0.963050  1
  Si  Si33  1  0.348368  0.967965  0.050079  1
  W  W34  1  0.149448  0.495055  0.750000  1
  W  W35  1  0.351653  0.995284  0.250000  1
