# generated using pymatgen
data_Ca(Si2Rh3)2
_symmetry_space_group_name_H-M   'P 1'
_cell_length_a   7.06311400
_cell_length_b   7.06311473
_cell_length_c   3.77966200
_cell_angle_alpha   90.00000000
_cell_angle_beta   90.00000000
_cell_angle_gamma   119.99999657
_symmetry_Int_Tables_number   1
_chemical_formula_structural   Ca(Si2Rh3)2
_chemical_formula_sum   'Ca1 Si4 Rh6'
_cell_volume   163.29620353
_cell_formula_units_Z   1
loop_
 _symmetry_equiv_pos_site_id
 _symmetry_equiv_pos_as_xyz
  1  'x, y, z'
loop_
 _atom_site_type_symbol
 _atom_site_label
 _atom_site_symmetry_multiplicity
 _atom_site_fract_x
 _atom_site_fract_y
 _atom_site_fract_z
 _atom_site_occupancy
  Ca  Ca0  1  0.000000  0.000000  0.000000  1
  Si  Si1  1  0.798776  0.201224  0.500000  1
  Si  Si2  1  0.798776  0.597552  0.500000  1
  Si  Si3  1  0.402448  0.201224  0.500000  1
  Si  Si4  1  0.333333  0.666667  0.000000  1
  Rh  Rh5  1  0.533094  0.466906  0.000000  1
  Rh  Rh6  1  0.533094  0.066189  0.000000  1
  Rh  Rh7  1  0.933811  0.466906  0.000000  1
  Rh  Rh8  1  0.197820  0.802180  0.500000  1
  Rh  Rh9  1  0.197820  0.395640  0.500000  1
  Rh  Rh10  1  0.604360  0.802180  0.500000  1
