# generated using pymatgen
data_Na6ZrPa2Cl18
_symmetry_space_group_name_H-M   'P 1'
_cell_length_a   11.95840900
_cell_length_b   11.95840826
_cell_length_c   6.27488300
_cell_angle_alpha   90.00000000
_cell_angle_beta   90.00000000
_cell_angle_gamma   119.99999373
_symmetry_Int_Tables_number   1
_chemical_formula_structural   Na6ZrPa2Cl18
_chemical_formula_sum   'Na6 Zr1 Pa2 Cl18'
_cell_volume   777.11102594
_cell_formula_units_Z   1
loop_
 _symmetry_equiv_pos_site_id
 _symmetry_equiv_pos_as_xyz
  1  'x, y, z'
loop_
 _atom_site_type_symbol
 _atom_site_label
 _atom_site_symmetry_multiplicity
 _atom_site_fract_x
 _atom_site_fract_y
 _atom_site_fract_z
 _atom_site_occupancy
  Na  Na0  1  0.663094  0.000000  0.000000  1
  Na  Na1  1  0.336906  0.000000  0.000000  1
  Na  Na2  1  0.000000  0.663094  0.000000  1
  Na  Na3  1  0.663094  0.663094  0.000000  1
  Na  Na4  1  0.336906  0.336906  0.000000  1
  Na  Na5  1  0.000000  0.336906  0.000000  1
  Zr  Zr6  1  0.000000  0.000000  0.000000  1
  Pa  Pa7  1  0.666667  0.333333  0.503488  1
  Pa  Pa8  1  0.333333  0.666667  0.496512  1
  Cl  Cl9  1  0.561789  0.123578  0.749441  1
  Cl  Cl10  1  0.772486  0.227514  0.264908  1
  Cl  Cl11  1  0.800233  0.900117  0.223826  1
  Cl  Cl12  1  0.438211  0.561789  0.250559  1
  Cl  Cl13  1  0.772486  0.544971  0.264908  1
  Cl  Cl14  1  0.099883  0.199767  0.223826  1
  Cl  Cl15  1  0.227514  0.772486  0.735092  1
  Cl  Cl16  1  0.561789  0.438211  0.749441  1
  Cl  Cl17  1  0.227514  0.455029  0.735092  1
  Cl  Cl18  1  0.123578  0.561789  0.250559  1
  Cl  Cl19  1  0.199767  0.099883  0.776174  1
  Cl  Cl20  1  0.099883  0.900117  0.223826  1
  Cl  Cl21  1  0.544971  0.772486  0.735092  1
  Cl  Cl22  1  0.438211  0.876422  0.250559  1
  Cl  Cl23  1  0.900117  0.099883  0.776174  1
  Cl  Cl24  1  0.876422  0.438211  0.749441  1
  Cl  Cl25  1  0.455029  0.227514  0.264908  1
  Cl  Cl26  1  0.900117  0.800233  0.776174  1
