# generated using pymatgen
data_Y2Er2Al18Pd5W
_symmetry_space_group_name_H-M   'P 1'
_cell_length_a   7.61851486
_cell_length_b   7.62361295
_cell_length_c   9.52145973
_cell_angle_alpha   89.65322613
_cell_angle_beta   89.56296555
_cell_angle_gamma   118.83250008
_symmetry_Int_Tables_number   1
_chemical_formula_structural   Y2Er2Al18Pd5W
_chemical_formula_sum   'Y2 Er2 Al18 Pd5 W1'
_cell_volume   484.41308398
_cell_formula_units_Z   1
loop_
 _symmetry_equiv_pos_site_id
 _symmetry_equiv_pos_as_xyz
  1  'x, y, z'
loop_
 _atom_site_type_symbol
 _atom_site_label
 _atom_site_symmetry_multiplicity
 _atom_site_fract_x
 _atom_site_fract_y
 _atom_site_fract_z
 _atom_site_occupancy
  Y  Y0  1  0.995174  0.679198  0.246740  1
  Y  Y1  1  0.004826  0.320802  0.753260  1
  Er  Er2  1  0.679454  0.994962  0.246518  1
  Er  Er3  1  0.320546  0.005038  0.753482  1
  Al  Al4  1  0.135437  0.135745  0.249247  1
  Al  Al5  1  0.864563  0.864255  0.750753  1
  Al  Al6  1  0.002672  0.335281  0.077035  1
  Al  Al7  1  0.997328  0.664719  0.922965  1
  Al  Al8  1  0.998819  0.661097  0.578566  1
  Al  Al9  1  0.339724  0.001547  0.421793  1
  Al  Al10  1  0.001181  0.338903  0.421434  1
  Al  Al11  1  0.660276  0.998453  0.578207  1
  Al  Al12  1  0.663717  0.996788  0.923479  1
  Al  Al13  1  0.336283  0.003212  0.076521  1
  Al  Al14  1  0.333508  0.333075  0.555346  1
  Al  Al15  1  0.666492  0.666925  0.444654  1
  Al  Al16  1  0.666648  0.667098  0.053047  1
  Al  Al17  1  0.333352  0.332902  0.946953  1
  Al  Al18  1  0.342662  0.551430  0.250222  1
  Al  Al19  1  0.657338  0.448570  0.749778  1
  Al  Al20  1  0.551031  0.341783  0.250250  1
  Al  Al21  1  0.448969  0.658217  0.749750  1
  Pd  Pd22  1  0.672466  0.327478  0.000032  1
  Pd  Pd23  1  0.327534  0.672522  0.999968  1
  Pd  Pd24  1  0.328054  0.672103  0.500022  1
  Pd  Pd25  1  0.671946  0.327897  0.499978  1
  Pd  Pd26  1  0.000000  0.000000  0.500000  1
  W  W27  1  0.000000  0.000000  0.000000  1
