# generated using pymatgen
data_Ac2TbY(ZnSn)4
_symmetry_space_group_name_H-M   'P 1'
_cell_length_a   4.58913100
_cell_length_b   4.58913023
_cell_length_c   17.15536600
_cell_angle_alpha   90.00000000
_cell_angle_beta   90.00000000
_cell_angle_gamma   119.99998395
_symmetry_Int_Tables_number   1
_chemical_formula_structural   Ac2TbY(ZnSn)4
_chemical_formula_sum   'Ac2 Tb1 Y1 Zn4 Sn4'
_cell_volume   312.88988732
_cell_formula_units_Z   1
loop_
 _symmetry_equiv_pos_site_id
 _symmetry_equiv_pos_as_xyz
  1  'x, y, z'
loop_
 _atom_site_type_symbol
 _atom_site_label
 _atom_site_symmetry_multiplicity
 _atom_site_fract_x
 _atom_site_fract_y
 _atom_site_fract_z
 _atom_site_occupancy
  Ac  Ac0  1  0.000000  0.000000  0.500027  1
  Ac  Ac1  1  0.000000  0.000000  0.999973  1
  Tb  Tb2  1  0.000000  0.000000  0.250000  1
  Y  Y3  1  0.000000  0.000000  0.750000  1
  Zn  Zn4  1  0.666667  0.333333  0.831462  1
  Zn  Zn5  1  0.666667  0.333333  0.668538  1
  Zn  Zn6  1  0.333333  0.666667  0.168534  1
  Zn  Zn7  1  0.333333  0.666667  0.331466  1
  Sn  Sn8  1  0.666667  0.333333  0.124787  1
  Sn  Sn9  1  0.666667  0.333333  0.375213  1
  Sn  Sn10  1  0.333333  0.666667  0.875241  1
  Sn  Sn11  1  0.333333  0.666667  0.624759  1
