# generated using pymatgen
data_Nb6Co6C
_symmetry_space_group_name_H-M   'P 1'
_cell_length_a   7.89591117
_cell_length_b   7.89591043
_cell_length_c   7.89591100
_cell_angle_alpha   60.00000179
_cell_angle_beta   60.00000491
_cell_angle_gamma   60.00000257
_symmetry_Int_Tables_number   1
_chemical_formula_structural   Nb6Co6C
_chemical_formula_sum   'Nb12 Co12 C2'
_cell_volume   348.09015794
_cell_formula_units_Z   2
loop_
 _symmetry_equiv_pos_site_id
 _symmetry_equiv_pos_as_xyz
  1  'x, y, z'
loop_
 _atom_site_type_symbol
 _atom_site_label
 _atom_site_symmetry_multiplicity
 _atom_site_fract_x
 _atom_site_fract_y
 _atom_site_fract_z
 _atom_site_occupancy
  Nb  Nb0  1  0.051161  0.051161  0.448839  1
  Nb  Nb1  1  0.448839  0.051161  0.448839  1
  Nb  Nb2  1  0.051161  0.448839  0.448839  1
  Nb  Nb3  1  0.448839  0.448839  0.051161  1
  Nb  Nb4  1  0.051161  0.448839  0.051161  1
  Nb  Nb5  1  0.448839  0.051161  0.051161  1
  Nb  Nb6  1  0.198839  0.198839  0.801161  1
  Nb  Nb7  1  0.801161  0.198839  0.801161  1
  Nb  Nb8  1  0.198839  0.801161  0.801161  1
  Nb  Nb9  1  0.801161  0.801161  0.198839  1
  Nb  Nb10  1  0.198839  0.801161  0.198839  1
  Nb  Nb11  1  0.801161  0.198839  0.198839  1
  Co  Co12  1  0.420972  0.420972  0.737085  1
  Co  Co13  1  0.420972  0.737085  0.420972  1
  Co  Co14  1  0.737085  0.420972  0.420972  1
  Co  Co15  1  0.420972  0.420972  0.420972  1
  Co  Co16  1  0.829028  0.829028  0.512915  1
  Co  Co17  1  0.829028  0.512915  0.829028  1
  Co  Co18  1  0.512915  0.829028  0.829028  1
  Co  Co19  1  0.829028  0.829028  0.829028  1
  Co  Co20  1  0.625000  0.625000  0.125000  1
  Co  Co21  1  0.625000  0.125000  0.625000  1
  Co  Co22  1  0.125000  0.625000  0.625000  1
  Co  Co23  1  0.625000  0.625000  0.625000  1
  C  C24  1  0.250000  0.250000  0.250000  1
  C  C25  1  0.000000  0.000000  0.000000  1
