# generated using pymatgen
data_ScNb4(Re7Tc)3
_symmetry_space_group_name_H-M   'P 1'
_cell_length_a   8.42229128
_cell_length_b   8.42440456
_cell_length_c   8.42147050
_cell_angle_alpha   109.50354121
_cell_angle_beta   109.44956315
_cell_angle_gamma   109.46368058
_symmetry_Int_Tables_number   1
_chemical_formula_structural   ScNb4(Re7Tc)3
_chemical_formula_sum   'Sc1 Nb4 Re21 Tc3'
_cell_volume   459.95854845
_cell_formula_units_Z   1
loop_
 _symmetry_equiv_pos_site_id
 _symmetry_equiv_pos_as_xyz
  1  'x, y, z'
loop_
 _atom_site_type_symbol
 _atom_site_label
 _atom_site_symmetry_multiplicity
 _atom_site_fract_x
 _atom_site_fract_y
 _atom_site_fract_z
 _atom_site_occupancy
  Sc  Sc0  1  0.000000  0.000036  0.000018  1
  Nb  Nb1  1  0.368317  0.368472  0.368644  1
  Nb  Nb2  1  0.000000  0.631375  0.999587  1
  Nb  Nb3  1  0.631683  0.000154  0.000326  1
  Nb  Nb4  1  0.000000  0.000067  0.631825  1
  Re  Re5  1  0.318252  0.717871  0.318423  1
  Re  Re6  1  0.681647  0.000536  0.399653  1
  Re  Re7  1  0.000000  0.681934  0.399848  1
  Re  Re8  1  0.600297  0.600261  0.281801  1
  Re  Re9  1  0.805505  0.805550  0.181765  1
  Re  Re10  1  0.376233  0.194587  0.000202  1
  Re  Re11  1  0.194532  0.376092  0.999771  1
  Re  Re12  1  0.623767  0.818354  0.623969  1
  Re  Re13  1  0.376287  0.000155  0.194561  1
  Re  Re14  1  0.000000  0.376360  0.194721  1
  Re  Re15  1  0.817983  0.623129  0.623031  1
  Re  Re16  1  0.182017  0.805145  0.805048  1
  Re  Re17  1  0.805468  0.181560  0.805239  1
  Re  Re18  1  0.194495  0.000045  0.376260  1
  Re  Re19  1  0.000000  0.194542  0.377085  1
  Re  Re20  1  0.623713  0.623868  0.818274  1
  Re  Re21  1  0.399703  0.999964  0.681503  1
  Re  Re22  1  0.600724  0.281957  0.600240  1
  Re  Re23  1  0.681748  0.399621  0.000172  1
  Re  Re24  1  0.399276  0.681233  0.999517  1
  Re  Re25  1  0.318353  0.318889  0.718004  1
  Tc  Tc26  1  0.000000  0.399749  0.682213  1
  Tc  Tc27  1  0.282335  0.600415  0.600318  1
  Tc  Tc28  1  0.717665  0.318081  0.317984  1
