# generated using pymatgen
data_YbEu3(SiN3)2
_symmetry_space_group_name_H-M   'P 1'
_cell_length_a   5.95258361
_cell_length_b   5.95258425
_cell_length_c   11.61049582
_cell_angle_alpha   90.65654458
_cell_angle_beta   89.34345541
_cell_angle_gamma   125.75255712
_symmetry_Int_Tables_number   1
_chemical_formula_structural   YbEu3(SiN3)2
_chemical_formula_sum   'Yb2 Eu6 Si4 N12'
_cell_volume   333.84124227
_cell_formula_units_Z   2
loop_
 _symmetry_equiv_pos_site_id
 _symmetry_equiv_pos_as_xyz
  1  'x, y, z'
loop_
 _atom_site_type_symbol
 _atom_site_label
 _atom_site_symmetry_multiplicity
 _atom_site_fract_x
 _atom_site_fract_y
 _atom_site_fract_z
 _atom_site_occupancy
  Yb  Yb0  1  0.053940  0.946060  0.861708  1
  Yb  Yb1  1  0.946060  0.053940  0.138292  1
  Eu  Eu2  1  0.450186  0.549814  0.351933  1
  Eu  Eu3  1  0.549814  0.450186  0.648067  1
  Eu  Eu4  1  0.640521  0.359479  0.076034  1
  Eu  Eu5  1  0.359479  0.640521  0.923966  1
  Eu  Eu6  1  0.859115  0.140885  0.576299  1
  Eu  Eu7  1  0.140885  0.859115  0.423701  1
  Si  Si8  1  0.743235  0.256765  0.836626  1
  Si  Si9  1  0.256765  0.743235  0.163374  1
  Si  Si10  1  0.760397  0.239603  0.335224  1
  Si  Si11  1  0.239603  0.760397  0.664776  1
  N  N12  1  0.579645  0.420355  0.869024  1
  N  N13  1  0.420355  0.579645  0.130976  1
  N  N14  1  0.922571  0.077429  0.365965  1
  N  N15  1  0.077429  0.922571  0.634035  1
  N  N16  1  0.528212  0.971696  0.748869  1
  N  N17  1  0.971696  0.528212  0.251131  1
  N  N18  1  0.471788  0.028304  0.251131  1
  N  N19  1  0.028304  0.471788  0.748869  1
  N  N20  1  0.843310  0.156690  0.954585  1
  N  N21  1  0.156690  0.843310  0.045415  1
  N  N22  1  0.658753  0.341247  0.456630  1
  N  N23  1  0.341247  0.658753  0.543370  1
