# generated using pymatgen
data_Er3AlZn10
_symmetry_space_group_name_H-M   'P 1'
_cell_length_a   8.06745515
_cell_length_b   8.06745517
_cell_length_c   8.06745403
_cell_angle_alpha   148.79030678
_cell_angle_beta   112.17509739
_cell_angle_gamma   76.54303729
_symmetry_Int_Tables_number   1
_chemical_formula_structural   Er3AlZn10
_chemical_formula_sum   'Er3 Al1 Zn10'
_cell_volume   247.46654451
_cell_formula_units_Z   1
loop_
 _symmetry_equiv_pos_site_id
 _symmetry_equiv_pos_as_xyz
  1  'x, y, z'
loop_
 _atom_site_type_symbol
 _atom_site_label
 _atom_site_symmetry_multiplicity
 _atom_site_fract_x
 _atom_site_fract_y
 _atom_site_fract_z
 _atom_site_occupancy
  Er  Er0  1  0.000000  0.000000  0.000000  1
  Er  Er1  1  0.297713  0.297713  0.000000  1
  Er  Er2  1  0.702286  0.702286  0.000000  1
  Al  Al3  1  0.500000  0.000000  0.500000  1
  Zn  Zn4  1  0.689437  0.500000  0.189437  1
  Zn  Zn5  1  0.417249  0.138616  0.278634  1
  Zn  Zn6  1  0.140017  0.861385  0.278634  1
  Zn  Zn7  1  0.703121  0.340118  0.363003  1
  Zn  Zn8  1  0.022884  0.659883  0.363003  1
  Zn  Zn9  1  0.977115  0.340118  0.636996  1
  Zn  Zn10  1  0.296880  0.659883  0.636998  1
  Zn  Zn11  1  0.859983  0.138616  0.721366  1
  Zn  Zn12  1  0.582751  0.861385  0.721367  1
  Zn  Zn13  1  0.310563  0.500000  0.810564  1
