# generated using pymatgen
data_La9Pr7(CdOs)4
_symmetry_space_group_name_H-M   'P 1'
_cell_length_a   10.06013147
_cell_length_b   10.06013200
_cell_length_c   10.06556800
_cell_angle_alpha   59.98211717
_cell_angle_beta   59.98211540
_cell_angle_gamma   60.33819452
_symmetry_Int_Tables_number   1
_chemical_formula_structural   La9Pr7(CdOs)4
_chemical_formula_sum   'La9 Pr7 Cd4 Os4'
_cell_volume   721.95529495
_cell_formula_units_Z   1
loop_
 _symmetry_equiv_pos_site_id
 _symmetry_equiv_pos_as_xyz
  1  'x, y, z'
loop_
 _atom_site_type_symbol
 _atom_site_label
 _atom_site_symmetry_multiplicity
 _atom_site_fract_x
 _atom_site_fract_y
 _atom_site_fract_z
 _atom_site_occupancy
  La  La0  1  0.345091  0.345091  0.346092  1
  La  La1  1  0.345091  0.345091  0.963726  1
  La  La2  1  0.345743  0.963940  0.345158  1
  La  La3  1  0.963940  0.345743  0.345158  1
  La  La4  1  0.809530  0.189646  0.189466  1
  La  La5  1  0.189646  0.809530  0.811358  1
  La  La6  1  0.189646  0.809530  0.189466  1
  La  La7  1  0.809530  0.189646  0.811358  1
  La  La8  1  0.189960  0.189960  0.810040  1
  Pr  Pr9  1  0.808117  0.808117  0.191883  1
  Pr  Pr10  1  0.938119  0.562200  0.561103  1
  Pr  Pr11  1  0.562200  0.938119  0.938578  1
  Pr  Pr12  1  0.562200  0.938119  0.561103  1
  Pr  Pr13  1  0.938119  0.562200  0.938578  1
  Pr  Pr14  1  0.561303  0.561303  0.938697  1
  Pr  Pr15  1  0.939815  0.939815  0.560185  1
  Cd  Cd16  1  0.580279  0.580279  0.578301  1
  Cd  Cd17  1  0.580279  0.580279  0.261140  1
  Cd  Cd18  1  0.579563  0.261382  0.579527  1
  Cd  Cd19  1  0.261382  0.579563  0.579527  1
  Os  Os20  1  0.136047  0.136047  0.138739  1
  Os  Os21  1  0.136047  0.136047  0.589167  1
  Os  Os22  1  0.142118  0.586234  0.135824  1
  Os  Os23  1  0.586234  0.142118  0.135824  1
