# generated using pymatgen
data_Ho3Tm5CdHgIr2
_symmetry_space_group_name_H-M   'P 1'
_cell_length_a   9.52259185
_cell_length_b   9.52259246
_cell_length_c   9.53155300
_cell_angle_alpha   59.96887134
_cell_angle_beta   59.96886920
_cell_angle_gamma   59.96646128
_symmetry_Int_Tables_number   1
_chemical_formula_structural   Ho3Tm5CdHgIr2
_chemical_formula_sum   'Ho6 Tm10 Cd2 Hg2 Ir4'
_cell_volume   610.72322151
_cell_formula_units_Z   2
loop_
 _symmetry_equiv_pos_site_id
 _symmetry_equiv_pos_as_xyz
  1  'x, y, z'
loop_
 _atom_site_type_symbol
 _atom_site_label
 _atom_site_symmetry_multiplicity
 _atom_site_fract_x
 _atom_site_fract_y
 _atom_site_fract_z
 _atom_site_occupancy
  Ho  Ho0  1  0.188082  0.810931  0.811720  1
  Ho  Ho1  1  0.810931  0.188082  0.189267  1
  Ho  Ho2  1  0.810931  0.188082  0.811720  1
  Ho  Ho3  1  0.188082  0.810931  0.189267  1
  Ho  Ho4  1  0.811227  0.811227  0.188773  1
  Ho  Ho5  1  0.188544  0.188544  0.811456  1
  Tm  Tm6  1  0.599787  0.599787  0.598243  1
  Tm  Tm7  1  0.599787  0.599787  0.202185  1
  Tm  Tm8  1  0.601209  0.199439  0.599676  1
  Tm  Tm9  1  0.199439  0.601209  0.599676  1
  Tm  Tm10  1  0.060123  0.438315  0.440431  1
  Tm  Tm11  1  0.438315  0.060123  0.061130  1
  Tm  Tm12  1  0.438315  0.060123  0.440431  1
  Tm  Tm13  1  0.060123  0.438315  0.061130  1
  Tm  Tm14  1  0.438927  0.438927  0.061073  1
  Tm  Tm15  1  0.060067  0.060067  0.439933  1
  Cd  Cd16  1  0.830440  0.507281  0.831139  1
  Cd  Cd17  1  0.507281  0.830440  0.831139  1
  Hg  Hg18  1  0.833409  0.833409  0.835304  1
  Hg  Hg19  1  0.833409  0.833409  0.497877  1
  Ir  Ir20  1  0.392314  0.392314  0.391440  1
  Ir  Ir21  1  0.392314  0.392314  0.823933  1
  Ir  Ir22  1  0.392284  0.824660  0.391529  1
  Ir  Ir23  1  0.824660  0.392284  0.391529  1
