# generated using pymatgen
data_Nb12Al8CuNi3C4
_symmetry_space_group_name_H-M   'P 1'
_cell_length_a   8.28102083
_cell_length_b   8.28618592
_cell_length_c   8.28618600
_cell_angle_alpha   60.00000766
_cell_angle_beta   59.97937283
_cell_angle_gamma   59.97937020
_symmetry_Int_Tables_number   1
_chemical_formula_structural   Nb12Al8CuNi3C4
_chemical_formula_sum   'Nb12 Al8 Cu1 Ni3 C4'
_cell_volume   401.92291939
_cell_formula_units_Z   1
loop_
 _symmetry_equiv_pos_site_id
 _symmetry_equiv_pos_as_xyz
  1  'x, y, z'
loop_
 _atom_site_type_symbol
 _atom_site_label
 _atom_site_symmetry_multiplicity
 _atom_site_fract_x
 _atom_site_fract_y
 _atom_site_fract_z
 _atom_site_occupancy
  Nb  Nb0  1  0.812939  0.813764  0.186648  1
  Nb  Nb1  1  0.186278  0.184223  0.814749  1
  Nb  Nb2  1  0.812939  0.186648  0.813764  1
  Nb  Nb3  1  0.186278  0.814749  0.184223  1
  Nb  Nb4  1  0.186278  0.814749  0.814749  1
  Nb  Nb5  1  0.812939  0.186648  0.186648  1
  Nb  Nb6  1  0.437061  0.436236  0.063352  1
  Nb  Nb7  1  0.063722  0.065777  0.435251  1
  Nb  Nb8  1  0.437061  0.063352  0.436236  1
  Nb  Nb9  1  0.063722  0.435251  0.065777  1
  Nb  Nb10  1  0.063722  0.435251  0.435251  1
  Nb  Nb11  1  0.437061  0.063352  0.063352  1
  Al  Al12  1  0.746874  0.417709  0.417709  1
  Al  Al13  1  0.419835  0.748572  0.415796  1
  Al  Al14  1  0.419835  0.415796  0.748572  1
  Al  Al15  1  0.419835  0.415796  0.415796  1
  Al  Al16  1  0.503126  0.832291  0.832291  1
  Al  Al17  1  0.830165  0.501428  0.834204  1
  Al  Al18  1  0.830165  0.834204  0.501428  1
  Al  Al19  1  0.830165  0.834204  0.834204  1
  Cu  Cu20  1  0.125000  0.625000  0.625000  1
  Ni  Ni21  1  0.625000  0.125000  0.625000  1
  Ni  Ni22  1  0.625000  0.625000  0.125000  1
  Ni  Ni23  1  0.625000  0.625000  0.625000  1
  C  C24  1  0.625000  0.125000  0.125000  1
  C  C25  1  0.125000  0.625000  0.125000  1
  C  C26  1  0.125000  0.125000  0.625000  1
  C  C27  1  0.125000  0.125000  0.125000  1
