# generated using pymatgen
data_Dy8Sc12Si15P
_symmetry_space_group_name_H-M   'P 1'
_cell_length_a   7.09165386
_cell_length_b   7.37088340
_cell_length_c   13.97443200
_cell_angle_alpha   90.00000000
_cell_angle_beta   90.00000000
_cell_angle_gamma   90.14143775
_symmetry_Int_Tables_number   1
_chemical_formula_structural   Dy8Sc12Si15P
_chemical_formula_sum   'Dy8 Sc12 Si15 P1'
_cell_volume   730.46584167
_cell_formula_units_Z   1
loop_
 _symmetry_equiv_pos_site_id
 _symmetry_equiv_pos_as_xyz
  1  'x, y, z'
loop_
 _atom_site_type_symbol
 _atom_site_label
 _atom_site_symmetry_multiplicity
 _atom_site_fract_x
 _atom_site_fract_y
 _atom_site_fract_z
 _atom_site_occupancy
  Dy  Dy0  1  0.010680  0.174883  0.096801  1
  Dy  Dy1  1  0.990557  0.827176  0.900401  1
  Dy  Dy2  1  0.489537  0.674934  0.903651  1
  Dy  Dy3  1  0.990557  0.827176  0.599599  1
  Dy  Dy4  1  0.511691  0.324756  0.096450  1
  Dy  Dy5  1  0.010680  0.174883  0.403199  1
  Dy  Dy6  1  0.511691  0.324756  0.403550  1
  Dy  Dy7  1  0.489537  0.674934  0.596349  1
  Sc  Sc8  1  0.159896  0.502059  0.750000  1
  Sc  Sc9  1  0.838903  0.497515  0.250000  1
  Sc  Sc10  1  0.339401  0.002271  0.250000  1
  Sc  Sc11  1  0.662301  0.999097  0.750000  1
  Sc  Sc12  1  0.326853  0.173107  0.627253  1
  Sc  Sc13  1  0.668560  0.823639  0.375434  1
  Sc  Sc14  1  0.168485  0.677101  0.375343  1
  Sc  Sc15  1  0.668560  0.823639  0.124566  1
  Sc  Sc16  1  0.832376  0.322673  0.626378  1
  Sc  Sc17  1  0.326853  0.173107  0.872747  1
  Sc  Sc18  1  0.832376  0.322673  0.873622  1
  Sc  Sc19  1  0.168485  0.677101  0.124657  1
  Si  Si20  1  0.965466  0.882718  0.250000  1
  Si  Si21  1  0.466163  0.616452  0.250000  1
  Si  Si22  1  0.531578  0.381681  0.750000  1
  Si  Si23  1  0.295709  0.864487  0.750000  1
  Si  Si24  1  0.714232  0.125685  0.250000  1
  Si  Si25  1  0.214663  0.374096  0.250000  1
  Si  Si26  1  0.786881  0.627739  0.750000  1
  Si  Si27  1  0.157141  0.463694  0.540086  1
  Si  Si28  1  0.842526  0.535845  0.461428  1
  Si  Si29  1  0.340916  0.965230  0.460757  1
  Si  Si30  1  0.842526  0.535845  0.038572  1
  Si  Si31  1  0.658710  0.036548  0.540430  1
  Si  Si32  1  0.157141  0.463694  0.959914  1
  Si  Si33  1  0.658710  0.036548  0.959570  1
  Si  Si34  1  0.340916  0.965230  0.039243  1
  P  P35  1  0.028743  0.127027  0.750000  1
