# generated using pymatgen
data_ScFe12MoP7
_symmetry_space_group_name_H-M   'P 1'
_cell_length_a   3.56052300
_cell_length_b   8.82370664
_cell_length_c   8.82423504
_cell_angle_alpha   119.99203751
_cell_angle_beta   90.00000000
_cell_angle_gamma   90.00000000
_symmetry_Int_Tables_number   1
_chemical_formula_structural   ScFe12MoP7
_chemical_formula_sum   'Sc1 Fe12 Mo1 P7'
_cell_volume   240.10842292
_cell_formula_units_Z   1
loop_
 _symmetry_equiv_pos_site_id
 _symmetry_equiv_pos_as_xyz
  1  'x, y, z'
loop_
 _atom_site_type_symbol
 _atom_site_label
 _atom_site_symmetry_multiplicity
 _atom_site_fract_x
 _atom_site_fract_y
 _atom_site_fract_z
 _atom_site_occupancy
  Sc  Sc0  1  0.500000  0.333283  0.666572  1
  Fe  Fe1  1  0.000000  0.374747  0.942640  1
  Fe  Fe2  1  0.000000  0.057450  0.432130  1
  Fe  Fe3  1  0.000000  0.567894  0.625314  1
  Fe  Fe4  1  0.000000  0.879832  0.721827  1
  Fe  Fe5  1  0.000000  0.278105  0.158018  1
  Fe  Fe6  1  0.000000  0.842002  0.120142  1
  Fe  Fe7  1  0.500000  0.937561  0.557108  1
  Fe  Fe8  1  0.500000  0.442816  0.380410  1
  Fe  Fe9  1  0.500000  0.619578  0.062449  1
  Fe  Fe10  1  0.500000  0.123468  0.898648  1
  Fe  Fe11  1  0.500000  0.101371  0.224929  1
  Fe  Fe12  1  0.500000  0.775183  0.876503  1
  Mo  Mo13  1  0.000000  0.666692  0.333329  1
  P  P14  1  0.000000  0.118901  0.704477  1
  P  P15  1  0.000000  0.295416  0.414342  1
  P  P16  1  0.000000  0.585628  0.881126  1
  P  P17  1  0.500000  0.708897  0.593831  1
  P  P18  1  0.500000  0.406247  0.115150  1
  P  P19  1  0.500000  0.884949  0.291117  1
  P  P20  1  0.000000  0.999978  0.999941  1
