# generated using pymatgen
data_TbSm3Dy2CoBr10
_symmetry_space_group_name_H-M   'P 1'
_cell_length_a   7.41502685
_cell_length_b   9.20488750
_cell_length_c   9.35371083
_cell_angle_alpha   108.00315388
_cell_angle_beta   96.37402864
_cell_angle_gamma   104.61728100
_symmetry_Int_Tables_number   1
_chemical_formula_structural   TbSm3Dy2CoBr10
_chemical_formula_sum   'Tb1 Sm3 Dy2 Co1 Br10'
_cell_volume   574.99601241
_cell_formula_units_Z   1
loop_
 _symmetry_equiv_pos_site_id
 _symmetry_equiv_pos_as_xyz
  1  'x, y, z'
loop_
 _atom_site_type_symbol
 _atom_site_label
 _atom_site_symmetry_multiplicity
 _atom_site_fract_x
 _atom_site_fract_y
 _atom_site_fract_z
 _atom_site_occupancy
  Tb  Tb0  1  0.647275  0.871743  0.326433  1
  Sm  Sm1  1  0.034054  0.715203  0.409581  1
  Sm  Sm2  1  0.966061  0.284386  0.587158  1
  Sm  Sm3  1  0.873605  0.951170  0.746077  1
  Dy  Dy4  1  0.125472  0.048158  0.259146  1
  Dy  Dy5  1  0.351686  0.128557  0.674305  1
  Co  Co6  1  0.000513  0.999791  0.500137  1
  Br  Br7  1  0.451856  0.820519  0.582540  1
  Br  Br8  1  0.544158  0.178435  0.416588  1
  Br  Br9  1  0.912888  0.628053  0.670464  1
  Br  Br10  1  0.089496  0.366747  0.324446  1
  Br  Br11  1  0.249676  0.083702  0.954914  1
  Br  Br12  1  0.756968  0.918848  0.051808  1
  Br  Br13  1  0.346346  0.444894  0.768728  1
  Br  Br14  1  0.651663  0.554562  0.230037  1
  Br  Br15  1  0.770273  0.250570  0.841904  1
  Br  Br16  1  0.228010  0.754661  0.155732  1
