# generated using pymatgen
data_Zr6Ta4Al12Co7
_symmetry_space_group_name_H-M   'P 1'
_cell_length_a   8.62814633
_cell_length_b   8.62814536
_cell_length_c   8.62814600
_cell_angle_alpha   59.99999755
_cell_angle_beta   60.00000125
_cell_angle_gamma   59.99999935
_symmetry_Int_Tables_number   1
_chemical_formula_structural   Zr6Ta4Al12Co7
_chemical_formula_sum   'Zr6 Ta4 Al12 Co7'
_cell_volume   454.18986234
_cell_formula_units_Z   1
loop_
 _symmetry_equiv_pos_site_id
 _symmetry_equiv_pos_as_xyz
  1  'x, y, z'
loop_
 _atom_site_type_symbol
 _atom_site_label
 _atom_site_symmetry_multiplicity
 _atom_site_fract_x
 _atom_site_fract_y
 _atom_site_fract_z
 _atom_site_occupancy
  Zr  Zr0  1  0.691507  0.308493  0.308493  1
  Zr  Zr1  1  0.691507  0.308493  0.691507  1
  Zr  Zr2  1  0.691507  0.691507  0.308493  1
  Zr  Zr3  1  0.308493  0.691507  0.691507  1
  Zr  Zr4  1  0.308493  0.691507  0.308493  1
  Zr  Zr5  1  0.308493  0.308493  0.691507  1
  Ta  Ta6  1  0.643826  0.118725  0.118725  1
  Ta  Ta7  1  0.118725  0.643826  0.118725  1
  Ta  Ta8  1  0.118725  0.118725  0.643826  1
  Ta  Ta9  1  0.118725  0.118725  0.118725  1
  Al  Al10  1  0.363618  0.878794  0.878794  1
  Al  Al11  1  0.878794  0.363618  0.878794  1
  Al  Al12  1  0.878794  0.878794  0.363618  1
  Al  Al13  1  0.878794  0.878794  0.878794  1
  Al  Al14  1  0.992870  0.335710  0.335710  1
  Al  Al15  1  0.335710  0.992870  0.335710  1
  Al  Al16  1  0.335710  0.335710  0.992870  1
  Al  Al17  1  0.335710  0.335710  0.335710  1
  Al  Al18  1  0.003339  0.665553  0.665553  1
  Al  Al19  1  0.665553  0.003339  0.665553  1
  Al  Al20  1  0.665553  0.665553  0.003339  1
  Al  Al21  1  0.665553  0.665553  0.665553  1
  Co  Co22  1  0.000000  0.000000  0.000000  1
  Co  Co23  1  0.495200  0.004800  0.004800  1
  Co  Co24  1  0.495200  0.004800  0.495200  1
  Co  Co25  1  0.495200  0.495200  0.004800  1
  Co  Co26  1  0.004800  0.495200  0.495200  1
  Co  Co27  1  0.004800  0.495200  0.004800  1
  Co  Co28  1  0.004800  0.004800  0.495200  1
