# generated using pymatgen
data_SrAc3Au4
_symmetry_space_group_name_H-M   'P 1'
_cell_length_a   5.00410300
_cell_length_b   6.19102724
_cell_length_c   7.94743008
_cell_angle_alpha   89.61403609
_cell_angle_beta   90.00000000
_cell_angle_gamma   90.00000000
_symmetry_Int_Tables_number   1
_chemical_formula_structural   SrAc3Au4
_chemical_formula_sum   'Sr1 Ac3 Au4'
_cell_volume   246.21007291
_cell_formula_units_Z   1
loop_
 _symmetry_equiv_pos_site_id
 _symmetry_equiv_pos_as_xyz
  1  'x, y, z'
loop_
 _atom_site_type_symbol
 _atom_site_label
 _atom_site_symmetry_multiplicity
 _atom_site_fract_x
 _atom_site_fract_y
 _atom_site_fract_z
 _atom_site_occupancy
  Sr  Sr0  1  0.250000  0.853940  0.685210  1
  Ac  Ac1  1  0.250000  0.644668  0.185093  1
  Ac  Ac2  1  0.750000  0.353661  0.813873  1
  Ac  Ac3  1  0.750000  0.145269  0.314396  1
  Au  Au4  1  0.250000  0.154105  0.042505  1
  Au  Au5  1  0.750000  0.848923  0.963692  1
  Au  Au6  1  0.750000  0.648263  0.456483  1
  Au  Au7  1  0.250000  0.351169  0.538746  1
