# generated using pymatgen
data_LaNd5(RhBr3)2
_symmetry_space_group_name_H-M   'P 1'
_cell_length_a   10.45548541
_cell_length_b   10.48944421
_cell_length_c   10.48944493
_cell_angle_alpha   109.82012611
_cell_angle_beta   109.73563622
_cell_angle_gamma   108.98965327
_symmetry_Int_Tables_number   1
_chemical_formula_structural   LaNd5(RhBr3)2
_chemical_formula_sum   'La2 Nd10 Rh4 Br12'
_cell_volume   884.09398815
_cell_formula_units_Z   2
loop_
 _symmetry_equiv_pos_site_id
 _symmetry_equiv_pos_as_xyz
  1  'x, y, z'
loop_
 _atom_site_type_symbol
 _atom_site_label
 _atom_site_symmetry_multiplicity
 _atom_site_fract_x
 _atom_site_fract_y
 _atom_site_fract_z
 _atom_site_occupancy
  La  La0  1  0.266502  0.015036  0.032032  1
  La  La1  1  0.233498  0.265528  0.748534  1
  Nd  Nd2  1  0.470733  0.485648  0.236453  1
  Nd  Nd3  1  0.755637  0.236906  0.269070  1
  Nd  Nd4  1  0.744363  0.013434  0.481270  1
  Nd  Nd5  1  0.236224  0.469068  0.481856  1
  Nd  Nd6  1  0.263776  0.745632  0.232845  1
  Nd  Nd7  1  0.029267  0.265719  0.014915  1
  Nd  Nd8  1  0.014997  0.030528  0.265114  1
  Nd  Nd9  1  0.485003  0.750117  0.015530  1
  Nd  Nd10  1  0.486520  0.235696  0.471488  1
  Nd  Nd11  1  0.013480  0.484968  0.749176  1
  Rh  Rh12  1  0.250669  0.248945  0.249138  1
  Rh  Rh13  1  0.498457  0.000213  0.248902  1
  Rh  Rh14  1  0.001543  0.250445  0.501756  1
  Rh  Rh15  1  0.249331  0.498469  0.998276  1
  Br  Br16  1  0.250165  0.752976  0.742222  1
  Br  Br17  1  0.513345  0.510200  0.755604  1
  Br  Br18  1  0.986655  0.742259  0.996856  1
  Br  Br19  1  0.743807  0.250115  0.755769  1
  Br  Br20  1  0.987602  0.987818  0.742552  1
  Br  Br21  1  0.249835  0.992057  0.502811  1
  Br  Br22  1  0.756193  0.511963  0.506308  1
  Br  Br23  1  0.512398  0.254951  0.000217  1
  Br  Br24  1  0.755118  0.744670  0.250102  1
  Br  Br25  1  0.744882  0.994984  0.989551  1
  Br  Br26  1  0.994159  0.505933  0.249882  1
  Br  Br27  1  0.505841  0.755723  0.511774  1
