# generated using pymatgen
data_DyY2Er7Pb8
_symmetry_space_group_name_H-M   'P 1'
_cell_length_a   8.18166200
_cell_length_b   8.24473262
_cell_length_c   15.57457304
_cell_angle_alpha   90.04155925
_cell_angle_beta   90.00000000
_cell_angle_gamma   90.00000000
_symmetry_Int_Tables_number   1
_chemical_formula_structural   DyY2Er7Pb8
_chemical_formula_sum   'Dy2 Y4 Er14 Pb16'
_cell_volume   1050.59213609
_cell_formula_units_Z   2
loop_
 _symmetry_equiv_pos_site_id
 _symmetry_equiv_pos_as_xyz
  1  'x, y, z'
loop_
 _atom_site_type_symbol
 _atom_site_label
 _atom_site_symmetry_multiplicity
 _atom_site_fract_x
 _atom_site_fract_y
 _atom_site_fract_z
 _atom_site_occupancy
  Dy  Dy0  1  0.536427  0.323778  0.599517  1
  Dy  Dy1  1  0.036427  0.176222  0.900483  1
  Y  Y2  1  0.463271  0.676208  0.400238  1
  Y  Y3  1  0.963271  0.823792  0.099762  1
  Y  Y4  1  0.462989  0.675833  0.099474  1
  Y  Y5  1  0.962989  0.824167  0.400526  1
  Er  Er6  1  0.376807  0.842143  0.878332  1
  Er  Er7  1  0.876807  0.657857  0.621668  1
  Er  Er8  1  0.622771  0.158009  0.378730  1
  Er  Er9  1  0.122771  0.341991  0.121270  1
  Er  Er10  1  0.622685  0.158171  0.121063  1
  Er  Er11  1  0.122685  0.341829  0.378937  1
  Er  Er12  1  0.377059  0.842297  0.621739  1
  Er  Er13  1  0.877059  0.657703  0.878261  1
  Er  Er14  1  0.538031  0.324267  0.899662  1
  Er  Er15  1  0.038031  0.175733  0.600338  1
  Er  Er16  1  0.209188  0.504759  0.750036  1
  Er  Er17  1  0.709188  0.995241  0.749964  1
  Er  Er18  1  0.790976  0.495143  0.249867  1
  Er  Er19  1  0.290976  0.004857  0.250133  1
  Pb  Pb20  1  0.281585  0.034087  0.042839  1
  Pb  Pb21  1  0.781585  0.465913  0.457161  1
  Pb  Pb22  1  0.718716  0.966583  0.543052  1
  Pb  Pb23  1  0.218716  0.533417  0.956948  1
  Pb  Pb24  1  0.717203  0.965550  0.957125  1
  Pb  Pb25  1  0.217203  0.534450  0.542875  1
  Pb  Pb26  1  0.281629  0.034955  0.457918  1
  Pb  Pb27  1  0.781629  0.465045  0.042082  1
  Pb  Pb28  1  0.572002  0.625965  0.749831  1
  Pb  Pb29  1  0.072002  0.874035  0.750169  1
  Pb  Pb30  1  0.428094  0.373140  0.249998  1
  Pb  Pb31  1  0.928094  0.126860  0.250002  1
  Pb  Pb32  1  0.348951  0.154728  0.750152  1
  Pb  Pb33  1  0.848951  0.345272  0.749848  1
  Pb  Pb34  1  0.651617  0.845871  0.249610  1
  Pb  Pb35  1  0.151617  0.654129  0.250390  1
