# generated using pymatgen
data_Sc3B2Ir4Ru
_symmetry_space_group_name_H-M   'P 1'
_cell_length_a   3.06259300
_cell_length_b   9.60158500
_cell_length_c   9.60158500
_cell_angle_alpha   90.00000000
_cell_angle_beta   90.00000000
_cell_angle_gamma   90.00000000
_symmetry_Int_Tables_number   1
_chemical_formula_structural   Sc3B2Ir4Ru
_chemical_formula_sum   'Sc6 B4 Ir8 Ru2'
_cell_volume   282.34177940
_cell_formula_units_Z   2
loop_
 _symmetry_equiv_pos_site_id
 _symmetry_equiv_pos_as_xyz
  1  'x, y, z'
loop_
 _atom_site_type_symbol
 _atom_site_label
 _atom_site_symmetry_multiplicity
 _atom_site_fract_x
 _atom_site_fract_y
 _atom_site_fract_z
 _atom_site_occupancy
  Sc  Sc0  1  0.000000  0.174068  0.674068  1
  Sc  Sc1  1  0.000000  0.825932  0.325932  1
  Sc  Sc2  1  0.000000  0.325932  0.174068  1
  Sc  Sc3  1  0.000000  0.674068  0.825932  1
  Sc  Sc4  1  0.000000  0.000000  0.000000  1
  Sc  Sc5  1  0.000000  0.500000  0.500000  1
  B  B6  1  0.000000  0.620545  0.120545  1
  B  B7  1  0.000000  0.379455  0.879455  1
  B  B8  1  0.000000  0.879455  0.620545  1
  B  B9  1  0.000000  0.120545  0.379455  1
  Ir  Ir10  1  0.500000  0.071942  0.221587  1
  Ir  Ir11  1  0.500000  0.928058  0.778413  1
  Ir  Ir12  1  0.500000  0.778413  0.071942  1
  Ir  Ir13  1  0.500000  0.428058  0.721587  1
  Ir  Ir14  1  0.500000  0.221587  0.928058  1
  Ir  Ir15  1  0.500000  0.571942  0.278413  1
  Ir  Ir16  1  0.500000  0.721587  0.571942  1
  Ir  Ir17  1  0.500000  0.278413  0.428058  1
  Ru  Ru18  1  0.500000  0.000000  0.500000  1
  Ru  Ru19  1  0.500000  0.500000  0.000000  1
