# generated using pymatgen
data_Pr15Dy2Ho3Sn16
_symmetry_space_group_name_H-M   'P 1'
_cell_length_a   8.24170599
_cell_length_b   8.41260587
_cell_length_c   15.96976000
_cell_angle_alpha   90.07658640
_cell_angle_beta   89.67328523
_cell_angle_gamma   90.11339731
_symmetry_Int_Tables_number   1
_chemical_formula_structural   Pr15Dy2Ho3Sn16
_chemical_formula_sum   'Pr15 Dy2 Ho3 Sn16'
_cell_volume   1107.22977724
_cell_formula_units_Z   1
loop_
 _symmetry_equiv_pos_site_id
 _symmetry_equiv_pos_as_xyz
  1  'x, y, z'
loop_
 _atom_site_type_symbol
 _atom_site_label
 _atom_site_symmetry_multiplicity
 _atom_site_fract_x
 _atom_site_fract_y
 _atom_site_fract_z
 _atom_site_occupancy
  Pr  Pr0  1  0.863342  0.661216  0.622729  1
  Pr  Pr1  1  0.635880  0.160578  0.378961  1
  Pr  Pr2  1  0.140331  0.337093  0.118559  1
  Pr  Pr3  1  0.637831  0.163261  0.121969  1
  Pr  Pr4  1  0.135861  0.338129  0.379119  1
  Pr  Pr5  1  0.363799  0.838941  0.621866  1
  Pr  Pr6  1  0.863887  0.662081  0.879526  1
  Pr  Pr7  1  0.515933  0.318907  0.902094  1
  Pr  Pr8  1  0.018641  0.180661  0.599655  1
  Pr  Pr9  1  0.482900  0.681359  0.401961  1
  Pr  Pr10  1  0.984676  0.817911  0.097402  1
  Pr  Pr11  1  0.485410  0.681727  0.095507  1
  Pr  Pr12  1  0.982836  0.818282  0.400868  1
  Pr  Pr13  1  0.517892  0.318744  0.600442  1
  Pr  Pr14  1  0.014311  0.180015  0.902440  1
  Dy  Dy15  1  0.806067  0.498075  0.250006  1
  Dy  Dy16  1  0.304588  0.001669  0.249130  1
  Ho  Ho17  1  0.359106  0.839072  0.874773  1
  Ho  Ho18  1  0.195463  0.502791  0.751205  1
  Ho  Ho19  1  0.693120  0.997830  0.750722  1
  Sn  Sn20  1  0.300308  0.031488  0.039064  1
  Sn  Sn21  1  0.794494  0.465464  0.456308  1
  Sn  Sn22  1  0.706769  0.965549  0.545373  1
  Sn  Sn23  1  0.208876  0.542645  0.954382  1
  Sn  Sn24  1  0.690289  0.961626  0.955072  1
  Sn  Sn25  1  0.205754  0.533856  0.545702  1
  Sn  Sn26  1  0.293277  0.033662  0.455260  1
  Sn  Sn27  1  0.797965  0.464541  0.044329  1
  Sn  Sn28  1  0.556795  0.620377  0.752253  1
  Sn  Sn29  1  0.060386  0.884716  0.752295  1
  Sn  Sn30  1  0.440002  0.384775  0.250125  1
  Sn  Sn31  1  0.941224  0.116859  0.248858  1
  Sn  Sn32  1  0.321973  0.146186  0.752450  1
  Sn  Sn33  1  0.821627  0.351606  0.751602  1
  Sn  Sn34  1  0.678920  0.851693  0.249210  1
  Sn  Sn35  1  0.179467  0.646612  0.248782  1
