# generated using pymatgen
data_SmMg3As(PN2)6
_symmetry_space_group_name_H-M   'P 1'
_cell_length_a   7.37068744
_cell_length_b   7.37068749
_cell_length_c   7.37068849
_cell_angle_alpha   109.54393714
_cell_angle_beta   109.54392956
_cell_angle_gamma   109.54392258
_symmetry_Int_Tables_number   1
_chemical_formula_structural   SmMg3As(PN2)6
_chemical_formula_sum   'Sm1 Mg3 As1 P6 N12'
_cell_volume   307.41674033
_cell_formula_units_Z   1
loop_
 _symmetry_equiv_pos_site_id
 _symmetry_equiv_pos_as_xyz
  1  'x, y, z'
loop_
 _atom_site_type_symbol
 _atom_site_label
 _atom_site_symmetry_multiplicity
 _atom_site_fract_x
 _atom_site_fract_y
 _atom_site_fract_z
 _atom_site_occupancy
  Sm  Sm0  1  0.332147  0.332147  0.332147  1
  Mg  Mg1  1  0.004763  0.644968  0.004763  1
  Mg  Mg2  1  0.644968  0.004763  0.004763  1
  Mg  Mg3  1  0.004763  0.004763  0.644968  1
  As  As4  1  0.954774  0.954774  0.954774  1
  P  P5  1  0.506302  0.251944  0.757504  1
  P  P6  1  0.506302  0.757504  0.251944  1
  P  P7  1  0.757504  0.251944  0.506302  1
  P  P8  1  0.251944  0.506302  0.757504  1
  P  P9  1  0.757504  0.506302  0.251944  1
  P  P10  1  0.251944  0.757504  0.506302  1
  N  N11  1  0.003429  0.727458  0.427955  1
  N  N12  1  0.287079  0.704945  0.287079  1
  N  N13  1  0.278201  0.576050  0.576050  1
  N  N14  1  0.576050  0.576050  0.278201  1
  N  N15  1  0.576050  0.278201  0.576050  1
  N  N16  1  0.727458  0.003429  0.427955  1
  N  N17  1  0.427955  0.003429  0.727458  1
  N  N18  1  0.727458  0.427955  0.003429  1
  N  N19  1  0.287079  0.287079  0.704945  1
  N  N20  1  0.704945  0.287079  0.287079  1
  N  N21  1  0.003429  0.427955  0.727458  1
  N  N22  1  0.427955  0.727458  0.003429  1
