# generated using pymatgen
data_Eu2Er(TmSi2)2
_symmetry_space_group_name_H-M   'P 1'
_cell_length_a   7.46345693
_cell_length_b   7.75285484
_cell_length_c   14.75852000
_cell_angle_alpha   89.96073543
_cell_angle_beta   90.07224678
_cell_angle_gamma   89.99584444
_symmetry_Int_Tables_number   1
_chemical_formula_structural   Eu2Er(TmSi2)2
_chemical_formula_sum   'Eu8 Er4 Tm8 Si16'
_cell_volume   853.97281060
_cell_formula_units_Z   4
loop_
 _symmetry_equiv_pos_site_id
 _symmetry_equiv_pos_as_xyz
  1  'x, y, z'
loop_
 _atom_site_type_symbol
 _atom_site_label
 _atom_site_symmetry_multiplicity
 _atom_site_fract_x
 _atom_site_fract_y
 _atom_site_fract_z
 _atom_site_occupancy
  Eu  Eu0  1  0.019333  0.175785  0.404206  1
  Eu  Eu1  1  0.519597  0.324193  0.404080  1
  Eu  Eu2  1  0.480746  0.675831  0.904503  1
  Eu  Eu3  1  0.480407  0.675999  0.595834  1
  Eu  Eu4  1  0.980472  0.824186  0.595877  1
  Eu  Eu5  1  0.980759  0.824112  0.904529  1
  Eu  Eu6  1  0.519135  0.324294  0.095377  1
  Eu  Eu7  1  0.019412  0.175755  0.095598  1
  Er  Er8  1  0.320253  0.177326  0.622318  1
  Er  Er9  1  0.679744  0.822516  0.377747  1
  Er  Er10  1  0.179629  0.677400  0.377840  1
  Er  Er11  1  0.820632  0.322596  0.877867  1
  Tm  Tm12  1  0.653882  0.983204  0.749991  1
  Tm  Tm13  1  0.820140  0.322911  0.622430  1
  Tm  Tm14  1  0.846152  0.483241  0.249771  1
  Tm  Tm15  1  0.346147  0.016734  0.249698  1
  Tm  Tm16  1  0.320266  0.177003  0.877745  1
  Tm  Tm17  1  0.179658  0.677287  0.122210  1
  Tm  Tm18  1  0.679640  0.822879  0.122116  1
  Tm  Tm19  1  0.153852  0.516804  0.750146  1
  Si  Si20  1  0.268727  0.886809  0.750274  1
  Si  Si21  1  0.472406  0.615494  0.249574  1
  Si  Si22  1  0.027572  0.115454  0.750204  1
  Si  Si23  1  0.527580  0.384481  0.750013  1
  Si  Si24  1  0.142774  0.467750  0.540578  1
  Si  Si25  1  0.972401  0.884501  0.249591  1
  Si  Si26  1  0.731262  0.113112  0.249619  1
  Si  Si27  1  0.856662  0.532582  0.040461  1
  Si  Si28  1  0.356079  0.967507  0.040188  1
  Si  Si29  1  0.144431  0.467817  0.960015  1
  Si  Si30  1  0.644075  0.032480  0.540390  1
  Si  Si31  1  0.356793  0.967991  0.459742  1
  Si  Si32  1  0.856200  0.531933  0.460049  1
  Si  Si33  1  0.768729  0.613160  0.749932  1
  Si  Si34  1  0.231306  0.386899  0.249641  1
  Si  Si35  1  0.643144  0.031971  0.959847  1
