# generated using pymatgen
data_Tb2TeO6
_symmetry_space_group_name_H-M   'P 1'
_cell_length_a   9.17782100
_cell_length_b   9.17782013
_cell_length_c   5.27091800
_cell_angle_alpha   90.00000000
_cell_angle_beta   90.00000000
_cell_angle_gamma   119.99999232
_symmetry_Int_Tables_number   1
_chemical_formula_structural   Tb2TeO6
_chemical_formula_sum   'Tb6 Te3 O18'
_cell_volume   384.49973997
_cell_formula_units_Z   3
loop_
 _symmetry_equiv_pos_site_id
 _symmetry_equiv_pos_as_xyz
  1  'x, y, z'
loop_
 _atom_site_type_symbol
 _atom_site_label
 _atom_site_symmetry_multiplicity
 _atom_site_fract_x
 _atom_site_fract_y
 _atom_site_fract_z
 _atom_site_occupancy
  Tb  Tb0  1  0.000000  0.617823  0.000000  1
  Tb  Tb1  1  0.000000  0.280089  0.500000  1
  Tb  Tb2  1  0.382177  0.382177  0.000000  1
  Tb  Tb3  1  0.280089  0.000000  0.500000  1
  Tb  Tb4  1  0.719911  0.719911  0.500000  1
  Tb  Tb5  1  0.617823  0.000000  0.000000  1
  Te  Te6  1  0.333333  0.666667  0.499741  1
  Te  Te7  1  0.000000  0.000000  0.000000  1
  Te  Te8  1  0.666667  0.333333  0.500259  1
  O  O9  1  0.076075  0.876817  0.789865  1
  O  O10  1  0.225764  0.761116  0.286671  1
  O  O11  1  0.133384  0.543500  0.711542  1
  O  O12  1  0.410116  0.866616  0.711542  1
  O  O13  1  0.123183  0.199258  0.789865  1
  O  O14  1  0.238884  0.464647  0.286671  1
  O  O15  1  0.535353  0.774236  0.286671  1
  O  O16  1  0.199258  0.123183  0.210135  1
  O  O17  1  0.456500  0.589884  0.711542  1
  O  O18  1  0.464647  0.238884  0.713329  1
  O  O19  1  0.800742  0.923925  0.789865  1
  O  O20  1  0.589884  0.456500  0.288458  1
  O  O21  1  0.543500  0.133384  0.288458  1
  O  O22  1  0.923925  0.800742  0.210135  1
  O  O23  1  0.774236  0.535353  0.713329  1
  O  O24  1  0.761116  0.225764  0.713329  1
  O  O25  1  0.866616  0.410116  0.288458  1
  O  O26  1  0.876817  0.076075  0.210135  1
