# generated using pymatgen
data_Tb(Y3Co4)3
_symmetry_space_group_name_H-M   'P 1'
_cell_length_a   5.53603914
_cell_length_b   5.53603939
_cell_length_c   20.31059723
_cell_angle_alpha   89.98382515
_cell_angle_beta   90.01617415
_cell_angle_gamma   137.47364154
_symmetry_Int_Tables_number   1
_chemical_formula_structural   Tb(Y3Co4)3
_chemical_formula_sum   'Tb1 Y9 Co12'
_cell_volume   420.74821231
_cell_formula_units_Z   1
loop_
 _symmetry_equiv_pos_site_id
 _symmetry_equiv_pos_as_xyz
  1  'x, y, z'
loop_
 _atom_site_type_symbol
 _atom_site_label
 _atom_site_symmetry_multiplicity
 _atom_site_fract_x
 _atom_site_fract_y
 _atom_site_fract_z
 _atom_site_occupancy
  Tb  Tb0  1  0.281656  0.718344  0.065238  1
  Y  Y1  1  0.278616  0.721384  0.249992  1
  Y  Y2  1  0.007114  0.992886  0.845789  1
  Y  Y3  1  0.721369  0.278631  0.750008  1
  Y  Y4  1  0.718136  0.281864  0.565217  1
  Y  Y5  1  0.992821  0.007179  0.345690  1
  Y  Y6  1  0.007159  0.992841  0.654291  1
  Y  Y7  1  0.718162  0.281838  0.934833  1
  Y  Y8  1  0.992829  0.007171  0.154285  1
  Y  Y9  1  0.281888  0.718112  0.434784  1
  Co  Co10  1  0.000014  0.999986  0.499996  1
  Co  Co11  1  0.000106  0.999894  0.999951  1
  Co  Co12  1  0.310913  0.689087  0.651940  1
  Co  Co13  1  0.569197  0.430803  0.446231  1
  Co  Co14  1  0.419207  0.580793  0.749994  1
  Co  Co15  1  0.430833  0.569167  0.946297  1
  Co  Co16  1  0.580693  0.419307  0.249998  1
  Co  Co17  1  0.430779  0.569221  0.553794  1
  Co  Co18  1  0.689109  0.310891  0.348071  1
  Co  Co19  1  0.689370  0.310630  0.151850  1
  Co  Co20  1  0.569169  0.430831  0.053672  1
  Co  Co21  1  0.310862  0.689138  0.848079  1
