# generated using pymatgen
data_Tb2Zn(PRh2)6
_symmetry_space_group_name_H-M   'P 1'
_cell_length_a   3.89559708
_cell_length_b   9.66660585
_cell_length_c   9.66496542
_cell_angle_alpha   119.99011050
_cell_angle_beta   89.99251920
_cell_angle_gamma   89.99414027
_symmetry_Int_Tables_number   1
_chemical_formula_structural   Tb2Zn(PRh2)6
_chemical_formula_sum   'Tb2 Zn1 P6 Rh12'
_cell_volume   315.22614922
_cell_formula_units_Z   1
loop_
 _symmetry_equiv_pos_site_id
 _symmetry_equiv_pos_as_xyz
  1  'x, y, z'
loop_
 _atom_site_type_symbol
 _atom_site_label
 _atom_site_symmetry_multiplicity
 _atom_site_fract_x
 _atom_site_fract_y
 _atom_site_fract_z
 _atom_site_occupancy
  Tb  Tb0  1  0.247917  0.666843  0.333517  1
  Tb  Tb1  1  0.752083  0.333157  0.666483  1
  Zn  Zn2  1  0.500000  0.000000  0.000000  1
  P  P3  1  0.748306  0.883280  0.598560  1
  P  P4  1  0.748556  0.401760  0.284882  1
  P  P5  1  0.748577  0.715221  0.116909  1
  P  P6  1  0.251694  0.116720  0.401440  1
  P  P7  1  0.251444  0.598240  0.715118  1
  P  P8  1  0.251423  0.284779  0.883091  1
  Rh  Rh9  1  0.753462  0.124999  0.841545  1
  Rh  Rh10  1  0.753828  0.158607  0.283228  1
  Rh  Rh11  1  0.753464  0.716591  0.875196  1
  Rh  Rh12  1  0.246538  0.875001  0.158455  1
  Rh  Rh13  1  0.246172  0.841393  0.716772  1
  Rh  Rh14  1  0.246536  0.283409  0.124804  1
  Rh  Rh15  1  0.749062  0.613734  0.548541  1
  Rh  Rh16  1  0.749190  0.451764  0.065480  1
  Rh  Rh17  1  0.749213  0.934826  0.386321  1
  Rh  Rh18  1  0.250938  0.386266  0.451459  1
  Rh  Rh19  1  0.250810  0.548236  0.934520  1
  Rh  Rh20  1  0.250787  0.065174  0.613679  1
