# generated using pymatgen
data_Dy5Y15Si15Au
_symmetry_space_group_name_H-M   'P 1'
_cell_length_a   7.46325848
_cell_length_b   7.70153174
_cell_length_c   14.66321300
_cell_angle_alpha   90.16247956
_cell_angle_beta   90.51328649
_cell_angle_gamma   90.16821868
_symmetry_Int_Tables_number   1
_chemical_formula_structural   Dy5Y15Si15Au
_chemical_formula_sum   'Dy5 Y15 Si15 Au1'
_cell_volume   842.77890740
_cell_formula_units_Z   1
loop_
 _symmetry_equiv_pos_site_id
 _symmetry_equiv_pos_as_xyz
  1  'x, y, z'
loop_
 _atom_site_type_symbol
 _atom_site_label
 _atom_site_symmetry_multiplicity
 _atom_site_fract_x
 _atom_site_fract_y
 _atom_site_fract_z
 _atom_site_occupancy
  Dy  Dy0  1  0.680261  0.173716  0.623124  1
  Dy  Dy1  1  0.182761  0.321777  0.877293  1
  Dy  Dy2  1  0.318423  0.819471  0.121558  1
  Dy  Dy3  1  0.823592  0.678075  0.377485  1
  Dy  Dy4  1  0.319410  0.825028  0.377613  1
  Y  Y5  1  0.817369  0.678642  0.121838  1
  Y  Y6  1  0.680824  0.179489  0.877738  1
  Y  Y7  1  0.178168  0.321474  0.623207  1
  Y  Y8  1  0.525827  0.678890  0.600895  1
  Y  Y9  1  0.028918  0.816511  0.901301  1
  Y  Y10  1  0.469968  0.318081  0.098673  1
  Y  Y11  1  0.976584  0.181884  0.399730  1
  Y  Y12  1  0.471118  0.322264  0.400028  1
  Y  Y13  1  0.970263  0.183191  0.098368  1
  Y  Y14  1  0.530445  0.682490  0.900324  1
  Y  Y15  1  0.025167  0.817999  0.600679  1
  Y  Y16  1  0.851472  0.507952  0.749973  1
  Y  Y17  1  0.349605  0.989316  0.748769  1
  Y  Y18  1  0.149885  0.489266  0.250127  1
  Y  Y19  1  0.651293  0.010766  0.250772  1
  Si  Si20  1  0.145429  0.528216  0.040064  1
  Si  Si21  1  0.353436  0.029547  0.960171  1
  Si  Si22  1  0.850438  0.471255  0.541524  1
  Si  Si23  1  0.342441  0.027772  0.542525  1
  Si  Si24  1  0.855704  0.471198  0.959140  1
  Si  Si25  1  0.643843  0.970912  0.039527  1
  Si  Si26  1  0.148409  0.531470  0.460971  1
  Si  Si27  1  0.478110  0.394766  0.750255  1
  Si  Si28  1  0.976568  0.104648  0.752221  1
  Si  Si29  1  0.523003  0.607849  0.248668  1
  Si  Si30  1  0.025334  0.894344  0.247413  1
  Si  Si31  1  0.734016  0.871260  0.752214  1
  Si  Si32  1  0.233658  0.626492  0.751367  1
  Si  Si33  1  0.267995  0.125956  0.246995  1
  Si  Si34  1  0.765623  0.375581  0.248838  1
  Au  Au35  1  0.654640  0.972453  0.458611  1
