# generated using pymatgen
data_Zr10GaSn6Ge
_symmetry_space_group_name_H-M   'P 1'
_cell_length_a   8.73724100
_cell_length_b   8.73724191
_cell_length_c   5.91247100
_cell_angle_alpha   90.00000000
_cell_angle_beta   90.00000000
_cell_angle_gamma   119.99999278
_symmetry_Int_Tables_number   1
_chemical_formula_structural   Zr10GaSn6Ge
_chemical_formula_sum   'Zr10 Ga1 Sn6 Ge1'
_cell_volume   390.88442134
_cell_formula_units_Z   1
loop_
 _symmetry_equiv_pos_site_id
 _symmetry_equiv_pos_as_xyz
  1  'x, y, z'
loop_
 _atom_site_type_symbol
 _atom_site_label
 _atom_site_symmetry_multiplicity
 _atom_site_fract_x
 _atom_site_fract_y
 _atom_site_fract_z
 _atom_site_occupancy
  Zr  Zr0  1  0.000000  0.265266  0.248987  1
  Zr  Zr1  1  0.734734  0.000000  0.751013  1
  Zr  Zr2  1  0.734734  0.734734  0.248987  1
  Zr  Zr3  1  0.666667  0.333333  0.500000  1
  Zr  Zr4  1  0.000000  0.734734  0.751013  1
  Zr  Zr5  1  0.265266  0.265266  0.751013  1
  Zr  Zr6  1  0.333333  0.666667  0.000000  1
  Zr  Zr7  1  0.666667  0.333333  0.000000  1
  Zr  Zr8  1  0.333333  0.666667  0.500000  1
  Zr  Zr9  1  0.265266  0.000000  0.248987  1
  Ga  Ga10  1  0.000000  0.000000  0.500000  1
  Sn  Sn11  1  0.609769  0.000000  0.251303  1
  Sn  Sn12  1  0.390231  0.000000  0.748697  1
  Sn  Sn13  1  0.390231  0.390231  0.251303  1
  Sn  Sn14  1  0.000000  0.609769  0.251303  1
  Sn  Sn15  1  0.000000  0.390231  0.748697  1
  Sn  Sn16  1  0.609769  0.609769  0.748697  1
  Ge  Ge17  1  0.000000  0.000000  0.000000  1
