# generated using pymatgen
data_Nd3Sn2Pd2PtPb
_symmetry_space_group_name_H-M   'P 1'
_cell_length_a   7.72807014
_cell_length_b   7.77489230
_cell_length_c   4.13364900
_cell_angle_alpha   90.00000000
_cell_angle_beta   90.00000000
_cell_angle_gamma   120.09676295
_symmetry_Int_Tables_number   1
_chemical_formula_structural   Nd3Sn2Pd2PtPb
_chemical_formula_sum   'Nd3 Sn2 Pd2 Pt1 Pb1'
_cell_volume   214.88464392
_cell_formula_units_Z   1
loop_
 _symmetry_equiv_pos_site_id
 _symmetry_equiv_pos_as_xyz
  1  'x, y, z'
loop_
 _atom_site_type_symbol
 _atom_site_label
 _atom_site_symmetry_multiplicity
 _atom_site_fract_x
 _atom_site_fract_y
 _atom_site_fract_z
 _atom_site_occupancy
  Nd  Nd0  1  0.590121  0.587768  0.000000  1
  Nd  Nd1  1  0.414013  0.006225  0.000000  1
  Nd  Nd2  1  0.994906  0.406010  0.000000  1
  Sn  Sn3  1  0.251409  0.255989  0.500000  1
  Sn  Sn4  1  0.745099  0.996448  0.500000  1
  Pd  Pd5  1  0.000290  0.012167  0.000000  1
  Pd  Pd6  1  0.339872  0.663407  0.500000  1
  Pt  Pt7  1  0.659882  0.322965  0.500000  1
  Pb  Pb8  1  0.004406  0.749020  0.500000  1
