# generated using pymatgen
data_Li6Pr3Sm3(WO6)4
_symmetry_space_group_name_H-M   'P 1'
_cell_length_a   10.91238994
_cell_length_b   10.91239019
_cell_length_c   10.91420801
_cell_angle_alpha   109.47186721
_cell_angle_beta   109.47187505
_cell_angle_gamma   109.46316942
_symmetry_Int_Tables_number   1
_chemical_formula_structural   Li6Pr3Sm3(WO6)4
_chemical_formula_sum   'Li12 Pr6 Sm6 W8 O48'
_cell_volume   1000.56722082
_cell_formula_units_Z   2
loop_
 _symmetry_equiv_pos_site_id
 _symmetry_equiv_pos_as_xyz
  1  'x, y, z'
loop_
 _atom_site_type_symbol
 _atom_site_label
 _atom_site_symmetry_multiplicity
 _atom_site_fract_x
 _atom_site_fract_y
 _atom_site_fract_z
 _atom_site_occupancy
  Li  Li0  1  0.249939  0.875963  0.126330  1
  Li  Li1  1  0.376391  0.250367  0.126330  1
  Li  Li2  1  0.124465  0.374465  0.250001  1
  Li  Li3  1  0.625537  0.875537  0.250001  1
  Li  Li4  1  0.124037  0.750061  0.373670  1
  Li  Li5  1  0.749634  0.623610  0.373671  1
  Li  Li6  1  0.249623  0.373572  0.623625  1
  Li  Li7  1  0.874003  0.250052  0.623626  1
  Li  Li8  1  0.375540  0.125540  0.750000  1
  Li  Li9  1  0.874460  0.624460  0.750000  1
  Li  Li10  1  0.626427  0.750377  0.876375  1
  Li  Li11  1  0.749947  0.125998  0.876375  1
  Pr  Pr12  1  0.749106  0.874568  0.623913  1
  Pr  Pr13  1  0.374807  0.749345  0.623914  1
  Pr  Pr14  1  0.125000  0.874999  0.750000  1
  Pr  Pr15  1  0.625001  0.375000  0.750001  1
  Pr  Pr16  1  0.250655  0.625194  0.876087  1
  Pr  Pr17  1  0.125432  0.250895  0.876088  1
  Sm  Sm18  1  0.750621  0.375162  0.126123  1
  Sm  Sm19  1  0.875503  0.750961  0.126124  1
  Sm  Sm20  1  0.375000  0.625000  0.250000  1
  Sm  Sm21  1  0.875000  0.125000  0.250000  1
  Sm  Sm22  1  0.249039  0.124497  0.373876  1
  Sm  Sm23  1  0.624837  0.249379  0.373876  1
  W  W24  1  0.999947  0.000136  0.002341  1
  W  W25  1  0.502393  0.002205  0.002341  1
  W  W26  1  0.502473  0.500995  0.003135  1
  W  W27  1  0.000661  0.502139  0.003135  1
  W  W28  1  0.999864  0.000053  0.497659  1
  W  W29  1  0.497860  0.999339  0.496865  1
  W  W30  1  0.997795  0.497607  0.497660  1
  W  W31  1  0.499005  0.497527  0.496866  1
  O  O32  1  0.828243  0.908233  0.026746  1
  O  O33  1  0.698502  0.118514  0.026747  1
  O  O34  1  0.197129  0.673377  0.083352  1
  O  O35  1  0.386224  0.409976  0.083352  1
  O  O36  1  0.477050  0.671901  0.095181  1
  O  O37  1  0.118131  0.423281  0.095181  1
  O  O38  1  0.526667  0.198389  0.118698  1
  O  O39  1  0.092033  0.920310  0.118700  1
  O  O40  1  0.973801  0.592642  0.172995  1
  O  O41  1  0.699196  0.580355  0.172997  1
  O  O42  1  0.079930  0.172067  0.198534  1
  O  O43  1  0.618603  0.026467  0.198534  1
  O  O44  1  0.827934  0.920071  0.301465  1
  O  O45  1  0.973533  0.381396  0.301465  1
  O  O46  1  0.407359  0.026199  0.327004  1
  O  O47  1  0.419646  0.300805  0.327004  1
  O  O48  1  0.079691  0.907969  0.381301  1
  O  O49  1  0.801610  0.473333  0.381301  1
  O  O50  1  0.328097  0.522950  0.404817  1
  O  O51  1  0.576719  0.881869  0.404818  1
  O  O52  1  0.590023  0.613777  0.416648  1
  O  O53  1  0.326623  0.802871  0.416648  1
  O  O54  1  0.091765  0.171755  0.473253  1
  O  O55  1  0.881487  0.301497  0.473253  1
  O  O56  1  0.113195  0.693235  0.520719  1
  O  O57  1  0.907524  0.827485  0.520719  1
  O  O58  1  0.405635  0.381840  0.576468  1
  O  O59  1  0.670833  0.194628  0.576469  1
  O  O60  1  0.672340  0.475315  0.588984  1
  O  O61  1  0.416643  0.113671  0.588984  1
  O  O62  1  0.193351  0.520772  0.613064  1
  O  O63  1  0.919714  0.092293  0.613065  1
  O  O64  1  0.579608  0.692407  0.671279  1
  O  O65  1  0.591672  0.978872  0.671280  1
  O  O66  1  0.172215  0.080061  0.693183  1
  O  O67  1  0.020968  0.613121  0.693185  1
  O  O68  1  0.386878  0.979032  0.806816  1
  O  O69  1  0.919938  0.827784  0.806816  1
  O  O70  1  0.307593  0.420392  0.828720  1
  O  O71  1  0.021129  0.408329  0.828721  1
  O  O72  1  0.479227  0.806648  0.886935  1
  O  O73  1  0.907707  0.080287  0.886936  1
  O  O74  1  0.524685  0.327659  0.911015  1
  O  O75  1  0.886329  0.583357  0.911016  1
  O  O76  1  0.618160  0.594366  0.923531  1
  O  O77  1  0.805372  0.329167  0.923531  1
  O  O78  1  0.306765  0.886805  0.979280  1
  O  O79  1  0.172515  0.092476  0.979281  1
