# generated using pymatgen
data_Nd8Cd2NiPt
_symmetry_space_group_name_H-M   'P 1'
_cell_length_a   9.94833781
_cell_length_b   9.94908500
_cell_length_c   9.92005429
_cell_angle_alpha   60.07243414
_cell_angle_beta   60.07264355
_cell_angle_gamma   60.36796802
_symmetry_Int_Tables_number   1
_chemical_formula_structural   Nd8Cd2NiPt
_chemical_formula_sum   'Nd16 Cd4 Ni2 Pt2'
_cell_volume   696.95362009
_cell_formula_units_Z   2
loop_
 _symmetry_equiv_pos_site_id
 _symmetry_equiv_pos_as_xyz
  1  'x, y, z'
loop_
 _atom_site_type_symbol
 _atom_site_label
 _atom_site_symmetry_multiplicity
 _atom_site_fract_x
 _atom_site_fract_y
 _atom_site_fract_z
 _atom_site_occupancy
  Nd  Nd0  1  0.346497  0.346516  0.355115  1
  Nd  Nd1  1  0.346670  0.346703  0.951709  1
  Nd  Nd2  1  0.343597  0.952924  0.351719  1
  Nd  Nd3  1  0.952952  0.343564  0.351737  1
  Nd  Nd4  1  0.815332  0.191103  0.190126  1
  Nd  Nd5  1  0.191067  0.815311  0.803480  1
  Nd  Nd6  1  0.191077  0.815335  0.190134  1
  Nd  Nd7  1  0.815306  0.191092  0.803462  1
  Nd  Nd8  1  0.190894  0.190936  0.809042  1
  Nd  Nd9  1  0.807882  0.807935  0.192110  1
  Nd  Nd10  1  0.937564  0.563793  0.563718  1
  Nd  Nd11  1  0.563719  0.937600  0.935001  1
  Nd  Nd12  1  0.563733  0.937612  0.563718  1
  Nd  Nd13  1  0.937554  0.563774  0.934997  1
  Nd  Nd14  1  0.561223  0.561271  0.938750  1
  Nd  Nd15  1  0.933516  0.933545  0.566506  1
  Cd  Cd16  1  0.580374  0.580415  0.579945  1
  Cd  Cd17  1  0.580346  0.580391  0.259330  1
  Cd  Cd18  1  0.581403  0.258590  0.579967  1
  Cd  Cd19  1  0.258543  0.581448  0.579970  1
  Ni  Ni20  1  0.142775  0.142281  0.142881  1
  Ni  Ni21  1  0.142013  0.141835  0.572341  1
  Pt  Pt22  1  0.143550  0.572421  0.142133  1
  Pt  Pt23  1  0.572414  0.143605  0.142111  1
