# generated using pymatgen
data_U2(BrCl)5
_symmetry_space_group_name_H-M   'P 1'
_cell_length_a   11.76305688
_cell_length_b   9.03547032
_cell_length_c   13.04712422
_cell_angle_alpha   46.00193197
_cell_angle_beta   90.47675109
_cell_angle_gamma   90.53672121
_symmetry_Int_Tables_number   1
_chemical_formula_structural   U2(BrCl)5
_chemical_formula_sum   'U4 Br10 Cl10'
_cell_volume   997.50149061
_cell_formula_units_Z   2
loop_
 _symmetry_equiv_pos_site_id
 _symmetry_equiv_pos_as_xyz
  1  'x, y, z'
loop_
 _atom_site_type_symbol
 _atom_site_label
 _atom_site_symmetry_multiplicity
 _atom_site_fract_x
 _atom_site_fract_y
 _atom_site_fract_z
 _atom_site_occupancy
  U  U0  1  0.629159  0.202045  0.345822  1
  U  U1  1  0.131085  0.794374  0.157855  1
  U  U2  1  0.366195  0.795017  0.653188  1
  U  U3  1  0.873894  0.205191  0.845617  1
  Br  Br4  1  0.886843  0.820010  0.138170  1
  Br  Br5  1  0.619285  0.555069  0.077315  1
  Br  Br6  1  0.354447  0.821323  0.138029  1
  Br  Br7  1  0.611134  0.818042  0.638627  1
  Br  Br8  1  0.123316  0.603076  0.071378  1
  Br  Br9  1  0.371661  0.002051  0.727942  1
  Br  Br10  1  0.622895  0.393352  0.432145  1
  Br  Br11  1  0.622375  0.996484  0.270244  1
  Br  Br12  1  0.885138  0.559172  0.577650  1
  Br  Br13  1  0.649841  0.186039  0.857944  1
  Cl  Cl14  1  0.103010  0.158904  0.880831  1
  Cl  Cl15  1  0.374038  0.463400  0.905582  1
  Cl  Cl16  1  0.838769  0.183045  0.362546  1
  Cl  Cl17  1  0.126512  0.989254  0.226657  1
  Cl  Cl18  1  0.123682  0.462484  0.409438  1
  Cl  Cl19  1  0.879168  0.012943  0.774415  1
  Cl  Cl20  1  0.398255  0.158385  0.376844  1
  Cl  Cl21  1  0.880259  0.383425  0.927652  1
  Cl  Cl22  1  0.372209  0.618216  0.570562  1
  Cl  Cl23  1  0.156830  0.818700  0.633548  1
