# generated using pymatgen
data_Er3Al3CuSiGe
_symmetry_space_group_name_H-M   'P 1'
_cell_length_a   6.93458700
_cell_length_b   6.93458768
_cell_length_c   4.12145000
_cell_angle_alpha   90.00000000
_cell_angle_beta   90.00000000
_cell_angle_gamma   120.00000154
_symmetry_Int_Tables_number   1
_chemical_formula_structural   Er3Al3CuSiGe
_chemical_formula_sum   'Er3 Al3 Cu1 Si1 Ge1'
_cell_volume   171.64134343
_cell_formula_units_Z   1
loop_
 _symmetry_equiv_pos_site_id
 _symmetry_equiv_pos_as_xyz
  1  'x, y, z'
loop_
 _atom_site_type_symbol
 _atom_site_label
 _atom_site_symmetry_multiplicity
 _atom_site_fract_x
 _atom_site_fract_y
 _atom_site_fract_z
 _atom_site_occupancy
  Er  Er0  1  0.402970  0.996975  0.000000  1
  Er  Er1  1  0.003025  0.405994  0.000000  1
  Er  Er2  1  0.594006  0.597030  0.000000  1
  Al  Al3  1  0.763177  0.997066  0.499999  1
  Al  Al4  1  0.233888  0.236823  0.499999  1
  Al  Al5  1  0.002934  0.766112  0.499999  1
  Cu  Cu6  1  0.000000  0.000000  0.000000  1
  Si  Si7  1  0.333333  0.666666  0.499999  1
  Ge  Ge8  1  0.666667  0.333334  0.499999  1
