# generated using pymatgen
data_Y13Hf4(ThIr4)3
_symmetry_space_group_name_H-M   'P 1'
_cell_length_a   10.96860514
_cell_length_b   10.97534733
_cell_length_c   6.26300611
_cell_angle_alpha   89.99077682
_cell_angle_beta   89.71639720
_cell_angle_gamma   89.82811173
_symmetry_Int_Tables_number   1
_chemical_formula_structural   Y13Hf4(ThIr4)3
_chemical_formula_sum   'Y13 Hf4 Th3 Ir12'
_cell_volume   753.95466293
_cell_formula_units_Z   1
loop_
 _symmetry_equiv_pos_site_id
 _symmetry_equiv_pos_as_xyz
  1  'x, y, z'
loop_
 _atom_site_type_symbol
 _atom_site_label
 _atom_site_symmetry_multiplicity
 _atom_site_fract_x
 _atom_site_fract_y
 _atom_site_fract_z
 _atom_site_occupancy
  Y  Y0  1  0.709369  0.910333  0.372154  1
  Y  Y1  1  0.589334  0.782035  0.874531  1
  Y  Y2  1  0.588701  0.215333  0.374657  1
  Y  Y3  1  0.419173  0.782482  0.374086  1
  Y  Y4  1  0.412602  0.219116  0.875604  1
  Y  Y5  1  0.209251  0.416850  0.624061  1
  Y  Y6  1  0.209692  0.585429  0.125240  1
  Y  Y7  1  0.790569  0.415248  0.122970  1
  Y  Y8  1  0.789975  0.582596  0.623721  1
  Y  Y9  1  0.914516  0.711347  0.123621  1
  Y  Y10  1  0.916710  0.288611  0.620021  1
  Y  Y11  1  0.081715  0.711326  0.620945  1
  Y  Y12  1  0.084022  0.290590  0.117709  1
  Hf  Hf13  1  0.995268  0.998684  0.500046  1
  Hf  Hf14  1  0.999583  0.000541  0.001811  1
  Hf  Hf15  1  0.500510  0.499611  0.008389  1
  Hf  Hf16  1  0.501192  0.498728  0.508897  1
  Th  Th17  1  0.291585  0.089964  0.378019  1
  Th  Th18  1  0.290488  0.908481  0.875183  1
  Th  Th19  1  0.707899  0.086253  0.876831  1
  Ir  Ir20  1  0.856660  0.142635  0.242738  1
  Ir  Ir21  1  0.854051  0.861538  0.754438  1
  Ir  Ir22  1  0.143745  0.138959  0.743499  1
  Ir  Ir23  1  0.145413  0.861790  0.248347  1
  Ir  Ir24  1  0.643186  0.356912  0.755092  1
  Ir  Ir25  1  0.643261  0.638866  0.253946  1
  Ir  Ir26  1  0.357666  0.358904  0.257368  1
  Ir  Ir27  1  0.358824  0.642769  0.756623  1
  Ir  Ir28  1  0.496810  0.001251  0.112337  1
  Ir  Ir29  1  0.498915  0.000369  0.617504  1
  Ir  Ir30  1  0.999601  0.501101  0.879768  1
  Ir  Ir31  1  0.999714  0.501349  0.379841  1
