# generated using pymatgen
data_TmSc2(CoNi2)3
_symmetry_space_group_name_H-M   'P 1'
_cell_length_a   4.82614043
_cell_length_b   4.82614053
_cell_length_c   8.48807041
_cell_angle_alpha   73.48361992
_cell_angle_beta   73.48361803
_cell_angle_gamma   59.99998975
_symmetry_Int_Tables_number   1
_chemical_formula_structural   TmSc2(CoNi2)3
_chemical_formula_sum   'Tm1 Sc2 Co3 Ni6'
_cell_volume   161.72611878
_cell_formula_units_Z   1
loop_
 _symmetry_equiv_pos_site_id
 _symmetry_equiv_pos_as_xyz
  1  'x, y, z'
loop_
 _atom_site_type_symbol
 _atom_site_label
 _atom_site_symmetry_multiplicity
 _atom_site_fract_x
 _atom_site_fract_y
 _atom_site_fract_z
 _atom_site_occupancy
  Tm  Tm0  1  0.000492  0.000492  0.998525  1
  Sc  Sc1  1  0.140838  0.140838  0.577486  1
  Sc  Sc2  1  0.859931  0.859931  0.420207  1
  Co  Co3  1  0.080914  0.584881  0.749325  1
  Co  Co4  1  0.584881  0.584881  0.749325  1
  Co  Co5  1  0.584881  0.080914  0.749325  1
  Ni  Ni6  1  0.917890  0.415068  0.251974  1
  Ni  Ni7  1  0.415068  0.415068  0.251974  1
  Ni  Ni8  1  0.415068  0.917890  0.251974  1
  Ni  Ni9  1  0.333384  0.333384  0.999850  1
  Ni  Ni10  1  0.666383  0.666383  0.000850  1
  Ni  Ni11  1  0.500271  0.500271  0.499187  1
