# generated using pymatgen
data_Ca5Pr3(NdIr2)2
_symmetry_space_group_name_H-M   'P 1'
_cell_length_a   8.73493576
_cell_length_b   8.88446573
_cell_length_c   7.48637322
_cell_angle_alpha   83.26360368
_cell_angle_beta   82.95791898
_cell_angle_gamma   44.88682546
_symmetry_Int_Tables_number   1
_chemical_formula_structural   Ca5Pr3(NdIr2)2
_chemical_formula_sum   'Ca5 Pr3 Nd2 Ir4'
_cell_volume   406.52645590
_cell_formula_units_Z   1
loop_
 _symmetry_equiv_pos_site_id
 _symmetry_equiv_pos_as_xyz
  1  'x, y, z'
loop_
 _atom_site_type_symbol
 _atom_site_label
 _atom_site_symmetry_multiplicity
 _atom_site_fract_x
 _atom_site_fract_y
 _atom_site_fract_z
 _atom_site_occupancy
  Ca  Ca0  1  0.015939  0.805317  0.916351  1
  Ca  Ca1  1  0.199624  0.984383  0.584918  1
  Ca  Ca2  1  0.985954  0.193934  0.082568  1
  Ca  Ca3  1  0.801768  0.014368  0.416077  1
  Ca  Ca4  1  0.353874  0.207667  0.815784  1
  Pr  Pr5  1  0.787106  0.651371  0.679503  1
  Pr  Pr6  1  0.640654  0.796810  0.181025  1
  Pr  Pr7  1  0.210904  0.352875  0.318832  1
  Nd  Nd8  1  0.565777  0.429303  0.750217  1
  Nd  Nd9  1  0.435102  0.563642  0.252684  1
  Ir  Ir10  1  0.178200  0.594431  0.573575  1
  Ir  Ir11  1  0.412997  0.802743  0.927226  1
  Ir  Ir12  1  0.818241  0.417126  0.422988  1
  Ir  Ir13  1  0.593860  0.186030  0.078254  1
