# generated using pymatgen
data_PrHgPtRhO7
_symmetry_space_group_name_H-M   'P 1'
_cell_length_a   7.25882847
_cell_length_b   7.37446855
_cell_length_c   7.37446668
_cell_angle_alpha   61.77016312
_cell_angle_beta   60.51738061
_cell_angle_gamma   60.51737478
_symmetry_Int_Tables_number   1
_chemical_formula_structural   PrHgPtRhO7
_chemical_formula_sum   'Pr2 Hg2 Pt2 Rh2 O14'
_cell_volume   284.92620561
_cell_formula_units_Z   2
loop_
 _symmetry_equiv_pos_site_id
 _symmetry_equiv_pos_as_xyz
  1  'x, y, z'
loop_
 _atom_site_type_symbol
 _atom_site_label
 _atom_site_symmetry_multiplicity
 _atom_site_fract_x
 _atom_site_fract_y
 _atom_site_fract_z
 _atom_site_occupancy
  Pr  Pr0  1  0.125000  0.625000  0.125000  1
  Pr  Pr1  1  0.125000  0.125000  0.625000  1
  Hg  Hg2  1  0.125000  0.125000  0.125000  1
  Hg  Hg3  1  0.625000  0.125000  0.125000  1
  Pt  Pt4  1  0.625000  0.625000  0.625000  1
  Pt  Pt5  1  0.125000  0.625000  0.625000  1
  Rh  Rh6  1  0.625000  0.625000  0.125000  1
  Rh  Rh7  1  0.625000  0.125000  0.625000  1
  O  O8  1  0.695057  0.304943  0.304943  1
  O  O9  1  0.708655  0.300043  0.694310  1
  O  O10  1  0.986145  0.013855  0.013855  1
  O  O11  1  0.296991  0.694310  0.300043  1
  O  O12  1  0.708655  0.694310  0.300043  1
  O  O13  1  0.964226  0.535774  0.535774  1
  O  O14  1  0.285774  0.714226  0.714226  1
  O  O15  1  0.263855  0.236145  0.236145  1
  O  O16  1  0.953009  0.555690  0.949957  1
  O  O17  1  0.541345  0.949957  0.555690  1
  O  O18  1  0.541345  0.555690  0.949957  1
  O  O19  1  0.953009  0.949957  0.555690  1
  O  O20  1  0.554943  0.945057  0.945057  1
  O  O21  1  0.296991  0.300043  0.694310  1
