# generated using pymatgen
data_La12Hg(IrI4)3
_symmetry_space_group_name_H-M   'P 1'
_cell_length_a   11.18256512
_cell_length_b   11.18256609
_cell_length_c   11.18256526
_cell_angle_alpha   110.05092477
_cell_angle_beta   110.05092582
_cell_angle_gamma   110.05091667
_symmetry_Int_Tables_number   1
_chemical_formula_structural   La12Hg(IrI4)3
_chemical_formula_sum   'La12 Hg1 Ir3 I12'
_cell_volume   1052.73380712
_cell_formula_units_Z   1
loop_
 _symmetry_equiv_pos_site_id
 _symmetry_equiv_pos_as_xyz
  1  'x, y, z'
loop_
 _atom_site_type_symbol
 _atom_site_label
 _atom_site_symmetry_multiplicity
 _atom_site_fract_x
 _atom_site_fract_y
 _atom_site_fract_z
 _atom_site_occupancy
  La  La0  1  0.462865  0.493852  0.221452  1
  La  La1  1  0.750000  0.227874  0.272126  1
  La  La2  1  0.750000  0.019543  0.480457  1
  La  La3  1  0.221452  0.462865  0.493852  1
  La  La4  1  0.272126  0.750000  0.227874  1
  La  La5  1  0.037135  0.278548  0.006148  1
  La  La6  1  0.006148  0.037135  0.278548  1
  La  La7  1  0.480457  0.750000  0.019543  1
  La  La8  1  0.493852  0.221452  0.462865  1
  La  La9  1  0.019543  0.480457  0.750000  1
  La  La10  1  0.278548  0.006148  0.037135  1
  La  La11  1  0.227874  0.272126  0.750000  1
  Hg  Hg12  1  0.250000  0.250000  0.250000  1
  Ir  Ir13  1  0.502545  0.997455  0.250000  1
  Ir  Ir14  1  0.997455  0.250000  0.502545  1
  Ir  Ir15  1  0.250000  0.502545  0.997455  1
  I  I16  1  0.250000  0.761659  0.738341  1
  I  I17  1  0.514375  0.504671  0.754555  1
  I  I18  1  0.985625  0.745445  0.995329  1
  I  I19  1  0.738341  0.250000  0.761659  1
  I  I20  1  0.995329  0.985625  0.745445  1
  I  I21  1  0.250000  0.995009  0.504991  1
  I  I22  1  0.754555  0.514375  0.504671  1
  I  I23  1  0.504991  0.250000  0.995009  1
  I  I24  1  0.761659  0.738341  0.250000  1
  I  I25  1  0.745445  0.995329  0.985625  1
  I  I26  1  0.995009  0.504991  0.250000  1
  I  I27  1  0.504671  0.754555  0.514375  1
