# generated using pymatgen
data_TmZrUTc3
_symmetry_space_group_name_H-M   'P 1'
_cell_length_a   5.68753100
_cell_length_b   5.68753096
_cell_length_c   8.15590100
_cell_angle_alpha   90.00000000
_cell_angle_beta   90.00000000
_cell_angle_gamma   120.00000603
_symmetry_Int_Tables_number   1
_chemical_formula_structural   TmZrUTc3
_chemical_formula_sum   'Tm2 Zr2 U2 Tc6'
_cell_volume   228.48100564
_cell_formula_units_Z   2
loop_
 _symmetry_equiv_pos_site_id
 _symmetry_equiv_pos_as_xyz
  1  'x, y, z'
loop_
 _atom_site_type_symbol
 _atom_site_label
 _atom_site_symmetry_multiplicity
 _atom_site_fract_x
 _atom_site_fract_y
 _atom_site_fract_z
 _atom_site_occupancy
  Tm  Tm0  1  0.666667  0.333333  0.939510  1
  Tm  Tm1  1  0.333333  0.666667  0.060490  1
  Zr  Zr2  1  0.333333  0.666667  0.444521  1
  Zr  Zr3  1  0.666667  0.333333  0.555479  1
  U  U4  1  0.000000  0.000000  0.500000  1
  U  U5  1  0.000000  0.000000  0.000000  1
  Tc  Tc6  1  0.833985  0.166015  0.255630  1
  Tc  Tc7  1  0.833985  0.667970  0.255630  1
  Tc  Tc8  1  0.332030  0.166015  0.255630  1
  Tc  Tc9  1  0.166015  0.833985  0.744370  1
  Tc  Tc10  1  0.166015  0.332030  0.744370  1
  Tc  Tc11  1  0.667970  0.833985  0.744370  1
