# generated using pymatgen
data_Dy3Er2Os2C7
_symmetry_space_group_name_H-M   'P 1'
_cell_length_a   8.18019812
_cell_length_b   8.13982009
_cell_length_c   3.50588200
_cell_angle_alpha   90.00000000
_cell_angle_beta   90.00000000
_cell_angle_gamma   121.99476855
_symmetry_Int_Tables_number   1
_chemical_formula_structural   Dy3Er2Os2C7
_chemical_formula_sum   'Dy3 Er2 Os2 C7'
_cell_volume   197.97993704
_cell_formula_units_Z   1
loop_
 _symmetry_equiv_pos_site_id
 _symmetry_equiv_pos_as_xyz
  1  'x, y, z'
loop_
 _atom_site_type_symbol
 _atom_site_label
 _atom_site_symmetry_multiplicity
 _atom_site_fract_x
 _atom_site_fract_y
 _atom_site_fract_z
 _atom_site_occupancy
  Dy  Dy0  1  0.500000  0.500000  0.000000  1
  Dy  Dy1  1  0.076200  0.334724  0.500000  1
  Dy  Dy2  1  0.923800  0.665276  0.500000  1
  Er  Er3  1  0.659667  0.922855  0.500000  1
  Er  Er4  1  0.340333  0.077145  0.500000  1
  Os  Os5  1  0.714403  0.286371  0.000000  1
  Os  Os6  1  0.285597  0.713629  0.000000  1
  C  C7  1  0.632701  0.368099  0.500000  1
  C  C8  1  0.367299  0.631901  0.500000  1
  C  C9  1  0.000000  0.000000  0.000000  1
  C  C10  1  0.174085  0.169168  0.000000  1
  C  C11  1  0.825915  0.830832  0.000000  1
  C  C12  1  0.000000  0.500000  0.000000  1
  C  C13  1  0.500000  0.000000  0.000000  1
