# generated using pymatgen
data_Pr5TiNbO12
_symmetry_space_group_name_H-M   'P 1'
_cell_length_a   7.12830288
_cell_length_b   7.12830366
_cell_length_c   7.70434005
_cell_angle_alpha   74.42409094
_cell_angle_beta   74.42409075
_cell_angle_gamma   51.05899949
_symmetry_Int_Tables_number   1
_chemical_formula_structural   Pr5TiNbO12
_chemical_formula_sum   'Pr5 Ti1 Nb1 O12'
_cell_volume   290.69615865
_cell_formula_units_Z   1
loop_
 _symmetry_equiv_pos_site_id
 _symmetry_equiv_pos_as_xyz
  1  'x, y, z'
loop_
 _atom_site_type_symbol
 _atom_site_label
 _atom_site_symmetry_multiplicity
 _atom_site_fract_x
 _atom_site_fract_y
 _atom_site_fract_z
 _atom_site_occupancy
  Pr  Pr0  1  0.312967  0.295966  0.359265  1
  Pr  Pr1  1  0.704034  0.687033  0.640735  1
  Pr  Pr2  1  0.698873  0.690893  0.165615  1
  Pr  Pr3  1  0.309107  0.301127  0.834385  1
  Pr  Pr4  1  0.002531  0.997469  0.500000  1
  Ti  Ti5  1  0.718894  0.281106  0.000000  1
  Nb  Nb6  1  0.209396  0.790604  0.000000  1
  O  O7  1  0.102525  0.590270  0.577180  1
  O  O8  1  0.997315  0.001115  0.180837  1
  O  O9  1  0.409730  0.897475  0.422820  1
  O  O10  1  0.503253  0.498755  0.175762  1
  O  O11  1  0.107832  0.573433  0.079032  1
  O  O12  1  0.911163  0.399491  0.421828  1
  O  O13  1  0.998885  0.002685  0.819163  1
  O  O14  1  0.600509  0.088836  0.578172  1
  O  O15  1  0.501245  0.496747  0.824238  1
  O  O16  1  0.586096  0.100921  0.077971  1
  O  O17  1  0.426567  0.892168  0.920968  1
  O  O18  1  0.899079  0.413904  0.922029  1
