# generated using pymatgen
data_Na3TaS3O
_symmetry_space_group_name_H-M   'P 1'
_cell_length_a   6.07921100
_cell_length_b   9.92691800
_cell_length_c   12.22429600
_cell_angle_alpha   90.00000000
_cell_angle_beta   90.00000000
_cell_angle_gamma   90.00000000
_symmetry_Int_Tables_number   1
_chemical_formula_structural   Na3TaS3O
_chemical_formula_sum   'Na12 Ta4 S12 O4'
_cell_volume   737.70972590
_cell_formula_units_Z   4
loop_
 _symmetry_equiv_pos_site_id
 _symmetry_equiv_pos_as_xyz
  1  'x, y, z'
loop_
 _atom_site_type_symbol
 _atom_site_label
 _atom_site_symmetry_multiplicity
 _atom_site_fract_x
 _atom_site_fract_y
 _atom_site_fract_z
 _atom_site_occupancy
  Na  Na0  1  0.254659  0.454631  0.130626  1
  Na  Na1  1  0.235285  0.750000  0.368986  1
  Na  Na2  1  0.245341  0.954631  0.630626  1
  Na  Na3  1  0.754659  0.045369  0.369374  1
  Na  Na4  1  0.264715  0.250000  0.868986  1
  Na  Na5  1  0.254659  0.045369  0.130626  1
  Na  Na6  1  0.245341  0.545369  0.630626  1
  Na  Na7  1  0.735285  0.750000  0.131014  1
  Na  Na8  1  0.754659  0.454631  0.369374  1
  Na  Na9  1  0.745341  0.954631  0.869374  1
  Na  Na10  1  0.764715  0.250000  0.631014  1
  Na  Na11  1  0.745341  0.545369  0.869374  1
  Ta  Ta12  1  0.338482  0.250000  0.452590  1
  Ta  Ta13  1  0.161518  0.750000  0.952590  1
  Ta  Ta14  1  0.661518  0.750000  0.547410  1
  Ta  Ta15  1  0.838482  0.250000  0.047410  1
  S  S16  1  0.256063  0.750000  0.135868  1
  S  S17  1  0.226404  0.052533  0.370252  1
  S  S18  1  0.243937  0.250000  0.635869  1
  S  S19  1  0.226404  0.447467  0.370252  1
  S  S20  1  0.743937  0.250000  0.864131  1
  S  S21  1  0.726404  0.447467  0.129748  1
  S  S22  1  0.773596  0.552533  0.629748  1
  S  S23  1  0.726404  0.052533  0.129748  1
  S  S24  1  0.773596  0.947467  0.629748  1
  S  S25  1  0.273596  0.947467  0.870252  1
  S  S26  1  0.273596  0.552533  0.870252  1
  S  S27  1  0.756063  0.750000  0.364132  1
  O  O28  1  0.637593  0.250000  0.448273  1
  O  O29  1  0.362407  0.750000  0.551727  1
  O  O30  1  0.862407  0.750000  0.948273  1
  O  O31  1  0.137593  0.250000  0.051727  1
