# generated using pymatgen
data_Ce4Hg2IrRh3
_symmetry_space_group_name_H-M   'P 1'
_cell_length_a   7.69979708
_cell_length_b   7.69979620
_cell_length_c   3.70032100
_cell_angle_alpha   90.00000000
_cell_angle_beta   90.00000000
_cell_angle_gamma   90.15714375
_symmetry_Int_Tables_number   1
_chemical_formula_structural   Ce4Hg2IrRh3
_chemical_formula_sum   'Ce4 Hg2 Ir1 Rh3'
_cell_volume   219.37961860
_cell_formula_units_Z   1
loop_
 _symmetry_equiv_pos_site_id
 _symmetry_equiv_pos_as_xyz
  1  'x, y, z'
loop_
 _atom_site_type_symbol
 _atom_site_label
 _atom_site_symmetry_multiplicity
 _atom_site_fract_x
 _atom_site_fract_y
 _atom_site_fract_z
 _atom_site_occupancy
  Ce  Ce0  1  0.670565  0.170565  0.500000  1
  Ce  Ce1  1  0.328668  0.828668  0.500000  1
  Ce  Ce2  1  0.171961  0.332438  0.500000  1
  Ce  Ce3  1  0.832438  0.671961  0.500000  1
  Hg  Hg4  1  0.000544  0.002420  0.000000  1
  Hg  Hg5  1  0.502420  0.500544  0.000000  1
  Ir  Ir6  1  0.131140  0.631140  0.000000  1
  Rh  Rh7  1  0.861160  0.361160  0.000000  1
  Rh  Rh8  1  0.635521  0.865582  0.000000  1
  Rh  Rh9  1  0.365582  0.135521  0.000000  1
