# generated using pymatgen
data_PrEu3(InCu5)4
_symmetry_space_group_name_H-M   'P 1'
_cell_length_a   5.08504700
_cell_length_b   8.41848076
_cell_length_c   10.67769834
_cell_angle_alpha   89.87664089
_cell_angle_beta   90.00000000
_cell_angle_gamma   90.00000000
_symmetry_Int_Tables_number   1
_chemical_formula_structural   PrEu3(InCu5)4
_chemical_formula_sum   'Pr1 Eu3 In4 Cu20'
_cell_volume   457.09380536
_cell_formula_units_Z   1
loop_
 _symmetry_equiv_pos_site_id
 _symmetry_equiv_pos_as_xyz
  1  'x, y, z'
loop_
 _atom_site_type_symbol
 _atom_site_label
 _atom_site_symmetry_multiplicity
 _atom_site_fract_x
 _atom_site_fract_y
 _atom_site_fract_z
 _atom_site_occupancy
  Pr  Pr0  1  0.250000  0.257303  0.438289  1
  Eu  Eu1  1  0.250000  0.757360  0.061189  1
  Eu  Eu2  1  0.750000  0.242855  0.938202  1
  Eu  Eu3  1  0.750000  0.742679  0.561207  1
  In  In4  1  0.250000  0.641642  0.362113  1
  In  In5  1  0.750000  0.360202  0.638626  1
  In  In6  1  0.750000  0.860150  0.861850  1
  In  In7  1  0.250000  0.140166  0.136984  1
  Cu  Cu8  1  0.250000  0.817936  0.743317  1
  Cu  Cu9  1  0.750000  0.181633  0.256921  1
  Cu  Cu10  1  0.750000  0.682934  0.242056  1
  Cu  Cu11  1  0.250000  0.317890  0.756959  1
  Cu  Cu12  1  0.501047  0.567694  0.812342  1
  Cu  Cu13  1  0.499936  0.432589  0.187934  1
  Cu  Cu14  1  0.500310  0.932093  0.312466  1
  Cu  Cu15  1  0.000064  0.432589  0.187934  1
  Cu  Cu16  1  0.500998  0.067383  0.687589  1
  Cu  Cu17  1  0.998953  0.567694  0.812342  1
  Cu  Cu18  1  0.999002  0.067383  0.687589  1
  Cu  Cu19  1  0.999690  0.932093  0.312466  1
  Cu  Cu20  1  0.250000  0.557306  0.607119  1
  Cu  Cu21  1  0.750000  0.442786  0.393282  1
  Cu  Cu22  1  0.750000  0.942205  0.107559  1
  Cu  Cu23  1  0.250000  0.058048  0.892440  1
  Cu  Cu24  1  0.250000  0.916967  0.516656  1
  Cu  Cu25  1  0.750000  0.081319  0.484794  1
  Cu  Cu26  1  0.750000  0.581860  0.015533  1
  Cu  Cu27  1  0.250000  0.417243  0.984243  1
