# generated using pymatgen
data_Lu12Mn2TlInRh
_symmetry_space_group_name_H-M   'P 1'
_cell_length_a   8.22002157
_cell_length_b   8.21935012
_cell_length_c   8.22002091
_cell_angle_alpha   108.80476689
_cell_angle_beta   108.49655425
_cell_angle_gamma   111.12866377
_symmetry_Int_Tables_number   1
_chemical_formula_structural   Lu12Mn2TlInRh
_chemical_formula_sum   'Lu12 Mn2 Tl1 In1 Rh1'
_cell_volume   427.23530463
_cell_formula_units_Z   1
loop_
 _symmetry_equiv_pos_site_id
 _symmetry_equiv_pos_as_xyz
  1  'x, y, z'
loop_
 _atom_site_type_symbol
 _atom_site_label
 _atom_site_symmetry_multiplicity
 _atom_site_fract_x
 _atom_site_fract_y
 _atom_site_fract_z
 _atom_site_occupancy
  Lu  Lu0  1  0.309124  0.307752  0.616938  1
  Lu  Lu1  1  0.690876  0.692248  0.383062  1
  Lu  Lu2  1  0.690815  0.307752  0.998630  1
  Lu  Lu3  1  0.309185  0.692248  0.001370  1
  Lu  Lu4  1  0.194329  0.434280  0.239951  1
  Lu  Lu5  1  0.805671  0.565720  0.760049  1
  Lu  Lu6  1  0.194232  0.954370  0.760139  1
  Lu  Lu7  1  0.955499  0.193542  0.762009  1
  Lu  Lu8  1  0.805768  0.045630  0.239861  1
  Lu  Lu9  1  0.044501  0.806458  0.237991  1
  Lu  Lu10  1  0.431533  0.193542  0.238042  1
  Lu  Lu11  1  0.568467  0.806458  0.761958  1
  Mn  Mn12  1  0.384266  0.384390  0.000124  1
  Mn  Mn13  1  0.615734  0.615610  0.999876  1
  Tl  Tl14  1  0.000000  0.500000  0.500000  1
  In  In15  1  0.500000  0.000000  0.500000  1
  Rh  Rh16  1  0.000000  0.000000  0.000000  1
