# generated using pymatgen
data_BaThPt10
_symmetry_space_group_name_H-M   'P 1'
_cell_length_a   4.43570800
_cell_length_b   5.52028600
_cell_length_c   9.51367100
_cell_angle_alpha   90.00000000
_cell_angle_beta   90.00000000
_cell_angle_gamma   90.00000000
_symmetry_Int_Tables_number   1
_chemical_formula_structural   BaThPt10
_chemical_formula_sum   'Ba1 Th1 Pt10'
_cell_volume   232.95533260
_cell_formula_units_Z   1
loop_
 _symmetry_equiv_pos_site_id
 _symmetry_equiv_pos_as_xyz
  1  'x, y, z'
loop_
 _atom_site_type_symbol
 _atom_site_label
 _atom_site_symmetry_multiplicity
 _atom_site_fract_x
 _atom_site_fract_y
 _atom_site_fract_z
 _atom_site_occupancy
  Ba  Ba0  1  0.000000  0.500000  0.500000  1
  Th  Th1  1  0.000000  0.000000  0.000000  1
  Pt  Pt2  1  0.000000  0.000000  0.321202  1
  Pt  Pt3  1  0.000000  0.500000  0.840548  1
  Pt  Pt4  1  0.000000  0.500000  0.159452  1
  Pt  Pt5  1  0.000000  0.000000  0.678798  1
  Pt  Pt6  1  0.500000  0.000000  0.500000  1
  Pt  Pt7  1  0.500000  0.500000  0.000000  1
  Pt  Pt8  1  0.500000  0.243025  0.238767  1
  Pt  Pt9  1  0.500000  0.756975  0.761233  1
  Pt  Pt10  1  0.500000  0.756975  0.238767  1
  Pt  Pt11  1  0.500000  0.243025  0.761233  1
