# generated using pymatgen
data_Tm5Co4Si6(P2Ru5)3
_symmetry_space_group_name_H-M   'P 1'
_cell_length_a   12.55953600
_cell_length_b   12.55953493
_cell_length_c   3.85517500
_cell_angle_alpha   90.00000000
_cell_angle_beta   90.00000000
_cell_angle_gamma   120.00000282
_symmetry_Int_Tables_number   1
_chemical_formula_structural   Tm5Co4Si6(P2Ru5)3
_chemical_formula_sum   'Tm5 Co4 Si6 P6 Ru15'
_cell_volume   526.64973447
_cell_formula_units_Z   1
loop_
 _symmetry_equiv_pos_site_id
 _symmetry_equiv_pos_as_xyz
  1  'x, y, z'
loop_
 _atom_site_type_symbol
 _atom_site_label
 _atom_site_symmetry_multiplicity
 _atom_site_fract_x
 _atom_site_fract_y
 _atom_site_fract_z
 _atom_site_occupancy
  Tm  Tm0  1  0.666667  0.333333  0.000000  1
  Tm  Tm1  1  0.333333  0.666667  0.000000  1
  Tm  Tm2  1  0.181076  0.178869  0.500000  1
  Tm  Tm3  1  0.821131  0.002208  0.500000  1
  Tm  Tm4  1  0.997792  0.818924  0.500000  1
  Co  Co5  1  0.723227  0.729468  0.500000  1
  Co  Co6  1  0.270532  0.993759  0.500000  1
  Co  Co7  1  0.006241  0.276773  0.500000  1
  Co  Co8  1  0.000000  0.000000  0.000000  1
  Si  Si9  1  0.376073  0.376490  0.000000  1
  Si  Si10  1  0.623510  0.999583  0.000000  1
  Si  Si11  1  0.000417  0.623927  0.000000  1
  Si  Si12  1  0.846366  0.316774  0.500000  1
  Si  Si13  1  0.683226  0.529592  0.500000  1
  Si  Si14  1  0.470408  0.153634  0.500000  1
  P  P15  1  0.309153  0.837520  0.500000  1
  P  P16  1  0.528367  0.690847  0.500000  1
  P  P17  1  0.162480  0.471633  0.500000  1
  P  P18  1  0.822359  0.824755  0.000000  1
  P  P19  1  0.175245  0.997604  0.000000  1
  P  P20  1  0.002396  0.177641  0.000000  1
  Ru  Ru21  1  0.824244  0.190405  0.000000  1
  Ru  Ru22  1  0.809595  0.633838  0.000000  1
  Ru  Ru23  1  0.366162  0.175756  0.000000  1
  Ru  Ru24  1  0.191867  0.819907  0.000000  1
  Ru  Ru25  1  0.628039  0.808133  0.000000  1
  Ru  Ru26  1  0.180093  0.371961  0.000000  1
  Ru  Ru27  1  0.566060  0.565913  0.000000  1
  Ru  Ru28  1  0.434087  0.000146  0.000000  1
  Ru  Ru29  1  0.999854  0.433940  0.000000  1
  Ru  Ru30  1  0.643348  0.126922  0.500000  1
  Ru  Ru31  1  0.873078  0.516427  0.500000  1
  Ru  Ru32  1  0.483573  0.356652  0.500000  1
  Ru  Ru33  1  0.129837  0.636915  0.500000  1
  Ru  Ru34  1  0.507080  0.870163  0.500000  1
  Ru  Ru35  1  0.363085  0.492920  0.500000  1
