# generated using pymatgen
data_Y3Ni2Ir7
_symmetry_space_group_name_H-M   'P 1'
_cell_length_a   8.96057850
_cell_length_b   8.96057771
_cell_length_c   8.96057795
_cell_angle_alpha   34.32957902
_cell_angle_beta   34.32958591
_cell_angle_gamma   34.32958423
_symmetry_Int_Tables_number   1
_chemical_formula_structural   Y3Ni2Ir7
_chemical_formula_sum   'Y3 Ni2 Ir7'
_cell_volume   204.07669449
_cell_formula_units_Z   1
loop_
 _symmetry_equiv_pos_site_id
 _symmetry_equiv_pos_as_xyz
  1  'x, y, z'
loop_
 _atom_site_type_symbol
 _atom_site_label
 _atom_site_symmetry_multiplicity
 _atom_site_fract_x
 _atom_site_fract_y
 _atom_site_fract_z
 _atom_site_occupancy
  Y  Y0  1  0.859763  0.859763  0.859763  1
  Y  Y1  1  0.140237  0.140237  0.140237  1
  Y  Y2  1  0.000000  0.000000  0.000000  1
  Ni  Ni3  1  0.666539  0.666539  0.666539  1
  Ni  Ni4  1  0.333461  0.333461  0.333461  1
  Ir  Ir5  1  0.419428  0.921998  0.419428  1
  Ir  Ir6  1  0.419428  0.419428  0.921998  1
  Ir  Ir7  1  0.921998  0.419428  0.419428  1
  Ir  Ir8  1  0.580572  0.078002  0.580572  1
  Ir  Ir9  1  0.580572  0.580572  0.078002  1
  Ir  Ir10  1  0.078002  0.580572  0.580572  1
  Ir  Ir11  1  0.500000  0.500000  0.500000  1
