# generated using pymatgen
data_La19Cd(Ir5Ru)2
_symmetry_space_group_name_H-M   'P 1'
_cell_length_a   11.38136838
_cell_length_b   11.39109338
_cell_length_c   6.62302900
_cell_angle_alpha   90.00000000
_cell_angle_beta   90.00000000
_cell_angle_gamma   90.07412172
_symmetry_Int_Tables_number   1
_chemical_formula_structural   La19Cd(Ir5Ru)2
_chemical_formula_sum   'La19 Cd1 Ir10 Ru2'
_cell_volume   858.65002288
_cell_formula_units_Z   1
loop_
 _symmetry_equiv_pos_site_id
 _symmetry_equiv_pos_as_xyz
  1  'x, y, z'
loop_
 _atom_site_type_symbol
 _atom_site_label
 _atom_site_symmetry_multiplicity
 _atom_site_fract_x
 _atom_site_fract_y
 _atom_site_fract_z
 _atom_site_occupancy
  La  La0  1  0.282007  0.086042  0.392227  1
  La  La1  1  0.294002  0.910936  0.888251  1
  La  La2  1  0.705998  0.089064  0.888251  1
  La  La3  1  0.717993  0.913958  0.392227  1
  La  La4  1  0.589057  0.796431  0.890162  1
  La  La5  1  0.586644  0.202637  0.386183  1
  La  La6  1  0.413356  0.797363  0.386183  1
  La  La7  1  0.410943  0.203569  0.890162  1
  La  La8  1  0.206709  0.410817  0.614438  1
  La  La9  1  0.207116  0.591651  0.110060  1
  La  La10  1  0.792884  0.408349  0.110060  1
  La  La11  1  0.793291  0.589183  0.614438  1
  La  La12  1  0.908995  0.709955  0.112018  1
  La  La13  1  0.912764  0.278759  0.608113  1
  La  La14  1  0.087236  0.721241  0.608113  1
  La  La15  1  0.091005  0.290045  0.112018  1
  La  La16  1  0.000000  0.000000  0.998855  1
  La  La17  1  0.500000  0.500000  0.998698  1
  La  La18  1  0.500000  0.500000  0.499441  1
  Cd  Cd19  1  0.000000  0.000000  0.500113  1
  Ir  Ir20  1  0.845378  0.156464  0.242260  1
  Ir  Ir21  1  0.845139  0.844218  0.757584  1
  Ir  Ir22  1  0.154861  0.155782  0.757584  1
  Ir  Ir23  1  0.154622  0.843536  0.242260  1
  Ir  Ir24  1  0.655345  0.347946  0.747128  1
  Ir  Ir25  1  0.653761  0.653907  0.253140  1
  Ir  Ir26  1  0.346239  0.346093  0.253140  1
  Ir  Ir27  1  0.344655  0.652054  0.747128  1
  Ir  Ir28  1  0.000000  0.500000  0.878751  1
  Ir  Ir29  1  0.000000  0.500000  0.384618  1
  Ru  Ru30  1  0.500000  0.000000  0.120524  1
  Ru  Ru31  1  0.500000  0.000000  0.615874  1
