# generated using pymatgen
data_Tb3Ho2RuRh
_symmetry_space_group_name_H-M   'P 1'
_cell_length_a   6.40462153
_cell_length_b   7.24016995
_cell_length_c   8.57559554
_cell_angle_alpha   96.70217256
_cell_angle_beta   111.92677552
_cell_angle_gamma   90.00000237
_symmetry_Int_Tables_number   1
_chemical_formula_structural   Tb3Ho2RuRh
_chemical_formula_sum   'Tb6 Ho4 Ru2 Rh2'
_cell_volume   365.95840691
_cell_formula_units_Z   2
loop_
 _symmetry_equiv_pos_site_id
 _symmetry_equiv_pos_as_xyz
  1  'x, y, z'
loop_
 _atom_site_type_symbol
 _atom_site_label
 _atom_site_symmetry_multiplicity
 _atom_site_fract_x
 _atom_site_fract_y
 _atom_site_fract_z
 _atom_site_occupancy
  Tb  Tb0  1  0.980818  0.918657  0.188441  1
  Tb  Tb1  1  0.792377  0.581343  0.811559  1
  Tb  Tb2  1  0.024047  0.085757  0.813919  1
  Tb  Tb3  1  0.210129  0.414243  0.186081  1
  Tb  Tb4  1  0.641619  0.815814  0.433930  1
  Tb  Tb5  1  0.207688  0.684186  0.566070  1
  Ho  Ho6  1  0.356392  0.187846  0.564177  1
  Ho  Ho7  1  0.792216  0.312154  0.435823  1
  Ho  Ho8  1  0.421680  0.750000  0.000000  1
  Ho  Ho9  1  0.576017  0.250000  0.000000  1
  Ru  Ru10  1  0.178149  0.425146  0.778982  1
  Ru  Ru11  1  0.399166  0.074854  0.221018  1
  Rh  Rh12  1  0.820172  0.575143  0.220644  1
  Rh  Rh13  1  0.599529  0.924857  0.779356  1
