# generated using pymatgen
data_AcLaZn4CdSn
_symmetry_space_group_name_H-M   'P 1'
_cell_length_a   8.95404649
_cell_length_b   8.95404643
_cell_length_c   9.40283800
_cell_angle_alpha   90.00000000
_cell_angle_beta   90.00000000
_cell_angle_gamma   149.82799483
_symmetry_Int_Tables_number   1
_chemical_formula_structural   AcLaZn4CdSn
_chemical_formula_sum   'Ac2 La2 Zn8 Cd2 Sn2'
_cell_volume   378.89428189
_cell_formula_units_Z   2
loop_
 _symmetry_equiv_pos_site_id
 _symmetry_equiv_pos_as_xyz
  1  'x, y, z'
loop_
 _atom_site_type_symbol
 _atom_site_label
 _atom_site_symmetry_multiplicity
 _atom_site_fract_x
 _atom_site_fract_y
 _atom_site_fract_z
 _atom_site_occupancy
  Ac  Ac0  1  0.000000  0.000000  0.500000  1
  Ac  Ac1  1  0.000000  0.000000  0.000000  1
  La  La2  1  0.207357  0.792643  0.250000  1
  La  La3  1  0.792643  0.207357  0.750000  1
  Zn  Zn4  1  0.811620  0.188380  0.391528  1
  Zn  Zn5  1  0.188380  0.811620  0.608472  1
  Zn  Zn6  1  0.811620  0.188380  0.108472  1
  Zn  Zn7  1  0.188380  0.811620  0.891528  1
  Zn  Zn8  1  0.661388  0.338612  0.480932  1
  Zn  Zn9  1  0.338612  0.661388  0.519068  1
  Zn  Zn10  1  0.661388  0.338612  0.019068  1
  Zn  Zn11  1  0.338612  0.661388  0.980932  1
  Cd  Cd12  1  0.398967  0.601033  0.250000  1
  Cd  Cd13  1  0.601033  0.398967  0.750000  1
  Sn  Sn14  1  0.564954  0.435046  0.250000  1
  Sn  Sn15  1  0.435046  0.564954  0.750000  1
