# generated using pymatgen
data_Sr3In2(SbP)2
_symmetry_space_group_name_H-M   'P 1'
_cell_length_a   9.03174715
_cell_length_b   9.03174669
_cell_length_c   7.16817919
_cell_angle_alpha   89.85475761
_cell_angle_beta   89.85475650
_cell_angle_gamma   75.80443718
_symmetry_Int_Tables_number   1
_chemical_formula_structural   Sr3In2(SbP)2
_chemical_formula_sum   'Sr6 In4 Sb4 P4'
_cell_volume   566.86804087
_cell_formula_units_Z   2
loop_
 _symmetry_equiv_pos_site_id
 _symmetry_equiv_pos_as_xyz
  1  'x, y, z'
loop_
 _atom_site_type_symbol
 _atom_site_label
 _atom_site_symmetry_multiplicity
 _atom_site_fract_x
 _atom_site_fract_y
 _atom_site_fract_z
 _atom_site_occupancy
  Sr  Sr0  1  0.997673  0.267663  0.015681  1
  Sr  Sr1  1  0.732337  0.002327  0.484319  1
  Sr  Sr2  1  0.002327  0.732337  0.984319  1
  Sr  Sr3  1  0.267663  0.997673  0.515681  1
  Sr  Sr4  1  0.585876  0.414124  0.750000  1
  Sr  Sr5  1  0.414124  0.585876  0.250000  1
  In  In6  1  0.190016  0.410980  0.602887  1
  In  In7  1  0.589020  0.809984  0.897113  1
  In  In8  1  0.809984  0.589020  0.397113  1
  In  In9  1  0.410980  0.190016  0.102887  1
  Sb  Sb10  1  0.936794  0.276996  0.515936  1
  Sb  Sb11  1  0.723004  0.063206  0.984064  1
  Sb  Sb12  1  0.063206  0.723004  0.484064  1
  Sb  Sb13  1  0.276996  0.936794  0.015936  1
  P  P14  1  0.260175  0.441950  0.948151  1
  P  P15  1  0.558050  0.739825  0.551849  1
  P  P16  1  0.739825  0.558050  0.051849  1
  P  P17  1  0.441950  0.260175  0.448151  1
