# generated using pymatgen
data_Cs(NpS3)2
_symmetry_space_group_name_H-M   'P 1'
_cell_length_a   11.92467222
_cell_length_b   11.92467155
_cell_length_c   11.92467160
_cell_angle_alpha   160.88506744
_cell_angle_beta   155.41725181
_cell_angle_gamma   31.32577745
_symmetry_Int_Tables_number   1
_chemical_formula_structural   Cs(NpS3)2
_chemical_formula_sum   'Cs1 Np2 S6'
_cell_volume   230.84012076
_cell_formula_units_Z   1
loop_
 _symmetry_equiv_pos_site_id
 _symmetry_equiv_pos_as_xyz
  1  'x, y, z'
loop_
 _atom_site_type_symbol
 _atom_site_label
 _atom_site_symmetry_multiplicity
 _atom_site_fract_x
 _atom_site_fract_y
 _atom_site_fract_z
 _atom_site_occupancy
  Cs  Cs0  1  0.000000  0.000000  0.000000  1
  Np  Np1  1  0.813065  0.813065  0.000000  1
  Np  Np2  1  0.186935  0.186935  0.000000  1
  S  S3  1  0.872574  0.620208  0.252366  1
  S  S4  1  0.127426  0.379792  0.747634  1
  S  S5  1  0.632158  0.379792  0.252366  1
  S  S6  1  0.367842  0.620208  0.747634  1
  S  S7  1  0.730184  0.230184  0.500000  1
  S  S8  1  0.269816  0.769816  0.500000  1
