# generated using pymatgen
data_Cs12Ca4Sc3Fe(P2O7)8
_symmetry_space_group_name_H-M   'P 1'
_cell_length_a   9.45464700
_cell_length_b   11.42138700
_cell_length_c   15.32278500
_cell_angle_alpha   90.00000000
_cell_angle_beta   90.00000000
_cell_angle_gamma   90.00000000
_symmetry_Int_Tables_number   1
_chemical_formula_structural   Cs12Ca4Sc3Fe(P2O7)8
_chemical_formula_sum   'Cs12 Ca4 Sc3 Fe1 P16 O56'
_cell_volume   1654.63373211
_cell_formula_units_Z   1
loop_
 _symmetry_equiv_pos_site_id
 _symmetry_equiv_pos_as_xyz
  1  'x, y, z'
loop_
 _atom_site_type_symbol
 _atom_site_label
 _atom_site_symmetry_multiplicity
 _atom_site_fract_x
 _atom_site_fract_y
 _atom_site_fract_z
 _atom_site_occupancy
  Cs  Cs0  1  0.370871  0.370407  0.371378  1
  Cs  Cs1  1  0.128852  0.629441  0.871932  1
  Cs  Cs2  1  0.871196  0.129016  0.628441  1
  Cs  Cs3  1  0.627035  0.870320  0.127689  1
  Cs  Cs4  1  0.276746  0.711178  0.303512  1
  Cs  Cs5  1  0.222025  0.289427  0.804285  1
  Cs  Cs6  1  0.777371  0.788440  0.696859  1
  Cs  Cs7  1  0.720205  0.214179  0.196052  1
  Cs  Cs8  1  0.817980  0.483107  0.411211  1
  Cs  Cs9  1  0.679317  0.514736  0.911564  1
  Cs  Cs10  1  0.318247  0.016919  0.589353  1
  Cs  Cs11  1  0.180676  0.985951  0.089805  1
  Ca  Ca12  1  0.541639  0.361848  0.618208  1
  Ca  Ca13  1  0.956938  0.636848  0.117902  1
  Ca  Ca14  1  0.042489  0.138511  0.381519  1
  Ca  Ca15  1  0.457378  0.863296  0.883278  1
  Sc  Sc16  1  0.647482  0.875874  0.425537  1
  Sc  Sc17  1  0.852183  0.125043  0.926155  1
  Sc  Sc18  1  0.147283  0.624363  0.574714  1
  Fe  Fe19  1  0.350799  0.377244  0.073524  1
  P  P20  1  0.483115  0.638835  0.523232  1
  P  P21  1  0.022309  0.360784  0.023226  1
  P  P22  1  0.983105  0.861311  0.476681  1
  P  P23  1  0.515309  0.144468  0.978145  1
  P  P24  1  0.422172  0.626599  0.710343  1
  P  P25  1  0.084508  0.374149  0.208544  1
  P  P26  1  0.921542  0.873937  0.289663  1
  P  P27  1  0.577148  0.127258  0.791078  1
  P  P28  1  0.414551  0.043134  0.326905  1
  P  P29  1  0.085085  0.956424  0.827170  1
  P  P30  1  0.914226  0.456484  0.673164  1
  P  P31  1  0.581446  0.538867  0.171457  1
  P  P32  1  0.648641  0.154029  0.437367  1
  P  P33  1  0.850985  0.846618  0.938131  1
  P  P34  1  0.148133  0.346266  0.562345  1
  P  P35  1  0.349842  0.650741  0.062584  1
  O  O36  1  0.576805  0.722125  0.470552  1
  O  O37  1  0.930109  0.276940  0.970094  1
  O  O38  1  0.076846  0.777825  0.529059  1
  O  O39  1  0.423026  0.229681  0.030052  1
  O  O40  1  0.475987  0.502751  0.723363  1
  O  O41  1  0.030049  0.497736  0.222187  1
  O  O42  1  0.975606  0.997673  0.276570  1
  O  O43  1  0.522928  0.003384  0.778969  1
  O  O44  1  0.416697  0.035261  0.228497  1
  O  O45  1  0.083095  0.963061  0.728704  1
  O  O46  1  0.916177  0.463801  0.771589  1
  O  O47  1  0.581754  0.530415  0.269868  1
  O  O48  1  0.284692  0.095634  0.370234  1
  O  O49  1  0.215101  0.904325  0.870707  1
  O  O50  1  0.784434  0.403976  0.629701  1
  O  O51  1  0.713241  0.587891  0.127832  1
  O  O52  1  0.502950  0.683820  0.624124  1
  O  O53  1  0.000837  0.316124  0.123966  1
  O  O54  1  0.002460  0.816449  0.375663  1
  O  O55  1  0.496588  0.186844  0.876455  1
  O  O56  1  0.455762  0.710454  0.783770  1
  O  O57  1  0.054072  0.290952  0.282886  1
  O  O58  1  0.954579  0.790064  0.216127  1
  O  O59  1  0.543951  0.209447  0.716591  1
  O  O60  1  0.547935  0.134512  0.351005  1
  O  O61  1  0.951831  0.864948  0.851765  1
  O  O62  1  0.047679  0.365278  0.648881  1
  O  O63  1  0.451740  0.633673  0.148583  1
  O  O64  1  0.530044  0.512875  0.516152  1
  O  O65  1  0.974589  0.486494  0.015619  1
  O  O66  1  0.029983  0.987288  0.483619  1
  O  O67  1  0.467022  0.018608  0.985966  1
  O  O68  1  0.457969  0.924437  0.370290  1
  O  O69  1  0.041034  0.075221  0.869932  1
  O  O70  1  0.957788  0.575356  0.630037  1
  O  O71  1  0.532943  0.421206  0.127869  1
  O  O72  1  0.761689  0.871919  0.314755  1
  O  O73  1  0.737114  0.129163  0.815860  1
  O  O74  1  0.262299  0.628458  0.685190  1
  O  O75  1  0.243986  0.372372  0.181748  1
  O  O76  1  0.327423  0.659235  0.500002  1
  O  O77  1  0.178681  0.339934  0.001050  1
  O  O78  1  0.827479  0.840846  0.500095  1
  O  O79  1  0.672028  0.162992  0.000451  1
  O  O80  1  0.793374  0.183502  0.399915  1
  O  O81  1  0.705808  0.817925  0.901137  1
  O  O82  1  0.293029  0.316954  0.599468  1
  O  O83  1  0.205825  0.682347  0.099650  1
  O  O84  1  0.583674  0.250182  0.492632  1
  O  O85  1  0.915329  0.750307  0.993569  1
  O  O86  1  0.083001  0.250160  0.507064  1
  O  O87  1  0.415457  0.744532  0.005234  1
  O  O88  1  0.645563  0.034858  0.486930  1
  O  O89  1  0.854458  0.966054  0.987454  1
  O  O90  1  0.144642  0.465589  0.512994  1
  O  O91  1  0.352008  0.530090  0.014563  1
