# generated using pymatgen
data_Er3Tm4LuAu4
_symmetry_space_group_name_H-M   'P 1'
_cell_length_a   4.85700900
_cell_length_b   7.05698509
_cell_length_c   8.84290637
_cell_angle_alpha   89.85375852
_cell_angle_beta   90.00000000
_cell_angle_gamma   90.00000000
_symmetry_Int_Tables_number   1
_chemical_formula_structural   Er3Tm4LuAu4
_chemical_formula_sum   'Er3 Tm4 Lu1 Au4'
_cell_volume   303.09705725
_cell_formula_units_Z   1
loop_
 _symmetry_equiv_pos_site_id
 _symmetry_equiv_pos_as_xyz
  1  'x, y, z'
loop_
 _atom_site_type_symbol
 _atom_site_label
 _atom_site_symmetry_multiplicity
 _atom_site_fract_x
 _atom_site_fract_y
 _atom_site_fract_z
 _atom_site_occupancy
  Er  Er0  1  0.250000  0.982801  0.321512  1
  Er  Er1  1  0.750000  0.516918  0.821669  1
  Er  Er2  1  0.750000  0.016731  0.678086  1
  Tm  Tm3  1  0.250000  0.849971  0.923698  1
  Tm  Tm4  1  0.250000  0.350390  0.576229  1
  Tm  Tm5  1  0.750000  0.150199  0.076929  1
  Tm  Tm6  1  0.250000  0.483120  0.178136  1
  Lu  Lu7  1  0.750000  0.649628  0.422826  1
  Au  Au8  1  0.250000  0.255503  0.897642  1
  Au  Au9  1  0.250000  0.754984  0.602750  1
  Au  Au10  1  0.750000  0.743960  0.103815  1
  Au  Au11  1  0.750000  0.245794  0.396707  1
