# generated using pymatgen
data_Sr3Sm(PPd3)8
_symmetry_space_group_name_H-M   'P 1'
_cell_length_a   8.56316242
_cell_length_b   8.56316242
_cell_length_c   8.56316242
_cell_angle_alpha   89.87978078
_cell_angle_beta   90.12021922
_cell_angle_gamma   90.12021922
_symmetry_Int_Tables_number   1
_chemical_formula_structural   Sr3Sm(PPd3)8
_chemical_formula_sum   'Sr3 Sm1 P8 Pd24'
_cell_volume   627.91329661
_cell_formula_units_Z   1
loop_
 _symmetry_equiv_pos_site_id
 _symmetry_equiv_pos_as_xyz
  1  'x, y, z'
loop_
 _atom_site_type_symbol
 _atom_site_label
 _atom_site_symmetry_multiplicity
 _atom_site_fract_x
 _atom_site_fract_y
 _atom_site_fract_z
 _atom_site_occupancy
  Sr  Sr0  1  0.500000  0.000000  0.500000  1
  Sr  Sr1  1  0.000000  0.500000  0.500000  1
  Sr  Sr2  1  0.000000  0.000000  0.000000  1
  Sm  Sm3  1  0.500000  0.500000  0.000000  1
  P  P4  1  0.807742  0.306787  0.191084  1
  P  P5  1  0.192058  0.807942  0.307942  1
  P  P6  1  0.693213  0.691084  0.692258  1
  P  P7  1  0.308916  0.192258  0.806787  1
  P  P8  1  0.192258  0.693213  0.808916  1
  P  P9  1  0.807942  0.192058  0.692058  1
  P  P10  1  0.306787  0.308916  0.307742  1
  P  P11  1  0.691084  0.807742  0.193213  1
  Pd  Pd12  1  0.420744  0.844838  0.160335  1
  Pd  Pd13  1  0.578448  0.351799  0.331502  1
  Pd  Pd14  1  0.078816  0.152113  0.663147  1
  Pd  Pd15  1  0.922056  0.651906  0.837566  1
  Pd  Pd16  1  0.168498  0.421552  0.851799  1
  Pd  Pd17  1  0.339665  0.579256  0.344838  1
  Pd  Pd18  1  0.662434  0.077944  0.151906  1
  Pd  Pd19  1  0.836853  0.921184  0.652113  1
  Pd  Pd20  1  0.847887  0.163147  0.421184  1
  Pd  Pd21  1  0.348094  0.337566  0.577944  1
  Pd  Pd22  1  0.155162  0.660335  0.079256  1
  Pd  Pd23  1  0.648201  0.831502  0.921552  1
  Pd  Pd24  1  0.579256  0.155162  0.839665  1
  Pd  Pd25  1  0.421552  0.648201  0.668498  1
  Pd  Pd26  1  0.921184  0.847887  0.336853  1
  Pd  Pd27  1  0.077944  0.348094  0.162434  1
  Pd  Pd28  1  0.831502  0.578448  0.148201  1
  Pd  Pd29  1  0.660335  0.420744  0.655162  1
  Pd  Pd30  1  0.337566  0.922056  0.848094  1
  Pd  Pd31  1  0.163147  0.078816  0.347887  1
  Pd  Pd32  1  0.152113  0.836853  0.578816  1
  Pd  Pd33  1  0.651906  0.662434  0.422056  1
  Pd  Pd34  1  0.844838  0.339665  0.920744  1
  Pd  Pd35  1  0.351799  0.168498  0.078448  1
