# generated using pymatgen
data_Y4Co9SiB4
_symmetry_space_group_name_H-M   'P 1'
_cell_length_a   5.12275000
_cell_length_b   5.12274945
_cell_length_c   19.49995200
_cell_angle_alpha   90.00000000
_cell_angle_beta   90.00000000
_cell_angle_gamma   120.00000356
_symmetry_Int_Tables_number   1
_chemical_formula_structural   Y4Co9SiB4
_chemical_formula_sum   'Y8 Co18 Si2 B8'
_cell_volume   443.17008377
_cell_formula_units_Z   2
loop_
 _symmetry_equiv_pos_site_id
 _symmetry_equiv_pos_as_xyz
  1  'x, y, z'
loop_
 _atom_site_type_symbol
 _atom_site_label
 _atom_site_symmetry_multiplicity
 _atom_site_fract_x
 _atom_site_fract_y
 _atom_site_fract_z
 _atom_site_occupancy
  Y  Y0  1  0.666667  0.333333  0.825317  1
  Y  Y1  1  0.666667  0.333333  0.976395  1
  Y  Y2  1  0.333333  0.666667  0.476395  1
  Y  Y3  1  0.333333  0.666667  0.023605  1
  Y  Y4  1  0.333333  0.666667  0.174683  1
  Y  Y5  1  0.666667  0.333333  0.523605  1
  Y  Y6  1  0.666667  0.333333  0.674683  1
  Y  Y7  1  0.333333  0.666667  0.325317  1
  Co  Co8  1  0.164465  0.328927  0.895963  1
  Co  Co9  1  0.164465  0.835535  0.604037  1
  Co  Co10  1  0.835535  0.164465  0.395963  1
  Co  Co11  1  0.334918  0.167459  0.250000  1
  Co  Co12  1  0.328927  0.164465  0.395963  1
  Co  Co13  1  0.835535  0.671073  0.104037  1
  Co  Co14  1  0.835535  0.671073  0.395963  1
  Co  Co15  1  0.832541  0.665082  0.250000  1
  Co  Co16  1  0.671073  0.835535  0.604037  1
  Co  Co17  1  0.665082  0.832541  0.750000  1
  Co  Co18  1  0.835535  0.164465  0.104037  1
  Co  Co19  1  0.671073  0.835535  0.895963  1
  Co  Co20  1  0.167459  0.334918  0.750000  1
  Co  Co21  1  0.167459  0.832541  0.750000  1
  Co  Co22  1  0.832541  0.167459  0.250000  1
  Co  Co23  1  0.328927  0.164465  0.104037  1
  Co  Co24  1  0.164465  0.835535  0.895963  1
  Co  Co25  1  0.164465  0.328927  0.604037  1
  Si  Si26  1  0.000000  0.000000  0.000000  1
  Si  Si27  1  0.000000  0.000000  0.500000  1
  B  B28  1  0.333333  0.666667  0.826150  1
  B  B29  1  0.333333  0.666667  0.673850  1
  B  B30  1  0.666667  0.333333  0.326150  1
  B  B31  1  0.000000  0.000000  0.824125  1
  B  B32  1  0.666667  0.333333  0.173850  1
  B  B33  1  0.000000  0.000000  0.675875  1
  B  B34  1  0.000000  0.000000  0.324125  1
  B  B35  1  0.000000  0.000000  0.175875  1
