# generated using pymatgen
data_Y2Er5Tm9(Ga3Os)2
_symmetry_space_group_name_H-M   'P 1'
_cell_length_a   9.89146728
_cell_length_b   9.89139511
_cell_length_c   7.03247917
_cell_angle_alpha   90.02368220
_cell_angle_beta   89.97623709
_cell_angle_gamma   119.98319819
_symmetry_Int_Tables_number   1
_chemical_formula_structural   Y2Er5Tm9(Ga3Os)2
_chemical_formula_sum   'Y2 Er5 Tm9 Ga6 Os2'
_cell_volume   595.97879706
_cell_formula_units_Z   1
loop_
 _symmetry_equiv_pos_site_id
 _symmetry_equiv_pos_as_xyz
  1  'x, y, z'
loop_
 _atom_site_type_symbol
 _atom_site_label
 _atom_site_symmetry_multiplicity
 _atom_site_fract_x
 _atom_site_fract_y
 _atom_site_fract_z
 _atom_site_occupancy
  Y  Y0  1  0.999976  0.000028  0.266888  1
  Y  Y1  1  0.999984  0.000017  0.766838  1
  Er  Er2  1  0.534152  0.465852  0.795833  1
  Er  Er3  1  0.465813  0.931439  0.295866  1
  Er  Er4  1  0.068550  0.534174  0.295866  1
  Er  Er5  1  0.931638  0.465799  0.795720  1
  Er  Er6  1  0.534201  0.068365  0.795723  1
  Tm  Tm7  1  0.172355  0.827643  0.989874  1
  Tm  Tm8  1  0.827700  0.172300  0.489818  1
  Tm  Tm9  1  0.172534  0.344786  0.990047  1
  Tm  Tm10  1  0.655213  0.827469  0.990051  1
  Tm  Tm11  1  0.344798  0.172605  0.489563  1
  Tm  Tm12  1  0.827400  0.655210  0.489564  1
  Tm  Tm13  1  0.333462  0.666534  0.661770  1
  Tm  Tm14  1  0.666498  0.333504  0.161973  1
  Tm  Tm15  1  0.465454  0.534548  0.295976  1
  Ga  Ga16  1  0.164162  0.835840  0.543958  1
  Ga  Ga17  1  0.835872  0.164132  0.043927  1
  Ga  Ga18  1  0.164308  0.328429  0.543823  1
  Ga  Ga19  1  0.671556  0.835686  0.543832  1
  Ga  Ga20  1  0.328328  0.164151  0.043960  1
  Ga  Ga21  1  0.835852  0.671680  0.043958  1
  Os  Os22  1  0.333516  0.666490  0.055737  1
  Os  Os23  1  0.666681  0.333320  0.555557  1
