# generated using pymatgen
data_HoTmNpO6
_symmetry_space_group_name_H-M   'P 1'
_cell_length_a   5.49700800
_cell_length_b   7.79245259
_cell_length_c   11.74301529
_cell_angle_alpha   73.79765578
_cell_angle_beta   90.00000000
_cell_angle_gamma   90.00000000
_symmetry_Int_Tables_number   1
_chemical_formula_structural   HoTmNpO6
_chemical_formula_sum   'Ho4 Tm4 Np4 O24'
_cell_volume   483.03552742
_cell_formula_units_Z   4
loop_
 _symmetry_equiv_pos_site_id
 _symmetry_equiv_pos_as_xyz
  1  'x, y, z'
loop_
 _atom_site_type_symbol
 _atom_site_label
 _atom_site_symmetry_multiplicity
 _atom_site_fract_x
 _atom_site_fract_y
 _atom_site_fract_z
 _atom_site_occupancy
  Ho  Ho0  1  0.746611  0.000000  0.750000  1
  Ho  Ho1  1  0.253389  0.000000  0.250000  1
  Ho  Ho2  1  0.699981  0.500000  0.750000  1
  Ho  Ho3  1  0.300019  0.500000  0.250000  1
  Tm  Tm4  1  0.184930  0.793815  0.580493  1
  Tm  Tm5  1  0.815070  0.793815  0.080493  1
  Tm  Tm6  1  0.184930  0.206185  0.919507  1
  Tm  Tm7  1  0.815070  0.206185  0.419507  1
  Np  Np8  1  0.257138  0.720536  0.887356  1
  Np  Np9  1  0.742862  0.720536  0.387356  1
  Np  Np10  1  0.257138  0.279464  0.612644  1
  Np  Np11  1  0.742862  0.279464  0.112644  1
  O  O12  1  0.047886  0.945053  0.897889  1
  O  O13  1  0.559690  0.846876  0.932447  1
  O  O14  1  0.952114  0.945053  0.397889  1
  O  O15  1  0.449109  0.802272  0.725223  1
  O  O16  1  0.440310  0.846876  0.432447  1
  O  O17  1  0.963796  0.715342  0.765569  1
  O  O18  1  0.550891  0.802272  0.225223  1
  O  O19  1  0.877086  0.626221  0.556303  1
  O  O20  1  0.387691  0.479395  0.883175  1
  O  O21  1  0.036204  0.715342  0.265569  1
  O  O22  1  0.387691  0.520605  0.616825  1
  O  O23  1  0.877086  0.373779  0.943697  1
  O  O24  1  0.122914  0.626221  0.056303  1
  O  O25  1  0.612309  0.479395  0.383175  1
  O  O26  1  0.963796  0.284658  0.734431  1
  O  O27  1  0.612309  0.520605  0.116825  1
  O  O28  1  0.122914  0.373779  0.443697  1
  O  O29  1  0.449109  0.197728  0.774777  1
  O  O30  1  0.036204  0.284658  0.234431  1
  O  O31  1  0.559690  0.153124  0.567553  1
  O  O32  1  0.550891  0.197728  0.274777  1
  O  O33  1  0.047886  0.054947  0.602111  1
  O  O34  1  0.440310  0.153124  0.067553  1
  O  O35  1  0.952114  0.054947  0.102111  1
