# generated using pymatgen
data_LuCo4Si3Ru
_symmetry_space_group_name_H-M   'P 1'
_cell_length_a   3.72334800
_cell_length_b   10.49537600
_cell_length_c   11.91780200
_cell_angle_alpha   90.00000000
_cell_angle_beta   90.00000000
_cell_angle_gamma   90.00000000
_symmetry_Int_Tables_number   1
_chemical_formula_structural   LuCo4Si3Ru
_chemical_formula_sum   'Lu4 Co16 Si12 Ru4'
_cell_volume   465.72311858
_cell_formula_units_Z   4
loop_
 _symmetry_equiv_pos_site_id
 _symmetry_equiv_pos_as_xyz
  1  'x, y, z'
loop_
 _atom_site_type_symbol
 _atom_site_label
 _atom_site_symmetry_multiplicity
 _atom_site_fract_x
 _atom_site_fract_y
 _atom_site_fract_z
 _atom_site_occupancy
  Lu  Lu0  1  0.250000  0.582200  0.703954  1
  Lu  Lu1  1  0.250000  0.917800  0.203954  1
  Lu  Lu2  1  0.750000  0.417800  0.296046  1
  Lu  Lu3  1  0.750000  0.082200  0.796046  1
  Co  Co4  1  0.250000  0.407473  0.489258  1
  Co  Co5  1  0.250000  0.092527  0.989258  1
  Co  Co6  1  0.750000  0.592527  0.510742  1
  Co  Co7  1  0.750000  0.907473  0.010742  1
  Co  Co8  1  0.250000  0.214803  0.175378  1
  Co  Co9  1  0.250000  0.285197  0.675378  1
  Co  Co10  1  0.750000  0.785197  0.824622  1
  Co  Co11  1  0.750000  0.714803  0.324622  1
  Co  Co12  1  0.250000  0.885927  0.700479  1
  Co  Co13  1  0.250000  0.614073  0.200479  1
  Co  Co14  1  0.750000  0.114073  0.299521  1
  Co  Co15  1  0.750000  0.385927  0.799521  1
  Co  Co16  1  0.250000  0.468558  0.930846  1
  Co  Co17  1  0.250000  0.031442  0.430846  1
  Co  Co18  1  0.750000  0.531442  0.069154  1
  Co  Co19  1  0.750000  0.968558  0.569154  1
  Si  Si20  1  0.250000  0.415859  0.112504  1
  Si  Si21  1  0.250000  0.084141  0.612504  1
  Si  Si22  1  0.750000  0.584141  0.887496  1
  Si  Si23  1  0.750000  0.915859  0.387496  1
  Si  Si24  1  0.250000  0.269743  0.867494  1
  Si  Si25  1  0.250000  0.230257  0.367494  1
  Si  Si26  1  0.750000  0.730257  0.132506  1
  Si  Si27  1  0.750000  0.769743  0.632506  1
  Si  Si28  1  0.250000  0.598570  0.392262  1
  Si  Si29  1  0.250000  0.901430  0.892262  1
  Si  Si30  1  0.750000  0.401430  0.607738  1
  Si  Si31  1  0.750000  0.098570  0.107738  1
  Ru  Ru32  1  0.250000  0.705363  0.990296  1
  Ru  Ru33  1  0.250000  0.794637  0.490296  1
  Ru  Ru34  1  0.750000  0.294637  0.009704  1
  Ru  Ru35  1  0.750000  0.205363  0.509704  1
