# generated using pymatgen
data_HoTm2Co7(P3Ru)2
_symmetry_space_group_name_H-M   'P 1'
_cell_length_a   3.71809600
_cell_length_b   10.56607000
_cell_length_c   12.26888400
_cell_angle_alpha   90.00000000
_cell_angle_beta   90.00000000
_cell_angle_gamma   90.00000000
_symmetry_Int_Tables_number   1
_chemical_formula_structural   HoTm2Co7(P3Ru)2
_chemical_formula_sum   'Ho2 Tm4 Co14 P12 Ru4'
_cell_volume   481.99123734
_cell_formula_units_Z   2
loop_
 _symmetry_equiv_pos_site_id
 _symmetry_equiv_pos_as_xyz
  1  'x, y, z'
loop_
 _atom_site_type_symbol
 _atom_site_label
 _atom_site_symmetry_multiplicity
 _atom_site_fract_x
 _atom_site_fract_y
 _atom_site_fract_z
 _atom_site_occupancy
  Ho  Ho0  1  0.000000  0.500000  0.529461  1
  Ho  Ho1  1  0.500000  0.000000  0.478357  1
  Tm  Tm2  1  0.500000  0.818522  0.202627  1
  Tm  Tm3  1  0.500000  0.181478  0.202627  1
  Tm  Tm4  1  0.000000  0.682858  0.795710  1
  Tm  Tm5  1  0.000000  0.317142  0.795710  1
  Co  Co6  1  0.000000  0.500000  0.985432  1
  Co  Co7  1  0.500000  0.000000  0.013628  1
  Co  Co8  1  0.000000  0.200177  0.573916  1
  Co  Co9  1  0.000000  0.799823  0.573916  1
  Co  Co10  1  0.500000  0.879177  0.711013  1
  Co  Co11  1  0.500000  0.120823  0.711013  1
  Co  Co12  1  0.000000  0.621756  0.286589  1
  Co  Co13  1  0.000000  0.378244  0.286589  1
  Co  Co14  1  0.500000  0.332252  0.989501  1
  Co  Co15  1  0.500000  0.667748  0.989501  1
  Co  Co16  1  0.000000  0.167195  0.009169  1
  Co  Co17  1  0.000000  0.832805  0.009169  1
  Co  Co18  1  0.500000  0.500000  0.705251  1
  Co  Co19  1  0.000000  0.000000  0.294006  1
  P  P20  1  0.500000  0.309892  0.622060  1
  P  P21  1  0.500000  0.690108  0.622060  1
  P  P22  1  0.000000  0.183283  0.380932  1
  P  P23  1  0.000000  0.816717  0.380932  1
  P  P24  1  0.500000  0.500000  0.881397  1
  P  P25  1  0.000000  0.000000  0.117539  1
  P  P26  1  0.500000  0.846129  0.893392  1
  P  P27  1  0.500000  0.153871  0.893392  1
  P  P28  1  0.000000  0.654107  0.105101  1
  P  P29  1  0.000000  0.345893  0.105101  1
  P  P30  1  0.500000  0.500000  0.345315  1
  P  P31  1  0.000000  0.000000  0.651286  1
  Ru  Ru32  1  0.500000  0.295558  0.430421  1
  Ru  Ru33  1  0.500000  0.704442  0.430421  1
  Ru  Ru34  1  0.500000  0.500000  0.156442  1
  Ru  Ru35  1  0.000000  0.000000  0.841026  1
