# generated using pymatgen
data_Y4Zr3WF28
_symmetry_space_group_name_H-M   'P 1'
_cell_length_a   5.71568403
_cell_length_b   9.07633862
_cell_length_c   12.22716900
_cell_angle_alpha   62.56366084
_cell_angle_beta   90.00568378
_cell_angle_gamma   90.05503916
_symmetry_Int_Tables_number   1
_chemical_formula_structural   Y4Zr3WF28
_chemical_formula_sum   'Y4 Zr3 W1 F28'
_cell_volume   562.96884671
_cell_formula_units_Z   1
loop_
 _symmetry_equiv_pos_site_id
 _symmetry_equiv_pos_as_xyz
  1  'x, y, z'
loop_
 _atom_site_type_symbol
 _atom_site_label
 _atom_site_symmetry_multiplicity
 _atom_site_fract_x
 _atom_site_fract_y
 _atom_site_fract_z
 _atom_site_occupancy
  Y  Y0  1  0.256107  0.814900  0.267222  1
  Y  Y1  1  0.743818  0.184485  0.734123  1
  Y  Y2  1  0.756304  0.184501  0.234480  1
  Y  Y3  1  0.242245  0.815207  0.763323  1
  Zr  Zr4  1  0.755209  0.725989  0.043831  1
  Zr  Zr5  1  0.244451  0.274392  0.955590  1
  Zr  Zr6  1  0.255746  0.274654  0.456025  1
  W  W7  1  0.743705  0.726647  0.543786  1
  F  F8  1  0.960744  0.706115  0.421254  1
  F  F9  1  0.038606  0.290358  0.581631  1
  F  F10  1  0.461716  0.290840  0.081255  1
  F  F11  1  0.538027  0.709812  0.917957  1
  F  F12  1  0.479768  0.733103  0.147142  1
  F  F13  1  0.520347  0.268064  0.852147  1
  F  F14  1  0.979073  0.266154  0.353897  1
  F  F15  1  0.024914  0.730983  0.642750  1
  F  F16  1  0.963585  0.746922  0.173157  1
  F  F17  1  0.037528  0.252760  0.826578  1
  F  F18  1  0.463660  0.252664  0.327273  1
  F  F19  1  0.533925  0.745599  0.670571  1
  F  F20  1  0.772496  0.474218  0.141767  1
  F  F21  1  0.226693  0.525809  0.858282  1
  F  F22  1  0.271589  0.526096  0.357951  1
  F  F23  1  0.735479  0.478935  0.642284  1
  F  F24  1  0.947992  0.278091  0.049314  1
  F  F25  1  0.051052  0.722219  0.949962  1
  F  F26  1  0.449242  0.722455  0.451961  1
  F  F27  1  0.551553  0.280718  0.549115  1
  F  F28  1  0.736731  0.974034  0.446782  1
  F  F29  1  0.260010  0.023715  0.557230  1
  F  F30  1  0.239948  0.023388  0.058769  1
  F  F31  1  0.759749  0.977412  0.941763  1
  F  F32  1  0.574369  0.971982  0.234535  1
  F  F33  1  0.425542  0.027549  0.765326  1
  F  F34  1  0.073354  0.027403  0.268053  1
  F  F35  1  0.924725  0.971827  0.732911  1
