# generated using pymatgen
data_Ho16Cd4NiOs3
_symmetry_space_group_name_H-M   'P 1'
_cell_length_a   9.50948390
_cell_length_b   9.62410179
_cell_length_c   9.60662705
_cell_angle_alpha   59.94054899
_cell_angle_beta   59.53857896
_cell_angle_gamma   59.60104608
_symmetry_Int_Tables_number   1
_chemical_formula_structural   Ho16Cd4NiOs3
_chemical_formula_sum   'Ho16 Cd4 Ni1 Os3'
_cell_volume   617.34107875
_cell_formula_units_Z   1
loop_
 _symmetry_equiv_pos_site_id
 _symmetry_equiv_pos_as_xyz
  1  'x, y, z'
loop_
 _atom_site_type_symbol
 _atom_site_label
 _atom_site_symmetry_multiplicity
 _atom_site_fract_x
 _atom_site_fract_y
 _atom_site_fract_z
 _atom_site_occupancy
  Ho  Ho0  1  0.351343  0.345148  0.346014  1
  Ho  Ho1  1  0.351596  0.345263  0.957925  1
  Ho  Ho2  1  0.351348  0.957519  0.345950  1
  Ho  Ho3  1  0.960085  0.346579  0.346733  1
  Ho  Ho4  1  0.809522  0.189418  0.188803  1
  Ho  Ho5  1  0.186768  0.811322  0.810713  1
  Ho  Ho6  1  0.187511  0.811179  0.190126  1
  Ho  Ho7  1  0.809640  0.189530  0.811299  1
  Ho  Ho8  1  0.186758  0.191187  0.810736  1
  Ho  Ho9  1  0.809506  0.812271  0.188769  1
  Ho  Ho10  1  0.940505  0.558941  0.558944  1
  Ho  Ho11  1  0.556714  0.937915  0.938315  1
  Ho  Ho12  1  0.556400  0.938102  0.567403  1
  Ho  Ho13  1  0.940625  0.558907  0.941557  1
  Ho  Ho14  1  0.556730  0.567048  0.938310  1
  Ho  Ho15  1  0.940507  0.941598  0.558990  1
  Cd  Cd16  1  0.579224  0.581026  0.580577  1
  Cd  Cd17  1  0.579334  0.580976  0.258692  1
  Cd  Cd18  1  0.579236  0.259159  0.580591  1
  Cd  Cd19  1  0.256877  0.581093  0.580934  1
  Ni  Ni20  1  0.577820  0.140400  0.141422  1
  Os  Os21  1  0.143867  0.138313  0.139269  1
  Os  Os22  1  0.144257  0.138552  0.578585  1
  Os  Os23  1  0.143828  0.578556  0.139343  1
