# generated using pymatgen
data_NdDy7(Si3Pt)4
_symmetry_space_group_name_H-M   'P 1'
_cell_length_a   8.15439300
_cell_length_b   8.15439319
_cell_length_c   8.19938700
_cell_angle_alpha   90.00000000
_cell_angle_beta   90.00000000
_cell_angle_gamma   119.99999517
_symmetry_Int_Tables_number   1
_chemical_formula_structural   NdDy7(Si3Pt)4
_chemical_formula_sum   'Nd1 Dy7 Si12 Pt4'
_cell_volume   472.16666741
_cell_formula_units_Z   1
loop_
 _symmetry_equiv_pos_site_id
 _symmetry_equiv_pos_as_xyz
  1  'x, y, z'
loop_
 _atom_site_type_symbol
 _atom_site_label
 _atom_site_symmetry_multiplicity
 _atom_site_fract_x
 _atom_site_fract_y
 _atom_site_fract_z
 _atom_site_occupancy
  Nd  Nd0  1  0.000000  0.000000  0.250000  1
  Dy  Dy1  1  0.000000  0.000000  0.750000  1
  Dy  Dy2  1  0.001680  0.500840  0.250000  1
  Dy  Dy3  1  0.499160  0.500840  0.250000  1
  Dy  Dy4  1  0.500823  0.001646  0.750000  1
  Dy  Dy5  1  0.499160  0.998320  0.250000  1
  Dy  Dy6  1  0.500823  0.499177  0.750000  1
  Dy  Dy7  1  0.998354  0.499177  0.750000  1
  Si  Si8  1  0.165749  0.331499  0.996705  1
  Si  Si9  1  0.668501  0.834251  0.996705  1
  Si  Si10  1  0.165749  0.331499  0.503295  1
  Si  Si11  1  0.331543  0.165771  0.998258  1
  Si  Si12  1  0.165749  0.834251  0.996705  1
  Si  Si13  1  0.668501  0.834251  0.503295  1
  Si  Si14  1  0.834229  0.668457  0.998258  1
  Si  Si15  1  0.331543  0.165771  0.501742  1
  Si  Si16  1  0.165749  0.834251  0.503295  1
  Si  Si17  1  0.834229  0.668457  0.501742  1
  Si  Si18  1  0.834229  0.165771  0.998258  1
  Si  Si19  1  0.834229  0.165771  0.501742  1
  Pt  Pt20  1  0.333333  0.666667  0.998287  1
  Pt  Pt21  1  0.333333  0.666667  0.501713  1
  Pt  Pt22  1  0.666667  0.333333  0.001778  1
  Pt  Pt23  1  0.666667  0.333333  0.498222  1
