# generated using pymatgen
data_Sr3Mg(Cu4P3)2
_symmetry_space_group_name_H-M   'P 1'
_cell_length_a   4.00921400
_cell_length_b   11.30776800
_cell_length_c   13.06042500
_cell_angle_alpha   90.00000000
_cell_angle_beta   90.00000000
_cell_angle_gamma   90.00000000
_symmetry_Int_Tables_number   1
_chemical_formula_structural   Sr3Mg(Cu4P3)2
_chemical_formula_sum   'Sr6 Mg2 Cu16 P12'
_cell_volume   592.09778626
_cell_formula_units_Z   2
loop_
 _symmetry_equiv_pos_site_id
 _symmetry_equiv_pos_as_xyz
  1  'x, y, z'
loop_
 _atom_site_type_symbol
 _atom_site_label
 _atom_site_symmetry_multiplicity
 _atom_site_fract_x
 _atom_site_fract_y
 _atom_site_fract_z
 _atom_site_occupancy
  Sr  Sr0  1  0.000000  0.500000  0.519957  1
  Sr  Sr1  1  0.500000  0.000000  0.480043  1
  Sr  Sr2  1  0.500000  0.814057  0.202290  1
  Sr  Sr3  1  0.500000  0.185943  0.202290  1
  Sr  Sr4  1  0.000000  0.685943  0.797710  1
  Sr  Sr5  1  0.000000  0.314057  0.797710  1
  Mg  Mg6  1  0.500000  0.500000  0.146280  1
  Mg  Mg7  1  0.000000  0.000000  0.853720  1
  Cu  Cu8  1  0.500000  0.500000  0.700303  1
  Cu  Cu9  1  0.000000  0.000000  0.299697  1
  Cu  Cu10  1  0.000000  0.500000  0.982766  1
  Cu  Cu11  1  0.500000  0.000000  0.017234  1
  Cu  Cu12  1  0.500000  0.335129  0.991045  1
  Cu  Cu13  1  0.500000  0.664871  0.991045  1
  Cu  Cu14  1  0.000000  0.164871  0.008955  1
  Cu  Cu15  1  0.000000  0.835129  0.008955  1
  Cu  Cu16  1  0.500000  0.296606  0.430722  1
  Cu  Cu17  1  0.500000  0.703394  0.430722  1
  Cu  Cu18  1  0.000000  0.203394  0.569278  1
  Cu  Cu19  1  0.000000  0.796606  0.569278  1
  Cu  Cu20  1  0.500000  0.881996  0.707409  1
  Cu  Cu21  1  0.500000  0.118004  0.707409  1
  Cu  Cu22  1  0.000000  0.618004  0.292591  1
  Cu  Cu23  1  0.000000  0.381996  0.292591  1
  P  P24  1  0.500000  0.500000  0.879451  1
  P  P25  1  0.000000  0.000000  0.120549  1
  P  P26  1  0.500000  0.500000  0.345157  1
  P  P27  1  0.000000  0.000000  0.654843  1
  P  P28  1  0.500000  0.312072  0.614569  1
  P  P29  1  0.500000  0.687928  0.614569  1
  P  P30  1  0.000000  0.187928  0.385431  1
  P  P31  1  0.000000  0.812072  0.385431  1
  P  P32  1  0.500000  0.843892  0.897169  1
  P  P33  1  0.500000  0.156108  0.897169  1
  P  P34  1  0.000000  0.656108  0.102831  1
  P  P35  1  0.000000  0.343892  0.102831  1
