# generated using pymatgen
data_Ti24P3S5
_symmetry_space_group_name_H-M   'P 1'
_cell_length_a   9.87646558
_cell_length_b   9.86123548
_cell_length_c   4.98151995
_cell_angle_alpha   89.85086200
_cell_angle_beta   89.93675596
_cell_angle_gamma   90.01369492
_symmetry_Int_Tables_number   1
_chemical_formula_structural   Ti24P3S5
_chemical_formula_sum   'Ti24 P3 S5'
_cell_volume   485.16896152
_cell_formula_units_Z   1
loop_
 _symmetry_equiv_pos_site_id
 _symmetry_equiv_pos_as_xyz
  1  'x, y, z'
loop_
 _atom_site_type_symbol
 _atom_site_label
 _atom_site_symmetry_multiplicity
 _atom_site_fract_x
 _atom_site_fract_y
 _atom_site_fract_z
 _atom_site_occupancy
  Ti  Ti0  1  0.971234  0.861654  0.279824  1
  Ti  Ti1  1  0.361219  0.528164  0.780582  1
  Ti  Ti2  1  0.638607  0.470146  0.780554  1
  Ti  Ti3  1  0.028550  0.138662  0.281002  1
  Ti  Ti4  1  0.528842  0.640186  0.220377  1
  Ti  Ti5  1  0.140421  0.973509  0.720080  1
  Ti  Ti6  1  0.860639  0.030953  0.719039  1
  Ti  Ti7  1  0.471155  0.358987  0.220053  1
  Ti  Ti8  1  0.820385  0.283530  0.014844  1
  Ti  Ti9  1  0.783911  0.680488  0.514226  1
  Ti  Ti10  1  0.215738  0.318110  0.516110  1
  Ti  Ti11  1  0.180561  0.716092  0.013570  1
  Ti  Ti12  1  0.679623  0.214944  0.484241  1
  Ti  Ti13  1  0.715504  0.820600  0.984314  1
  Ti  Ti14  1  0.284580  0.180243  0.985905  1
  Ti  Ti15  1  0.319423  0.784485  0.485066  1
  Ti  Ti16  1  0.914619  0.391902  0.537974  1
  Ti  Ti17  1  0.893139  0.585187  0.039442  1
  Ti  Ti18  1  0.107185  0.414077  0.041491  1
  Ti  Ti19  1  0.085085  0.606950  0.539267  1
  Ti  Ti20  1  0.584989  0.106777  0.961494  1
  Ti  Ti21  1  0.606497  0.915273  0.460953  1
  Ti  Ti22  1  0.393350  0.084759  0.460127  1
  Ti  Ti23  1  0.414974  0.893866  0.960694  1
  P  P24  1  0.706169  0.459460  0.286091  1
  P  P25  1  0.293887  0.539746  0.286337  1
  P  P26  1  0.959931  0.794707  0.785350  1
  S  S27  1  0.459934  0.291620  0.713319  1
  S  S28  1  0.791955  0.039656  0.213290  1
  S  S29  1  0.207891  0.959810  0.213055  1
  S  S30  1  0.539978  0.708048  0.713838  1
  S  S31  1  0.040025  0.207406  0.787492  1
