# generated using pymatgen
data_PrTmB6Os
_symmetry_space_group_name_H-M   'P 1'
_cell_length_a   3.69587200
_cell_length_b   9.22010900
_cell_length_c   11.66843700
_cell_angle_alpha   90.00000000
_cell_angle_beta   90.00000000
_cell_angle_gamma   90.00000000
_symmetry_Int_Tables_number   1
_chemical_formula_structural   PrTmB6Os
_chemical_formula_sum   'Pr4 Tm4 B24 Os4'
_cell_volume   397.61765787
_cell_formula_units_Z   4
loop_
 _symmetry_equiv_pos_site_id
 _symmetry_equiv_pos_as_xyz
  1  'x, y, z'
loop_
 _atom_site_type_symbol
 _atom_site_label
 _atom_site_symmetry_multiplicity
 _atom_site_fract_x
 _atom_site_fract_y
 _atom_site_fract_z
 _atom_site_occupancy
  Pr  Pr0  1  0.000000  0.322668  0.414550  1
  Pr  Pr1  1  0.000000  0.677332  0.585450  1
  Pr  Pr2  1  0.000000  0.822668  0.085450  1
  Pr  Pr3  1  0.000000  0.177332  0.914550  1
  Tm  Tm4  1  0.000000  0.944596  0.372472  1
  Tm  Tm5  1  0.000000  0.055404  0.627529  1
  Tm  Tm6  1  0.000000  0.444596  0.127528  1
  Tm  Tm7  1  0.000000  0.555404  0.872471  1
  B  B8  1  0.500000  0.557011  0.429632  1
  B  B9  1  0.500000  0.442989  0.570368  1
  B  B10  1  0.500000  0.057011  0.070368  1
  B  B11  1  0.500000  0.942989  0.929632  1
  B  B12  1  0.500000  0.750352  0.416691  1
  B  B13  1  0.500000  0.249648  0.583309  1
  B  B14  1  0.500000  0.250352  0.083309  1
  B  B15  1  0.500000  0.749648  0.916691  1
  B  B16  1  0.500000  0.791207  0.266792  1
  B  B17  1  0.500000  0.208793  0.733208  1
  B  B18  1  0.500000  0.291206  0.233208  1
  B  B19  1  0.500000  0.708793  0.766792  1
  B  B20  1  0.500000  0.630317  0.185092  1
  B  B21  1  0.500000  0.369683  0.814908  1
  B  B22  1  0.500000  0.130317  0.314908  1
  B  B23  1  0.500000  0.869683  0.685092  1
  B  B24  1  0.500000  0.985639  0.214799  1
  B  B25  1  0.500000  0.014361  0.785201  1
  B  B26  1  0.500000  0.485639  0.285201  1
  B  B27  1  0.500000  0.514361  0.714799  1
  B  B28  1  0.500000  0.600890  0.027486  1
  B  B29  1  0.500000  0.399110  0.972514  1
  B  B30  1  0.500000  0.100890  0.472514  1
  B  B31  1  0.500000  0.899110  0.527486  1
  Os  Os32  1  0.000000  0.639681  0.318940  1
  Os  Os33  1  0.000000  0.360319  0.681060  1
  Os  Os34  1  0.000000  0.139681  0.181060  1
  Os  Os35  1  0.000000  0.860319  0.818940  1
