# generated using pymatgen
data_Pr4Co16Re4Si7P5
_symmetry_space_group_name_H-M   'P 1'
_cell_length_a   3.78511500
_cell_length_b   10.60650267
_cell_length_c   12.05476276
_cell_angle_alpha   89.95938879
_cell_angle_beta   90.00000000
_cell_angle_gamma   90.00000000
_symmetry_Int_Tables_number   1
_chemical_formula_structural   Pr4Co16Re4Si7P5
_chemical_formula_sum   'Pr4 Co16 Re4 Si7 P5'
_cell_volume   483.96041772
_cell_formula_units_Z   1
loop_
 _symmetry_equiv_pos_site_id
 _symmetry_equiv_pos_as_xyz
  1  'x, y, z'
loop_
 _atom_site_type_symbol
 _atom_site_label
 _atom_site_symmetry_multiplicity
 _atom_site_fract_x
 _atom_site_fract_y
 _atom_site_fract_z
 _atom_site_occupancy
  Pr  Pr0  1  0.250000  0.581994  0.702295  1
  Pr  Pr1  1  0.250000  0.920134  0.202619  1
  Pr  Pr2  1  0.750000  0.420544  0.297426  1
  Pr  Pr3  1  0.750000  0.080336  0.797347  1
  Co  Co4  1  0.250000  0.408483  0.491507  1
  Co  Co5  1  0.250000  0.092382  0.990870  1
  Co  Co6  1  0.750000  0.595872  0.510968  1
  Co  Co7  1  0.750000  0.906766  0.007409  1
  Co  Co8  1  0.250000  0.215236  0.172716  1
  Co  Co9  1  0.250000  0.284571  0.672661  1
  Co  Co10  1  0.750000  0.783534  0.823530  1
  Co  Co11  1  0.750000  0.715989  0.328156  1
  Co  Co12  1  0.250000  0.882314  0.699480  1
  Co  Co13  1  0.250000  0.616184  0.200735  1
  Co  Co14  1  0.750000  0.115616  0.299624  1
  Co  Co15  1  0.750000  0.384398  0.799192  1
  Co  Co16  1  0.250000  0.468804  0.933418  1
  Co  Co17  1  0.250000  0.030112  0.434447  1
  Co  Co18  1  0.750000  0.531377  0.066447  1
  Co  Co19  1  0.750000  0.964777  0.568065  1
  Re  Re20  1  0.250000  0.704783  0.988700  1
  Re  Re21  1  0.250000  0.794738  0.489794  1
  Re  Re22  1  0.750000  0.295464  0.010519  1
  Re  Re23  1  0.750000  0.204328  0.510916  1
  Si  Si24  1  0.250000  0.417141  0.111503  1
  Si  Si25  1  0.250000  0.083197  0.611759  1
  Si  Si26  1  0.750000  0.582291  0.888536  1
  Si  Si27  1  0.750000  0.917486  0.388259  1
  Si  Si28  1  0.250000  0.274285  0.865771  1
  Si  Si29  1  0.250000  0.225489  0.366064  1
  Si  Si30  1  0.750000  0.725906  0.134098  1
  P  P31  1  0.750000  0.775309  0.634896  1
  P  P32  1  0.250000  0.603129  0.393373  1
  P  P33  1  0.250000  0.897216  0.893937  1
  P  P34  1  0.750000  0.396566  0.606774  1
  P  P35  1  0.750000  0.103247  0.106190  1
