# generated using pymatgen
data_Yb4HgGePt4
_symmetry_space_group_name_H-M   'P 1'
_cell_length_a   5.67514973
_cell_length_b   5.67515059
_cell_length_c   8.04039567
_cell_angle_alpha   103.01841577
_cell_angle_beta   103.01842159
_cell_angle_gamma   58.82342996
_symmetry_Int_Tables_number   1
_chemical_formula_structural   Yb4HgGePt4
_chemical_formula_sum   'Yb4 Hg1 Ge1 Pt4'
_cell_volume   214.02360624
_cell_formula_units_Z   1
loop_
 _symmetry_equiv_pos_site_id
 _symmetry_equiv_pos_as_xyz
  1  'x, y, z'
loop_
 _atom_site_type_symbol
 _atom_site_label
 _atom_site_symmetry_multiplicity
 _atom_site_fract_x
 _atom_site_fract_y
 _atom_site_fract_z
 _atom_site_occupancy
  Yb  Yb0  1  0.298860  0.002461  0.147658  1
  Yb  Yb1  1  0.997539  0.701141  0.352342  1
  Yb  Yb2  1  0.002695  0.291482  0.652309  1
  Yb  Yb3  1  0.708517  0.997305  0.847691  1
  Hg  Hg4  1  0.689839  0.310161  0.250000  1
  Ge  Ge5  1  0.346805  0.653195  0.750000  1
  Pt  Pt6  1  0.224466  0.512207  0.986010  1
  Pt  Pt7  1  0.487792  0.775533  0.513991  1
  Pt  Pt8  1  0.487454  0.243968  0.510900  1
  Pt  Pt9  1  0.756033  0.512547  0.989101  1
