# generated using pymatgen
data_MgCd(Pd5Au2)2
_symmetry_space_group_name_H-M   'P 1'
_cell_length_a   4.11301400
_cell_length_b   5.65975645
_cell_length_c   11.30112416
_cell_angle_alpha   89.65576796
_cell_angle_beta   90.00000000
_cell_angle_gamma   90.00000000
_symmetry_Int_Tables_number   1
_chemical_formula_structural   MgCd(Pd5Au2)2
_chemical_formula_sum   'Mg1 Cd1 Pd10 Au4'
_cell_volume   263.07025101
_cell_formula_units_Z   1
loop_
 _symmetry_equiv_pos_site_id
 _symmetry_equiv_pos_as_xyz
  1  'x, y, z'
loop_
 _atom_site_type_symbol
 _atom_site_label
 _atom_site_symmetry_multiplicity
 _atom_site_fract_x
 _atom_site_fract_y
 _atom_site_fract_z
 _atom_site_occupancy
  Mg  Mg0  1  0.000000  0.500000  0.000000  1
  Cd  Cd1  1  0.000000  0.000000  0.500000  1
  Pd  Pd2  1  0.500000  0.238335  0.374256  1
  Pd  Pd3  1  0.500000  0.761665  0.625744  1
  Pd  Pd4  1  0.500000  0.265215  0.878458  1
  Pd  Pd5  1  0.500000  0.734785  0.121542  1
  Pd  Pd6  1  0.000000  0.483659  0.247633  1
  Pd  Pd7  1  0.000000  0.516341  0.752367  1
  Pd  Pd8  1  0.000000  0.017000  0.752629  1
  Pd  Pd9  1  0.000000  0.983000  0.247371  1
  Pd  Pd10  1  0.000000  0.000000  0.000000  1
  Pd  Pd11  1  0.000000  0.500000  0.500000  1
  Au  Au12  1  0.500000  0.237476  0.125217  1
  Au  Au13  1  0.500000  0.762524  0.874783  1
  Au  Au14  1  0.500000  0.266852  0.628892  1
  Au  Au15  1  0.500000  0.733148  0.371108  1
