# generated using pymatgen
data_NdEr4(MnB3)2
_symmetry_space_group_name_H-M   'P 1'
_cell_length_a   5.41302917
_cell_length_b   5.41302939
_cell_length_c   8.30370886
_cell_angle_alpha   70.97744053
_cell_angle_beta   70.97743901
_cell_angle_gamma   60.00000867
_symmetry_Int_Tables_number   1
_chemical_formula_structural   NdEr4(MnB3)2
_chemical_formula_sum   'Nd1 Er4 Mn2 B6'
_cell_volume   195.21619894
_cell_formula_units_Z   1
loop_
 _symmetry_equiv_pos_site_id
 _symmetry_equiv_pos_as_xyz
  1  'x, y, z'
loop_
 _atom_site_type_symbol
 _atom_site_label
 _atom_site_symmetry_multiplicity
 _atom_site_fract_x
 _atom_site_fract_y
 _atom_site_fract_z
 _atom_site_occupancy
  Nd  Nd0  1  0.000000  0.000000  0.000000  1
  Er  Er1  1  0.249225  0.249225  0.252324  1
  Er  Er2  1  0.750775  0.750775  0.747676  1
  Er  Er3  1  0.417952  0.417952  0.746144  1
  Er  Er4  1  0.582048  0.582048  0.253856  1
  Mn  Mn5  1  0.114609  0.114609  0.656173  1
  Mn  Mn6  1  0.885391  0.885391  0.343827  1
  B  B7  1  0.166531  0.833469  0.500000  1
  B  B8  1  0.833469  0.500000  0.500000  1
  B  B9  1  0.500000  0.166531  0.500000  1
  B  B10  1  0.166531  0.500000  0.500000  1
  B  B11  1  0.500000  0.833469  0.500000  1
  B  B12  1  0.833469  0.166531  0.500000  1
