# generated using pymatgen
data_KLaMoH9
_symmetry_space_group_name_H-M   'P 1'
_cell_length_a   8.90260200
_cell_length_b   8.90260107
_cell_length_c   5.15424300
_cell_angle_alpha   90.00000000
_cell_angle_beta   90.00000000
_cell_angle_gamma   119.99999601
_symmetry_Int_Tables_number   1
_chemical_formula_structural   KLaMoH9
_chemical_formula_sum   'K3 La3 Mo3 H27'
_cell_volume   353.77684962
_cell_formula_units_Z   3
loop_
 _symmetry_equiv_pos_site_id
 _symmetry_equiv_pos_as_xyz
  1  'x, y, z'
loop_
 _atom_site_type_symbol
 _atom_site_label
 _atom_site_symmetry_multiplicity
 _atom_site_fract_x
 _atom_site_fract_y
 _atom_site_fract_z
 _atom_site_occupancy
  K  K0  1  0.000000  0.604669  0.000000  1
  K  K1  1  0.395331  0.395331  0.000000  1
  K  K2  1  0.604669  0.000000  0.000000  1
  La  La3  1  0.000000  0.267722  0.500000  1
  La  La4  1  0.732278  0.732278  0.500000  1
  La  La5  1  0.267722  0.000000  0.500000  1
  Mo  Mo6  1  0.666667  0.333333  0.500000  1
  Mo  Mo7  1  0.333333  0.666667  0.500000  1
  Mo  Mo8  1  0.000000  0.000000  0.000000  1
  H  H9  1  0.803073  0.328218  0.745817  1
  H  H10  1  0.671782  0.474854  0.745817  1
  H  H11  1  0.525146  0.196927  0.745817  1
  H  H12  1  0.196927  0.525146  0.254183  1
  H  H13  1  0.525146  0.196927  0.254183  1
  H  H14  1  0.803073  0.328218  0.254183  1
  H  H15  1  0.671782  0.474854  0.254183  1
  H  H16  1  0.328218  0.803073  0.745817  1
  H  H17  1  0.474854  0.671782  0.745817  1
  H  H18  1  0.202082  0.000000  0.000000  1
  H  H19  1  0.797918  0.797918  0.000000  1
  H  H20  1  0.000000  0.202082  0.000000  1
  H  H21  1  0.857363  0.000000  0.260358  1
  H  H22  1  0.142637  0.142637  0.739642  1
  H  H23  1  0.000000  0.857363  0.739642  1
  H  H24  1  0.000000  0.857363  0.260358  1
  H  H25  1  0.142637  0.142637  0.260358  1
  H  H26  1  0.857363  0.000000  0.739642  1
  H  H27  1  0.136809  0.668700  0.500000  1
  H  H28  1  0.531891  0.863191  0.500000  1
  H  H29  1  0.331300  0.468109  0.500000  1
  H  H30  1  0.468109  0.331300  0.500000  1
  H  H31  1  0.863191  0.531891  0.500000  1
  H  H32  1  0.668700  0.136809  0.500000  1
  H  H33  1  0.196927  0.525146  0.745817  1
  H  H34  1  0.328218  0.803073  0.254183  1
  H  H35  1  0.474854  0.671782  0.254183  1
