# generated using pymatgen
data_Bi4IrOs(RhO7)2
_symmetry_space_group_name_H-M   'P 1'
_cell_length_a   7.37671243
_cell_length_b   7.37011321
_cell_length_c   7.37671212
_cell_angle_alpha   59.98363446
_cell_angle_beta   60.02203997
_cell_angle_gamma   59.98364061
_symmetry_Int_Tables_number   1
_chemical_formula_structural   Bi4IrOs(RhO7)2
_chemical_formula_sum   'Bi4 Ir1 Os1 Rh2 O14'
_cell_volume   283.56305581
_cell_formula_units_Z   1
loop_
 _symmetry_equiv_pos_site_id
 _symmetry_equiv_pos_as_xyz
  1  'x, y, z'
loop_
 _atom_site_type_symbol
 _atom_site_label
 _atom_site_symmetry_multiplicity
 _atom_site_fract_x
 _atom_site_fract_y
 _atom_site_fract_z
 _atom_site_occupancy
  Bi  Bi0  1  0.125000  0.625000  0.125000  1
  Bi  Bi1  1  0.125000  0.125000  0.625000  1
  Bi  Bi2  1  0.625000  0.125000  0.125000  1
  Bi  Bi3  1  0.125000  0.125000  0.125000  1
  Ir  Ir4  1  0.625000  0.125000  0.625000  1
  Os  Os5  1  0.625000  0.625000  0.625000  1
  Rh  Rh6  1  0.625000  0.625000  0.125000  1
  Rh  Rh7  1  0.125000  0.625000  0.625000  1
  O  O8  1  0.303218  0.705173  0.700339  1
  O  O9  1  0.289718  0.707487  0.289718  1
  O  O10  1  0.548732  0.948826  0.548732  1
  O  O11  1  0.295217  0.288781  0.703908  1
  O  O12  1  0.251217  0.249876  0.251217  1
  O  O13  1  0.700339  0.705173  0.303218  1
  O  O14  1  0.954783  0.961219  0.546092  1
  O  O15  1  0.703908  0.288781  0.295217  1
  O  O16  1  0.946782  0.544827  0.549661  1
  O  O17  1  0.998783  0.000124  0.998783  1
  O  O18  1  0.546092  0.961219  0.954783  1
  O  O19  1  0.960282  0.542513  0.960282  1
  O  O20  1  0.701268  0.301174  0.701268  1
  O  O21  1  0.549661  0.544827  0.946782  1
