# generated using pymatgen
data_Nd16CdHg3OsPt3
_symmetry_space_group_name_H-M   'P 1'
_cell_length_a   9.99380315
_cell_length_b   10.01056345
_cell_length_c   10.01056401
_cell_angle_alpha   59.69114643
_cell_angle_beta   59.70023723
_cell_angle_gamma   59.70023430
_symmetry_Int_Tables_number   1
_chemical_formula_structural   Nd16CdHg3OsPt3
_chemical_formula_sum   'Nd16 Cd1 Hg3 Os1 Pt3'
_cell_volume   703.29160702
_cell_formula_units_Z   1
loop_
 _symmetry_equiv_pos_site_id
 _symmetry_equiv_pos_as_xyz
  1  'x, y, z'
loop_
 _atom_site_type_symbol
 _atom_site_label
 _atom_site_symmetry_multiplicity
 _atom_site_fract_x
 _atom_site_fract_y
 _atom_site_fract_z
 _atom_site_occupancy
  Nd  Nd0  1  0.352566  0.352048  0.352048  1
  Nd  Nd1  1  0.349389  0.349028  0.949091  1
  Nd  Nd2  1  0.349389  0.949091  0.349028  1
  Nd  Nd3  1  0.946715  0.349937  0.349937  1
  Nd  Nd4  1  0.815709  0.189302  0.189302  1
  Nd  Nd5  1  0.187287  0.808828  0.808828  1
  Nd  Nd6  1  0.188149  0.816471  0.189041  1
  Nd  Nd7  1  0.807635  0.188684  0.807780  1
  Nd  Nd8  1  0.188149  0.189041  0.816471  1
  Nd  Nd9  1  0.807635  0.807780  0.188684  1
  Nd  Nd10  1  0.937855  0.563616  0.563616  1
  Nd  Nd11  1  0.555710  0.938741  0.938741  1
  Nd  Nd12  1  0.562714  0.938706  0.563584  1
  Nd  Nd13  1  0.937954  0.556563  0.938425  1
  Nd  Nd14  1  0.562714  0.563584  0.938706  1
  Nd  Nd15  1  0.937954  0.938425  0.556563  1
  Cd  Cd16  1  0.259850  0.579689  0.579689  1
  Hg  Hg17  1  0.582474  0.584622  0.584622  1
  Hg  Hg18  1  0.583146  0.585737  0.244960  1
  Hg  Hg19  1  0.583146  0.244960  0.585737  1
  Os  Os20  1  0.142849  0.143485  0.143485  1
  Pt  Pt21  1  0.144419  0.144961  0.571989  1
  Pt  Pt22  1  0.144419  0.571989  0.144961  1
  Pt  Pt23  1  0.572175  0.144715  0.144715  1
