# generated using pymatgen
data_Th5Zr3(Cu4Si3)4
_symmetry_space_group_name_H-M   'P 1'
_cell_length_a   12.99226100
_cell_length_b   12.99226118
_cell_length_c   4.01992000
_cell_angle_alpha   90.00000000
_cell_angle_beta   90.00000000
_cell_angle_gamma   120.00000208
_symmetry_Int_Tables_number   1
_chemical_formula_structural   Th5Zr3(Cu4Si3)4
_chemical_formula_sum   'Th5 Zr3 Cu16 Si12'
_cell_volume   587.64833763
_cell_formula_units_Z   1
loop_
 _symmetry_equiv_pos_site_id
 _symmetry_equiv_pos_as_xyz
  1  'x, y, z'
loop_
 _atom_site_type_symbol
 _atom_site_label
 _atom_site_symmetry_multiplicity
 _atom_site_fract_x
 _atom_site_fract_y
 _atom_site_fract_z
 _atom_site_occupancy
  Th  Th0  1  0.185883  0.185883  0.500000  1
  Th  Th1  1  0.814117  0.000000  0.500000  1
  Th  Th2  1  0.000000  0.814117  0.500000  1
  Th  Th3  1  0.333333  0.666667  0.000000  1
  Th  Th4  1  0.666667  0.333333  0.000000  1
  Zr  Zr5  1  0.574070  0.574070  0.000000  1
  Zr  Zr6  1  0.425930  0.000000  0.000000  1
  Zr  Zr7  1  0.000000  0.425930  0.000000  1
  Cu  Cu8  1  0.726579  0.726579  0.500000  1
  Cu  Cu9  1  0.273421  0.000000  0.500000  1
  Cu  Cu10  1  0.000000  0.273421  0.500000  1
  Cu  Cu11  1  0.188326  0.376379  0.000000  1
  Cu  Cu12  1  0.623621  0.811945  0.000000  1
  Cu  Cu13  1  0.188055  0.811674  0.000000  1
  Cu  Cu14  1  0.811945  0.623621  0.000000  1
  Cu  Cu15  1  0.811674  0.188055  0.000000  1
  Cu  Cu16  1  0.376379  0.188326  0.000000  1
  Cu  Cu17  1  0.365412  0.484036  0.500000  1
  Cu  Cu18  1  0.515964  0.881377  0.500000  1
  Cu  Cu19  1  0.118623  0.634588  0.500000  1
  Cu  Cu20  1  0.881377  0.515964  0.500000  1
  Cu  Cu21  1  0.634588  0.118623  0.500000  1
  Cu  Cu22  1  0.484036  0.365412  0.500000  1
  Cu  Cu23  1  0.000000  0.000000  0.000000  1
  Si  Si24  1  0.819529  0.819529  0.000000  1
  Si  Si25  1  0.180471  0.000000  0.000000  1
  Si  Si26  1  0.000000  0.180471  0.000000  1
  Si  Si27  1  0.171307  0.476843  0.500000  1
  Si  Si28  1  0.523157  0.694464  0.500000  1
  Si  Si29  1  0.305536  0.828693  0.500000  1
  Si  Si30  1  0.694464  0.523157  0.500000  1
  Si  Si31  1  0.828693  0.305536  0.500000  1
  Si  Si32  1  0.476843  0.171307  0.500000  1
  Si  Si33  1  0.368936  0.368936  0.000000  1
  Si  Si34  1  0.631064  0.000000  0.000000  1
  Si  Si35  1  0.000000  0.631064  0.000000  1
