# generated using pymatgen
data_SrTh2(Ga8Pd3)3
_symmetry_space_group_name_H-M   'P 1'
_cell_length_a   8.56764358
_cell_length_b   8.59491181
_cell_length_c   8.56764240
_cell_angle_alpha   89.55907903
_cell_angle_beta   89.39262001
_cell_angle_gamma   89.55908400
_symmetry_Int_Tables_number   1
_chemical_formula_structural   SrTh2(Ga8Pd3)3
_chemical_formula_sum   'Sr1 Th2 Ga24 Pd9'
_cell_volume   630.83284154
_cell_formula_units_Z   1
loop_
 _symmetry_equiv_pos_site_id
 _symmetry_equiv_pos_as_xyz
  1  'x, y, z'
loop_
 _atom_site_type_symbol
 _atom_site_label
 _atom_site_symmetry_multiplicity
 _atom_site_fract_x
 _atom_site_fract_y
 _atom_site_fract_z
 _atom_site_occupancy
  Sr  Sr0  1  0.000000  0.500000  0.000000  1
  Th  Th1  1  0.500000  0.000000  0.000000  1
  Th  Th2  1  0.000000  0.000000  0.500000  1
  Ga  Ga3  1  0.987754  0.643464  0.643764  1
  Ga  Ga4  1  0.643764  0.643464  0.987754  1
  Ga  Ga5  1  0.644075  0.987664  0.644075  1
  Ga  Ga6  1  0.012246  0.356536  0.356236  1
  Ga  Ga7  1  0.356236  0.356536  0.012246  1
  Ga  Ga8  1  0.355925  0.012336  0.355925  1
  Ga  Ga9  1  0.738605  0.500000  0.261395  1
  Ga  Ga10  1  0.261395  0.500000  0.738605  1
  Ga  Ga11  1  0.499715  0.262516  0.737651  1
  Ga  Ga12  1  0.500285  0.737484  0.262349  1
  Ga  Ga13  1  0.262349  0.737484  0.500285  1
  Ga  Ga14  1  0.737651  0.262516  0.499715  1
  Ga  Ga15  1  0.837852  0.144968  0.837852  1
  Ga  Ga16  1  0.144082  0.838023  0.837215  1
  Ga  Ga17  1  0.837215  0.838023  0.144082  1
  Ga  Ga18  1  0.162148  0.855032  0.162148  1
  Ga  Ga19  1  0.855918  0.161977  0.162785  1
  Ga  Ga20  1  0.162785  0.161977  0.855918  1
  Ga  Ga21  1  0.731608  0.486519  0.731608  1
  Ga  Ga22  1  0.486558  0.730453  0.730614  1
  Ga  Ga23  1  0.730614  0.730453  0.486558  1
  Ga  Ga24  1  0.268392  0.513481  0.268392  1
  Ga  Ga25  1  0.513442  0.269547  0.269386  1
  Ga  Ga26  1  0.269386  0.269547  0.513442  1
  Pd  Pd27  1  0.838198  0.842836  0.838198  1
  Pd  Pd28  1  0.161802  0.157164  0.161802  1
  Pd  Pd29  1  0.661213  0.334382  0.999589  1
  Pd  Pd30  1  0.999589  0.334382  0.661213  1
  Pd  Pd31  1  0.337031  0.000000  0.662969  1
  Pd  Pd32  1  0.338787  0.665618  0.000411  1
  Pd  Pd33  1  0.000411  0.665618  0.338787  1
  Pd  Pd34  1  0.662969  0.000000  0.337031  1
  Pd  Pd35  1  0.500000  0.500000  0.500000  1
