# generated using pymatgen
data_Np3RuF24
_symmetry_space_group_name_H-M   'P 1'
_cell_length_a   5.49149151
_cell_length_b   9.33214900
_cell_length_c   10.11912449
_cell_angle_alpha   90.00000000
_cell_angle_beta   89.26676892
_cell_angle_gamma   90.00000000
_symmetry_Int_Tables_number   1
_chemical_formula_structural   Np3RuF24
_chemical_formula_sum   'Np3 Ru1 F24'
_cell_volume   518.53652847
_cell_formula_units_Z   1
loop_
 _symmetry_equiv_pos_site_id
 _symmetry_equiv_pos_as_xyz
  1  'x, y, z'
loop_
 _atom_site_type_symbol
 _atom_site_label
 _atom_site_symmetry_multiplicity
 _atom_site_fract_x
 _atom_site_fract_y
 _atom_site_fract_z
 _atom_site_occupancy
  Np  Np0  1  0.079332  0.250000  0.371683  1
  Np  Np1  1  0.418990  0.250000  0.869506  1
  Np  Np2  1  0.581147  0.750000  0.129519  1
  Ru  Ru3  1  0.920470  0.750000  0.629549  1
  F  F4  1  0.197852  0.750000  0.522207  1
  F  F5  1  0.780152  0.250000  0.487477  1
  F  F6  1  0.715068  0.250000  0.983934  1
  F  F7  1  0.285016  0.750000  0.016216  1
  F  F8  1  0.642566  0.750000  0.737090  1
  F  F9  1  0.378102  0.250000  0.254569  1
  F  F10  1  0.122234  0.250000  0.755460  1
  F  F11  1  0.878203  0.750000  0.242371  1
  F  F12  1  0.779714  0.608496  0.524502  1
  F  F13  1  0.231590  0.400971  0.484086  1
  F  F14  1  0.266135  0.401773  0.984004  1
  F  F15  1  0.231590  0.099029  0.484086  1
  F  F16  1  0.732558  0.597627  0.015822  1
  F  F17  1  0.779714  0.891504  0.524502  1
  F  F18  1  0.732558  0.902373  0.015822  1
  F  F19  1  0.266135  0.098227  0.984004  1
  F  F20  1  0.060345  0.608336  0.734525  1
  F  F21  1  0.929695  0.401549  0.258169  1
  F  F22  1  0.571105  0.401625  0.755955  1
  F  F23  1  0.929695  0.098451  0.258169  1
  F  F24  1  0.429293  0.597721  0.243148  1
  F  F25  1  0.060345  0.891664  0.734525  1
  F  F26  1  0.429293  0.902279  0.243148  1
  F  F27  1  0.571105  0.098375  0.755955  1
