# generated using pymatgen
data_Tb9Dy7(ErPt4)4
_symmetry_space_group_name_H-M   'P 1'
_cell_length_a   7.47605102
_cell_length_b   7.58409103
_cell_length_c   14.76795706
_cell_angle_alpha   90.00803869
_cell_angle_beta   89.99299012
_cell_angle_gamma   90.00543297
_symmetry_Int_Tables_number   1
_chemical_formula_structural   Tb9Dy7(ErPt4)4
_chemical_formula_sum   'Tb9 Dy7 Er4 Pt16'
_cell_volume   837.32913952
_cell_formula_units_Z   1
loop_
 _symmetry_equiv_pos_site_id
 _symmetry_equiv_pos_as_xyz
  1  'x, y, z'
loop_
 _atom_site_type_symbol
 _atom_site_label
 _atom_site_symmetry_multiplicity
 _atom_site_fract_x
 _atom_site_fract_y
 _atom_site_fract_z
 _atom_site_occupancy
  Tb  Tb0  1  0.157067  0.332106  0.622643  1
  Tb  Tb1  1  0.501667  0.679858  0.593126  1
  Tb  Tb2  1  0.001600  0.820241  0.906884  1
  Tb  Tb3  1  0.498438  0.320280  0.093122  1
  Tb  Tb4  1  0.998347  0.179685  0.406805  1
  Tb  Tb5  1  0.498469  0.320249  0.406852  1
  Tb  Tb6  1  0.998402  0.179747  0.093128  1
  Tb  Tb7  1  0.501585  0.679722  0.906886  1
  Tb  Tb8  1  0.001520  0.820289  0.593145  1
  Dy  Dy9  1  0.657069  0.167859  0.622695  1
  Dy  Dy10  1  0.157049  0.332090  0.877351  1
  Dy  Dy11  1  0.342945  0.832065  0.122692  1
  Dy  Dy12  1  0.842902  0.667929  0.377297  1
  Dy  Dy13  1  0.342927  0.832074  0.377301  1
  Dy  Dy14  1  0.842955  0.667928  0.122677  1
  Dy  Dy15  1  0.657074  0.167900  0.877322  1
  Er  Er16  1  0.818755  0.512607  0.750070  1
  Er  Er17  1  0.318989  0.987347  0.750052  1
  Er  Er18  1  0.181054  0.487551  0.249999  1
  Er  Er19  1  0.681045  0.012447  0.250012  1
  Pt  Pt20  1  0.683368  0.967760  0.457876  1
  Pt  Pt21  1  0.183305  0.532237  0.042109  1
  Pt  Pt22  1  0.316696  0.032249  0.957875  1
  Pt  Pt23  1  0.816437  0.467880  0.542058  1
  Pt  Pt24  1  0.316874  0.031882  0.542025  1
  Pt  Pt25  1  0.816715  0.467773  0.957881  1
  Pt  Pt26  1  0.683318  0.967763  0.042107  1
  Pt  Pt27  1  0.183338  0.532436  0.457721  1
  Pt  Pt28  1  0.454469  0.387824  0.750096  1
  Pt  Pt29  1  0.954074  0.112051  0.750105  1
  Pt  Pt30  1  0.545771  0.612220  0.250008  1
  Pt  Pt31  1  0.045766  0.887789  0.250007  1
  Pt  Pt32  1  0.682534  0.856133  0.749979  1
  Pt  Pt33  1  0.182564  0.644032  0.750085  1
  Pt  Pt34  1  0.317454  0.143853  0.250008  1
  Pt  Pt35  1  0.817457  0.356144  0.250000  1
