# generated using pymatgen
data_LiPd2PbO4
_symmetry_space_group_name_H-M   'P 1'
_cell_length_a   6.91743900
_cell_length_b   6.91743900
_cell_length_c   4.44651000
_cell_angle_alpha   90.00000000
_cell_angle_beta   90.00000000
_cell_angle_gamma   90.00000000
_symmetry_Int_Tables_number   1
_chemical_formula_structural   LiPd2PbO4
_chemical_formula_sum   'Li2 Pd4 Pb2 O8'
_cell_volume   212.76978246
_cell_formula_units_Z   2
loop_
 _symmetry_equiv_pos_site_id
 _symmetry_equiv_pos_as_xyz
  1  'x, y, z'
loop_
 _atom_site_type_symbol
 _atom_site_label
 _atom_site_symmetry_multiplicity
 _atom_site_fract_x
 _atom_site_fract_y
 _atom_site_fract_z
 _atom_site_occupancy
  Li  Li0  1  0.000000  0.000000  0.500000  1
  Li  Li1  1  0.500000  0.500000  0.500000  1
  Pd  Pd2  1  0.250000  0.250000  0.000000  1
  Pd  Pd3  1  0.250000  0.750000  0.000000  1
  Pd  Pd4  1  0.750000  0.750000  0.000000  1
  Pd  Pd5  1  0.750000  0.250000  0.000000  1
  Pb  Pb6  1  0.000000  0.500000  0.525634  1
  Pb  Pb7  1  0.500000  0.000000  0.474366  1
  O  O8  1  0.219086  0.000000  0.766005  1
  O  O9  1  0.000000  0.780914  0.233995  1
  O  O10  1  0.780914  0.000000  0.766005  1
  O  O11  1  0.280914  0.500000  0.233995  1
  O  O12  1  0.000000  0.219086  0.233995  1
  O  O13  1  0.500000  0.280914  0.766005  1
  O  O14  1  0.719086  0.500000  0.233995  1
  O  O15  1  0.500000  0.719086  0.766005  1
