# generated using pymatgen
data_CsNb2PO8
_symmetry_space_group_name_H-M   'P 1'
_cell_length_a   8.61338303
_cell_length_b   8.61338207
_cell_length_c   8.61338350
_cell_angle_alpha   104.44237884
_cell_angle_beta   104.44237335
_cell_angle_gamma   104.44237526
_symmetry_Int_Tables_number   1
_chemical_formula_structural   CsNb2PO8
_chemical_formula_sum   'Cs3 Nb6 P3 O24'
_cell_volume   565.22983999
_cell_formula_units_Z   3
loop_
 _symmetry_equiv_pos_site_id
 _symmetry_equiv_pos_as_xyz
  1  'x, y, z'
loop_
 _atom_site_type_symbol
 _atom_site_label
 _atom_site_symmetry_multiplicity
 _atom_site_fract_x
 _atom_site_fract_y
 _atom_site_fract_z
 _atom_site_occupancy
  Cs  Cs0  1  0.609912  0.317667  0.901633  1
  Cs  Cs1  1  0.901633  0.609912  0.317667  1
  Cs  Cs2  1  0.317667  0.901633  0.609912  1
  Nb  Nb3  1  0.357181  0.039053  0.157952  1
  Nb  Nb4  1  0.039053  0.157952  0.357181  1
  Nb  Nb5  1  0.969367  0.652824  0.842864  1
  Nb  Nb6  1  0.157952  0.357181  0.039053  1
  Nb  Nb7  1  0.652824  0.842864  0.969367  1
  Nb  Nb8  1  0.842864  0.969367  0.652824  1
  P  P9  1  0.727023  0.271270  0.500137  1
  P  P10  1  0.271270  0.500137  0.727023  1
  P  P11  1  0.500137  0.727023  0.271270  1
  O  O12  1  0.971781  0.023789  0.497985  1
  O  O13  1  0.844617  0.999494  0.154064  1
  O  O14  1  0.708764  0.130461  0.583412  1
  O  O15  1  0.203434  0.064841  0.308761  1
  O  O16  1  0.999494  0.154064  0.844617  1
  O  O17  1  0.866767  0.283193  0.416764  1
  O  O18  1  0.555625  0.228890  0.358229  1
  O  O19  1  0.768772  0.442934  0.638902  1
  O  O20  1  0.308761  0.203434  0.064841  1
  O  O21  1  0.283193  0.416764  0.866767  1
  O  O22  1  0.228890  0.358229  0.555625  1
  O  O23  1  0.064841  0.308761  0.203434  1
  O  O24  1  0.023789  0.497985  0.971781  1
  O  O25  1  0.794929  0.687240  0.931852  1
  O  O26  1  0.442934  0.638902  0.768772  1
  O  O27  1  0.130461  0.583412  0.708764  1
  O  O28  1  0.931852  0.794929  0.687240  1
  O  O29  1  0.358229  0.555625  0.228890  1
  O  O30  1  0.638902  0.768772  0.442934  1
  O  O31  1  0.583412  0.708764  0.130461  1
  O  O32  1  0.687240  0.931852  0.794929  1
  O  O33  1  0.416764  0.866767  0.283193  1
  O  O34  1  0.154064  0.844617  0.999494  1
  O  O35  1  0.497985  0.971781  0.023789  1
