# generated using pymatgen
data_HoThMn17
_symmetry_space_group_name_H-M   'P 1'
_cell_length_a   6.34942043
_cell_length_b   6.34942091
_cell_length_c   6.34942190
_cell_angle_alpha   86.16739595
_cell_angle_beta   86.16739615
_cell_angle_gamma   86.16739175
_symmetry_Int_Tables_number   1
_chemical_formula_structural   HoThMn17
_chemical_formula_sum   'Ho1 Th1 Mn17'
_cell_volume   254.33352165
_cell_formula_units_Z   1
loop_
 _symmetry_equiv_pos_site_id
 _symmetry_equiv_pos_as_xyz
  1  'x, y, z'
loop_
 _atom_site_type_symbol
 _atom_site_label
 _atom_site_symmetry_multiplicity
 _atom_site_fract_x
 _atom_site_fract_y
 _atom_site_fract_z
 _atom_site_occupancy
  Ho  Ho0  1  0.648246  0.648246  0.648246  1
  Th  Th1  1  0.354868  0.354868  0.354868  1
  Mn  Mn2  1  0.355333  0.355333  0.875463  1
  Mn  Mn3  1  0.875463  0.355333  0.355333  1
  Mn  Mn4  1  0.099098  0.099098  0.099098  1
  Mn  Mn5  1  0.901860  0.901860  0.901860  1
  Mn  Mn6  1  0.996750  0.996750  0.500174  1
  Mn  Mn7  1  0.996750  0.500174  0.996750  1
  Mn  Mn8  1  0.500174  0.996750  0.996750  1
  Mn  Mn9  1  0.726553  0.272423  0.998811  1
  Mn  Mn10  1  0.272423  0.998811  0.726553  1
  Mn  Mn11  1  0.998811  0.726553  0.272423  1
  Mn  Mn12  1  0.272423  0.726553  0.998811  1
  Mn  Mn13  1  0.726553  0.998811  0.272423  1
  Mn  Mn14  1  0.998811  0.272423  0.726553  1
  Mn  Mn15  1  0.126558  0.646996  0.646996  1
  Mn  Mn16  1  0.646996  0.646996  0.126558  1
  Mn  Mn17  1  0.646996  0.126558  0.646996  1
  Mn  Mn18  1  0.355333  0.875463  0.355333  1
