# generated using pymatgen
data_Dy2Ho3Os2
_symmetry_space_group_name_H-M   'P 1'
_cell_length_a   6.35070063
_cell_length_b   7.35213086
_cell_length_c   8.41443602
_cell_angle_alpha   96.95382260
_cell_angle_beta   112.17083400
_cell_angle_gamma   89.99999457
_symmetry_Int_Tables_number   1
_chemical_formula_structural   Dy2Ho3Os2
_chemical_formula_sum   'Dy4 Ho6 Os4'
_cell_volume   360.70885510
_cell_formula_units_Z   2
loop_
 _symmetry_equiv_pos_site_id
 _symmetry_equiv_pos_as_xyz
  1  'x, y, z'
loop_
 _atom_site_type_symbol
 _atom_site_label
 _atom_site_symmetry_multiplicity
 _atom_site_fract_x
 _atom_site_fract_y
 _atom_site_fract_z
 _atom_site_occupancy
  Dy  Dy0  1  0.976628  0.916020  0.183639  1
  Dy  Dy1  1  0.792989  0.583980  0.816361  1
  Dy  Dy2  1  0.023372  0.083980  0.816361  1
  Dy  Dy3  1  0.207011  0.416020  0.183639  1
  Ho  Ho4  1  0.639413  0.816342  0.435431  1
  Ho  Ho5  1  0.203982  0.683658  0.564569  1
  Ho  Ho6  1  0.360587  0.183658  0.564569  1
  Ho  Ho7  1  0.796018  0.316342  0.435431  1
  Ho  Ho8  1  0.421997  0.750000  0.000000  1
  Ho  Ho9  1  0.578003  0.250000  0.000000  1
  Os  Os10  1  0.822361  0.577020  0.219880  1
  Os  Os11  1  0.602481  0.922980  0.780120  1
  Os  Os12  1  0.177639  0.422980  0.780120  1
  Os  Os13  1  0.397519  0.077020  0.219880  1
