# generated using pymatgen
data_Li6NdGd(BO3)4
_symmetry_space_group_name_H-M   'P 1'
_cell_length_a   6.50698700
_cell_length_b   8.86433325
_cell_length_c   10.02888320
_cell_angle_alpha   114.89428157
_cell_angle_beta   90.00000000
_cell_angle_gamma   90.00000000
_symmetry_Int_Tables_number   1
_chemical_formula_structural   Li6NdGd(BO3)4
_chemical_formula_sum   'Li12 Nd2 Gd2 B8 O24'
_cell_volume   524.71933376
_cell_formula_units_Z   2
loop_
 _symmetry_equiv_pos_site_id
 _symmetry_equiv_pos_as_xyz
  1  'x, y, z'
loop_
 _atom_site_type_symbol
 _atom_site_label
 _atom_site_symmetry_multiplicity
 _atom_site_fract_x
 _atom_site_fract_y
 _atom_site_fract_z
 _atom_site_occupancy
  Li  Li0  1  0.437556  0.037546  0.333556  1
  Li  Li1  1  0.743292  0.127170  0.520898  1
  Li  Li2  1  0.757390  0.628594  0.022983  1
  Li  Li3  1  0.243292  0.372830  0.979102  1
  Li  Li4  1  0.217449  0.295075  0.456901  1
  Li  Li5  1  0.937556  0.462454  0.166444  1
  Li  Li6  1  0.563599  0.963439  0.665732  1
  Li  Li7  1  0.781294  0.704238  0.540142  1
  Li  Li8  1  0.257390  0.871406  0.477017  1
  Li  Li9  1  0.717449  0.204925  0.043099  1
  Li  Li10  1  0.281294  0.795762  0.959858  1
  Li  Li11  1  0.063599  0.536561  0.834268  1
  Nd  Nd12  1  0.027929  0.982856  0.800895  1
  Nd  Nd13  1  0.527929  0.517144  0.699105  1
  Gd  Gd14  1  0.971510  0.016242  0.201379  1
  Gd  Gd15  1  0.471510  0.483758  0.298621  1
  B  B16  1  0.336564  0.214868  0.674967  1
  B  B17  1  0.328414  0.159720  0.111102  1
  B  B18  1  0.663202  0.781967  0.323009  1
  B  B19  1  0.163202  0.718033  0.176991  1
  B  B20  1  0.828414  0.340280  0.388898  1
  B  B21  1  0.671355  0.843760  0.895666  1
  B  B22  1  0.836564  0.285132  0.825033  1
  B  B23  1  0.171355  0.656240  0.604334  1
  O  O24  1  0.295311  0.066590  0.683982  1
  O  O25  1  0.561904  0.783387  0.447664  1
  O  O26  1  0.217045  0.022613  0.018461  1
  O  O27  1  0.709445  0.929156  0.312786  1
  O  O28  1  0.181402  0.692913  0.754420  1
  O  O29  1  0.795311  0.433410  0.816018  1
  O  O30  1  0.435990  0.215156  0.550440  1
  O  O31  1  0.287562  0.370519  0.786157  1
  O  O32  1  0.061904  0.716613  0.052336  1
  O  O33  1  0.935990  0.284844  0.949560  1
  O  O34  1  0.717045  0.477387  0.481539  1
  O  O35  1  0.783558  0.978324  0.991080  1
  O  O36  1  0.565086  0.739934  0.941649  1
  O  O37  1  0.209445  0.570844  0.187214  1
  O  O38  1  0.208444  0.875584  0.287056  1
  O  O39  1  0.065086  0.760066  0.558351  1
  O  O40  1  0.681402  0.807087  0.745580  1
  O  O41  1  0.432059  0.263226  0.062759  1
  O  O42  1  0.822640  0.300169  0.239194  1
  O  O43  1  0.708444  0.624416  0.212944  1
  O  O44  1  0.787562  0.129481  0.713843  1
  O  O45  1  0.283558  0.521676  0.508920  1
  O  O46  1  0.932059  0.236774  0.437241  1
  O  O47  1  0.322640  0.199831  0.260806  1
