# generated using pymatgen
data_Tb9Nd8Y3Pb16
_symmetry_space_group_name_H-M   'P 1'
_cell_length_a   8.30140007
_cell_length_b   15.89531246
_cell_length_c   8.39634200
_cell_angle_alpha   90.00244390
_cell_angle_beta   90.00728155
_cell_angle_gamma   90.02440263
_symmetry_Int_Tables_number   1
_chemical_formula_structural   Tb9Nd8Y3Pb16
_chemical_formula_sum   'Tb9 Nd8 Y3 Pb16'
_cell_volume   1107.92532648
_cell_formula_units_Z   1
loop_
 _symmetry_equiv_pos_site_id
 _symmetry_equiv_pos_as_xyz
  1  'x, y, z'
loop_
 _atom_site_type_symbol
 _atom_site_label
 _atom_site_symmetry_multiplicity
 _atom_site_fract_x
 _atom_site_fract_y
 _atom_site_fract_z
 _atom_site_occupancy
  Tb  Tb0  1  0.631676  0.621847  0.159107  1
  Tb  Tb1  1  0.131859  0.877836  0.341276  1
  Tb  Tb2  1  0.367853  0.121713  0.841043  1
  Tb  Tb3  1  0.868113  0.378014  0.658813  1
  Tb  Tb4  1  0.367877  0.378184  0.841128  1
  Tb  Tb5  1  0.868401  0.122203  0.658599  1
  Tb  Tb6  1  0.632045  0.878289  0.158776  1
  Tb  Tb7  1  0.132060  0.622077  0.341301  1
  Tb  Tb8  1  0.798441  0.749957  0.496067  1
  Nd  Nd9  1  0.473235  0.597942  0.677453  1
  Nd  Nd10  1  0.973552  0.901704  0.823024  1
  Nd  Nd11  1  0.527084  0.098083  0.322670  1
  Nd  Nd12  1  0.026424  0.401786  0.177153  1
  Nd  Nd13  1  0.526554  0.401720  0.322334  1
  Nd  Nd14  1  0.026359  0.098245  0.177248  1
  Nd  Nd15  1  0.473254  0.902040  0.677676  1
  Nd  Nd16  1  0.973415  0.598366  0.822866  1
  Y  Y17  1  0.298202  0.749915  0.004206  1
  Y  Y18  1  0.201914  0.250008  0.504260  1
  Y  Y19  1  0.701554  0.250067  0.995822  1
  Pb  Pb20  1  0.708176  0.456909  0.961741  1
  Pb  Pb21  1  0.208252  0.043481  0.537196  1
  Pb  Pb22  1  0.291355  0.956674  0.038452  1
  Pb  Pb23  1  0.792143  0.543278  0.462191  1
  Pb  Pb24  1  0.291222  0.543159  0.038218  1
  Pb  Pb25  1  0.792239  0.956603  0.462456  1
  Pb  Pb26  1  0.708561  0.043289  0.961384  1
  Pb  Pb27  1  0.208142  0.456489  0.537295  1
  Pb  Pb28  1  0.436475  0.750167  0.371962  1
  Pb  Pb29  1  0.936524  0.749904  0.127208  1
  Pb  Pb30  1  0.563557  0.250051  0.627794  1
  Pb  Pb31  1  0.063458  0.250203  0.872935  1
  Pb  Pb32  1  0.661315  0.749972  0.849949  1
  Pb  Pb33  1  0.162581  0.750040  0.650580  1
  Pb  Pb34  1  0.338233  0.249717  0.150519  1
  Pb  Pb35  1  0.837893  0.250071  0.349296  1
