# generated using pymatgen
data_ScMnCo4As3
_symmetry_space_group_name_H-M   'P 1'
_cell_length_a   3.70607300
_cell_length_b   10.65072500
_cell_length_c   12.20038600
_cell_angle_alpha   90.00000000
_cell_angle_beta   90.00000000
_cell_angle_gamma   90.00000000
_symmetry_Int_Tables_number   1
_chemical_formula_structural   ScMnCo4As3
_chemical_formula_sum   'Sc4 Mn4 Co16 As12'
_cell_volume   481.57808144
_cell_formula_units_Z   4
loop_
 _symmetry_equiv_pos_site_id
 _symmetry_equiv_pos_as_xyz
  1  'x, y, z'
loop_
 _atom_site_type_symbol
 _atom_site_label
 _atom_site_symmetry_multiplicity
 _atom_site_fract_x
 _atom_site_fract_y
 _atom_site_fract_z
 _atom_site_occupancy
  Sc  Sc0  1  0.250000  0.577301  0.704812  1
  Sc  Sc1  1  0.250000  0.922699  0.204812  1
  Sc  Sc2  1  0.750000  0.422699  0.295188  1
  Sc  Sc3  1  0.750000  0.077301  0.795188  1
  Mn  Mn4  1  0.250000  0.704311  0.990139  1
  Mn  Mn5  1  0.250000  0.795689  0.490139  1
  Mn  Mn6  1  0.750000  0.295689  0.009861  1
  Mn  Mn7  1  0.750000  0.204311  0.509861  1
  Co  Co8  1  0.250000  0.406318  0.485513  1
  Co  Co9  1  0.250000  0.093682  0.985513  1
  Co  Co10  1  0.750000  0.593682  0.514487  1
  Co  Co11  1  0.750000  0.906318  0.014487  1
  Co  Co12  1  0.250000  0.216984  0.175542  1
  Co  Co13  1  0.250000  0.283017  0.675542  1
  Co  Co14  1  0.750000  0.783017  0.824458  1
  Co  Co15  1  0.750000  0.716983  0.324458  1
  Co  Co16  1  0.250000  0.882849  0.698909  1
  Co  Co17  1  0.250000  0.617151  0.198909  1
  Co  Co18  1  0.750000  0.117151  0.301091  1
  Co  Co19  1  0.750000  0.382849  0.801091  1
  Co  Co20  1  0.250000  0.463336  0.932330  1
  Co  Co21  1  0.250000  0.036664  0.432330  1
  Co  Co22  1  0.750000  0.536664  0.067670  1
  Co  Co23  1  0.750000  0.963336  0.567670  1
  As  As24  1  0.250000  0.418759  0.118851  1
  As  As25  1  0.250000  0.081241  0.618851  1
  As  As26  1  0.750000  0.581241  0.881149  1
  As  As27  1  0.750000  0.918759  0.381149  1
  As  As28  1  0.250000  0.261752  0.864183  1
  As  As29  1  0.250000  0.238248  0.364183  1
  As  As30  1  0.750000  0.738248  0.135817  1
  As  As31  1  0.750000  0.761752  0.635817  1
  As  As32  1  0.250000  0.593932  0.388803  1
  As  As33  1  0.250000  0.906068  0.888803  1
  As  As34  1  0.750000  0.406068  0.611197  1
  As  As35  1  0.750000  0.093932  0.111197  1
