# generated using pymatgen
data_Tb2Y14Cd4Ir3Pt
_symmetry_space_group_name_H-M   'P 1'
_cell_length_a   9.67800509
_cell_length_b   9.67800545
_cell_length_c   9.68333171
_cell_angle_alpha   60.17260748
_cell_angle_beta   60.17260400
_cell_angle_gamma   60.15128633
_symmetry_Int_Tables_number   1
_chemical_formula_structural   Tb2Y14Cd4Ir3Pt
_chemical_formula_sum   'Tb2 Y14 Cd4 Ir3 Pt1'
_cell_volume   643.73381504
_cell_formula_units_Z   1
loop_
 _symmetry_equiv_pos_site_id
 _symmetry_equiv_pos_as_xyz
  1  'x, y, z'
loop_
 _atom_site_type_symbol
 _atom_site_label
 _atom_site_symmetry_multiplicity
 _atom_site_fract_x
 _atom_site_fract_y
 _atom_site_fract_z
 _atom_site_occupancy
  Tb  Tb0  1  0.347651  0.347651  0.347944  1
  Tb  Tb1  1  0.352148  0.352148  0.949453  1
  Y  Y2  1  0.352585  0.948178  0.352635  1
  Y  Y3  1  0.948178  0.352585  0.352635  1
  Y  Y4  1  0.805671  0.190721  0.190839  1
  Y  Y5  1  0.188214  0.810309  0.810196  1
  Y  Y6  1  0.190721  0.805671  0.190839  1
  Y  Y7  1  0.810309  0.188214  0.810196  1
  Y  Y8  1  0.190757  0.190757  0.805730  1
  Y  Y9  1  0.810217  0.810217  0.188308  1
  Y  Y10  1  0.938667  0.562701  0.562803  1
  Y  Y11  1  0.563852  0.937754  0.937241  1
  Y  Y12  1  0.562701  0.938667  0.562803  1
  Y  Y13  1  0.937754  0.563852  0.937241  1
  Y  Y14  1  0.562642  0.562642  0.938501  1
  Y  Y15  1  0.937439  0.937439  0.563968  1
  Cd  Cd16  1  0.580835  0.580835  0.580466  1
  Cd  Cd17  1  0.580863  0.580863  0.256645  1
  Cd  Cd18  1  0.580953  0.256702  0.580593  1
  Cd  Cd19  1  0.256702  0.580953  0.580593  1
  Ir  Ir20  1  0.142010  0.142010  0.574398  1
  Ir  Ir21  1  0.142368  0.573940  0.141698  1
  Ir  Ir22  1  0.573940  0.142368  0.141698  1
  Pt  Pt23  1  0.142823  0.142823  0.142576  1
