# generated using pymatgen
data_Ba4SrU3O12
_symmetry_space_group_name_H-M   'P 1'
_cell_length_a   6.28424432
_cell_length_b   6.30877083
_cell_length_c   8.87470299
_cell_angle_alpha   90.40774817
_cell_angle_beta   89.97923117
_cell_angle_gamma   89.91876379
_symmetry_Int_Tables_number   1
_chemical_formula_structural   Ba4SrU3O12
_chemical_formula_sum   'Ba4 Sr1 U3 O12'
_cell_volume   351.83592023
_cell_formula_units_Z   1
loop_
 _symmetry_equiv_pos_site_id
 _symmetry_equiv_pos_as_xyz
  1  'x, y, z'
loop_
 _atom_site_type_symbol
 _atom_site_label
 _atom_site_symmetry_multiplicity
 _atom_site_fract_x
 _atom_site_fract_y
 _atom_site_fract_z
 _atom_site_occupancy
  Ba  Ba0  1  0.018076  0.992298  0.752249  1
  Ba  Ba1  1  0.479340  0.486652  0.248894  1
  Ba  Ba2  1  0.520660  0.513348  0.751106  1
  Ba  Ba3  1  0.981925  0.007702  0.247751  1
  Sr  Sr4  1  0.000000  0.500000  0.000000  1
  U  U5  1  0.000000  0.500000  0.500000  1
  U  U6  1  0.500000  0.000000  0.500000  1
  U  U7  1  0.500000  0.000000  0.000000  1
  O  O8  1  0.244509  0.204317  0.046761  1
  O  O9  1  0.513027  0.919479  0.257824  1
  O  O10  1  0.730953  0.265384  0.455206  1
  O  O11  1  0.707716  0.251493  0.046032  1
  O  O12  1  0.765683  0.768473  0.543136  1
  O  O13  1  0.015543  0.579963  0.274055  1
  O  O14  1  0.234317  0.231527  0.456864  1
  O  O15  1  0.292284  0.748507  0.953968  1
  O  O16  1  0.269047  0.734616  0.544794  1
  O  O17  1  0.486973  0.080521  0.742176  1
  O  O18  1  0.755491  0.795683  0.953239  1
  O  O19  1  0.984457  0.420037  0.725945  1
