# generated using pymatgen
data_Ce2Al20TcIr2Ru
_symmetry_space_group_name_H-M   'P 1'
_cell_length_a   6.87974980
_cell_length_b   6.87288985
_cell_length_c   9.18381895
_cell_angle_alpha   90.32542461
_cell_angle_beta   90.19010295
_cell_angle_gamma   97.23887881
_symmetry_Int_Tables_number   1
_chemical_formula_structural   Ce2Al20TcIr2Ru
_chemical_formula_sum   'Ce2 Al20 Tc1 Ir2 Ru1'
_cell_volume   430.77381919
_cell_formula_units_Z   1
loop_
 _symmetry_equiv_pos_site_id
 _symmetry_equiv_pos_as_xyz
  1  'x, y, z'
loop_
 _atom_site_type_symbol
 _atom_site_label
 _atom_site_symmetry_multiplicity
 _atom_site_fract_x
 _atom_site_fract_y
 _atom_site_fract_z
 _atom_site_occupancy
  Ce  Ce0  1  0.878706  0.127258  0.750970  1
  Ce  Ce1  1  0.121294  0.872742  0.249030  1
  Al  Al2  1  0.590258  0.858717  0.250931  1
  Al  Al3  1  0.776605  0.518212  0.246971  1
  Al  Al4  1  0.157403  0.840888  0.897422  1
  Al  Al5  1  0.409742  0.141283  0.749069  1
  Al  Al6  1  0.624002  0.378981  0.949619  1
  Al  Al7  1  0.839906  0.156534  0.397514  1
  Al  Al8  1  0.777797  0.777050  0.001271  1
  Al  Al9  1  0.858783  0.591557  0.750590  1
  Al  Al10  1  0.842597  0.159112  0.102578  1
  Al  Al11  1  0.223395  0.481788  0.753029  1
  Al  Al12  1  0.160094  0.843466  0.602486  1
  Al  Al13  1  0.776583  0.778376  0.500754  1
  Al  Al14  1  0.480393  0.222081  0.253210  1
  Al  Al15  1  0.621304  0.376360  0.551130  1
  Al  Al16  1  0.223417  0.221624  0.499246  1
  Al  Al17  1  0.378696  0.623640  0.448870  1
  Al  Al18  1  0.141217  0.408443  0.249410  1
  Al  Al19  1  0.519607  0.777919  0.746790  1
  Al  Al20  1  0.375998  0.621019  0.050381  1
  Al  Al21  1  0.222203  0.222950  0.998729  1
  Tc  Tc22  1  0.000000  0.500000  0.000000  1
  Ir  Ir23  1  0.500000  0.000000  0.000000  1
  Ir  Ir24  1  0.000000  0.500000  0.500000  1
  Ru  Ru25  1  0.500000  0.000000  0.500000  1
