# generated using pymatgen
data_Y4Zn3Ga5Ag4
_symmetry_space_group_name_H-M   'P 1'
_cell_length_a   4.32422700
_cell_length_b   6.97734800
_cell_length_c   10.36256334
_cell_angle_alpha   89.98343152
_cell_angle_beta   90.00000000
_cell_angle_gamma   90.00000000
_symmetry_Int_Tables_number   1
_chemical_formula_structural   Y4Zn3Ga5Ag4
_chemical_formula_sum   'Y4 Zn3 Ga5 Ag4'
_cell_volume   312.65548254
_cell_formula_units_Z   1
loop_
 _symmetry_equiv_pos_site_id
 _symmetry_equiv_pos_as_xyz
  1  'x, y, z'
loop_
 _atom_site_type_symbol
 _atom_site_label
 _atom_site_symmetry_multiplicity
 _atom_site_fract_x
 _atom_site_fract_y
 _atom_site_fract_z
 _atom_site_occupancy
  Y  Y0  1  0.250000  0.781013  0.828352  1
  Y  Y1  1  0.750000  0.215975  0.170391  1
  Y  Y2  1  0.750000  0.720498  0.328009  1
  Y  Y3  1  0.250000  0.281800  0.673304  1
  Zn  Zn4  1  0.250000  0.922657  0.148396  1
  Zn  Zn5  1  0.750000  0.077313  0.850688  1
  Zn  Zn6  1  0.750000  0.578559  0.651057  1
  Ga  Ga7  1  0.250000  0.423847  0.347530  1
  Ga  Ga8  1  0.250000  0.703404  0.538386  1
  Ga  Ga9  1  0.750000  0.296627  0.466497  1
  Ga  Ga10  1  0.750000  0.797589  0.037489  1
  Ga  Ga11  1  0.250000  0.200895  0.962958  1
  Ag  Ag12  1  0.250000  0.541241  0.098282  1
  Ag  Ag13  1  0.750000  0.458992  0.899807  1
  Ag  Ag14  1  0.750000  0.958785  0.600261  1
  Ag  Ag15  1  0.250000  0.040809  0.398593  1
