# generated using pymatgen
data_Ho5Co11(P3Ru2)4
_symmetry_space_group_name_H-M   'P 1'
_cell_length_a   12.21977218
_cell_length_b   12.24210479
_cell_length_c   3.73517300
_cell_angle_alpha   90.00000000
_cell_angle_beta   90.00000000
_cell_angle_gamma   119.92011234
_symmetry_Int_Tables_number   1
_chemical_formula_structural   Ho5Co11(P3Ru2)4
_chemical_formula_sum   'Ho5 Co11 P12 Ru8'
_cell_volume   484.29457040
_cell_formula_units_Z   1
loop_
 _symmetry_equiv_pos_site_id
 _symmetry_equiv_pos_as_xyz
  1  'x, y, z'
loop_
 _atom_site_type_symbol
 _atom_site_label
 _atom_site_symmetry_multiplicity
 _atom_site_fract_x
 _atom_site_fract_y
 _atom_site_fract_z
 _atom_site_occupancy
  Ho  Ho0  1  0.667152  0.333258  0.000000  1
  Ho  Ho1  1  0.328668  0.663021  0.000000  1
  Ho  Ho2  1  0.819226  0.818965  0.500000  1
  Ho  Ho3  1  0.180270  0.000270  0.500000  1
  Ho  Ho4  1  0.000086  0.181427  0.500000  1
  Co  Co5  1  0.128424  0.481576  0.500000  1
  Co  Co6  1  0.803858  0.172617  0.000000  1
  Co  Co7  1  0.829232  0.630266  0.000000  1
  Co  Co8  1  0.367956  0.197186  0.000000  1
  Co  Co9  1  0.172250  0.802782  0.000000  1
  Co  Co10  1  0.630954  0.827514  0.000000  1
  Co  Co11  1  0.194588  0.372433  0.000000  1
  Co  Co12  1  0.279300  0.281928  0.500000  1
  Co  Co13  1  0.719229  0.999899  0.500000  1
  Co  Co14  1  0.000943  0.718361  0.500000  1
  Co  Co15  1  0.000223  0.999605  0.000000  1
  P  P16  1  0.686479  0.161907  0.500000  1
  P  P17  1  0.840830  0.524058  0.500000  1
  P  P18  1  0.475210  0.316195  0.500000  1
  P  P19  1  0.159625  0.680357  0.500000  1
  P  P20  1  0.523630  0.839400  0.500000  1
  P  P21  1  0.309537  0.475809  0.500000  1
  P  P22  1  0.177006  0.178820  0.000000  1
  P  P23  1  0.822300  0.999820  0.000000  1
  P  P24  1  0.000278  0.821691  0.000000  1
  P  P25  1  0.637156  0.637868  0.000000  1
  P  P26  1  0.361431  0.999626  0.000000  1
  P  P27  1  0.004184  0.363178  0.000000  1
  Ru  Ru28  1  0.877409  0.354568  0.500000  1
  Ru  Ru29  1  0.648108  0.519617  0.500000  1
  Ru  Ru30  1  0.481197  0.129104  0.500000  1
  Ru  Ru31  1  0.351360  0.869970  0.500000  1
  Ru  Ru32  1  0.515645  0.646388  0.500000  1
  Ru  Ru33  1  0.444234  0.445139  0.000000  1
  Ru  Ru34  1  0.554920  0.999870  0.000000  1
  Ru  Ru35  1  0.007101  0.555509  0.000000  1
