# generated using pymatgen
data_MgCu4(AuO4)2
_symmetry_space_group_name_H-M   'P 1'
_cell_length_a   6.58061337
_cell_length_b   6.58160033
_cell_length_c   6.74318966
_cell_angle_alpha   59.25935277
_cell_angle_beta   59.25280329
_cell_angle_gamma   61.53113287
_symmetry_Int_Tables_number   1
_chemical_formula_structural   MgCu4(AuO4)2
_chemical_formula_sum   'Mg1 Cu4 Au2 O8'
_cell_volume   206.36052565
_cell_formula_units_Z   1
loop_
 _symmetry_equiv_pos_site_id
 _symmetry_equiv_pos_as_xyz
  1  'x, y, z'
loop_
 _atom_site_type_symbol
 _atom_site_label
 _atom_site_symmetry_multiplicity
 _atom_site_fract_x
 _atom_site_fract_y
 _atom_site_fract_z
 _atom_site_occupancy
  Mg  Mg0  1  0.000000  0.000000  0.000000  1
  Cu  Cu1  1  0.500000  0.000000  0.000000  1
  Cu  Cu2  1  0.000000  0.500000  0.000000  1
  Cu  Cu3  1  0.500000  0.000000  0.500000  1
  Cu  Cu4  1  0.000000  0.500000  0.500000  1
  Au  Au5  1  0.500000  0.500000  0.000000  1
  Au  Au6  1  0.000000  0.000000  0.500000  1
  O  O7  1  0.853096  0.853095  0.417492  1
  O  O8  1  0.146628  0.146703  0.124003  1
  O  O9  1  0.581928  0.123692  0.147441  1
  O  O10  1  0.876382  0.418045  0.852566  1
  O  O11  1  0.418072  0.876308  0.852559  1
  O  O12  1  0.123618  0.581955  0.147434  1
  O  O13  1  0.853372  0.853297  0.875997  1
  O  O14  1  0.146904  0.146905  0.582508  1
