# generated using pymatgen
data_BaLiPrSi2O7
_symmetry_space_group_name_H-M   'P 1'
_cell_length_a   9.15623600
_cell_length_b   10.55033300
_cell_length_c   14.57939200
_cell_angle_alpha   90.00000000
_cell_angle_beta   90.00000000
_cell_angle_gamma   90.00000000
_symmetry_Int_Tables_number   1
_chemical_formula_structural   BaLiPrSi2O7
_chemical_formula_sum   'Ba8 Li8 Pr8 Si16 O56'
_cell_volume   1408.38878648
_cell_formula_units_Z   8
loop_
 _symmetry_equiv_pos_site_id
 _symmetry_equiv_pos_as_xyz
  1  'x, y, z'
loop_
 _atom_site_type_symbol
 _atom_site_label
 _atom_site_symmetry_multiplicity
 _atom_site_fract_x
 _atom_site_fract_y
 _atom_site_fract_z
 _atom_site_occupancy
  Ba  Ba0  1  0.075069  0.834476  0.398264  1
  Ba  Ba1  1  0.575069  0.665524  0.398264  1
  Ba  Ba2  1  0.924931  0.665524  0.898264  1
  Ba  Ba3  1  0.424931  0.834476  0.898264  1
  Ba  Ba4  1  0.424931  0.334476  0.601736  1
  Ba  Ba5  1  0.924931  0.165524  0.601736  1
  Ba  Ba6  1  0.075069  0.334476  0.101736  1
  Ba  Ba7  1  0.575069  0.165524  0.101736  1
  Li  Li8  1  0.558132  0.587291  0.728416  1
  Li  Li9  1  0.441868  0.412709  0.271584  1
  Li  Li10  1  0.941868  0.587291  0.228416  1
  Li  Li11  1  0.441868  0.912709  0.228416  1
  Li  Li12  1  0.558132  0.087291  0.771584  1
  Li  Li13  1  0.058132  0.912709  0.728416  1
  Li  Li14  1  0.058132  0.412709  0.771584  1
  Li  Li15  1  0.941868  0.087291  0.271584  1
  Pr  Pr16  1  0.888575  0.075989  0.894464  1
  Pr  Pr17  1  0.111425  0.924011  0.105536  1
  Pr  Pr18  1  0.888575  0.575989  0.605536  1
  Pr  Pr19  1  0.611425  0.075989  0.394464  1
  Pr  Pr20  1  0.611425  0.575989  0.105536  1
  Pr  Pr21  1  0.388575  0.924011  0.605536  1
  Pr  Pr22  1  0.388575  0.424011  0.894464  1
  Pr  Pr23  1  0.111425  0.424011  0.394464  1
  Si  Si24  1  0.275386  0.117712  0.979808  1
  Si  Si25  1  0.724614  0.382288  0.479808  1
  Si  Si26  1  0.755357  0.847105  0.224176  1
  Si  Si27  1  0.224614  0.117712  0.479808  1
  Si  Si28  1  0.224614  0.617712  0.020192  1
  Si  Si29  1  0.775386  0.382288  0.979808  1
  Si  Si30  1  0.255357  0.652895  0.224176  1
  Si  Si31  1  0.244643  0.152895  0.775824  1
  Si  Si32  1  0.724614  0.882288  0.020192  1
  Si  Si33  1  0.744643  0.347105  0.775824  1
  Si  Si34  1  0.275386  0.617712  0.520192  1
  Si  Si35  1  0.755357  0.347105  0.275824  1
  Si  Si36  1  0.244643  0.652895  0.724176  1
  Si  Si37  1  0.255357  0.152895  0.275824  1
  Si  Si38  1  0.744643  0.847105  0.724176  1
  Si  Si39  1  0.775386  0.882288  0.520192  1
  O  O40  1  0.098198  0.603159  0.511655  1
  O  O41  1  0.233596  0.308103  0.785551  1
  O  O42  1  0.582667  0.911822  0.734502  1
  O  O43  1  0.155615  0.004019  0.542335  1
  O  O44  1  0.866925  0.384828  0.698028  1
  O  O45  1  0.733596  0.691897  0.714449  1
  O  O46  1  0.672122  0.406309  0.370814  1
  O  O47  1  0.329847  0.758431  0.489779  1
  O  O48  1  0.366925  0.615172  0.801972  1
  O  O49  1  0.917333  0.911822  0.234502  1
  O  O50  1  0.582667  0.411822  0.765498  1
  O  O51  1  0.401802  0.103159  0.488345  1
  O  O52  1  0.344385  0.504019  0.457665  1
  O  O53  1  0.401802  0.603159  0.011655  1
  O  O54  1  0.329847  0.258431  0.010221  1
  O  O55  1  0.672122  0.906309  0.129186  1
  O  O56  1  0.133075  0.615172  0.301972  1
  O  O57  1  0.829847  0.241569  0.010221  1
  O  O58  1  0.155615  0.504019  0.957665  1
  O  O59  1  0.866925  0.884828  0.801972  1
  O  O60  1  0.266404  0.808103  0.214449  1
  O  O61  1  0.233596  0.808103  0.714449  1
  O  O62  1  0.655615  0.495981  0.542335  1
  O  O63  1  0.133075  0.115172  0.198028  1
  O  O64  1  0.844385  0.495981  0.042335  1
  O  O65  1  0.633075  0.884828  0.301972  1
  O  O66  1  0.827878  0.406309  0.870814  1
  O  O67  1  0.766404  0.691897  0.214449  1
  O  O68  1  0.901802  0.896841  0.011655  1
  O  O69  1  0.172122  0.093691  0.370814  1
  O  O70  1  0.098198  0.103159  0.988345  1
  O  O71  1  0.170153  0.258431  0.510221  1
  O  O72  1  0.598198  0.396841  0.988345  1
  O  O73  1  0.327878  0.093691  0.870814  1
  O  O74  1  0.082667  0.588178  0.734502  1
  O  O75  1  0.733596  0.191897  0.785551  1
  O  O76  1  0.766404  0.191897  0.285551  1
  O  O77  1  0.170153  0.758431  0.989779  1
  O  O78  1  0.655615  0.995981  0.957665  1
  O  O79  1  0.327878  0.593691  0.629186  1
  O  O80  1  0.082667  0.088178  0.765498  1
  O  O81  1  0.266404  0.308103  0.285551  1
  O  O82  1  0.633075  0.384828  0.198028  1
  O  O83  1  0.670153  0.741569  0.989779  1
  O  O84  1  0.366925  0.115172  0.698028  1
  O  O85  1  0.670153  0.241569  0.510221  1
  O  O86  1  0.344385  0.004019  0.042335  1
  O  O87  1  0.901802  0.396841  0.488345  1
  O  O88  1  0.917333  0.411822  0.265498  1
  O  O89  1  0.417333  0.588178  0.234502  1
  O  O90  1  0.172122  0.593691  0.129186  1
  O  O91  1  0.598198  0.896841  0.511655  1
  O  O92  1  0.827878  0.906309  0.629186  1
  O  O93  1  0.844385  0.995981  0.457665  1
  O  O94  1  0.417333  0.088178  0.265498  1
  O  O95  1  0.829847  0.741569  0.489779  1
