# generated using pymatgen
data_Y3Tl2InCu2Ir
_symmetry_space_group_name_H-M   'P 1'
_cell_length_a   7.69481804
_cell_length_b   7.66244006
_cell_length_c   3.88086700
_cell_angle_alpha   90.00000000
_cell_angle_beta   90.00000000
_cell_angle_gamma   120.19755370
_symmetry_Int_Tables_number   1
_chemical_formula_structural   Y3Tl2InCu2Ir
_chemical_formula_sum   'Y3 Tl2 In1 Cu2 Ir1'
_cell_volume   197.76837594
_cell_formula_units_Z   1
loop_
 _symmetry_equiv_pos_site_id
 _symmetry_equiv_pos_as_xyz
  1  'x, y, z'
loop_
 _atom_site_type_symbol
 _atom_site_label
 _atom_site_symmetry_multiplicity
 _atom_site_fract_x
 _atom_site_fract_y
 _atom_site_fract_z
 _atom_site_occupancy
  Y  Y0  1  0.396094  0.977248  0.500000  1
  Y  Y1  1  0.022315  0.417754  0.500000  1
  Y  Y2  1  0.582892  0.603233  0.500000  1
  Tl  Tl3  1  0.749175  0.015816  0.000000  1
  Tl  Tl4  1  0.987496  0.735634  0.000000  1
  In  In5  1  0.262426  0.251337  0.000000  1
  Cu  Cu6  1  0.659035  0.331957  0.000000  1
  Cu  Cu7  1  0.007323  0.007182  0.500000  1
  Ir  Ir8  1  0.333244  0.659838  0.000000  1
