# generated using pymatgen
data_Ta5Cr6Si6W
_symmetry_space_group_name_H-M   'P 1'
_cell_length_a   7.37336940
_cell_length_b   7.40936543
_cell_length_c   7.37336796
_cell_angle_alpha   127.00959748
_cell_angle_beta   126.77429767
_cell_angle_gamma   78.31312574
_symmetry_Int_Tables_number   1
_chemical_formula_structural   Ta5Cr6Si6W
_chemical_formula_sum   'Ta5 Cr6 Si6 W1'
_cell_volume   249.69107807
_cell_formula_units_Z   1
loop_
 _symmetry_equiv_pos_site_id
 _symmetry_equiv_pos_as_xyz
  1  'x, y, z'
loop_
 _atom_site_type_symbol
 _atom_site_label
 _atom_site_symmetry_multiplicity
 _atom_site_fract_x
 _atom_site_fract_y
 _atom_site_fract_z
 _atom_site_occupancy
  Ta  Ta0  1  0.450750  0.497797  0.547048  1
  Ta  Ta1  1  0.953576  0.496923  0.043346  1
  Ta  Ta2  1  0.047492  0.091163  0.543670  1
  Ta  Ta3  1  0.751882  0.902176  0.650296  1
  Ta  Ta4  1  0.249272  0.901131  0.151859  1
  Cr  Cr5  1  0.130911  0.750875  0.627675  1
  Cr  Cr6  1  0.868761  0.495673  0.619751  1
  Cr  Cr7  1  0.623202  0.750875  0.119966  1
  Cr  Cr8  1  0.375922  0.495673  0.126913  1
  Cr  Cr9  1  0.500465  0.241505  0.743452  1
  Cr  Cr10  1  0.998052  0.241505  0.241039  1
  Si  Si11  1  0.336156  0.831412  0.501565  1
  Si  Si12  1  0.664515  0.162992  0.492204  1
  Si  Si13  1  0.829848  0.831412  0.995257  1
  Si  Si14  1  0.170790  0.162992  0.998478  1
  Si  Si15  1  0.750679  0.496549  0.245871  1
  Si  Si16  1  0.247903  0.494817  0.746913  1
  W  W17  1  0.549826  0.096526  0.046702  1
