# generated using pymatgen
data_Er20Ir10RuRh
_symmetry_space_group_name_H-M   'P 1'
_cell_length_a   10.77009600
_cell_length_b   10.77009600
_cell_length_c   6.36049400
_cell_angle_alpha   90.00000000
_cell_angle_beta   90.00000000
_cell_angle_gamma   90.00000000
_symmetry_Int_Tables_number   1
_chemical_formula_structural   Er20Ir10RuRh
_chemical_formula_sum   'Er20 Ir10 Ru1 Rh1'
_cell_volume   737.78529704
_cell_formula_units_Z   1
loop_
 _symmetry_equiv_pos_site_id
 _symmetry_equiv_pos_as_xyz
  1  'x, y, z'
loop_
 _atom_site_type_symbol
 _atom_site_label
 _atom_site_symmetry_multiplicity
 _atom_site_fract_x
 _atom_site_fract_y
 _atom_site_fract_z
 _atom_site_occupancy
  Er  Er0  1  0.292317  0.086959  0.376312  1
  Er  Er1  1  0.292656  0.912879  0.879178  1
  Er  Er2  1  0.707344  0.087121  0.879178  1
  Er  Er3  1  0.707683  0.913041  0.376312  1
  Er  Er4  1  0.587121  0.792656  0.879178  1
  Er  Er5  1  0.586959  0.207683  0.376312  1
  Er  Er6  1  0.413041  0.792317  0.376312  1
  Er  Er7  1  0.412879  0.207344  0.879178  1
  Er  Er8  1  0.209312  0.411838  0.621689  1
  Er  Er9  1  0.209396  0.588080  0.122551  1
  Er  Er10  1  0.790604  0.411920  0.122551  1
  Er  Er11  1  0.790688  0.588162  0.621689  1
  Er  Er12  1  0.911920  0.709396  0.122551  1
  Er  Er13  1  0.911838  0.290688  0.621689  1
  Er  Er14  1  0.088162  0.709312  0.621689  1
  Er  Er15  1  0.088080  0.290604  0.122551  1
  Er  Er16  1  0.000000  0.000000  0.499192  1
  Er  Er17  1  0.000000  0.000000  0.999141  1
  Er  Er18  1  0.500000  0.500000  0.999141  1
  Er  Er19  1  0.500000  0.500000  0.499192  1
  Ir  Ir20  1  0.847132  0.153976  0.250075  1
  Ir  Ir21  1  0.847197  0.846296  0.749984  1
  Ir  Ir22  1  0.152803  0.153704  0.749984  1
  Ir  Ir23  1  0.152868  0.846024  0.250075  1
  Ir  Ir24  1  0.653704  0.347197  0.749984  1
  Ir  Ir25  1  0.653976  0.652868  0.250075  1
  Ir  Ir26  1  0.346024  0.347132  0.250075  1
  Ir  Ir27  1  0.346296  0.652803  0.749984  1
  Ir  Ir28  1  0.500000  0.000000  0.623255  1
  Ir  Ir29  1  0.000000  0.500000  0.378295  1
  Ru  Ru30  1  0.500000  0.000000  0.124087  1
  Rh  Rh31  1  0.000000  0.500000  0.878540  1
