# generated using pymatgen
data_HoTm6Lu(Si4Mo3)4
_symmetry_space_group_name_H-M   'P 1'
_cell_length_a   6.72069702
_cell_length_b   6.91777769
_cell_length_c   12.86856222
_cell_angle_alpha   89.96710593
_cell_angle_beta   90.00178267
_cell_angle_gamma   89.98342207
_symmetry_Int_Tables_number   1
_chemical_formula_structural   HoTm6Lu(Si4Mo3)4
_chemical_formula_sum   'Ho1 Tm6 Lu1 Si16 Mo12'
_cell_volume   598.28877595
_cell_formula_units_Z   1
loop_
 _symmetry_equiv_pos_site_id
 _symmetry_equiv_pos_as_xyz
  1  'x, y, z'
loop_
 _atom_site_type_symbol
 _atom_site_label
 _atom_site_symmetry_multiplicity
 _atom_site_fract_x
 _atom_site_fract_y
 _atom_site_fract_z
 _atom_site_occupancy
  Ho  Ho0  1  0.497234  0.332196  0.093583  1
  Tm  Tm1  1  0.996973  0.167940  0.406334  1
  Tm  Tm2  1  0.503023  0.667956  0.593722  1
  Tm  Tm3  1  0.002994  0.832129  0.906397  1
  Tm  Tm4  1  0.503025  0.668067  0.906271  1
  Tm  Tm5  1  0.003049  0.832081  0.593726  1
  Tm  Tm6  1  0.496951  0.332023  0.406157  1
  Lu  Lu7  1  0.996603  0.168176  0.093826  1
  Si  Si8  1  0.660275  0.040481  0.546935  1
  Si  Si9  1  0.159932  0.459316  0.953102  1
  Si  Si10  1  0.338828  0.959379  0.046974  1
  Si  Si11  1  0.839720  0.540524  0.453077  1
  Si  Si12  1  0.339741  0.959536  0.453007  1
  Si  Si13  1  0.840544  0.540243  0.046923  1
  Si  Si14  1  0.660596  0.040294  0.953092  1
  Si  Si15  1  0.160274  0.459499  0.546902  1
  Si  Si16  1  0.534264  0.368306  0.750078  1
  Si  Si17  1  0.034246  0.131598  0.749998  1
  Si  Si18  1  0.465771  0.632030  0.250119  1
  Si  Si19  1  0.965846  0.868755  0.249819  1
  Si  Si20  1  0.801824  0.631637  0.750061  1
  Si  Si21  1  0.301708  0.868286  0.750002  1
  Si  Si22  1  0.197449  0.367988  0.249926  1
  Si  Si23  1  0.699019  0.131383  0.250031  1
  Mo  Mo24  1  0.829950  0.334510  0.624845  1
  Mo  Mo25  1  0.329746  0.165261  0.875095  1
  Mo  Mo26  1  0.169690  0.665786  0.124925  1
  Mo  Mo27  1  0.670044  0.834552  0.375083  1
  Mo  Mo28  1  0.169971  0.665461  0.375157  1
  Mo  Mo29  1  0.670362  0.834783  0.124685  1
  Mo  Mo30  1  0.830242  0.334287  0.875295  1
  Mo  Mo31  1  0.330030  0.165473  0.624813  1
  Mo  Mo32  1  0.666219  0.997326  0.750049  1
  Mo  Mo33  1  0.166229  0.502610  0.750019  1
  Mo  Mo34  1  0.333497  0.002732  0.249954  1
  Mo  Mo35  1  0.834134  0.497399  0.250015  1
