# generated using pymatgen
data_Ce5Sc3(P3Ir4)4
_symmetry_space_group_name_H-M   'P 1'
_cell_length_a   12.90211200
_cell_length_b   12.90211271
_cell_length_c   3.98753200
_cell_angle_alpha   90.00000000
_cell_angle_beta   90.00000000
_cell_angle_gamma   120.00000330
_symmetry_Int_Tables_number   1
_chemical_formula_structural   Ce5Sc3(P3Ir4)4
_chemical_formula_sum   'Ce5 Sc3 P12 Ir16'
_cell_volume   574.85251756
_cell_formula_units_Z   1
loop_
 _symmetry_equiv_pos_site_id
 _symmetry_equiv_pos_as_xyz
  1  'x, y, z'
loop_
 _atom_site_type_symbol
 _atom_site_label
 _atom_site_symmetry_multiplicity
 _atom_site_fract_x
 _atom_site_fract_y
 _atom_site_fract_z
 _atom_site_occupancy
  Ce  Ce0  1  0.333333  0.666667  0.500000  1
  Ce  Ce1  1  0.666667  0.333333  0.500000  1
  Ce  Ce2  1  0.000000  0.814831  0.000000  1
  Ce  Ce3  1  0.185169  0.185169  0.000000  1
  Ce  Ce4  1  0.814831  0.000000  0.000000  1
  Sc  Sc5  1  0.000000  0.443277  0.500000  1
  Sc  Sc6  1  0.556723  0.556723  0.500000  1
  Sc  Sc7  1  0.443277  0.000000  0.500000  1
  P  P8  1  0.000000  0.643140  0.500000  1
  P  P9  1  0.356860  0.356860  0.500000  1
  P  P10  1  0.643140  0.000000  0.500000  1
  P  P11  1  0.518727  0.685517  0.000000  1
  P  P12  1  0.314483  0.833210  0.000000  1
  P  P13  1  0.166790  0.481273  0.000000  1
  P  P14  1  0.481273  0.166790  0.000000  1
  P  P15  1  0.685517  0.518727  0.000000  1
  P  P16  1  0.833210  0.314483  0.000000  1
  P  P17  1  0.000000  0.177845  0.500000  1
  P  P18  1  0.822155  0.822155  0.500000  1
  P  P19  1  0.177845  0.000000  0.500000  1
  Ir  Ir20  1  0.510960  0.867278  0.000000  1
  Ir  Ir21  1  0.132722  0.643683  0.000000  1
  Ir  Ir22  1  0.356317  0.489040  0.000000  1
  Ir  Ir23  1  0.489040  0.356317  0.000000  1
  Ir  Ir24  1  0.867278  0.510960  0.000000  1
  Ir  Ir25  1  0.643683  0.132722  0.000000  1
  Ir  Ir26  1  0.000000  0.280381  0.000000  1
  Ir  Ir27  1  0.719619  0.719619  0.000000  1
  Ir  Ir28  1  0.280381  0.000000  0.000000  1
  Ir  Ir29  1  0.627109  0.806260  0.500000  1
  Ir  Ir30  1  0.193740  0.820849  0.500000  1
  Ir  Ir31  1  0.179151  0.372891  0.500000  1
  Ir  Ir32  1  0.372891  0.179151  0.500000  1
  Ir  Ir33  1  0.806260  0.627109  0.500000  1
  Ir  Ir34  1  0.820849  0.193740  0.500000  1
  Ir  Ir35  1  0.000000  0.000000  0.500000  1
