# generated using pymatgen
data_Lu10Al3Ru
_symmetry_space_group_name_H-M   'P 1'
_cell_length_a   9.30649601
_cell_length_b   9.30657119
_cell_length_c   9.44802900
_cell_angle_alpha   90.00000000
_cell_angle_beta   90.00000000
_cell_angle_gamma   120.00503689
_symmetry_Int_Tables_number   1
_chemical_formula_structural   Lu10Al3Ru
_chemical_formula_sum   'Lu20 Al6 Ru2'
_cell_volume   708.64006697
_cell_formula_units_Z   2
loop_
 _symmetry_equiv_pos_site_id
 _symmetry_equiv_pos_as_xyz
  1  'x, y, z'
loop_
 _atom_site_type_symbol
 _atom_site_label
 _atom_site_symmetry_multiplicity
 _atom_site_fract_x
 _atom_site_fract_y
 _atom_site_fract_z
 _atom_site_occupancy
  Lu  Lu0  1  0.000000  0.000000  0.500000  1
  Lu  Lu1  1  0.000000  0.000000  0.000000  1
  Lu  Lu2  1  0.207097  0.793156  0.439869  1
  Lu  Lu3  1  0.207073  0.414284  0.440024  1
  Lu  Lu4  1  0.585825  0.793033  0.439975  1
  Lu  Lu5  1  0.792903  0.206844  0.560131  1
  Lu  Lu6  1  0.792927  0.585716  0.559976  1
  Lu  Lu7  1  0.414175  0.206967  0.560025  1
  Lu  Lu8  1  0.792903  0.206844  0.939869  1
  Lu  Lu9  1  0.792927  0.585716  0.940024  1
  Lu  Lu10  1  0.414175  0.206967  0.939975  1
  Lu  Lu11  1  0.207097  0.793156  0.060131  1
  Lu  Lu12  1  0.207073  0.414284  0.059976  1
  Lu  Lu13  1  0.585825  0.793033  0.060025  1
  Lu  Lu14  1  0.539539  0.460596  0.250000  1
  Lu  Lu15  1  0.539752  0.079188  0.250000  1
  Lu  Lu16  1  0.921270  0.460597  0.250000  1
  Lu  Lu17  1  0.460461  0.539404  0.750000  1
  Lu  Lu18  1  0.460248  0.920812  0.750000  1
  Lu  Lu19  1  0.078730  0.539403  0.750000  1
  Al  Al20  1  0.889636  0.110499  0.250000  1
  Al  Al21  1  0.889536  0.779068  0.250000  1
  Al  Al22  1  0.221039  0.110592  0.250000  1
  Al  Al23  1  0.110364  0.889501  0.750000  1
  Al  Al24  1  0.110464  0.220932  0.750000  1
  Al  Al25  1  0.778961  0.889408  0.750000  1
  Ru  Ru26  1  0.332929  0.667080  0.250000  1
  Ru  Ru27  1  0.667071  0.332920  0.750000  1
