# generated using pymatgen
data_Tm8In4Ga7Ge
_symmetry_space_group_name_H-M   'P 1'
_cell_length_a   7.13719373
_cell_length_b   7.13719296
_cell_length_c   8.76392407
_cell_angle_alpha   89.99235732
_cell_angle_beta   89.99235218
_cell_angle_gamma   90.57524059
_symmetry_Int_Tables_number   1
_chemical_formula_structural   Tm8In4Ga7Ge
_chemical_formula_sum   'Tm8 In4 Ga7 Ge1'
_cell_volume   446.40765547
_cell_formula_units_Z   1
loop_
 _symmetry_equiv_pos_site_id
 _symmetry_equiv_pos_as_xyz
  1  'x, y, z'
loop_
 _atom_site_type_symbol
 _atom_site_label
 _atom_site_symmetry_multiplicity
 _atom_site_fract_x
 _atom_site_fract_y
 _atom_site_fract_z
 _atom_site_occupancy
  Tm  Tm0  1  0.828598  0.172048  0.498300  1
  Tm  Tm1  1  0.172048  0.828598  0.498300  1
  Tm  Tm2  1  0.329079  0.329079  0.001705  1
  Tm  Tm3  1  0.670404  0.670404  0.998312  1
  Tm  Tm4  1  0.670392  0.670392  0.501595  1
  Tm  Tm5  1  0.328851  0.328851  0.498602  1
  Tm  Tm6  1  0.171656  0.827343  0.001727  1
  Tm  Tm7  1  0.827343  0.171656  0.001727  1
  In  In8  1  0.504488  0.999819  0.250747  1
  In  In9  1  0.999086  0.499626  0.748649  1
  In  In10  1  0.499626  0.999086  0.748649  1
  In  In11  1  0.999819  0.504488  0.250747  1
  Ga  Ga12  1  0.626248  0.377117  0.250246  1
  Ga  Ga13  1  0.377117  0.626248  0.250246  1
  Ga  Ga14  1  0.127124  0.127124  0.750766  1
  Ga  Ga15  1  0.873977  0.873977  0.750020  1
  Ga  Ga16  1  0.371659  0.625762  0.750007  1
  Ga  Ga17  1  0.625762  0.371659  0.750007  1
  Ga  Ga18  1  0.873786  0.873786  0.250058  1
  Ge  Ge19  1  0.122939  0.122939  0.249587  1
