# generated using pymatgen
data_Ho9Tm(InBi2)2
_symmetry_space_group_name_H-M   'P 1'
_cell_length_a   6.49618326
_cell_length_b   9.06809143
_cell_length_c   9.03626096
_cell_angle_alpha   119.97523967
_cell_angle_beta   89.96835955
_cell_angle_gamma   90.00902454
_symmetry_Int_Tables_number   1
_chemical_formula_structural   Ho9Tm(InBi2)2
_chemical_formula_sum   'Ho9 Tm1 In2 Bi4'
_cell_volume   461.10707649
_cell_formula_units_Z   1
loop_
 _symmetry_equiv_pos_site_id
 _symmetry_equiv_pos_as_xyz
  1  'x, y, z'
loop_
 _atom_site_type_symbol
 _atom_site_label
 _atom_site_symmetry_multiplicity
 _atom_site_fract_x
 _atom_site_fract_y
 _atom_site_fract_z
 _atom_site_occupancy
  Ho  Ho0  1  0.497324  0.332113  0.660929  1
  Ho  Ho1  1  0.497503  0.672849  0.340241  1
  Ho  Ho2  1  0.002265  0.672523  0.339864  1
  Ho  Ho3  1  0.749677  0.237670  0.000556  1
  Ho  Ho4  1  0.750291  0.762168  0.759971  1
  Ho  Ho5  1  0.750187  0.001573  0.236549  1
  Ho  Ho6  1  0.250047  0.765161  0.999828  1
  Ho  Ho7  1  0.249630  0.234551  0.244044  1
  Ho  Ho8  1  0.250172  0.990658  0.758110  1
  Tm  Tm9  1  0.003534  0.331841  0.660088  1
  In  In10  1  0.248791  0.604352  0.606249  1
  In  In11  1  0.249579  0.999322  0.395417  1
  Bi  Bi12  1  0.750183  0.606868  0.999703  1
  Bi  Bi13  1  0.750606  0.394253  0.391542  1
  Bi  Bi14  1  0.751059  0.005045  0.607646  1
  Bi  Bi15  1  0.249151  0.389054  0.999262  1
