# generated using pymatgen
data_La6GaCoTc
_symmetry_space_group_name_H-M   'P 1'
_cell_length_a   8.77116419
_cell_length_b   8.77116623
_cell_length_c   8.77116500
_cell_angle_alpha   104.35065608
_cell_angle_beta   110.90710046
_cell_angle_gamma   113.28409572
_symmetry_Int_Tables_number   1
_chemical_formula_structural   La6GaCoTc
_chemical_formula_sum   'La12 Ga2 Co2 Tc2'
_cell_volume   516.13784944
_cell_formula_units_Z   2
loop_
 _symmetry_equiv_pos_site_id
 _symmetry_equiv_pos_as_xyz
  1  'x, y, z'
loop_
 _atom_site_type_symbol
 _atom_site_label
 _atom_site_symmetry_multiplicity
 _atom_site_fract_x
 _atom_site_fract_y
 _atom_site_fract_z
 _atom_site_occupancy
  La  La0  1  0.692782  0.263738  0.956538  1
  La  La1  1  0.307218  0.736262  0.043462  1
  La  La2  1  0.692800  0.736262  0.429045  1
  La  La3  1  0.307200  0.263738  0.570955  1
  La  La4  1  0.818293  0.145035  0.326742  1
  La  La5  1  0.818273  0.491525  0.673252  1
  La  La6  1  0.181707  0.854965  0.673258  1
  La  La7  1  0.181727  0.508475  0.326748  1
  La  La8  1  0.603685  0.785226  0.818470  1
  La  La9  1  0.966755  0.785226  0.181543  1
  La  La10  1  0.033245  0.214774  0.818457  1
  La  La11  1  0.396315  0.214774  0.181530  1
  Ga  Ga12  1  0.500000  0.500000  0.000000  1
  Ga  Ga13  1  0.500000  0.000000  0.500000  1
  Co  Co14  1  0.999999  0.111413  0.111414  1
  Co  Co15  1  0.000001  0.888587  0.888586  1
  Tc  Tc16  1  0.815581  0.500000  0.315581  1
  Tc  Tc17  1  0.184419  0.500000  0.684419  1
