# generated using pymatgen
data_Gd4Mg4CuIr3
_symmetry_space_group_name_H-M   'P 1'
_cell_length_a   4.16879600
_cell_length_b   7.08788717
_cell_length_c   8.57853500
_cell_angle_alpha   88.87668493
_cell_angle_beta   90.00000000
_cell_angle_gamma   90.00000000
_symmetry_Int_Tables_number   1
_chemical_formula_structural   Gd4Mg4CuIr3
_chemical_formula_sum   'Gd4 Mg4 Cu1 Ir3'
_cell_volume   253.42945786
_cell_formula_units_Z   1
loop_
 _symmetry_equiv_pos_site_id
 _symmetry_equiv_pos_as_xyz
  1  'x, y, z'
loop_
 _atom_site_type_symbol
 _atom_site_label
 _atom_site_symmetry_multiplicity
 _atom_site_fract_x
 _atom_site_fract_y
 _atom_site_fract_z
 _atom_site_occupancy
  Gd  Gd0  1  0.250000  0.539147  0.179055  1
  Gd  Gd1  1  0.750000  0.471462  0.833820  1
  Gd  Gd2  1  0.750000  0.947528  0.676246  1
  Gd  Gd3  1  0.250000  0.031668  0.313996  1
  Mg  Mg4  1  0.250000  0.637099  0.559029  1
  Mg  Mg5  1  0.750000  0.362059  0.439983  1
  Mg  Mg6  1  0.750000  0.865766  0.057444  1
  Mg  Mg7  1  0.250000  0.136275  0.941194  1
  Cu  Cu8  1  0.250000  0.255527  0.628221  1
  Ir  Ir9  1  0.250000  0.753401  0.867409  1
  Ir  Ir10  1  0.750000  0.250269  0.129688  1
  Ir  Ir11  1  0.750000  0.749801  0.373917  1
