# generated using pymatgen
data_YHo4In4CuPd
_symmetry_space_group_name_H-M   'P 1'
_cell_length_a   3.63823600
_cell_length_b   8.06452302
_cell_length_c   18.14669011
_cell_angle_alpha   90.04331297
_cell_angle_beta   90.00000000
_cell_angle_gamma   90.00000000
_symmetry_Int_Tables_number   1
_chemical_formula_structural   YHo4In4CuPd
_chemical_formula_sum   'Y2 Ho8 In8 Cu2 Pd2'
_cell_volume   532.43531302
_cell_formula_units_Z   2
loop_
 _symmetry_equiv_pos_site_id
 _symmetry_equiv_pos_as_xyz
  1  'x, y, z'
loop_
 _atom_site_type_symbol
 _atom_site_label
 _atom_site_symmetry_multiplicity
 _atom_site_fract_x
 _atom_site_fract_y
 _atom_site_fract_z
 _atom_site_occupancy
  Y  Y0  1  0.000000  0.500000  0.500000  1
  Y  Y1  1  0.000000  0.000000  0.000000  1
  Ho  Ho2  1  0.000000  0.744577  0.280398  1
  Ho  Ho3  1  0.000000  0.255423  0.719602  1
  Ho  Ho4  1  0.000000  0.755914  0.781327  1
  Ho  Ho5  1  0.000000  0.244086  0.218673  1
  Ho  Ho6  1  0.000000  0.617976  0.083543  1
  Ho  Ho7  1  0.000000  0.382024  0.916457  1
  Ho  Ho8  1  0.000000  0.881868  0.583501  1
  Ho  Ho9  1  0.000000  0.118132  0.416499  1
  In  In10  1  0.500000  0.707281  0.931675  1
  In  In11  1  0.500000  0.292719  0.068325  1
  In  In12  1  0.500000  0.792467  0.432246  1
  In  In13  1  0.500000  0.207533  0.567754  1
  In  In14  1  0.500000  0.576580  0.651372  1
  In  In15  1  0.500000  0.423420  0.348628  1
  In  In16  1  0.500000  0.922301  0.148868  1
  In  In17  1  0.500000  0.077699  0.851132  1
  Cu  Cu18  1  0.500000  0.529711  0.196783  1
  Cu  Cu19  1  0.500000  0.470289  0.803217  1
  Pd  Pd20  1  0.500000  0.970766  0.697528  1
  Pd  Pd21  1  0.500000  0.029234  0.302472  1
