# generated using pymatgen
data_Hg4PdRh3O14
_symmetry_space_group_name_H-M   'P 1'
_cell_length_a   7.28136312
_cell_length_b   7.28136299
_cell_length_c   7.28136415
_cell_angle_alpha   60.25148602
_cell_angle_beta   60.25148554
_cell_angle_gamma   60.25149157
_symmetry_Int_Tables_number   1
_chemical_formula_structural   Hg4PdRh3O14
_chemical_formula_sum   'Hg4 Pd1 Rh3 O14'
_cell_volume   274.52913546
_cell_formula_units_Z   1
loop_
 _symmetry_equiv_pos_site_id
 _symmetry_equiv_pos_as_xyz
  1  'x, y, z'
loop_
 _atom_site_type_symbol
 _atom_site_label
 _atom_site_symmetry_multiplicity
 _atom_site_fract_x
 _atom_site_fract_y
 _atom_site_fract_z
 _atom_site_occupancy
  Hg  Hg0  1  0.125000  0.125000  0.125000  1
  Hg  Hg1  1  0.625000  0.125000  0.125000  1
  Hg  Hg2  1  0.125000  0.625000  0.125000  1
  Hg  Hg3  1  0.125000  0.125000  0.625000  1
  Pd  Pd4  1  0.625000  0.625000  0.625000  1
  Rh  Rh5  1  0.625000  0.625000  0.125000  1
  Rh  Rh6  1  0.625000  0.125000  0.625000  1
  Rh  Rh7  1  0.125000  0.625000  0.625000  1
  O  O8  1  0.699753  0.303102  0.303102  1
  O  O9  1  0.703288  0.293428  0.703288  1
  O  O10  1  0.001310  0.001310  0.001310  1
  O  O11  1  0.303102  0.699753  0.303102  1
  O  O12  1  0.703288  0.703288  0.293428  1
  O  O13  1  0.956572  0.546712  0.546712  1
  O  O14  1  0.293428  0.703288  0.703288  1
  O  O15  1  0.248690  0.248690  0.248690  1
  O  O16  1  0.946898  0.550247  0.946898  1
  O  O17  1  0.546712  0.956572  0.546712  1
  O  O18  1  0.546712  0.546712  0.956572  1
  O  O19  1  0.946898  0.946898  0.550247  1
  O  O20  1  0.550247  0.946898  0.946898  1
  O  O21  1  0.303102  0.303102  0.699753  1
