# generated using pymatgen
data_Th8Al3Si12Pd
_symmetry_space_group_name_H-M   'P 1'
_cell_length_a   8.31937200
_cell_length_b   8.31937280
_cell_length_c   8.43158000
_cell_angle_alpha   90.00000000
_cell_angle_beta   90.00000000
_cell_angle_gamma   119.99998886
_symmetry_Int_Tables_number   1
_chemical_formula_structural   Th8Al3Si12Pd
_chemical_formula_sum   'Th8 Al3 Si12 Pd1'
_cell_volume   505.38317065
_cell_formula_units_Z   1
loop_
 _symmetry_equiv_pos_site_id
 _symmetry_equiv_pos_as_xyz
  1  'x, y, z'
loop_
 _atom_site_type_symbol
 _atom_site_label
 _atom_site_symmetry_multiplicity
 _atom_site_fract_x
 _atom_site_fract_y
 _atom_site_fract_z
 _atom_site_occupancy
  Th  Th0  1  0.498741  0.501259  0.752289  1
  Th  Th1  1  0.499996  0.500004  0.247606  1
  Th  Th2  1  0.002519  0.501259  0.752289  1
  Th  Th3  1  0.000009  0.500004  0.247606  1
  Th  Th4  1  0.498741  0.997481  0.752289  1
  Th  Th5  1  0.499996  0.999991  0.247606  1
  Th  Th6  1  0.000000  0.000000  0.750070  1
  Th  Th7  1  0.000000  0.000000  0.249886  1
  Al  Al8  1  0.666667  0.333333  0.998093  1
  Al  Al9  1  0.333333  0.666667  0.002128  1
  Al  Al10  1  0.333333  0.666667  0.498070  1
  Si  Si11  1  0.835483  0.164517  0.999891  1
  Si  Si12  1  0.166206  0.833794  0.999988  1
  Si  Si13  1  0.329034  0.164517  0.999891  1
  Si  Si14  1  0.166333  0.833667  0.499994  1
  Si  Si15  1  0.667589  0.833794  0.999988  1
  Si  Si16  1  0.835289  0.164711  0.499975  1
  Si  Si17  1  0.835483  0.670966  0.999891  1
  Si  Si18  1  0.667333  0.833667  0.499994  1
  Si  Si19  1  0.166206  0.332411  0.999988  1
  Si  Si20  1  0.329422  0.164711  0.499975  1
  Si  Si21  1  0.166333  0.332667  0.499994  1
  Si  Si22  1  0.835289  0.670578  0.499975  1
  Pd  Pd23  1  0.666667  0.333333  0.502516  1
