# generated using pymatgen
data_Mg4Si3Pd4
_symmetry_space_group_name_H-M   'P 1'
_cell_length_a   10.43640468
_cell_length_b   10.43640547
_cell_length_c   7.29115435
_cell_angle_alpha   72.16176194
_cell_angle_beta   72.16176211
_cell_angle_gamma   29.67212195
_symmetry_Int_Tables_number   1
_chemical_formula_structural   Mg4Si3Pd4
_chemical_formula_sum   'Mg8 Si6 Pd8'
_cell_volume   372.86719642
_cell_formula_units_Z   2
loop_
 _symmetry_equiv_pos_site_id
 _symmetry_equiv_pos_as_xyz
  1  'x, y, z'
loop_
 _atom_site_type_symbol
 _atom_site_label
 _atom_site_symmetry_multiplicity
 _atom_site_fract_x
 _atom_site_fract_y
 _atom_site_fract_z
 _atom_site_occupancy
  Mg  Mg0  1  0.202294  0.458384  0.404559  1
  Mg  Mg1  1  0.458384  0.202294  0.904559  1
  Mg  Mg2  1  0.541616  0.797706  0.095441  1
  Mg  Mg3  1  0.796825  0.067781  0.166132  1
  Mg  Mg4  1  0.067781  0.796825  0.666132  1
  Mg  Mg5  1  0.203175  0.932219  0.833868  1
  Mg  Mg6  1  0.932219  0.203175  0.333868  1
  Mg  Mg7  1  0.797706  0.541616  0.595441  1
  Si  Si8  1  0.964653  0.703261  0.048130  1
  Si  Si9  1  0.035347  0.296739  0.951870  1
  Si  Si10  1  0.296739  0.035347  0.451870  1
  Si  Si11  1  0.656063  0.343937  0.750000  1
  Si  Si12  1  0.703261  0.964653  0.548130  1
  Si  Si13  1  0.343937  0.656063  0.250000  1
  Pd  Pd14  1  0.299864  0.577716  0.014013  1
  Pd  Pd15  1  0.372553  0.073396  0.696846  1
  Pd  Pd16  1  0.577716  0.299864  0.514013  1
  Pd  Pd17  1  0.700136  0.422284  0.985987  1
  Pd  Pd18  1  0.073396  0.372553  0.196846  1
  Pd  Pd19  1  0.926604  0.627447  0.803154  1
  Pd  Pd20  1  0.627447  0.926604  0.303154  1
  Pd  Pd21  1  0.422284  0.700136  0.485987  1
