# generated using pymatgen
data_Tb6Y2Ti12Si15Sn
_symmetry_space_group_name_H-M   'P 1'
_cell_length_a   7.12192546
_cell_length_b   7.08640949
_cell_length_c   13.04553101
_cell_angle_alpha   89.98751912
_cell_angle_beta   89.73997364
_cell_angle_gamma   89.93515403
_symmetry_Int_Tables_number   1
_chemical_formula_structural   Tb6Y2Ti12Si15Sn
_chemical_formula_sum   'Tb6 Y2 Ti12 Si15 Sn1'
_cell_volume   658.38612377
_cell_formula_units_Z   1
loop_
 _symmetry_equiv_pos_site_id
 _symmetry_equiv_pos_as_xyz
  1  'x, y, z'
loop_
 _atom_site_type_symbol
 _atom_site_label
 _atom_site_symmetry_multiplicity
 _atom_site_fract_x
 _atom_site_fract_y
 _atom_site_fract_z
 _atom_site_occupancy
  Tb  Tb0  1  0.502287  0.160233  0.216640  1
  Tb  Tb1  1  0.840332  0.497371  0.282356  1
  Tb  Tb2  1  0.159720  0.509908  0.785859  1
  Tb  Tb3  1  0.661477  0.996385  0.968521  1
  Tb  Tb4  1  0.993557  0.347586  0.527771  1
  Tb  Tb5  1  0.998522  0.659609  0.034156  1
  Y  Y6  1  0.342894  0.999501  0.461747  1
  Y  Y7  1  0.505405  0.834807  0.718107  1
  Ti  Ti8  1  0.326324  0.326988  0.000991  1
  Ti  Ti9  1  0.173643  0.826229  0.249748  1
  Ti  Ti10  1  0.816551  0.175195  0.751859  1
  Ti  Ti11  1  0.672864  0.673023  0.499613  1
  Ti  Ti12  1  0.152984  0.007964  0.883584  1
  Ti  Ti13  1  0.491344  0.651716  0.127001  1
  Ti  Ti14  1  0.516014  0.352872  0.626605  1
  Ti  Ti15  1  0.654804  0.492372  0.875013  1
  Ti  Ti16  1  0.346932  0.509621  0.372652  1
  Ti  Ti17  1  0.846531  0.991173  0.376222  1
  Ti  Ti18  1  0.010067  0.152570  0.123041  1
  Ti  Ti19  1  0.979582  0.834604  0.618804  1
  Si  Si20  1  0.372060  0.702395  0.936441  1
  Si  Si21  1  0.627108  0.297626  0.433637  1
  Si  Si22  1  0.702770  0.370906  0.065581  1
  Si  Si23  1  0.297494  0.629367  0.564993  1
  Si  Si24  1  0.798030  0.871292  0.185048  1
  Si  Si25  1  0.128632  0.202183  0.314279  1
  Si  Si26  1  0.871492  0.800267  0.815380  1
  Si  Si27  1  0.291639  0.952110  0.066966  1
  Si  Si28  1  0.549102  0.788970  0.313782  1
  Si  Si29  1  0.459254  0.211231  0.819996  1
  Si  Si30  1  0.793145  0.544822  0.686537  1
  Si  Si31  1  0.209907  0.452772  0.185066  1
  Si  Si32  1  0.707630  0.048037  0.564723  1
  Si  Si33  1  0.952480  0.290880  0.935040  1
  Si  Si34  1  0.048175  0.711419  0.432790  1
  Sn  Sn35  1  0.199246  0.125996  0.679451  1
