# generated using pymatgen
data_Sc2Al9IrPd2
_symmetry_space_group_name_H-M   'P 1'
_cell_length_a   7.48321078
_cell_length_b   7.48321152
_cell_length_c   9.36911100
_cell_angle_alpha   89.95058445
_cell_angle_beta   89.95058445
_cell_angle_gamma   119.59450177
_symmetry_Int_Tables_number   1
_chemical_formula_structural   Sc2Al9IrPd2
_chemical_formula_sum   'Sc4 Al18 Ir2 Pd4'
_cell_volume   456.20965435
_cell_formula_units_Z   2
loop_
 _symmetry_equiv_pos_site_id
 _symmetry_equiv_pos_as_xyz
  1  'x, y, z'
loop_
 _atom_site_type_symbol
 _atom_site_label
 _atom_site_symmetry_multiplicity
 _atom_site_fract_x
 _atom_site_fract_y
 _atom_site_fract_z
 _atom_site_occupancy
  Sc  Sc0  1  0.995163  0.670487  0.251688  1
  Sc  Sc1  1  0.004837  0.329513  0.748312  1
  Sc  Sc2  1  0.670487  0.995163  0.251688  1
  Sc  Sc3  1  0.329513  0.004837  0.748312  1
  Al  Al4  1  0.124693  0.124693  0.250893  1
  Al  Al5  1  0.875307  0.875307  0.749107  1
  Al  Al6  1  0.997727  0.334590  0.080622  1
  Al  Al7  1  0.002273  0.665410  0.919378  1
  Al  Al8  1  0.002863  0.662069  0.576855  1
  Al  Al9  1  0.337931  0.997137  0.423145  1
  Al  Al10  1  0.997137  0.337931  0.423145  1
  Al  Al11  1  0.662069  0.002863  0.576855  1
  Al  Al12  1  0.665410  0.002273  0.919378  1
  Al  Al13  1  0.334590  0.997727  0.080622  1
  Al  Al14  1  0.332638  0.332638  0.557172  1
  Al  Al15  1  0.667362  0.667362  0.442828  1
  Al  Al16  1  0.668800  0.668800  0.066098  1
  Al  Al17  1  0.331200  0.331200  0.933902  1
  Al  Al18  1  0.338285  0.551743  0.252208  1
  Al  Al19  1  0.661715  0.448257  0.747792  1
  Al  Al20  1  0.551743  0.338285  0.252208  1
  Al  Al21  1  0.448257  0.661715  0.747792  1
  Ir  Ir22  1  0.328404  0.671596  0.500000  1
  Ir  Ir23  1  0.671596  0.328404  0.500000  1
  Pd  Pd24  1  0.672057  0.327943  0.000000  1
  Pd  Pd25  1  0.327943  0.672057  0.000000  1
  Pd  Pd26  1  0.000000  0.000000  0.000000  1
  Pd  Pd27  1  0.000000  0.000000  0.500000  1
