# generated using pymatgen
data_Hf8AlSi5(MoN)2
_symmetry_space_group_name_H-M   'P 1'
_cell_length_a   7.77390388
_cell_length_b   7.77390509
_cell_length_c   5.43211815
_cell_angle_alpha   90.01360927
_cell_angle_beta   90.01361036
_cell_angle_gamma   119.90226575
_symmetry_Int_Tables_number   1
_chemical_formula_structural   Hf8AlSi5(MoN)2
_chemical_formula_sum   'Hf8 Al1 Si5 Mo2 N2'
_cell_volume   284.58044715
_cell_formula_units_Z   1
loop_
 _symmetry_equiv_pos_site_id
 _symmetry_equiv_pos_as_xyz
  1  'x, y, z'
loop_
 _atom_site_type_symbol
 _atom_site_label
 _atom_site_symmetry_multiplicity
 _atom_site_fract_x
 _atom_site_fract_y
 _atom_site_fract_z
 _atom_site_occupancy
  Hf  Hf0  1  0.235446  0.000101  0.248423  1
  Hf  Hf1  1  0.000101  0.235446  0.248423  1
  Hf  Hf2  1  0.766478  0.766478  0.252480  1
  Hf  Hf3  1  0.667928  0.329743  0.499663  1
  Hf  Hf4  1  0.329743  0.667928  0.499663  1
  Hf  Hf5  1  0.766662  0.003968  0.750150  1
  Hf  Hf6  1  0.003968  0.766662  0.750150  1
  Hf  Hf7  1  0.232289  0.232289  0.750037  1
  Al  Al8  1  0.589946  0.589946  0.771229  1
  Si  Si9  1  0.590713  0.997635  0.227313  1
  Si  Si10  1  0.997635  0.590713  0.227313  1
  Si  Si11  1  0.411497  0.411497  0.228886  1
  Si  Si12  1  0.408883  0.000417  0.773156  1
  Si  Si13  1  0.000417  0.408883  0.773156  1
  Mo  Mo14  1  0.667404  0.329461  0.000644  1
  Mo  Mo15  1  0.329461  0.667404  0.000644  1
  N  N16  1  0.000207  0.000207  0.999763  1
  N  N17  1  0.001221  0.001221  0.498906  1
