# generated using pymatgen
data_Dy16TmLu3Pb16
_symmetry_space_group_name_H-M   'P 1'
_cell_length_a   8.16982501
_cell_length_b   8.25751001
_cell_length_c   15.62675800
_cell_angle_alpha   90.00000000
_cell_angle_beta   90.00000000
_cell_angle_gamma   90.00661991
_symmetry_Int_Tables_number   1
_chemical_formula_structural   Dy16TmLu3Pb16
_chemical_formula_sum   'Dy16 Tm1 Lu3 Pb16'
_cell_volume   1054.21877721
_cell_formula_units_Z   1
loop_
 _symmetry_equiv_pos_site_id
 _symmetry_equiv_pos_as_xyz
  1  'x, y, z'
loop_
 _atom_site_type_symbol
 _atom_site_label
 _atom_site_symmetry_multiplicity
 _atom_site_fract_x
 _atom_site_fract_y
 _atom_site_fract_z
 _atom_site_occupancy
  Dy  Dy0  1  0.376670  0.841482  0.879152  1
  Dy  Dy1  1  0.876561  0.658600  0.620843  1
  Dy  Dy2  1  0.623370  0.158557  0.379157  1
  Dy  Dy3  1  0.123366  0.341445  0.120852  1
  Dy  Dy4  1  0.623370  0.158557  0.120843  1
  Dy  Dy5  1  0.123366  0.341445  0.379148  1
  Dy  Dy6  1  0.376670  0.841482  0.620848  1
  Dy  Dy7  1  0.876561  0.658600  0.879157  1
  Dy  Dy8  1  0.535970  0.323479  0.900105  1
  Dy  Dy9  1  0.035919  0.176476  0.599900  1
  Dy  Dy10  1  0.464050  0.676500  0.400096  1
  Dy  Dy11  1  0.964061  0.823498  0.099893  1
  Dy  Dy12  1  0.464050  0.676500  0.099904  1
  Dy  Dy13  1  0.964061  0.823498  0.400107  1
  Dy  Dy14  1  0.535970  0.323479  0.599895  1
  Dy  Dy15  1  0.035919  0.176476  0.900100  1
  Tm  Tm16  1  0.208466  0.504299  0.750000  1
  Lu  Lu17  1  0.708521  0.995640  0.750000  1
  Lu  Lu18  1  0.791480  0.495652  0.250000  1
  Lu  Lu19  1  0.291484  0.004328  0.250000  1
  Pb  Pb20  1  0.281198  0.032735  0.043542  1
  Pb  Pb21  1  0.781198  0.467275  0.456460  1
  Pb  Pb22  1  0.718802  0.967263  0.543550  1
  Pb  Pb23  1  0.218805  0.532732  0.956500  1
  Pb  Pb24  1  0.718802  0.967263  0.956450  1
  Pb  Pb25  1  0.218805  0.532732  0.543500  1
  Pb  Pb26  1  0.281198  0.032735  0.456458  1
  Pb  Pb27  1  0.781198  0.467275  0.043540  1
  Pb  Pb28  1  0.571195  0.626139  0.750000  1
  Pb  Pb29  1  0.071048  0.873978  0.750000  1
  Pb  Pb30  1  0.428947  0.373908  0.250000  1
  Pb  Pb31  1  0.928947  0.126083  0.250000  1
  Pb  Pb32  1  0.347703  0.154799  0.750000  1
  Pb  Pb33  1  0.847678  0.345050  0.750000  1
  Pb  Pb34  1  0.652294  0.845077  0.250000  1
  Pb  Pb35  1  0.152292  0.654961  0.250000  1
