# generated using pymatgen
data_Sc4Fe15Co(MoP3)4
_symmetry_space_group_name_H-M   'P 1'
_cell_length_a   3.65380300
_cell_length_b   10.31577119
_cell_length_c   11.76314300
_cell_angle_alpha   90.01104173
_cell_angle_beta   90.00000000
_cell_angle_gamma   90.00000000
_symmetry_Int_Tables_number   1
_chemical_formula_structural   Sc4Fe15Co(MoP3)4
_chemical_formula_sum   'Sc4 Fe15 Co1 Mo4 P12'
_cell_volume   443.37397483
_cell_formula_units_Z   1
loop_
 _symmetry_equiv_pos_site_id
 _symmetry_equiv_pos_as_xyz
  1  'x, y, z'
loop_
 _atom_site_type_symbol
 _atom_site_label
 _atom_site_symmetry_multiplicity
 _atom_site_fract_x
 _atom_site_fract_y
 _atom_site_fract_z
 _atom_site_occupancy
  Sc  Sc0  1  0.250000  0.582325  0.705332  1
  Sc  Sc1  1  0.250000  0.917416  0.207395  1
  Sc  Sc2  1  0.750000  0.417513  0.293954  1
  Sc  Sc3  1  0.750000  0.082986  0.792692  1
  Fe  Fe4  1  0.250000  0.091923  0.990439  1
  Fe  Fe5  1  0.750000  0.592047  0.512390  1
  Fe  Fe6  1  0.750000  0.908761  0.009704  1
  Fe  Fe7  1  0.250000  0.217100  0.177232  1
  Fe  Fe8  1  0.250000  0.284219  0.677420  1
  Fe  Fe9  1  0.750000  0.783804  0.822267  1
  Fe  Fe10  1  0.750000  0.715903  0.322553  1
  Fe  Fe11  1  0.250000  0.877042  0.702670  1
  Fe  Fe12  1  0.250000  0.622161  0.203924  1
  Fe  Fe13  1  0.750000  0.122138  0.297771  1
  Fe  Fe14  1  0.750000  0.377498  0.797031  1
  Fe  Fe15  1  0.250000  0.463566  0.930978  1
  Fe  Fe16  1  0.250000  0.037758  0.431366  1
  Fe  Fe17  1  0.750000  0.536630  0.069429  1
  Fe  Fe18  1  0.750000  0.963006  0.569133  1
  Co  Co19  1  0.250000  0.405733  0.485284  1
  Mo  Mo20  1  0.250000  0.706927  0.988620  1
  Mo  Mo21  1  0.250000  0.794635  0.487153  1
  Mo  Mo22  1  0.750000  0.293249  0.011854  1
  Mo  Mo23  1  0.750000  0.206356  0.512954  1
  P  P24  1  0.250000  0.424397  0.117036  1
  P  P25  1  0.250000  0.075802  0.616892  1
  P  P26  1  0.750000  0.575540  0.882960  1
  P  P27  1  0.750000  0.924727  0.382805  1
  P  P28  1  0.250000  0.260861  0.865727  1
  P  P29  1  0.250000  0.238460  0.365309  1
  P  P30  1  0.750000  0.739512  0.134149  1
  P  P31  1  0.750000  0.759359  0.632737  1
  P  P32  1  0.250000  0.589299  0.392788  1
  P  P33  1  0.250000  0.911259  0.889605  1
  P  P34  1  0.750000  0.410834  0.609040  1
  P  P35  1  0.750000  0.089259  0.111409  1
