# generated using pymatgen
data_Ho12Fe4SnPd
_symmetry_space_group_name_H-M   'P 1'
_cell_length_a   8.30471670
_cell_length_b   8.30471683
_cell_length_c   8.30471734
_cell_angle_alpha   110.62774219
_cell_angle_beta   110.70866005
_cell_angle_gamma   107.10291958
_symmetry_Int_Tables_number   1
_chemical_formula_structural   Ho12Fe4SnPd
_chemical_formula_sum   'Ho12 Fe4 Sn1 Pd1'
_cell_volume   440.35037460
_cell_formula_units_Z   1
loop_
 _symmetry_equiv_pos_site_id
 _symmetry_equiv_pos_as_xyz
  1  'x, y, z'
loop_
 _atom_site_type_symbol
 _atom_site_label
 _atom_site_symmetry_multiplicity
 _atom_site_fract_x
 _atom_site_fract_y
 _atom_site_fract_z
 _atom_site_occupancy
  Ho  Ho0  1  0.415568  0.214613  0.200954  1
  Ho  Ho1  1  0.584432  0.785387  0.799046  1
  Ho  Ho2  1  0.013660  0.214613  0.799046  1
  Ho  Ho3  1  0.986340  0.785387  0.200954  1
  Ho  Ho4  1  0.187796  0.292077  0.479874  1
  Ho  Ho5  1  0.812204  0.707923  0.520126  1
  Ho  Ho6  1  0.187796  0.707923  0.895720  1
  Ho  Ho7  1  0.812204  0.292077  0.104280  1
  Ho  Ho8  1  0.311568  0.612972  0.301404  1
  Ho  Ho9  1  0.688432  0.387028  0.698596  1
  Ho  Ho10  1  0.311568  0.010164  0.698596  1
  Ho  Ho11  1  0.688432  0.989836  0.301404  1
  Fe  Fe12  1  0.386043  0.000000  0.386043  1
  Fe  Fe13  1  0.613957  0.000000  0.613957  1
  Fe  Fe14  1  0.108172  0.608172  0.500000  1
  Fe  Fe15  1  0.891828  0.391828  0.500000  1
  Sn  Sn16  1  0.500000  0.500000  0.000000  1
  Pd  Pd17  1  0.000000  0.000000  0.000000  1
