# generated using pymatgen
data_LaNdNi2(B4Os3)2
_symmetry_space_group_name_H-M   'P 1'
_cell_length_a   7.64739172
_cell_length_b   7.40625950
_cell_length_c   3.98422000
_cell_angle_alpha   90.00000000
_cell_angle_beta   90.00000000
_cell_angle_gamma   88.09691567
_symmetry_Int_Tables_number   1
_chemical_formula_structural   LaNdNi2(B4Os3)2
_chemical_formula_sum   'La1 Nd1 Ni2 B8 Os6'
_cell_volume   225.53604592
_cell_formula_units_Z   1
loop_
 _symmetry_equiv_pos_site_id
 _symmetry_equiv_pos_as_xyz
  1  'x, y, z'
loop_
 _atom_site_type_symbol
 _atom_site_label
 _atom_site_symmetry_multiplicity
 _atom_site_fract_x
 _atom_site_fract_y
 _atom_site_fract_z
 _atom_site_occupancy
  La  La0  1  0.500000  0.500000  0.981877  1
  Nd  Nd1  1  0.000000  0.000000  0.416532  1
  Ni  Ni2  1  0.357586  0.114529  0.115708  1
  Ni  Ni3  1  0.642414  0.885471  0.115708  1
  B  B4  1  0.656611  0.804856  0.613144  1
  B  B5  1  0.171401  0.279654  0.893975  1
  B  B6  1  0.292099  0.830377  0.116134  1
  B  B7  1  0.707901  0.169623  0.116134  1
  B  B8  1  0.343389  0.195144  0.613144  1
  B  B9  1  0.828599  0.720346  0.893975  1
  B  B10  1  0.220641  0.664351  0.398835  1
  B  B11  1  0.779359  0.335649  0.398835  1
  Os  Os12  1  0.617326  0.130175  0.621321  1
  Os  Os13  1  0.102397  0.650773  0.896278  1
  Os  Os14  1  0.151620  0.387193  0.395398  1
  Os  Os15  1  0.848380  0.612807  0.395398  1
  Os  Os16  1  0.897603  0.349227  0.896278  1
  Os  Os17  1  0.382674  0.869825  0.621321  1
