# generated using pymatgen
data_Y2Lu3Co19(As3P)3
_symmetry_space_group_name_H-M   'P 1'
_cell_length_a   12.26663100
_cell_length_b   12.26663156
_cell_length_c   3.74544400
_cell_angle_alpha   90.00000000
_cell_angle_beta   90.00000000
_cell_angle_gamma   119.99999579
_symmetry_Int_Tables_number   1
_chemical_formula_structural   Y2Lu3Co19(As3P)3
_chemical_formula_sum   'Y2 Lu3 Co19 As9 P3'
_cell_volume   488.07277196
_cell_formula_units_Z   1
loop_
 _symmetry_equiv_pos_site_id
 _symmetry_equiv_pos_as_xyz
  1  'x, y, z'
loop_
 _atom_site_type_symbol
 _atom_site_label
 _atom_site_symmetry_multiplicity
 _atom_site_fract_x
 _atom_site_fract_y
 _atom_site_fract_z
 _atom_site_occupancy
  Y  Y0  1  0.333333  0.666667  0.500000  1
  Y  Y1  1  0.666667  0.333333  0.500000  1
  Lu  Lu2  1  0.179064  0.000000  0.000000  1
  Lu  Lu3  1  0.000000  0.179064  0.000000  1
  Lu  Lu4  1  0.820936  0.820936  0.000000  1
  Co  Co5  1  0.196913  0.367462  0.500000  1
  Co  Co6  1  0.632538  0.829451  0.500000  1
  Co  Co7  1  0.170549  0.803087  0.500000  1
  Co  Co8  1  0.829451  0.632538  0.500000  1
  Co  Co9  1  0.803087  0.170549  0.500000  1
  Co  Co10  1  0.367462  0.196913  0.500000  1
  Co  Co11  1  0.553668  0.000000  0.500000  1
  Co  Co12  1  0.000000  0.553668  0.500000  1
  Co  Co13  1  0.446332  0.446332  0.500000  1
  Co  Co14  1  0.125424  0.477362  0.000000  1
  Co  Co15  1  0.522638  0.648062  0.000000  1
  Co  Co16  1  0.351938  0.874576  0.000000  1
  Co  Co17  1  0.648062  0.522638  0.000000  1
  Co  Co18  1  0.874576  0.351938  0.000000  1
  Co  Co19  1  0.477362  0.125424  0.000000  1
  Co  Co20  1  0.727262  0.000000  0.000000  1
  Co  Co21  1  0.000000  0.727262  0.000000  1
  Co  Co22  1  0.272738  0.272738  0.000000  1
  Co  Co23  1  0.000000  0.000000  0.500000  1
  As  As24  1  0.360958  0.000000  0.500000  1
  As  As25  1  0.000000  0.360958  0.500000  1
  As  As26  1  0.639042  0.639042  0.500000  1
  As  As27  1  0.319018  0.479282  0.000000  1
  As  As28  1  0.520718  0.839736  0.000000  1
  As  As29  1  0.160264  0.680982  0.000000  1
  As  As30  1  0.839736  0.520718  0.000000  1
  As  As31  1  0.680982  0.160264  0.000000  1
  As  As32  1  0.479282  0.319018  0.000000  1
  P  P33  1  0.824182  0.000000  0.500000  1
  P  P34  1  0.000000  0.824182  0.500000  1
  P  P35  1  0.175818  0.175818  0.500000  1
