# generated using pymatgen
data_TaNb(SiOs)2
_symmetry_space_group_name_H-M   'P 1'
_cell_length_a   3.92687500
_cell_length_b   6.31114106
_cell_length_c   7.31750746
_cell_angle_alpha   90.00930767
_cell_angle_beta   90.00000000
_cell_angle_gamma   90.00000000
_symmetry_Int_Tables_number   1
_chemical_formula_structural   TaNb(SiOs)2
_chemical_formula_sum   'Ta2 Nb2 Si4 Os4'
_cell_volume   181.35023901
_cell_formula_units_Z   2
loop_
 _symmetry_equiv_pos_site_id
 _symmetry_equiv_pos_as_xyz
  1  'x, y, z'
loop_
 _atom_site_type_symbol
 _atom_site_label
 _atom_site_symmetry_multiplicity
 _atom_site_fract_x
 _atom_site_fract_y
 _atom_site_fract_z
 _atom_site_occupancy
  Ta  Ta0  1  0.250000  0.018816  0.817592  1
  Ta  Ta1  1  0.750000  0.981184  0.182408  1
  Nb  Nb2  1  0.250000  0.520150  0.676201  1
  Nb  Nb3  1  0.750000  0.479850  0.323799  1
  Si  Si4  1  0.250000  0.279148  0.126229  1
  Si  Si5  1  0.750000  0.720852  0.873771  1
  Si  Si6  1  0.250000  0.772666  0.375591  1
  Si  Si7  1  0.750000  0.227334  0.624409  1
  Os  Os8  1  0.750000  0.848827  0.563435  1
  Os  Os9  1  0.250000  0.151173  0.436565  1
  Os  Os10  1  0.750000  0.339252  0.943407  1
  Os  Os11  1  0.250000  0.660748  0.056593  1
