# generated using pymatgen
data_CeYSi2PtRh3
_symmetry_space_group_name_H-M   'P 1'
_cell_length_a   9.25951174
_cell_length_b   9.25951164
_cell_length_c   4.06820900
_cell_angle_alpha   90.00000000
_cell_angle_beta   90.00000000
_cell_angle_gamma   155.12893845
_symmetry_Int_Tables_number   1
_chemical_formula_structural   CeYSi2PtRh3
_chemical_formula_sum   'Ce1 Y1 Si2 Pt1 Rh3'
_cell_volume   146.69847598
_cell_formula_units_Z   1
loop_
 _symmetry_equiv_pos_site_id
 _symmetry_equiv_pos_as_xyz
  1  'x, y, z'
loop_
 _atom_site_type_symbol
 _atom_site_label
 _atom_site_symmetry_multiplicity
 _atom_site_fract_x
 _atom_site_fract_y
 _atom_site_fract_z
 _atom_site_occupancy
  Ce  Ce0  1  0.901825  0.098175  0.250000  1
  Y  Y1  1  0.104680  0.895320  0.750000  1
  Si  Si2  1  0.320108  0.679892  0.750000  1
  Si  Si3  1  0.678520  0.321480  0.250000  1
  Pt  Pt4  1  0.547718  0.452282  0.250000  1
  Rh  Rh5  1  0.450361  0.549639  0.750000  1
  Rh  Rh6  1  0.248635  0.751365  0.250000  1
  Rh  Rh7  1  0.748152  0.251848  0.750000  1
