# generated using pymatgen
data_Y5(HoTe4)3
_symmetry_space_group_name_H-M   'P 1'
_cell_length_a   14.46967832
_cell_length_b   13.80060348
_cell_length_c   7.54033616
_cell_angle_alpha   79.49596662
_cell_angle_beta   69.68153152
_cell_angle_gamma   30.81707190
_symmetry_Int_Tables_number   1
_chemical_formula_structural   Y5(HoTe4)3
_chemical_formula_sum   'Y5 Ho3 Te12'
_cell_volume   702.01866609
_cell_formula_units_Z   1
loop_
 _symmetry_equiv_pos_site_id
 _symmetry_equiv_pos_as_xyz
  1  'x, y, z'
loop_
 _atom_site_type_symbol
 _atom_site_label
 _atom_site_symmetry_multiplicity
 _atom_site_fract_x
 _atom_site_fract_y
 _atom_site_fract_z
 _atom_site_occupancy
  Y  Y0  1  0.332707  0.332707  0.167293  1
  Y  Y1  1  0.167273  0.167273  0.332727  1
  Y  Y2  1  0.917273  0.917273  0.082727  1
  Y  Y3  1  0.082721  0.082721  0.917279  1
  Y  Y4  1  0.999931  0.999931  0.500069  1
  Ho  Ho5  1  0.500043  0.500043  0.999957  1
  Ho  Ho6  1  0.250040  0.250040  0.749960  1
  Ho  Ho7  1  0.749953  0.749953  0.250047  1
  Te  Te8  1  0.997328  0.502676  0.502695  1
  Te  Te9  1  0.502676  0.997328  0.997301  1
  Te  Te10  1  0.253057  0.746949  0.747731  1
  Te  Te11  1  0.746949  0.253057  0.252262  1
  Te  Te12  1  0.665541  0.168801  0.833289  1
  Te  Te13  1  0.832533  0.333178  0.666333  1
  Te  Te14  1  0.333178  0.832533  0.167956  1
  Te  Te15  1  0.168801  0.665541  0.332369  1
  Te  Te16  1  0.583963  0.081453  0.417228  1
  Te  Te17  1  0.417218  0.917361  0.583935  1
  Te  Te18  1  0.917361  0.417218  0.081485  1
  Te  Te19  1  0.081453  0.583963  0.917357  1
