# generated using pymatgen
data_Sr8Li12TaNb3N16
_symmetry_space_group_name_H-M   'P 1'
_cell_length_a   7.04262400
_cell_length_b   8.73870203
_cell_length_c   9.02549403
_cell_angle_alpha   90.01000525
_cell_angle_beta   90.00000000
_cell_angle_gamma   90.00000000
_symmetry_Int_Tables_number   1
_chemical_formula_structural   Sr8Li12TaNb3N16
_chemical_formula_sum   'Sr8 Li12 Ta1 Nb3 N16'
_cell_volume   555.45951492
_cell_formula_units_Z   1
loop_
 _symmetry_equiv_pos_site_id
 _symmetry_equiv_pos_as_xyz
  1  'x, y, z'
loop_
 _atom_site_type_symbol
 _atom_site_label
 _atom_site_symmetry_multiplicity
 _atom_site_fract_x
 _atom_site_fract_y
 _atom_site_fract_z
 _atom_site_occupancy
  Sr  Sr0  1  0.000000  0.242018  0.753379  1
  Sr  Sr1  1  0.000000  0.758308  0.246688  1
  Sr  Sr2  1  0.500000  0.742050  0.746713  1
  Sr  Sr3  1  0.500000  0.258005  0.253271  1
  Sr  Sr4  1  0.259841  0.000096  0.999816  1
  Sr  Sr5  1  0.240137  0.500136  0.499716  1
  Sr  Sr6  1  0.740159  0.000096  0.999816  1
  Sr  Sr7  1  0.759863  0.500136  0.499716  1
  Li  Li8  1  0.238066  0.019022  0.366092  1
  Li  Li9  1  0.237810  0.981116  0.634105  1
  Li  Li10  1  0.261992  0.518749  0.134079  1
  Li  Li11  1  0.262228  0.481085  0.865752  1
  Li  Li12  1  0.762190  0.981116  0.634105  1
  Li  Li13  1  0.761934  0.019022  0.366092  1
  Li  Li14  1  0.737772  0.481085  0.865752  1
  Li  Li15  1  0.738008  0.518749  0.134079  1
  Li  Li16  1  0.000000  0.204821  0.421995  1
  Li  Li17  1  0.000000  0.794973  0.578562  1
  Li  Li18  1  0.500000  0.704982  0.078588  1
  Li  Li19  1  0.500000  0.295044  0.921911  1
  Ta  Ta20  1  0.500000  0.214068  0.637130  1
  Nb  Nb21  1  0.000000  0.286029  0.137394  1
  Nb  Nb22  1  0.000000  0.713878  0.862748  1
  Nb  Nb23  1  0.500000  0.786138  0.362758  1
  N  N24  1  0.235473  0.302616  0.018686  1
  N  N25  1  0.235679  0.697407  0.981295  1
  N  N26  1  0.264455  0.802526  0.481454  1
  N  N27  1  0.265565  0.197383  0.518806  1
  N  N28  1  0.764321  0.697407  0.981295  1
  N  N29  1  0.764527  0.302616  0.018686  1
  N  N30  1  0.734435  0.197383  0.518806  1
  N  N31  1  0.735545  0.802526  0.481454  1
  N  N32  1  0.000000  0.072914  0.221709  1
  N  N33  1  0.000000  0.926976  0.778330  1
  N  N34  1  0.500000  0.573001  0.278353  1
  N  N35  1  0.500000  0.425559  0.721566  1
  N  N36  1  0.000000  0.454035  0.284027  1
  N  N37  1  0.000000  0.546054  0.715967  1
  N  N38  1  0.500000  0.953873  0.215938  1
  N  N39  1  0.500000  0.047003  0.783371  1
