# generated using pymatgen
data_Yb4Sc4Cr(B8Ir)3
_symmetry_space_group_name_H-M   'P 1'
_cell_length_a   3.51492700
_cell_length_b   8.99450338
_cell_length_c   11.37265775
_cell_angle_alpha   90.06355893
_cell_angle_beta   90.00000000
_cell_angle_gamma   90.00000000
_symmetry_Int_Tables_number   1
_chemical_formula_structural   Yb4Sc4Cr(B8Ir)3
_chemical_formula_sum   'Yb4 Sc4 Cr1 B24 Ir3'
_cell_volume   359.54661275
_cell_formula_units_Z   1
loop_
 _symmetry_equiv_pos_site_id
 _symmetry_equiv_pos_as_xyz
  1  'x, y, z'
loop_
 _atom_site_type_symbol
 _atom_site_label
 _atom_site_symmetry_multiplicity
 _atom_site_fract_x
 _atom_site_fract_y
 _atom_site_fract_z
 _atom_site_occupancy
  Yb  Yb0  1  0.500000  0.320626  0.412289  1
  Yb  Yb1  1  0.500000  0.678231  0.584162  1
  Yb  Yb2  1  0.500000  0.177564  0.916996  1
  Yb  Yb3  1  0.500000  0.823580  0.087187  1
  Sc  Sc4  1  0.500000  0.440812  0.126776  1
  Sc  Sc5  1  0.500000  0.555710  0.873959  1
  Sc  Sc6  1  0.500000  0.054772  0.626457  1
  Sc  Sc7  1  0.500000  0.948356  0.370947  1
  Cr  Cr8  1  0.500000  0.140280  0.181474  1
  B  B9  1  0.000000  0.097953  0.473625  1
  B  B10  1  0.000000  0.902355  0.526214  1
  B  B11  1  0.000000  0.402786  0.973658  1
  B  B12  1  0.000000  0.598190  0.026489  1
  B  B13  1  0.000000  0.130076  0.316008  1
  B  B14  1  0.000000  0.869294  0.681729  1
  B  B15  1  0.000000  0.369742  0.818360  1
  B  B16  1  0.000000  0.630217  0.182811  1
  B  B17  1  0.000000  0.055050  0.068766  1
  B  B18  1  0.000000  0.945653  0.933978  1
  B  B19  1  0.000000  0.444610  0.566762  1
  B  B20  1  0.000000  0.554849  0.432401  1
  B  B21  1  0.000000  0.481704  0.285617  1
  B  B22  1  0.000000  0.517241  0.714031  1
  B  B23  1  0.000000  0.017066  0.786521  1
  B  B24  1  0.000000  0.982681  0.214083  1
  B  B25  1  0.000000  0.251992  0.082725  1
  B  B26  1  0.000000  0.748696  0.919161  1
  B  B27  1  0.000000  0.247245  0.580832  1
  B  B28  1  0.000000  0.753115  0.418413  1
  B  B29  1  0.000000  0.293974  0.234797  1
  B  B30  1  0.000000  0.705957  0.764096  1
  B  B31  1  0.000000  0.205958  0.735771  1
  B  B32  1  0.000000  0.794909  0.264666  1
  Ir  Ir33  1  0.500000  0.858567  0.817283  1
  Ir  Ir34  1  0.500000  0.359451  0.681901  1
  Ir  Ir35  1  0.500000  0.640734  0.319054  1
