# generated using pymatgen
data_Er2Ga2CoNi
_symmetry_space_group_name_H-M   'P 1'
_cell_length_a   4.16089900
_cell_length_b   6.65015961
_cell_length_c   7.52977114
_cell_angle_alpha   90.18622599
_cell_angle_beta   90.00000000
_cell_angle_gamma   90.00000000
_symmetry_Int_Tables_number   1
_chemical_formula_structural   Er2Ga2CoNi
_chemical_formula_sum   'Er4 Ga4 Co2 Ni2'
_cell_volume   208.35250455
_cell_formula_units_Z   2
loop_
 _symmetry_equiv_pos_site_id
 _symmetry_equiv_pos_as_xyz
  1  'x, y, z'
loop_
 _atom_site_type_symbol
 _atom_site_label
 _atom_site_symmetry_multiplicity
 _atom_site_fract_x
 _atom_site_fract_y
 _atom_site_fract_z
 _atom_site_occupancy
  Er  Er0  1  0.250000  0.528909  0.686329  1
  Er  Er1  1  0.250000  0.024449  0.818625  1
  Er  Er2  1  0.750000  0.975551  0.181375  1
  Er  Er3  1  0.750000  0.471091  0.313671  1
  Ga  Ga4  1  0.750000  0.348161  0.936280  1
  Ga  Ga5  1  0.250000  0.152493  0.434555  1
  Ga  Ga6  1  0.250000  0.651839  0.063720  1
  Ga  Ga7  1  0.750000  0.847507  0.565445  1
  Co  Co8  1  0.750000  0.727981  0.880575  1
  Co  Co9  1  0.250000  0.272019  0.119425  1
  Ni  Ni10  1  0.750000  0.226627  0.617465  1
  Ni  Ni11  1  0.250000  0.773373  0.382535  1
