# generated using pymatgen
data_CaPr3Lu4(B6Os)4
_symmetry_space_group_name_H-M   'P 1'
_cell_length_a   3.66563200
_cell_length_b   9.17519033
_cell_length_c   11.62547468
_cell_angle_alpha   89.93836629
_cell_angle_beta   90.00000000
_cell_angle_gamma   90.00000000
_symmetry_Int_Tables_number   1
_chemical_formula_structural   CaPr3Lu4(B6Os)4
_chemical_formula_sum   'Ca1 Pr3 Lu4 B24 Os4'
_cell_volume   390.99786719
_cell_formula_units_Z   1
loop_
 _symmetry_equiv_pos_site_id
 _symmetry_equiv_pos_as_xyz
  1  'x, y, z'
loop_
 _atom_site_type_symbol
 _atom_site_label
 _atom_site_symmetry_multiplicity
 _atom_site_fract_x
 _atom_site_fract_y
 _atom_site_fract_z
 _atom_site_occupancy
  Ca  Ca0  1  0.000000  0.322031  0.414507  1
  Pr  Pr1  1  0.000000  0.675880  0.584299  1
  Pr  Pr2  1  0.000000  0.822654  0.086275  1
  Pr  Pr3  1  0.000000  0.178024  0.915001  1
  Lu  Lu4  1  0.000000  0.945723  0.372067  1
  Lu  Lu5  1  0.000000  0.057135  0.626725  1
  Lu  Lu6  1  0.000000  0.444004  0.129426  1
  Lu  Lu7  1  0.000000  0.554829  0.871906  1
  B  B8  1  0.500000  0.554535  0.429522  1
  B  B9  1  0.500000  0.442343  0.568663  1
  B  B10  1  0.500000  0.057174  0.071063  1
  B  B11  1  0.500000  0.942735  0.929017  1
  B  B12  1  0.500000  0.750364  0.415858  1
  B  B13  1  0.500000  0.249490  0.581757  1
  B  B14  1  0.500000  0.251146  0.084800  1
  B  B15  1  0.500000  0.748413  0.916222  1
  B  B16  1  0.500000  0.791822  0.266888  1
  B  B17  1  0.500000  0.208800  0.732702  1
  B  B18  1  0.500000  0.292472  0.235492  1
  B  B19  1  0.500000  0.708250  0.766268  1
  B  B20  1  0.500000  0.629565  0.186152  1
  B  B21  1  0.500000  0.369846  0.814775  1
  B  B22  1  0.500000  0.131836  0.316085  1
  B  B23  1  0.500000  0.870063  0.684571  1
  B  B24  1  0.500000  0.986463  0.215114  1
  B  B25  1  0.500000  0.014721  0.784633  1
  B  B26  1  0.500000  0.483278  0.286584  1
  B  B27  1  0.500000  0.513925  0.714073  1
  B  B28  1  0.500000  0.599320  0.027088  1
  B  B29  1  0.500000  0.400600  0.973549  1
  B  B30  1  0.500000  0.101389  0.472547  1
  B  B31  1  0.500000  0.901069  0.526631  1
  Os  Os32  1  0.000000  0.640366  0.318340  1
  Os  Os33  1  0.000000  0.359430  0.681505  1
  Os  Os34  1  0.000000  0.140632  0.181841  1
  Os  Os35  1  0.000000  0.859673  0.818055  1
