# generated using pymatgen
data_Ce8Ti12Si15Ir
_symmetry_space_group_name_H-M   'P 1'
_cell_length_a   7.12935396
_cell_length_b   7.06837143
_cell_length_c   13.16797877
_cell_angle_alpha   89.83756200
_cell_angle_beta   90.22148509
_cell_angle_gamma   89.60816813
_symmetry_Int_Tables_number   1
_chemical_formula_structural   Ce8Ti12Si15Ir
_chemical_formula_sum   'Ce8 Ti12 Si15 Ir1'
_cell_volume   663.54973305
_cell_formula_units_Z   1
loop_
 _symmetry_equiv_pos_site_id
 _symmetry_equiv_pos_as_xyz
  1  'x, y, z'
loop_
 _atom_site_type_symbol
 _atom_site_label
 _atom_site_symmetry_multiplicity
 _atom_site_fract_x
 _atom_site_fract_y
 _atom_site_fract_z
 _atom_site_occupancy
  Ce  Ce0  1  0.333440  0.008641  0.466122  1
  Ce  Ce1  1  0.487175  0.844489  0.717175  1
  Ce  Ce2  1  0.506865  0.166786  0.217642  1
  Ce  Ce3  1  0.834212  0.490868  0.282758  1
  Ce  Ce4  1  0.161772  0.498561  0.781565  1
  Ce  Ce5  1  0.665971  0.991469  0.969094  1
  Ce  Ce6  1  0.013707  0.326561  0.536610  1
  Ce  Ce7  1  0.992352  0.668581  0.031291  1
  Ti  Ti8  1  0.328547  0.329667  0.001677  1
  Ti  Ti9  1  0.171809  0.828984  0.250341  1
  Ti  Ti10  1  0.821542  0.166846  0.751221  1
  Ti  Ti11  1  0.672897  0.671210  0.499023  1
  Ti  Ti12  1  0.159554  0.009920  0.876123  1
  Ti  Ti13  1  0.492470  0.658110  0.127440  1
  Ti  Ti14  1  0.508219  0.339960  0.626739  1
  Ti  Ti15  1  0.659157  0.497506  0.873296  1
  Ti  Ti16  1  0.344151  0.504304  0.372707  1
  Ti  Ti17  1  0.844183  0.991607  0.376491  1
  Ti  Ti18  1  0.005766  0.156953  0.124514  1
  Ti  Ti19  1  0.992812  0.845182  0.620251  1
  Si  Si20  1  0.370545  0.699888  0.937458  1
  Si  Si21  1  0.630365  0.298824  0.438436  1
  Si  Si22  1  0.700619  0.373358  0.062234  1
  Si  Si23  1  0.303157  0.626985  0.560484  1
  Si  Si24  1  0.800356  0.871137  0.188286  1
  Si  Si25  1  0.126966  0.200938  0.311911  1
  Si  Si26  1  0.870316  0.800482  0.810524  1
  Si  Si27  1  0.291194  0.958295  0.066270  1
  Si  Si28  1  0.542797  0.789709  0.315811  1
  Si  Si29  1  0.461925  0.214514  0.819113  1
  Si  Si30  1  0.787025  0.548006  0.683498  1
  Si  Si31  1  0.207499  0.458451  0.184073  1
  Si  Si32  1  0.706861  0.041114  0.563874  1
  Si  Si33  1  0.955051  0.289832  0.936723  1
  Si  Si34  1  0.044752  0.705471  0.432886  1
  Ir  Ir35  1  0.203971  0.126793  0.686340  1
