# generated using pymatgen
data_FeCu3(AsO5)2
_symmetry_space_group_name_H-M   'P 1'
_cell_length_a   5.89613572
_cell_length_b   8.36777072
_cell_length_c   8.83999968
_cell_angle_alpha   88.35185002
_cell_angle_beta   90.27687881
_cell_angle_gamma   90.11640369
_symmetry_Int_Tables_number   1
_chemical_formula_structural   FeCu3(AsO5)2
_chemical_formula_sum   'Fe2 Cu6 As4 O20'
_cell_volume   435.95728289
_cell_formula_units_Z   2
loop_
 _symmetry_equiv_pos_site_id
 _symmetry_equiv_pos_as_xyz
  1  'x, y, z'
loop_
 _atom_site_type_symbol
 _atom_site_label
 _atom_site_symmetry_multiplicity
 _atom_site_fract_x
 _atom_site_fract_y
 _atom_site_fract_z
 _atom_site_occupancy
  Fe  Fe0  1  0.504559  0.845177  0.615901  1
  Fe  Fe1  1  0.495441  0.154823  0.384099  1
  Cu  Cu2  1  0.023836  0.347691  0.893965  1
  Cu  Cu3  1  0.976164  0.652309  0.106035  1
  Cu  Cu4  1  0.744093  0.499455  0.503472  1
  Cu  Cu5  1  0.255907  0.500545  0.496528  1
  Cu  Cu6  1  0.245896  0.997872  0.999557  1
  Cu  Cu7  1  0.754104  0.002128  0.000443  1
  As  As8  1  0.496674  0.763094  0.249963  1
  As  As9  1  0.503326  0.236906  0.750037  1
  As  As10  1  0.990431  0.273755  0.257183  1
  As  As11  1  0.009569  0.726245  0.742817  1
  O  O12  1  0.479927  0.906860  0.392892  1
  O  O13  1  0.520073  0.093140  0.607108  1
  O  O14  1  0.954750  0.409941  0.107056  1
  O  O15  1  0.045250  0.590059  0.892944  1
  O  O16  1  0.500267  0.870313  0.075243  1
  O  O17  1  0.499733  0.129687  0.924757  1
  O  O18  1  0.997348  0.371033  0.429047  1
  O  O19  1  0.002652  0.628967  0.570953  1
  O  O20  1  0.498480  0.627847  0.567642  1
  O  O21  1  0.501520  0.372153  0.432358  1
  O  O22  1  0.003420  0.127996  0.936452  1
  O  O23  1  0.996580  0.872004  0.063548  1
  O  O24  1  0.752623  0.667264  0.269495  1
  O  O25  1  0.247377  0.332736  0.730505  1
  O  O26  1  0.236833  0.166649  0.245954  1
  O  O27  1  0.763167  0.833351  0.754046  1
  O  O28  1  0.265249  0.643496  0.255250  1
  O  O29  1  0.734751  0.356504  0.744750  1
  O  O30  1  0.766142  0.142809  0.262242  1
  O  O31  1  0.233858  0.857191  0.737758  1
