# generated using pymatgen
data_Tb16Cd3AgIrPdPt2
_symmetry_space_group_name_H-M   'P 1'
_cell_length_a   9.70696900
_cell_length_b   9.67446362
_cell_length_c   9.67446300
_cell_angle_alpha   60.04175987
_cell_angle_beta   60.18657761
_cell_angle_gamma   60.18657598
_symmetry_Int_Tables_number   1
_chemical_formula_structural   Tb16Cd3AgIrPdPt2
_chemical_formula_sum   'Tb16 Cd3 Ag1 Ir1 Pd1 Pt2'
_cell_volume   644.43492648
_cell_formula_units_Z   1
loop_
 _symmetry_equiv_pos_site_id
 _symmetry_equiv_pos_as_xyz
  1  'x, y, z'
loop_
 _atom_site_type_symbol
 _atom_site_label
 _atom_site_symmetry_multiplicity
 _atom_site_fract_x
 _atom_site_fract_y
 _atom_site_fract_z
 _atom_site_occupancy
  Tb  Tb0  1  0.601706  0.598446  0.598446  1
  Tb  Tb1  1  0.606449  0.601713  0.193946  1
  Tb  Tb2  1  0.606449  0.193946  0.601713  1
  Tb  Tb3  1  0.186157  0.606690  0.606690  1
  Tb  Tb4  1  0.056269  0.440443  0.440443  1
  Tb  Tb5  1  0.440447  0.059236  0.059236  1
  Tb  Tb6  1  0.442522  0.058645  0.440276  1
  Tb  Tb7  1  0.058155  0.437833  0.063411  1
  Tb  Tb8  1  0.442522  0.440276  0.058645  1
  Tb  Tb9  1  0.058155  0.063411  0.437833  1
  Tb  Tb10  1  0.185067  0.814168  0.814168  1
  Tb  Tb11  1  0.815115  0.185593  0.185593  1
  Tb  Tb12  1  0.816068  0.184037  0.812018  1
  Tb  Tb13  1  0.185710  0.813580  0.185429  1
  Tb  Tb14  1  0.816068  0.812018  0.184037  1
  Tb  Tb15  1  0.185710  0.185429  0.813580  1
  Cd  Cd16  1  0.831018  0.831821  0.505503  1
  Cd  Cd17  1  0.831018  0.505503  0.831821  1
  Cd  Cd18  1  0.506550  0.831251  0.831251  1
  Ag  Ag19  1  0.833783  0.833875  0.833875  1
  Ir  Ir20  1  0.821989  0.392479  0.392479  1
  Pd  Pd21  1  0.392396  0.395529  0.395529  1
  Pt  Pt22  1  0.390340  0.393624  0.820459  1
  Pt  Pt23  1  0.390340  0.820459  0.393624  1
