# generated using pymatgen
data_La3Er2Tc3(P3Ir4)4
_symmetry_space_group_name_H-M   'P 1'
_cell_length_a   12.72005500
_cell_length_b   12.72005459
_cell_length_c   4.06096400
_cell_angle_alpha   90.00000000
_cell_angle_beta   90.00000000
_cell_angle_gamma   120.00000368
_symmetry_Int_Tables_number   1
_chemical_formula_structural   La3Er2Tc3(P3Ir4)4
_chemical_formula_sum   'La3 Er2 Tc3 P12 Ir16'
_cell_volume   569.03334860
_cell_formula_units_Z   1
loop_
 _symmetry_equiv_pos_site_id
 _symmetry_equiv_pos_as_xyz
  1  'x, y, z'
loop_
 _atom_site_type_symbol
 _atom_site_label
 _atom_site_symmetry_multiplicity
 _atom_site_fract_x
 _atom_site_fract_y
 _atom_site_fract_z
 _atom_site_occupancy
  La  La0  1  0.816547  0.816547  0.500000  1
  La  La1  1  0.183453  0.000000  0.500000  1
  La  La2  1  0.000000  0.183453  0.500000  1
  Er  Er3  1  0.666667  0.333333  0.000000  1
  Er  Er4  1  0.333333  0.666667  0.000000  1
  Tc  Tc5  1  0.294147  0.294147  0.500000  1
  Tc  Tc6  1  0.705853  0.000000  0.500000  1
  Tc  Tc7  1  0.000000  0.705853  0.500000  1
  P  P8  1  0.692892  0.174681  0.500000  1
  P  P9  1  0.825319  0.518211  0.500000  1
  P  P10  1  0.481789  0.307108  0.500000  1
  P  P11  1  0.174681  0.692892  0.500000  1
  P  P12  1  0.518211  0.825319  0.500000  1
  P  P13  1  0.307108  0.481789  0.500000  1
  P  P14  1  0.636463  0.636463  0.000000  1
  P  P15  1  0.363537  0.000000  0.000000  1
  P  P16  1  0.000000  0.363537  0.000000  1
  P  P17  1  0.185871  0.185871  0.000000  1
  P  P18  1  0.814129  0.000000  0.000000  1
  P  P19  1  0.000000  0.814129  0.000000  1
  Ir  Ir20  1  0.801024  0.183803  0.000000  1
  Ir  Ir21  1  0.816197  0.617221  0.000000  1
  Ir  Ir22  1  0.382779  0.198976  0.000000  1
  Ir  Ir23  1  0.183803  0.801024  0.000000  1
  Ir  Ir24  1  0.617221  0.816197  0.000000  1
  Ir  Ir25  1  0.198976  0.382779  0.000000  1
  Ir  Ir26  1  0.455801  0.455801  0.000000  1
  Ir  Ir27  1  0.544199  0.000000  0.000000  1
  Ir  Ir28  1  0.000000  0.544199  0.000000  1
  Ir  Ir29  1  0.869258  0.365276  0.500000  1
  Ir  Ir30  1  0.634724  0.503982  0.500000  1
  Ir  Ir31  1  0.496018  0.130742  0.500000  1
  Ir  Ir32  1  0.365276  0.869258  0.500000  1
  Ir  Ir33  1  0.503982  0.634724  0.500000  1
  Ir  Ir34  1  0.130742  0.496018  0.500000  1
  Ir  Ir35  1  0.000000  0.000000  0.000000  1
