# generated using pymatgen
data_CaLu3B12OsRu
_symmetry_space_group_name_H-M   'P 1'
_cell_length_a   3.60062700
_cell_length_b   9.06970959
_cell_length_c   11.45951549
_cell_angle_alpha   89.79729559
_cell_angle_beta   90.00000000
_cell_angle_gamma   90.00000000
_symmetry_Int_Tables_number   1
_chemical_formula_structural   CaLu3B12OsRu
_chemical_formula_sum   'Ca2 Lu6 B24 Os2 Ru2'
_cell_volume   374.22694388
_cell_formula_units_Z   2
loop_
 _symmetry_equiv_pos_site_id
 _symmetry_equiv_pos_as_xyz
  1  'x, y, z'
loop_
 _atom_site_type_symbol
 _atom_site_label
 _atom_site_symmetry_multiplicity
 _atom_site_fract_x
 _atom_site_fract_y
 _atom_site_fract_z
 _atom_site_occupancy
  Ca  Ca0  1  0.000000  0.323186  0.414653  1
  Ca  Ca1  1  0.000000  0.676814  0.585347  1
  Lu  Lu2  1  0.000000  0.821518  0.086280  1
  Lu  Lu3  1  0.000000  0.178482  0.913720  1
  Lu  Lu4  1  0.000000  0.942877  0.369527  1
  Lu  Lu5  1  0.000000  0.057123  0.630473  1
  Lu  Lu6  1  0.000000  0.442615  0.129293  1
  Lu  Lu7  1  0.000000  0.557385  0.870707  1
  B  B8  1  0.500000  0.554477  0.431726  1
  B  B9  1  0.500000  0.445523  0.568274  1
  B  B10  1  0.500000  0.053459  0.065685  1
  B  B11  1  0.500000  0.946541  0.934315  1
  B  B12  1  0.500000  0.749966  0.416969  1
  B  B13  1  0.500000  0.250034  0.583031  1
  B  B14  1  0.500000  0.249021  0.079963  1
  B  B15  1  0.500000  0.750979  0.920037  1
  B  B16  1  0.500000  0.792842  0.263028  1
  B  B17  1  0.500000  0.207158  0.736972  1
  B  B18  1  0.500000  0.290611  0.233133  1
  B  B19  1  0.500000  0.709389  0.766867  1
  B  B20  1  0.500000  0.631437  0.183341  1
  B  B21  1  0.500000  0.368563  0.816659  1
  B  B22  1  0.500000  0.129765  0.313514  1
  B  B23  1  0.500000  0.870235  0.686486  1
  B  B24  1  0.500000  0.982019  0.210967  1
  B  B25  1  0.500000  0.017981  0.789033  1
  B  B26  1  0.500000  0.483361  0.286448  1
  B  B27  1  0.500000  0.516639  0.713552  1
  B  B28  1  0.500000  0.602851  0.028122  1
  B  B29  1  0.500000  0.397149  0.971878  1
  B  B30  1  0.500000  0.097723  0.473182  1
  B  B31  1  0.500000  0.902277  0.526818  1
  Os  Os32  1  0.000000  0.641336  0.316748  1
  Os  Os33  1  0.000000  0.358664  0.683252  1
  Ru  Ru34  1  0.000000  0.136643  0.177197  1
  Ru  Ru35  1  0.000000  0.863357  0.822803  1
