# generated using pymatgen
data_Y3PaV2(CoB8)2
_symmetry_space_group_name_H-M   'P 1'
_cell_length_a   3.45623000
_cell_length_b   5.97500253
_cell_length_c   11.53024822
_cell_angle_alpha   89.83526818
_cell_angle_beta   90.00000000
_cell_angle_gamma   90.00000000
_symmetry_Int_Tables_number   1
_chemical_formula_structural   Y3PaV2(CoB8)2
_chemical_formula_sum   'Y3 Pa1 V2 Co2 B16'
_cell_volume   238.10997568
_cell_formula_units_Z   1
loop_
 _symmetry_equiv_pos_site_id
 _symmetry_equiv_pos_as_xyz
  1  'x, y, z'
loop_
 _atom_site_type_symbol
 _atom_site_label
 _atom_site_symmetry_multiplicity
 _atom_site_fract_x
 _atom_site_fract_y
 _atom_site_fract_z
 _atom_site_occupancy
  Y  Y0  1  0.000000  0.374297  0.654190  1
  Y  Y1  1  0.000000  0.126802  0.146123  1
  Y  Y2  1  0.000000  0.872231  0.851905  1
  Pa  Pa3  1  0.000000  0.626201  0.346992  1
  V  V4  1  0.000000  0.126773  0.414144  1
  V  V5  1  0.000000  0.873361  0.583938  1
  Co  Co6  1  0.000000  0.634993  0.090452  1
  Co  Co7  1  0.000000  0.365959  0.913154  1
  B  B8  1  0.500000  0.781148  0.182166  1
  B  B9  1  0.500000  0.218564  0.817651  1
  B  B10  1  0.500000  0.285837  0.312491  1
  B  B11  1  0.500000  0.714688  0.688592  1
  B  B12  1  0.500000  0.860482  0.032231  1
  B  B13  1  0.500000  0.139044  0.967379  1
  B  B14  1  0.500000  0.365360  0.466086  1
  B  B15  1  0.500000  0.636112  0.533026  1
  B  B16  1  0.500000  0.886281  0.453247  1
  B  B17  1  0.500000  0.114558  0.546685  1
  B  B18  1  0.500000  0.387105  0.044777  1
  B  B19  1  0.500000  0.611423  0.954600  1
  B  B20  1  0.500000  0.973657  0.306551  1
  B  B21  1  0.500000  0.025680  0.694282  1
  B  B22  1  0.500000  0.477629  0.187962  1
  B  B23  1  0.500000  0.521814  0.811376  1
