# generated using pymatgen
data_Ta2NbReSi3Mo2
_symmetry_space_group_name_H-M   'P 1'
_cell_length_a   6.91095543
_cell_length_b   6.89395959
_cell_length_c   3.34295600
_cell_angle_alpha   90.00000000
_cell_angle_beta   90.00000000
_cell_angle_gamma   119.75804064
_symmetry_Int_Tables_number   1
_chemical_formula_structural   Ta2NbReSi3Mo2
_chemical_formula_sum   'Ta2 Nb1 Re1 Si3 Mo2'
_cell_volume   138.26804891
_cell_formula_units_Z   1
loop_
 _symmetry_equiv_pos_site_id
 _symmetry_equiv_pos_as_xyz
  1  'x, y, z'
loop_
 _atom_site_type_symbol
 _atom_site_label
 _atom_site_symmetry_multiplicity
 _atom_site_fract_x
 _atom_site_fract_y
 _atom_site_fract_z
 _atom_site_occupancy
  Ta  Ta0  1  0.592608  0.992069  0.500000  1
  Ta  Ta1  1  0.998997  0.604551  0.500000  1
  Nb  Nb2  1  0.409136  0.402362  0.500000  1
  Re  Re3  1  0.997967  0.259734  0.000000  1
  Si  Si4  1  0.669263  0.331273  0.000000  1
  Si  Si5  1  0.329188  0.660712  0.000000  1
  Si  Si6  1  0.001483  0.005681  0.500000  1
  Mo  Mo7  1  0.743868  0.744256  0.000000  1
  Mo  Mo8  1  0.257489  0.999361  0.000000  1
