# generated using pymatgen
data_Tl(RhO2)6
_symmetry_space_group_name_H-M   'P 1'
_cell_length_a   8.60210517
_cell_length_b   8.60210508
_cell_length_c   8.60210500
_cell_angle_alpha   107.19798692
_cell_angle_beta   107.19799371
_cell_angle_gamma   114.12010566
_symmetry_Int_Tables_number   1
_chemical_formula_structural   Tl(RhO2)6
_chemical_formula_sum   'Tl2 Rh12 O24'
_cell_volume   487.55614717
_cell_formula_units_Z   2
loop_
 _symmetry_equiv_pos_site_id
 _symmetry_equiv_pos_as_xyz
  1  'x, y, z'
loop_
 _atom_site_type_symbol
 _atom_site_label
 _atom_site_symmetry_multiplicity
 _atom_site_fract_x
 _atom_site_fract_y
 _atom_site_fract_z
 _atom_site_occupancy
  Tl  Tl0  1  0.777285  0.777244  0.000000  1
  Tl  Tl1  1  0.222715  0.222756  0.000000  1
  Rh  Rh2  1  0.315717  0.831287  0.814456  1
  Rh  Rh3  1  0.649219  0.165278  0.814527  1
  Rh  Rh4  1  0.983136  0.498713  0.814351  1
  Rh  Rh5  1  0.016864  0.501287  0.185649  1
  Rh  Rh6  1  0.350781  0.834722  0.185473  1
  Rh  Rh7  1  0.684283  0.168713  0.185544  1
  Rh  Rh8  1  0.834719  0.649353  0.483975  1
  Rh  Rh9  1  0.168723  0.983146  0.484450  1
  Rh  Rh10  1  0.501288  0.315673  0.484469  1
  Rh  Rh11  1  0.498712  0.684327  0.515531  1
  Rh  Rh12  1  0.831277  0.016854  0.515550  1
  Rh  Rh13  1  0.165281  0.350647  0.516025  1
  O  O14  1  0.789502  0.493469  0.616248  1
  O  O15  1  0.122805  0.826815  0.616242  1
  O  O16  1  0.456448  0.158152  0.614706  1
  O  O17  1  0.877195  0.173185  0.383758  1
  O  O18  1  0.210498  0.506531  0.383752  1
  O  O19  1  0.543552  0.841848  0.385294  1
  O  O20  1  0.506550  0.122788  0.296062  1
  O  O21  1  0.841807  0.456541  0.298340  1
  O  O22  1  0.173250  0.789572  0.296106  1
  O  O23  1  0.158193  0.543459  0.701660  1
  O  O24  1  0.493450  0.877212  0.703938  1
  O  O25  1  0.826750  0.210428  0.703894  1
  O  O26  1  0.512676  0.870626  0.048962  1
  O  O27  1  0.845037  0.203409  0.048470  1
  O  O28  1  0.178377  0.536286  0.048977  1
  O  O29  1  0.154963  0.796591  0.951530  1
  O  O30  1  0.487324  0.129374  0.951038  1
  O  O31  1  0.821623  0.463714  0.951023  1
  O  O32  1  0.129328  0.178251  0.642007  1
  O  O33  1  0.463710  0.512664  0.642086  1
  O  O34  1  0.796624  0.845122  0.641601  1
  O  O35  1  0.536290  0.487336  0.357914  1
  O  O36  1  0.870672  0.821749  0.357993  1
  O  O37  1  0.203376  0.154878  0.358399  1
