# generated using pymatgen
data_Pr2B8Ir7Rh
_symmetry_space_group_name_H-M   'P 1'
_cell_length_a   3.99111045
_cell_length_b   7.70332312
_cell_length_c   7.70495311
_cell_angle_alpha   90.07707291
_cell_angle_beta   89.87812901
_cell_angle_gamma   89.96412591
_symmetry_Int_Tables_number   1
_chemical_formula_structural   Pr2B8Ir7Rh
_chemical_formula_sum   'Pr2 B8 Ir7 Rh1'
_cell_volume   236.88654861
_cell_formula_units_Z   1
loop_
 _symmetry_equiv_pos_site_id
 _symmetry_equiv_pos_as_xyz
  1  'x, y, z'
loop_
 _atom_site_type_symbol
 _atom_site_label
 _atom_site_symmetry_multiplicity
 _atom_site_fract_x
 _atom_site_fract_y
 _atom_site_fract_z
 _atom_site_occupancy
  Pr  Pr0  1  0.249458  0.250177  0.251445  1
  Pr  Pr1  1  0.751519  0.750000  0.750067  1
  B  B2  1  0.357230  0.908708  0.029662  1
  B  B3  1  0.357912  0.590197  0.468469  1
  B  B4  1  0.856855  0.529720  0.091856  1
  B  B5  1  0.858019  0.971095  0.409258  1
  B  B6  1  0.642673  0.091686  0.968966  1
  B  B7  1  0.642995  0.406753  0.528020  1
  B  B8  1  0.141852  0.467986  0.910365  1
  B  B9  1  0.141543  0.031807  0.591213  1
  Ir  Ir10  1  0.142452  0.090894  0.859385  1
  Ir  Ir11  1  0.639463  0.141639  0.592295  1
  Ir  Ir12  1  0.641235  0.360263  0.907791  1
  Ir  Ir13  1  0.859062  0.590982  0.360434  1
  Ir  Ir14  1  0.857163  0.909595  0.140961  1
  Ir  Ir15  1  0.358772  0.859137  0.409328  1
  Ir  Ir16  1  0.358384  0.640620  0.090904  1
  Rh  Rh17  1  0.143413  0.408741  0.639582  1
