# generated using pymatgen
data_Li3Hf(TaRh3)2
_symmetry_space_group_name_H-M   'P 1'
_cell_length_a   4.39702900
_cell_length_b   6.13399500
_cell_length_c   13.12223900
_cell_angle_alpha   89.99990527
_cell_angle_beta   90.00043132
_cell_angle_gamma   90.00000000
_symmetry_Int_Tables_number   1
_chemical_formula_structural   Li3Hf(TaRh3)2
_chemical_formula_sum   'Li6 Hf2 Ta4 Rh12'
_cell_volume   353.92455212
_cell_formula_units_Z   2
loop_
 _symmetry_equiv_pos_site_id
 _symmetry_equiv_pos_as_xyz
  1  'x, y, z'
loop_
 _atom_site_type_symbol
 _atom_site_label
 _atom_site_symmetry_multiplicity
 _atom_site_fract_x
 _atom_site_fract_y
 _atom_site_fract_z
 _atom_site_occupancy
  Li  Li0  1  0.000000  0.000000  0.001092  1
  Li  Li1  1  0.499943  0.499998  0.167296  1
  Li  Li2  1  0.999943  0.000002  0.332679  1
  Li  Li3  1  0.500000  0.499998  0.498913  1
  Li  Li4  1  0.000064  0.000000  0.665970  1
  Li  Li5  1  0.500068  0.500000  0.834037  1
  Hf  Hf6  1  0.000064  0.500000  0.665829  1
  Hf  Hf7  1  0.500061  0.000000  0.834165  1
  Ta  Ta8  1  0.000001  0.500001  0.001031  1
  Ta  Ta9  1  0.499939  0.999999  0.167365  1
  Ta  Ta10  1  0.999939  0.500000  0.332645  1
  Ta  Ta11  1  0.499999  0.999999  0.498968  1
  Rh  Rh12  1  0.499997  0.253297  0.004829  1
  Rh  Rh13  1  0.499996  0.746702  0.004830  1
  Rh  Rh14  1  0.999935  0.249151  0.167543  1
  Rh  Rh15  1  0.999935  0.750849  0.167543  1
  Rh  Rh16  1  0.499934  0.250848  0.332470  1
  Rh  Rh17  1  0.499933  0.749153  0.332470  1
  Rh  Rh18  1  0.999997  0.246693  0.495171  1
  Rh  Rh19  1  0.999996  0.753306  0.495170  1
  Rh  Rh20  1  0.500064  0.246733  0.662798  1
  Rh  Rh21  1  0.500064  0.753267  0.662798  1
  Rh  Rh22  1  0.000064  0.253266  0.837192  1
  Rh  Rh23  1  0.000063  0.746734  0.837192  1
