# generated using pymatgen
data_Tb4Ho8TcOs3
_symmetry_space_group_name_H-M   'P 1'
_cell_length_a   6.30836914
_cell_length_b   7.40810162
_cell_length_c   9.07141700
_cell_angle_alpha   90.00000000
_cell_angle_beta   90.00000000
_cell_angle_gamma   90.04468637
_symmetry_Int_Tables_number   1
_chemical_formula_structural   Tb4Ho8TcOs3
_chemical_formula_sum   'Tb4 Ho8 Tc1 Os3'
_cell_volume   423.93476108
_cell_formula_units_Z   1
loop_
 _symmetry_equiv_pos_site_id
 _symmetry_equiv_pos_as_xyz
  1  'x, y, z'
loop_
 _atom_site_type_symbol
 _atom_site_label
 _atom_site_symmetry_multiplicity
 _atom_site_fract_x
 _atom_site_fract_y
 _atom_site_fract_z
 _atom_site_occupancy
  Tb  Tb0  1  0.871976  0.540099  0.250000  1
  Tb  Tb1  1  0.626307  0.039845  0.250000  1
  Tb  Tb2  1  0.130603  0.459314  0.750000  1
  Tb  Tb3  1  0.369035  0.960113  0.750000  1
  Ho  Ho4  1  0.335547  0.674516  0.063059  1
  Ho  Ho5  1  0.165471  0.175490  0.436551  1
  Ho  Ho6  1  0.667208  0.324703  0.563217  1
  Ho  Ho7  1  0.834280  0.824974  0.936333  1
  Ho  Ho8  1  0.667208  0.324703  0.936783  1
  Ho  Ho9  1  0.834280  0.824974  0.563667  1
  Ho  Ho10  1  0.335547  0.674516  0.436941  1
  Ho  Ho11  1  0.165471  0.175490  0.063449  1
  Tc  Tc12  1  0.039141  0.884384  0.250000  1
  Os  Os13  1  0.458889  0.383764  0.250000  1
  Os  Os14  1  0.958241  0.117084  0.750000  1
  Os  Os15  1  0.540795  0.616028  0.750000  1
