# generated using pymatgen
data_Tb3Y3Al18(Si3Os4)2
_symmetry_space_group_name_H-M   'P 1'
_cell_length_a   8.71336200
_cell_length_b   8.68777174
_cell_length_c   9.55468800
_cell_angle_alpha   90.00009616
_cell_angle_beta   89.99990600
_cell_angle_gamma   120.10030333
_symmetry_Int_Tables_number   1
_chemical_formula_structural   Tb3Y3Al18(Si3Os4)2
_chemical_formula_sum   'Tb3 Y3 Al18 Si6 Os8'
_cell_volume   625.75086946
_cell_formula_units_Z   1
loop_
 _symmetry_equiv_pos_site_id
 _symmetry_equiv_pos_as_xyz
  1  'x, y, z'
loop_
 _atom_site_type_symbol
 _atom_site_label
 _atom_site_symmetry_multiplicity
 _atom_site_fract_x
 _atom_site_fract_y
 _atom_site_fract_z
 _atom_site_occupancy
  Tb  Tb0  1  0.388660  0.191771  0.750000  1
  Tb  Tb1  1  0.196915  0.808266  0.250000  1
  Tb  Tb2  1  0.803141  0.191745  0.750001  1
  Y  Y3  1  0.192950  0.385841  0.250000  1
  Y  Y4  1  0.807098  0.614192  0.750000  1
  Y  Y5  1  0.610939  0.807991  0.250000  1
  Al  Al6  1  0.165086  0.330182  0.578103  1
  Al  Al7  1  0.834895  0.669824  0.421907  1
  Al  Al8  1  0.670294  0.834482  0.576395  1
  Al  Al9  1  0.834896  0.669824  0.078093  1
  Al  Al10  1  0.329692  0.165517  0.423581  1
  Al  Al11  1  0.165085  0.330182  0.921897  1
  Al  Al12  1  0.164172  0.834489  0.576412  1
  Al  Al13  1  0.329692  0.165517  0.076419  1
  Al  Al14  1  0.835805  0.165493  0.423596  1
  Al  Al15  1  0.670294  0.834483  0.923606  1
  Al  Al16  1  0.835805  0.165493  0.076404  1
  Al  Al17  1  0.164172  0.834489  0.923589  1
  Al  Al18  1  0.872341  0.432832  0.250000  1
  Al  Al19  1  0.127638  0.567160  0.750000  1
  Al  Al20  1  0.560472  0.432957  0.250000  1
  Al  Al21  1  0.439536  0.567166  0.750000  1
  Al  Al22  1  0.999447  0.998847  0.249999  1
  Al  Al23  1  0.000597  0.001178  0.750001  1
  Si  Si24  1  0.332049  0.663908  0.038610  1
  Si  Si25  1  0.668100  0.336172  0.961432  1
  Si  Si26  1  0.668100  0.336171  0.538568  1
  Si  Si27  1  0.332049  0.663909  0.461390  1
  Si  Si28  1  0.563582  0.127087  0.250000  1
  Si  Si29  1  0.436419  0.872819  0.750000  1
  Os  Os30  1  0.500042  0.999973  0.000042  1
  Os  Os31  1  0.000029  0.500013  0.000010  1
  Os  Os32  1  0.500042  0.999973  0.499959  1
  Os  Os33  1  0.500030  0.500050  0.000018  1
  Os  Os34  1  0.000029  0.500012  0.499990  1
  Os  Os35  1  0.500029  0.500049  0.499981  1
  Os  Os36  1  0.999940  0.999973  0.000038  1
  Os  Os37  1  0.999940  0.999972  0.499962  1
