# generated using pymatgen
data_Ti9Be2NbSb6
_symmetry_space_group_name_H-M   'P 1'
_cell_length_a   8.11347000
_cell_length_b   8.12705331
_cell_length_c   5.45179700
_cell_angle_alpha   90.00000000
_cell_angle_beta   90.00000000
_cell_angle_gamma   119.94471878
_symmetry_Int_Tables_number   1
_chemical_formula_structural   Ti9Be2NbSb6
_chemical_formula_sum   'Ti9 Be2 Nb1 Sb6'
_cell_volume   311.49544889
_cell_formula_units_Z   1
loop_
 _symmetry_equiv_pos_site_id
 _symmetry_equiv_pos_as_xyz
  1  'x, y, z'
loop_
 _atom_site_type_symbol
 _atom_site_label
 _atom_site_symmetry_multiplicity
 _atom_site_fract_x
 _atom_site_fract_y
 _atom_site_fract_z
 _atom_site_occupancy
  Ti  Ti0  1  0.749109  0.000000  0.250000  1
  Ti  Ti1  1  0.000445  0.252079  0.750000  1
  Ti  Ti2  1  0.999744  0.747886  0.250000  1
  Ti  Ti3  1  0.748366  0.747921  0.750000  1
  Ti  Ti4  1  0.251857  0.252114  0.250000  1
  Ti  Ti5  1  0.333167  0.666961  0.499368  1
  Ti  Ti6  1  0.666208  0.333039  0.499368  1
  Ti  Ti7  1  0.666208  0.333039  0.000632  1
  Ti  Ti8  1  0.333167  0.666961  0.000632  1
  Be  Be9  1  0.998946  0.000000  0.498171  1
  Be  Be10  1  0.998946  0.000000  0.001829  1
  Nb  Nb11  1  0.250357  0.000000  0.750000  1
  Sb  Sb12  1  0.612995  0.000000  0.750000  1
  Sb  Sb13  1  0.390764  0.000000  0.250000  1
  Sb  Sb14  1  0.997336  0.606479  0.750000  1
  Sb  Sb15  1  0.000138  0.388751  0.250000  1
  Sb  Sb16  1  0.390858  0.393521  0.750000  1
  Sb  Sb17  1  0.611387  0.611249  0.250000  1
