# generated using pymatgen
data_La2URu3
_symmetry_space_group_name_H-M   'P 1'
_cell_length_a   5.29679161
_cell_length_b   5.29679208
_cell_length_c   5.29679431
_cell_angle_alpha   69.11440795
_cell_angle_beta   69.11441005
_cell_angle_gamma   69.11441694
_symmetry_Int_Tables_number   1
_chemical_formula_structural   La2URu3
_chemical_formula_sum   'La2 U1 Ru3'
_cell_volume   125.15980764
_cell_formula_units_Z   1
loop_
 _symmetry_equiv_pos_site_id
 _symmetry_equiv_pos_as_xyz
  1  'x, y, z'
loop_
 _atom_site_type_symbol
 _atom_site_label
 _atom_site_symmetry_multiplicity
 _atom_site_fract_x
 _atom_site_fract_y
 _atom_site_fract_z
 _atom_site_occupancy
  La  La0  1  0.124664  0.124664  0.124664  1
  La  La1  1  0.875336  0.875336  0.875336  1
  U  U2  1  0.500000  0.500000  0.500000  1
  Ru  Ru3  1  0.500000  0.000000  0.500000  1
  Ru  Ru4  1  0.000000  0.500000  0.500000  1
  Ru  Ru5  1  0.500000  0.500000  0.000000  1
