# generated using pymatgen
data_Pr2Dy2LuSi4
_symmetry_space_group_name_H-M   'P 1'
_cell_length_a   7.49619000
_cell_length_b   7.78842200
_cell_length_c   14.83614200
_cell_angle_alpha   90.00000000
_cell_angle_beta   90.00000000
_cell_angle_gamma   90.00000000
_symmetry_Int_Tables_number   1
_chemical_formula_structural   Pr2Dy2LuSi4
_chemical_formula_sum   'Pr8 Dy8 Lu4 Si16'
_cell_volume   866.18576460
_cell_formula_units_Z   4
loop_
 _symmetry_equiv_pos_site_id
 _symmetry_equiv_pos_as_xyz
  1  'x, y, z'
loop_
 _atom_site_type_symbol
 _atom_site_label
 _atom_site_symmetry_multiplicity
 _atom_site_fract_x
 _atom_site_fract_y
 _atom_site_fract_z
 _atom_site_occupancy
  Pr  Pr0  1  0.022000  0.178626  0.402144  1
  Pr  Pr1  1  0.522000  0.321374  0.402144  1
  Pr  Pr2  1  0.478000  0.678626  0.902144  1
  Pr  Pr3  1  0.478000  0.678626  0.597856  1
  Pr  Pr4  1  0.978000  0.821374  0.597856  1
  Pr  Pr5  1  0.978000  0.821374  0.902144  1
  Pr  Pr6  1  0.522000  0.321374  0.097856  1
  Pr  Pr7  1  0.022000  0.178626  0.097856  1
  Dy  Dy8  1  0.320362  0.178061  0.623359  1
  Dy  Dy9  1  0.679638  0.821939  0.376641  1
  Dy  Dy10  1  0.179638  0.678061  0.376641  1
  Dy  Dy11  1  0.820362  0.321939  0.876641  1
  Dy  Dy12  1  0.820362  0.321939  0.623359  1
  Dy  Dy13  1  0.320362  0.178061  0.876641  1
  Dy  Dy14  1  0.179638  0.678061  0.123359  1
  Dy  Dy15  1  0.679638  0.821939  0.123359  1
  Lu  Lu16  1  0.652427  0.989223  0.750000  1
  Lu  Lu17  1  0.847573  0.489223  0.250000  1
  Lu  Lu18  1  0.347573  0.010777  0.250000  1
  Lu  Lu19  1  0.152427  0.510777  0.750000  1
  Si  Si20  1  0.272538  0.876868  0.750000  1
  Si  Si21  1  0.476634  0.610813  0.250000  1
  Si  Si22  1  0.023366  0.110813  0.750000  1
  Si  Si23  1  0.523366  0.389187  0.750000  1
  Si  Si24  1  0.145038  0.469370  0.540149  1
  Si  Si25  1  0.976634  0.889187  0.250000  1
  Si  Si26  1  0.727462  0.123132  0.250000  1
  Si  Si27  1  0.854962  0.530630  0.040149  1
  Si  Si28  1  0.354962  0.969370  0.040149  1
  Si  Si29  1  0.145038  0.469370  0.959851  1
  Si  Si30  1  0.645038  0.030630  0.540149  1
  Si  Si31  1  0.354962  0.969370  0.459851  1
  Si  Si32  1  0.854962  0.530630  0.459851  1
  Si  Si33  1  0.772538  0.623132  0.750000  1
  Si  Si34  1  0.227462  0.376868  0.250000  1
  Si  Si35  1  0.645038  0.030630  0.959851  1
