# generated using pymatgen
data_Lu2Al4Ga5Ir3
_symmetry_space_group_name_H-M   'P 1'
_cell_length_a   7.52217104
_cell_length_b   7.51724733
_cell_length_c   9.48589703
_cell_angle_alpha   90.15272996
_cell_angle_beta   89.88149302
_cell_angle_gamma   119.73761969
_symmetry_Int_Tables_number   1
_chemical_formula_structural   Lu2Al4Ga5Ir3
_chemical_formula_sum   'Lu4 Al8 Ga10 Ir6'
_cell_volume   465.74859753
_cell_formula_units_Z   2
loop_
 _symmetry_equiv_pos_site_id
 _symmetry_equiv_pos_as_xyz
  1  'x, y, z'
loop_
 _atom_site_type_symbol
 _atom_site_label
 _atom_site_symmetry_multiplicity
 _atom_site_fract_x
 _atom_site_fract_y
 _atom_site_fract_z
 _atom_site_occupancy
  Lu  Lu0  1  0.999413  0.669719  0.250046  1
  Lu  Lu1  1  0.004097  0.335248  0.753785  1
  Lu  Lu2  1  0.670054  0.998135  0.249963  1
  Lu  Lu3  1  0.324697  0.998464  0.746266  1
  Al  Al4  1  0.001686  0.333875  0.427750  1
  Al  Al5  1  0.666467  0.000029  0.574054  1
  Al  Al6  1  0.663838  0.998354  0.925894  1
  Al  Al7  1  0.335551  0.002533  0.072086  1
  Al  Al8  1  0.332919  0.332313  0.556084  1
  Al  Al9  1  0.667883  0.667220  0.443959  1
  Al  Al10  1  0.667836  0.667386  0.056024  1
  Al  Al11  1  0.332119  0.332882  0.943961  1
  Ga  Ga12  1  0.128296  0.126530  0.250070  1
  Ga  Ga13  1  0.870027  0.875246  0.749996  1
  Ga  Ga14  1  0.998018  0.333745  0.081104  1
  Ga  Ga15  1  0.000781  0.666515  0.921291  1
  Ga  Ga16  1  0.998869  0.663257  0.578793  1
  Ga  Ga17  1  0.336313  0.999426  0.419089  1
  Ga  Ga18  1  0.341149  0.548208  0.250569  1
  Ga  Ga19  1  0.654481  0.447419  0.749660  1
  Ga  Ga20  1  0.549970  0.343945  0.249368  1
  Ga  Ga21  1  0.454242  0.660415  0.750282  1
  Ir  Ir22  1  0.667573  0.325579  0.999120  1
  Ir  Ir23  1  0.332287  0.674455  0.000858  1
  Ir  Ir24  1  0.330487  0.669759  0.500830  1
  Ir  Ir25  1  0.672537  0.327368  0.499026  1
  Ir  Ir26  1  0.000125  0.000085  0.999978  1
  Ir  Ir27  1  0.998282  0.001891  0.500094  1
