# generated using pymatgen
data_Ho3ScAu5
_symmetry_space_group_name_H-M   'P 1'
_cell_length_a   7.89390781
_cell_length_b   7.89390797
_cell_length_c   7.89390650
_cell_angle_alpha   66.25019890
_cell_angle_beta   66.25020176
_cell_angle_gamma   66.25018714
_symmetry_Int_Tables_number   1
_chemical_formula_structural   Ho3ScAu5
_chemical_formula_sum   'Ho6 Sc2 Au10'
_cell_volume   394.76089577
_cell_formula_units_Z   2
loop_
 _symmetry_equiv_pos_site_id
 _symmetry_equiv_pos_as_xyz
  1  'x, y, z'
loop_
 _atom_site_type_symbol
 _atom_site_label
 _atom_site_symmetry_multiplicity
 _atom_site_fract_x
 _atom_site_fract_y
 _atom_site_fract_z
 _atom_site_occupancy
  Ho  Ho0  1  0.891428  0.188986  0.618706  1
  Ho  Ho1  1  0.618706  0.891428  0.188986  1
  Ho  Ho2  1  0.188986  0.618706  0.891428  1
  Ho  Ho3  1  0.108572  0.811014  0.381294  1
  Ho  Ho4  1  0.381294  0.108572  0.811014  1
  Ho  Ho5  1  0.811014  0.381294  0.108572  1
  Sc  Sc6  1  0.658352  0.658352  0.658352  1
  Sc  Sc7  1  0.341648  0.341648  0.341648  1
  Au  Au8  1  0.000000  0.000000  0.000000  1
  Au  Au9  1  0.500000  0.500000  0.500000  1
  Au  Au10  1  0.806520  0.806520  0.806520  1
  Au  Au11  1  0.193480  0.193480  0.193480  1
  Au  Au12  1  0.937432  0.551163  0.317758  1
  Au  Au13  1  0.317758  0.937432  0.551163  1
  Au  Au14  1  0.551163  0.317758  0.937432  1
  Au  Au15  1  0.062568  0.448837  0.682242  1
  Au  Au16  1  0.682242  0.062568  0.448837  1
  Au  Au17  1  0.448837  0.682242  0.062568  1
