# generated using pymatgen
data_Sm8SnAsI12
_symmetry_space_group_name_H-M   'P 1'
_cell_length_a   4.31338800
_cell_length_b   14.22983069
_cell_length_c   15.03186700
_cell_angle_alpha   89.98211046
_cell_angle_beta   90.00000000
_cell_angle_gamma   90.00000000
_symmetry_Int_Tables_number   1
_chemical_formula_structural   Sm8SnAsI12
_chemical_formula_sum   'Sm8 Sn1 As1 I12'
_cell_volume   922.63762698
_cell_formula_units_Z   1
loop_
 _symmetry_equiv_pos_site_id
 _symmetry_equiv_pos_as_xyz
  1  'x, y, z'
loop_
 _atom_site_type_symbol
 _atom_site_label
 _atom_site_symmetry_multiplicity
 _atom_site_fract_x
 _atom_site_fract_y
 _atom_site_fract_z
 _atom_site_occupancy
  Sm  Sm0  1  0.500000  0.114438  0.347264  1
  Sm  Sm1  1  0.500000  0.885562  0.652736  1
  Sm  Sm2  1  0.500000  0.621050  0.161106  1
  Sm  Sm3  1  0.500000  0.378950  0.838894  1
  Sm  Sm4  1  0.000000  0.109671  0.573273  1
  Sm  Sm5  1  0.000000  0.890329  0.426727  1
  Sm  Sm6  1  0.000000  0.621279  0.918565  1
  Sm  Sm7  1  0.000000  0.378721  0.081435  1
  Sn  Sn8  1  0.500000  0.500000  0.000000  1
  As  As9  1  0.500000  0.000000  0.500000  1
  I  I10  1  0.500000  0.239281  0.164913  1
  I  I11  1  0.500000  0.760719  0.835087  1
  I  I12  1  0.500000  0.746939  0.341456  1
  I  I13  1  0.500000  0.253061  0.658544  1
  I  I14  1  0.000000  0.258287  0.414613  1
  I  I15  1  0.000000  0.741713  0.585387  1
  I  I16  1  0.000000  0.762025  0.086052  1
  I  I17  1  0.000000  0.237975  0.913948  1
  I  I18  1  0.000000  0.998749  0.241321  1
  I  I19  1  0.000000  0.001251  0.758679  1
  I  I20  1  0.000000  0.499172  0.262664  1
  I  I21  1  0.000000  0.500828  0.737336  1
