# generated using pymatgen
data_Ca4Fe(RuO4)3
_symmetry_space_group_name_H-M   'P 1'
_cell_length_a   5.40767393
_cell_length_b   5.59181577
_cell_length_c   7.74558185
_cell_angle_alpha   89.99331432
_cell_angle_beta   89.97794836
_cell_angle_gamma   89.88212666
_symmetry_Int_Tables_number   1
_chemical_formula_structural   Ca4Fe(RuO4)3
_chemical_formula_sum   'Ca4 Fe1 Ru3 O12'
_cell_volume   234.21593784
_cell_formula_units_Z   1
loop_
 _symmetry_equiv_pos_site_id
 _symmetry_equiv_pos_as_xyz
  1  'x, y, z'
loop_
 _atom_site_type_symbol
 _atom_site_label
 _atom_site_symmetry_multiplicity
 _atom_site_fract_x
 _atom_site_fract_y
 _atom_site_fract_z
 _atom_site_occupancy
  Ca  Ca0  1  0.990148  0.946414  0.756346  1
  Ca  Ca1  1  0.009697  0.052988  0.243649  1
  Ca  Ca2  1  0.483933  0.557646  0.242302  1
  Ca  Ca3  1  0.516188  0.441732  0.757529  1
  Fe  Fe4  1  0.499791  0.999906  0.000138  1
  Ru  Ru5  1  0.999702  0.499825  0.999997  1
  Ru  Ru6  1  0.500047  0.999795  0.500029  1
  Ru  Ru7  1  0.000081  0.499792  0.500021  1
  O  O8  1  0.803617  0.198511  0.549680  1
  O  O9  1  0.196616  0.801063  0.450321  1
  O  O10  1  0.095531  0.528300  0.751430  1
  O  O11  1  0.904629  0.471096  0.248475  1
  O  O12  1  0.296802  0.297851  0.045084  1
  O  O13  1  0.702993  0.701456  0.954966  1
  O  O14  1  0.697906  0.700453  0.549658  1
  O  O15  1  0.302398  0.299245  0.450404  1
  O  O16  1  0.410959  0.027387  0.747622  1
  O  O17  1  0.588973  0.972094  0.252323  1
  O  O18  1  0.197940  0.793860  0.046103  1
  O  O19  1  0.802052  0.205575  0.953922  1
