# generated using pymatgen
data_BaLiSmSe3
_symmetry_space_group_name_H-M   'P 1'
_cell_length_a   7.37366329
_cell_length_b   7.37366312
_cell_length_c   10.96306000
_cell_angle_alpha   90.00000000
_cell_angle_beta   90.00000000
_cell_angle_gamma   145.92832992
_symmetry_Int_Tables_number   1
_chemical_formula_structural   BaLiSmSe3
_chemical_formula_sum   'Ba2 Li2 Sm2 Se6'
_cell_volume   333.93685468
_cell_formula_units_Z   2
loop_
 _symmetry_equiv_pos_site_id
 _symmetry_equiv_pos_as_xyz
  1  'x, y, z'
loop_
 _atom_site_type_symbol
 _atom_site_label
 _atom_site_symmetry_multiplicity
 _atom_site_fract_x
 _atom_site_fract_y
 _atom_site_fract_z
 _atom_site_occupancy
  Ba  Ba0  1  0.746526  0.253475  0.250000  1
  Ba  Ba1  1  0.253475  0.746526  0.750000  1
  Li  Li2  1  0.470986  0.529015  0.250000  1
  Li  Li3  1  0.529015  0.470986  0.750000  1
  Sm  Sm4  1  0.000000  0.000000  0.000000  1
  Sm  Sm5  1  0.000000  0.000000  0.500000  1
  Se  Se6  1  0.365970  0.634032  0.063226  1
  Se  Se7  1  0.070080  0.929921  0.250000  1
  Se  Se8  1  0.365970  0.634032  0.436773  1
  Se  Se9  1  0.634032  0.365970  0.563227  1
  Se  Se10  1  0.929921  0.070080  0.750000  1
  Se  Se11  1  0.634032  0.365970  0.936773  1
