# generated using pymatgen
data_ZrSe23
_symmetry_space_group_name_H-M   'P 1'
_cell_length_a   5.23736715
_cell_length_b   10.19426330
_cell_length_c   16.49151900
_cell_angle_alpha   88.31348080
_cell_angle_beta   86.83688808
_cell_angle_gamma   91.83957472
_symmetry_Int_Tables_number   1
_chemical_formula_structural   ZrSe23
_chemical_formula_sum   'Zr1 Se23'
_cell_volume   878.27619183
_cell_formula_units_Z   1
loop_
 _symmetry_equiv_pos_site_id
 _symmetry_equiv_pos_as_xyz
  1  'x, y, z'
loop_
 _atom_site_type_symbol
 _atom_site_label
 _atom_site_symmetry_multiplicity
 _atom_site_fract_x
 _atom_site_fract_y
 _atom_site_fract_z
 _atom_site_occupancy
  Zr  Zr0  1  0.422409  0.356495  0.445480  1
  Se  Se1  1  0.594283  0.803668  0.400464  1
  Se  Se2  1  0.009468  0.311793  0.117263  1
  Se  Se3  1  0.899101  0.241946  0.462922  1
  Se  Se4  1  0.268992  0.816023  0.501350  1
  Se  Se5  1  0.242468  0.274124  0.993813  1
  Se  Se6  1  0.725424  0.697210  0.000406  1
  Se  Se7  1  0.197062  0.202325  0.348993  1
  Se  Se8  1  0.768522  0.584156  0.411682  1
  Se  Se9  1  0.769142  0.116924  0.155819  1
  Se  Se10  1  0.246763  0.849084  0.116076  1
  Se  Se11  1  0.700734  0.669902  0.647614  1
  Se  Se12  1  0.204202  0.387916  0.607160  1
  Se  Se13  1  0.226804  0.863753  0.854361  1
  Se  Se14  1  0.745529  0.131124  0.857052  1
  Se  Se15  1  0.993469  0.654340  0.107706  1
  Se  Se16  1  0.485575  0.866311  0.620315  1
  Se  Se17  1  0.487911  0.213971  0.584159  1
  Se  Se18  1  0.977206  0.667597  0.879316  1
  Se  Se19  1  0.986332  0.323874  0.884135  1
  Se  Se20  1  0.587738  0.467981  0.306417  1
  Se  Se21  1  0.056146  0.976045  0.218838  1
  Se  Se22  1  0.402206  0.518777  0.709587  1
  Se  Se23  1  0.002512  0.004657  0.769076  1
