# generated using pymatgen
data_Pr2Er4FeI10
_symmetry_space_group_name_H-M   'P 1'
_cell_length_a   7.79205746
_cell_length_b   9.83387119
_cell_length_c   9.73563327
_cell_angle_alpha   106.41496359
_cell_angle_beta   95.53602145
_cell_angle_gamma   105.28590658
_symmetry_Int_Tables_number   1
_chemical_formula_structural   Pr2Er4FeI10
_chemical_formula_sum   'Pr2 Er4 Fe1 I10'
_cell_volume   678.39438450
_cell_formula_units_Z   1
loop_
 _symmetry_equiv_pos_site_id
 _symmetry_equiv_pos_as_xyz
  1  'x, y, z'
loop_
 _atom_site_type_symbol
 _atom_site_label
 _atom_site_symmetry_multiplicity
 _atom_site_fract_x
 _atom_site_fract_y
 _atom_site_fract_z
 _atom_site_occupancy
  Pr  Pr0  1  0.889299  0.958473  0.220885  1
  Pr  Pr1  1  0.110701  0.041527  0.779115  1
  Er  Er2  1  0.030297  0.717654  0.915698  1
  Er  Er3  1  0.969703  0.282346  0.084302  1
  Er  Er4  1  0.656110  0.877102  0.837774  1
  Er  Er5  1  0.343890  0.122898  0.162226  1
  Fe  Fe6  1  0.000000  0.000000  0.000000  1
  I  I7  1  0.655646  0.556427  0.733551  1
  I  I8  1  0.344354  0.443573  0.266449  1
  I  I9  1  0.736628  0.912866  0.548289  1
  I  I10  1  0.263372  0.087134  0.451711  1
  I  I11  1  0.082825  0.376659  0.824341  1
  I  I12  1  0.917175  0.623341  0.175659  1
  I  I13  1  0.449812  0.818271  0.090510  1
  I  I14  1  0.550188  0.181729  0.909490  1
  I  I15  1  0.227941  0.740502  0.661561  1
  I  I16  1  0.772059  0.259498  0.338439  1
