# generated using pymatgen
data_La4Tb(ThTe4)3
_symmetry_space_group_name_H-M   'P 1'
_cell_length_a   4.48572900
_cell_length_b   11.95361785
_cell_length_c   12.28810752
_cell_angle_alpha   90.37437490
_cell_angle_beta   90.00000000
_cell_angle_gamma   90.00000000
_symmetry_Int_Tables_number   1
_chemical_formula_structural   La4Tb(ThTe4)3
_chemical_formula_sum   'La4 Tb1 Th3 Te12'
_cell_volume   658.88274160
_cell_formula_units_Z   1
loop_
 _symmetry_equiv_pos_site_id
 _symmetry_equiv_pos_as_xyz
  1  'x, y, z'
loop_
 _atom_site_type_symbol
 _atom_site_label
 _atom_site_symmetry_multiplicity
 _atom_site_fract_x
 _atom_site_fract_y
 _atom_site_fract_z
 _atom_site_occupancy
  La  La0  1  0.750000  0.503523  0.698090  1
  La  La1  1  0.750000  0.997791  0.196564  1
  La  La2  1  0.250000  0.498481  0.304154  1
  La  La3  1  0.250000  0.999125  0.803445  1
  Tb  Tb4  1  0.750000  0.689403  0.014359  1
  Th  Th5  1  0.250000  0.188721  0.484772  1
  Th  Th6  1  0.250000  0.311923  0.985046  1
  Th  Th7  1  0.750000  0.810631  0.515284  1
  Te  Te8  1  0.250000  0.626557  0.545211  1
  Te  Te9  1  0.250000  0.869012  0.042534  1
  Te  Te10  1  0.750000  0.373445  0.454986  1
  Te  Te11  1  0.750000  0.126990  0.955223  1
  Te  Te12  1  0.250000  0.295591  0.727209  1
  Te  Te13  1  0.250000  0.204722  0.226437  1
  Te  Te14  1  0.750000  0.704282  0.271804  1
  Te  Te15  1  0.750000  0.794895  0.772962  1
  Te  Te16  1  0.750000  0.056574  0.617182  1
  Te  Te17  1  0.750000  0.447272  0.115858  1
  Te  Te18  1  0.250000  0.943663  0.382653  1
  Te  Te19  1  0.250000  0.557400  0.886227  1
