# generated using pymatgen
data_AcNi11B6Ir
_symmetry_space_group_name_H-M   'P 1'
_cell_length_a   6.08287210
_cell_length_b   6.17202890
_cell_length_c   6.17203173
_cell_angle_alpha   104.48305714
_cell_angle_beta   104.40355183
_cell_angle_gamma   104.40354470
_symmetry_Int_Tables_number   1
_chemical_formula_structural   AcNi11B6Ir
_chemical_formula_sum   'Ac1 Ni11 B6 Ir1'
_cell_volume   205.01064244
_cell_formula_units_Z   1
loop_
 _symmetry_equiv_pos_site_id
 _symmetry_equiv_pos_as_xyz
  1  'x, y, z'
loop_
 _atom_site_type_symbol
 _atom_site_label
 _atom_site_symmetry_multiplicity
 _atom_site_fract_x
 _atom_site_fract_y
 _atom_site_fract_z
 _atom_site_occupancy
  Ac  Ac0  1  0.000000  0.002544  0.997456  1
  Ni  Ni1  1  0.460400  0.457299  0.192411  1
  Ni  Ni2  1  0.185478  0.461495  0.460675  1
  Ni  Ni3  1  0.539600  0.807589  0.542701  1
  Ni  Ni4  1  0.814522  0.539325  0.538505  1
  Ni  Ni5  1  0.537931  0.534077  0.806455  1
  Ni  Ni6  1  0.128307  0.491596  0.864391  1
  Ni  Ni7  1  0.871693  0.135609  0.508404  1
  Ni  Ni8  1  0.500000  0.136815  0.863185  1
  Ni  Ni9  1  0.864992  0.501319  0.131381  1
  Ni  Ni10  1  0.135008  0.868619  0.498681  1
  Ni  Ni11  1  0.462069  0.193545  0.465923  1
  B  B12  1  0.773170  0.769582  0.351710  1
  B  B13  1  0.343306  0.766593  0.761542  1
  B  B14  1  0.768212  0.347792  0.767915  1
  B  B15  1  0.656694  0.238458  0.233407  1
  B  B16  1  0.231788  0.232085  0.652208  1
  B  B17  1  0.226830  0.648290  0.230418  1
  Ir  Ir18  1  0.500000  0.867367  0.132633  1
