# generated using pymatgen
data_ErSc(Cu2P)4
_symmetry_space_group_name_H-M   'P 1'
_cell_length_a   7.18533260
_cell_length_b   7.18533284
_cell_length_c   3.73627200
_cell_angle_alpha   90.00000000
_cell_angle_beta   90.00000000
_cell_angle_gamma   90.47613809
_symmetry_Int_Tables_number   1
_chemical_formula_structural   ErSc(Cu2P)4
_chemical_formula_sum   'Er1 Sc1 Cu8 P4'
_cell_volume   192.89334992
_cell_formula_units_Z   1
loop_
 _symmetry_equiv_pos_site_id
 _symmetry_equiv_pos_as_xyz
  1  'x, y, z'
loop_
 _atom_site_type_symbol
 _atom_site_label
 _atom_site_symmetry_multiplicity
 _atom_site_fract_x
 _atom_site_fract_y
 _atom_site_fract_z
 _atom_site_occupancy
  Er  Er0  1  0.000000  0.000000  0.500000  1
  Sc  Sc1  1  0.500000  0.500000  0.000000  1
  Cu  Cu2  1  0.583069  0.167033  0.500000  1
  Cu  Cu3  1  0.416931  0.832967  0.500000  1
  Cu  Cu4  1  0.084708  0.334676  0.000000  1
  Cu  Cu5  1  0.915292  0.665324  0.000000  1
  Cu  Cu6  1  0.167033  0.583069  0.500000  1
  Cu  Cu7  1  0.832967  0.416931  0.500000  1
  Cu  Cu8  1  0.334676  0.084708  0.000000  1
  Cu  Cu9  1  0.665324  0.915292  0.000000  1
  P  P10  1  0.707415  0.707415  0.500000  1
  P  P11  1  0.292585  0.292585  0.500000  1
  P  P12  1  0.215556  0.784444  0.000000  1
  P  P13  1  0.784444  0.215556  0.000000  1
