# generated using pymatgen
data_La6Si2HgSe14
_symmetry_space_group_name_H-M   'P 1'
_cell_length_a   10.86588400
_cell_length_b   10.86588573
_cell_length_c   6.08524400
_cell_angle_alpha   90.00000000
_cell_angle_beta   90.00000000
_cell_angle_gamma   120.00000082
_symmetry_Int_Tables_number   1
_chemical_formula_structural   La6Si2HgSe14
_chemical_formula_sum   'La6 Si2 Hg1 Se14'
_cell_volume   622.21263063
_cell_formula_units_Z   1
loop_
 _symmetry_equiv_pos_site_id
 _symmetry_equiv_pos_as_xyz
  1  'x, y, z'
loop_
 _atom_site_type_symbol
 _atom_site_label
 _atom_site_symmetry_multiplicity
 _atom_site_fract_x
 _atom_site_fract_y
 _atom_site_fract_z
 _atom_site_occupancy
  La  La0  1  0.977236  0.434274  0.750787  1
  La  La1  1  0.457037  0.022764  0.750787  1
  La  La2  1  0.565726  0.542963  0.750787  1
  La  La3  1  0.689963  0.898871  0.250782  1
  La  La4  1  0.208908  0.310037  0.250782  1
  La  La5  1  0.101129  0.791092  0.250782  1
  Si  Si6  1  0.666667  0.333333  0.165426  1
  Si  Si7  1  0.000000  0.000000  0.659330  1
  Hg  Hg8  1  0.333333  0.666667  0.508946  1
  Se  Se9  1  0.666667  0.333333  0.537962  1
  Se  Se10  1  0.000000  0.000000  0.032407  1
  Se  Se11  1  0.074225  0.497819  0.268081  1
  Se  Se12  1  0.423595  0.925775  0.268081  1
  Se  Se13  1  0.502181  0.576405  0.268081  1
  Se  Se14  1  0.592141  0.837500  0.761344  1
  Se  Se15  1  0.245358  0.407859  0.761344  1
  Se  Se16  1  0.162500  0.754642  0.761344  1
  Se  Se17  1  0.811575  0.556178  0.016638  1
  Se  Se18  1  0.744603  0.188425  0.016638  1
  Se  Se19  1  0.443822  0.255397  0.016638  1
  Se  Se20  1  0.854980  0.776806  0.512357  1
  Se  Se21  1  0.921829  0.145020  0.512357  1
  Se  Se22  1  0.223194  0.078171  0.512357  1
