# generated using pymatgen
data_YMn2(CoP)3
_symmetry_space_group_name_H-M   'P 1'
_cell_length_a   3.61382400
_cell_length_b   10.34433800
_cell_length_c   12.06300300
_cell_angle_alpha   90.00000000
_cell_angle_beta   90.00000000
_cell_angle_gamma   90.00000000
_symmetry_Int_Tables_number   1
_chemical_formula_structural   YMn2(CoP)3
_chemical_formula_sum   'Y4 Mn8 Co12 P12'
_cell_volume   450.94662016
_cell_formula_units_Z   4
loop_
 _symmetry_equiv_pos_site_id
 _symmetry_equiv_pos_as_xyz
  1  'x, y, z'
loop_
 _atom_site_type_symbol
 _atom_site_label
 _atom_site_symmetry_multiplicity
 _atom_site_fract_x
 _atom_site_fract_y
 _atom_site_fract_z
 _atom_site_occupancy
  Y  Y0  1  0.250000  0.582873  0.709274  1
  Y  Y1  1  0.250000  0.917127  0.209274  1
  Y  Y2  1  0.750000  0.417127  0.290726  1
  Y  Y3  1  0.750000  0.082873  0.790726  1
  Mn  Mn4  1  0.250000  0.713011  0.991009  1
  Mn  Mn5  1  0.250000  0.786989  0.491009  1
  Mn  Mn6  1  0.750000  0.286989  0.008991  1
  Mn  Mn7  1  0.750000  0.213011  0.508991  1
  Mn  Mn8  1  0.250000  0.407038  0.491148  1
  Mn  Mn9  1  0.250000  0.092962  0.991148  1
  Mn  Mn10  1  0.750000  0.592962  0.508852  1
  Mn  Mn11  1  0.750000  0.907038  0.008852  1
  Co  Co12  1  0.250000  0.221525  0.176820  1
  Co  Co13  1  0.250000  0.278475  0.676820  1
  Co  Co14  1  0.750000  0.778475  0.823180  1
  Co  Co15  1  0.750000  0.721525  0.323180  1
  Co  Co16  1  0.250000  0.882273  0.695708  1
  Co  Co17  1  0.250000  0.617727  0.195708  1
  Co  Co18  1  0.750000  0.117727  0.304292  1
  Co  Co19  1  0.750000  0.382273  0.804292  1
  Co  Co20  1  0.250000  0.465632  0.933890  1
  Co  Co21  1  0.250000  0.034368  0.433890  1
  Co  Co22  1  0.750000  0.534368  0.066110  1
  Co  Co23  1  0.750000  0.965632  0.566110  1
  P  P24  1  0.250000  0.419052  0.111076  1
  P  P25  1  0.250000  0.080948  0.611076  1
  P  P26  1  0.750000  0.580948  0.888924  1
  P  P27  1  0.750000  0.919052  0.388924  1
  P  P28  1  0.250000  0.269447  0.867362  1
  P  P29  1  0.250000  0.230553  0.367362  1
  P  P30  1  0.750000  0.730553  0.132638  1
  P  P31  1  0.750000  0.769447  0.632638  1
  P  P32  1  0.250000  0.600489  0.383390  1
  P  P33  1  0.250000  0.899511  0.883390  1
  P  P34  1  0.750000  0.399511  0.616610  1
  P  P35  1  0.750000  0.100489  0.116610  1
