# generated using pymatgen
data_Hf6GaPC2
_symmetry_space_group_name_H-M   'P 1'
_cell_length_a   5.82866441
_cell_length_b   5.82866461
_cell_length_c   8.69813500
_cell_angle_alpha   90.00000000
_cell_angle_beta   90.00000000
_cell_angle_gamma   145.78564242
_symmetry_Int_Tables_number   1
_chemical_formula_structural   Hf6GaPC2
_chemical_formula_sum   'Hf6 Ga1 P1 C2'
_cell_volume   166.15946962
_cell_formula_units_Z   1
loop_
 _symmetry_equiv_pos_site_id
 _symmetry_equiv_pos_as_xyz
  1  'x, y, z'
loop_
 _atom_site_type_symbol
 _atom_site_label
 _atom_site_symmetry_multiplicity
 _atom_site_fract_x
 _atom_site_fract_y
 _atom_site_fract_z
 _atom_site_occupancy
  Hf  Hf0  1  0.127966  0.872032  0.045975  1
  Hf  Hf1  1  0.449181  0.550817  0.250000  1
  Hf  Hf2  1  0.127966  0.872032  0.454024  1
  Hf  Hf3  1  0.868322  0.131676  0.560019  1
  Hf  Hf4  1  0.565761  0.434237  0.750000  1
  Hf  Hf5  1  0.868322  0.131676  0.939980  1
  Ga  Ga6  1  0.750212  0.249786  0.250000  1
  P  P7  1  0.245376  0.754622  0.750000  1
  C  C8  1  0.498441  0.501557  0.995787  1
  C  C9  1  0.498441  0.501557  0.504213  1
