# generated using pymatgen
data_Li12Sm3Y9(WO6)8
_symmetry_space_group_name_H-M   'P 1'
_cell_length_a   10.72681494
_cell_length_b   10.74472651
_cell_length_c   10.74416777
_cell_angle_alpha   109.50570539
_cell_angle_beta   109.43819114
_cell_angle_gamma   109.43808378
_symmetry_Int_Tables_number   1
_chemical_formula_structural   Li12Sm3Y9(WO6)8
_chemical_formula_sum   'Li12 Sm3 Y9 W8 O48'
_cell_volume   953.64466498
_cell_formula_units_Z   1
loop_
 _symmetry_equiv_pos_site_id
 _symmetry_equiv_pos_as_xyz
  1  'x, y, z'
loop_
 _atom_site_type_symbol
 _atom_site_label
 _atom_site_symmetry_multiplicity
 _atom_site_fract_x
 _atom_site_fract_y
 _atom_site_fract_z
 _atom_site_occupancy
  Li  Li0  1  0.750608  0.375479  0.124881  1
  Li  Li1  1  0.874273  0.749402  0.124881  1
  Li  Li2  1  0.125156  0.375737  0.250003  1
  Li  Li3  1  0.624847  0.874266  0.250003  1
  Li  Li4  1  0.250589  0.125818  0.376370  1
  Li  Li5  1  0.625781  0.250552  0.376370  1
  Li  Li6  1  0.375089  0.749961  0.625088  1
  Li  Li7  1  0.749999  0.875127  0.625088  1
  Li  Li8  1  0.374954  0.124964  0.749396  1
  Li  Li9  1  0.874442  0.624432  0.749396  1
  Li  Li10  1  0.250013  0.624180  0.874209  1
  Li  Li11  1  0.124196  0.250029  0.874209  1
  Sm  Sm12  1  0.375165  0.250425  0.124617  1
  Sm  Sm13  1  0.249452  0.874192  0.124617  1
  Sm  Sm14  1  0.874777  0.124777  0.249554  1
  Y  Y15  1  0.375517  0.625517  0.251034  1
  Y  Y16  1  0.750976  0.626038  0.375650  1
  Y  Y17  1  0.124674  0.749612  0.375650  1
  Y  Y18  1  0.875073  0.250402  0.626043  1
  Y  Y19  1  0.250970  0.375641  0.626043  1
  Y  Y20  1  0.625114  0.375114  0.750229  1
  Y  Y21  1  0.124301  0.874301  0.748603  1
  Y  Y22  1  0.624719  0.749516  0.874174  1
  Y  Y23  1  0.749455  0.124658  0.874174  1
  W  W24  1  0.998186  0.999114  0.997342  1
  W  W25  1  0.499156  0.998227  0.997342  1
  W  W26  1  0.999468  0.498784  0.999989  1
  W  W27  1  0.500521  0.501205  0.999989  1
  W  W28  1  0.000356  0.000224  0.501232  1
  W  W29  1  0.500384  0.000036  0.501442  1
  W  W30  1  0.000876  0.501009  0.501232  1
  W  W31  1  0.501057  0.501406  0.501442  1
  O  O32  1  0.199305  0.615450  0.025417  1
  O  O33  1  0.326112  0.409967  0.025417  1
  O  O34  1  0.698479  0.172506  0.078763  1
  O  O35  1  0.880283  0.906257  0.078763  1
  O  O36  1  0.615634  0.915266  0.089093  1
  O  O37  1  0.973460  0.173828  0.089093  1
  O  O38  1  0.025290  0.698083  0.118951  1
  O  O39  1  0.593661  0.420868  0.118951  1
  O  O40  1  0.196957  0.081901  0.173077  1
  O  O41  1  0.476119  0.091176  0.173077  1
  O  O42  1  0.118924  0.526908  0.200402  1
  O  O43  1  0.581478  0.673495  0.200402  1
  O  O44  1  0.327524  0.421137  0.302030  1
  O  O45  1  0.474506  0.880893  0.302030  1
  O  O46  1  0.918961  0.800277  0.327189  1
  O  O47  1  0.908228  0.526912  0.327189  1
  O  O48  1  0.584243  0.410398  0.384850  1
  O  O49  1  0.300606  0.974452  0.384850  1
  O  O50  1  0.826061  0.025590  0.410228  1
  O  O51  1  0.084167  0.384638  0.410228  1
  O  O52  1  0.093375  0.119030  0.420874  1
  O  O53  1  0.827499  0.301844  0.420874  1
  O  O54  1  0.592445  0.673859  0.473401  1
  O  O55  1  0.380957  0.799541  0.473401  1
  O  O56  1  0.618757  0.199766  0.527224  1
  O  O57  1  0.408467  0.327458  0.527224  1
  O  O58  1  0.173464  0.701207  0.581629  1
  O  O59  1  0.908165  0.880421  0.581629  1
  O  O60  1  0.919153  0.619799  0.592359  1
  O  O61  1  0.173206  0.972559  0.592359  1
  O  O62  1  0.700781  0.027468  0.620010  1
  O  O63  1  0.419229  0.592542  0.620010  1
  O  O64  1  0.081393  0.200518  0.673605  1
  O  O65  1  0.092214  0.473088  0.673606  1
  O  O66  1  0.527908  0.119472  0.701422  1
  O  O67  1  0.673513  0.581950  0.701422  1
  O  O68  1  0.881100  0.473067  0.800145  1
  O  O69  1  0.419044  0.327077  0.800145  1
  O  O70  1  0.528167  0.907860  0.825793  1
  O  O71  1  0.797626  0.917934  0.825793  1
  O  O72  1  0.971923  0.298744  0.880344  1
  O  O73  1  0.408421  0.581600  0.880344  1
  O  O74  1  0.380166  0.079273  0.905826  1
  O  O75  1  0.025660  0.826553  0.905826  1
  O  O76  1  0.299053  0.825203  0.914840  1
  O  O77  1  0.115787  0.089636  0.914840  1
  O  O78  1  0.799137  0.380299  0.972378  1
  O  O79  1  0.673242  0.592081  0.972379  1
