# generated using pymatgen
data_MgSc2Fe3(BO5)2
_symmetry_space_group_name_H-M   'P 1'
_cell_length_a   3.17777100
_cell_length_b   9.61873082
_cell_length_c   12.60730349
_cell_angle_alpha   89.15063211
_cell_angle_beta   90.00000000
_cell_angle_gamma   90.00000000
_symmetry_Int_Tables_number   1
_chemical_formula_structural   MgSc2Fe3(BO5)2
_chemical_formula_sum   'Mg2 Sc4 Fe6 B4 O20'
_cell_volume   385.31405784
_cell_formula_units_Z   2
loop_
 _symmetry_equiv_pos_site_id
 _symmetry_equiv_pos_as_xyz
  1  'x, y, z'
loop_
 _atom_site_type_symbol
 _atom_site_label
 _atom_site_symmetry_multiplicity
 _atom_site_fract_x
 _atom_site_fract_y
 _atom_site_fract_z
 _atom_site_occupancy
  Mg  Mg0  1  0.500000  0.503845  0.220871  1
  Mg  Mg1  1  0.500000  0.496155  0.779129  1
  Sc  Sc2  1  0.000000  0.740895  0.384626  1
  Sc  Sc3  1  0.000000  0.259105  0.615374  1
  Sc  Sc4  1  0.000000  0.244120  0.115405  1
  Sc  Sc5  1  0.000000  0.755880  0.884595  1
  Fe  Fe6  1  0.500000  0.003401  0.278543  1
  Fe  Fe7  1  0.500000  0.996599  0.721457  1
  Fe  Fe8  1  0.500000  0.500000  0.500000  1
  Fe  Fe9  1  0.500000  0.000000  0.000000  1
  Fe  Fe10  1  0.000000  0.000000  0.500000  1
  Fe  Fe11  1  0.000000  0.500000  0.000000  1
  B  B12  1  0.000000  0.769706  0.140131  1
  B  B13  1  0.000000  0.230294  0.859869  1
  B  B14  1  0.000000  0.276532  0.360187  1
  B  B15  1  0.000000  0.723468  0.639813  1
  O  O16  1  0.000000  0.840580  0.043134  1
  O  O17  1  0.000000  0.159420  0.956866  1
  O  O18  1  0.000000  0.345406  0.456367  1
  O  O19  1  0.000000  0.654594  0.543633  1
  O  O20  1  0.500000  0.607318  0.357931  1
  O  O21  1  0.500000  0.392682  0.642069  1
  O  O22  1  0.500000  0.107635  0.140451  1
  O  O23  1  0.500000  0.892365  0.859549  1
  O  O24  1  0.000000  0.624244  0.145845  1
  O  O25  1  0.000000  0.375756  0.854155  1
  O  O26  1  0.000000  0.132214  0.357014  1
  O  O27  1  0.000000  0.867786  0.642986  1
  O  O28  1  0.500000  0.888034  0.418538  1
  O  O29  1  0.500000  0.111966  0.581462  1
  O  O30  1  0.500000  0.388384  0.081624  1
  O  O31  1  0.500000  0.611616  0.918376  1
  O  O32  1  0.000000  0.845394  0.233265  1
  O  O33  1  0.000000  0.154606  0.766735  1
  O  O34  1  0.000000  0.354574  0.265365  1
  O  O35  1  0.000000  0.645426  0.734635  1
