# generated using pymatgen
data_Nb8CrCoSe16
_symmetry_space_group_name_H-M   'P 1'
_cell_length_a   6.98346300
_cell_length_b   6.98346207
_cell_length_c   12.62379000
_cell_angle_alpha   90.00000000
_cell_angle_beta   90.00000000
_cell_angle_gamma   120.00000915
_symmetry_Int_Tables_number   1
_chemical_formula_structural   Nb8CrCoSe16
_chemical_formula_sum   'Nb8 Cr1 Co1 Se16'
_cell_volume   533.16541241
_cell_formula_units_Z   1
loop_
 _symmetry_equiv_pos_site_id
 _symmetry_equiv_pos_as_xyz
  1  'x, y, z'
loop_
 _atom_site_type_symbol
 _atom_site_label
 _atom_site_symmetry_multiplicity
 _atom_site_fract_x
 _atom_site_fract_y
 _atom_site_fract_z
 _atom_site_occupancy
  Nb  Nb0  1  0.000000  0.000000  0.247534  1
  Nb  Nb1  1  0.000000  0.000000  0.752466  1
  Nb  Nb2  1  0.508611  0.017223  0.248761  1
  Nb  Nb3  1  0.982777  0.491389  0.248761  1
  Nb  Nb4  1  0.508611  0.491389  0.248761  1
  Nb  Nb5  1  0.491389  0.982777  0.751239  1
  Nb  Nb6  1  0.017223  0.508611  0.751239  1
  Nb  Nb7  1  0.491389  0.508611  0.751239  1
  Cr  Cr8  1  0.000000  0.000000  0.500000  1
  Co  Co9  1  0.000000  0.000000  0.000000  1
  Se  Se10  1  0.333333  0.666667  0.889071  1
  Se  Se11  1  0.666667  0.333333  0.110929  1
  Se  Se12  1  0.666667  0.333333  0.387488  1
  Se  Se13  1  0.333333  0.666667  0.612512  1
  Se  Se14  1  0.167551  0.832449  0.380490  1
  Se  Se15  1  0.167551  0.335102  0.380490  1
  Se  Se16  1  0.664898  0.832449  0.380490  1
  Se  Se17  1  0.832449  0.167551  0.619510  1
  Se  Se18  1  0.832449  0.664898  0.619510  1
  Se  Se19  1  0.335102  0.167551  0.619510  1
  Se  Se20  1  0.831944  0.168056  0.882284  1
  Se  Se21  1  0.831944  0.663887  0.882284  1
  Se  Se22  1  0.336113  0.168056  0.882284  1
  Se  Se23  1  0.168056  0.831944  0.117716  1
  Se  Se24  1  0.168056  0.336113  0.117716  1
  Se  Se25  1  0.663887  0.831944  0.117716  1
