# generated using pymatgen
data_Mg3Ta4TiOs8
_symmetry_space_group_name_H-M   'P 1'
_cell_length_a   6.28655700
_cell_length_b   4.46081700
_cell_length_c   8.89656400
_cell_angle_alpha   90.00000000
_cell_angle_beta   90.00034705
_cell_angle_gamma   90.00000000
_symmetry_Int_Tables_number   1
_chemical_formula_structural   Mg3Ta4TiOs8
_chemical_formula_sum   'Mg3 Ta4 Ti1 Os8'
_cell_volume   249.48794863
_cell_formula_units_Z   1
loop_
 _symmetry_equiv_pos_site_id
 _symmetry_equiv_pos_as_xyz
  1  'x, y, z'
loop_
 _atom_site_type_symbol
 _atom_site_label
 _atom_site_symmetry_multiplicity
 _atom_site_fract_x
 _atom_site_fract_y
 _atom_site_fract_z
 _atom_site_occupancy
  Mg  Mg0  1  0.250000  0.250000  0.123317  1
  Mg  Mg1  1  0.750000  0.749999  0.374977  1
  Mg  Mg2  1  0.250000  0.250000  0.626695  1
  Ta  Ta3  1  0.750000  0.250000  0.131169  1
  Ta  Ta4  1  0.250001  0.749999  0.375026  1
  Ta  Ta5  1  0.750000  0.250000  0.618820  1
  Ta  Ta6  1  0.250000  0.749999  0.875025  1
  Ti  Ti7  1  0.750002  0.749999  0.874980  1
  Os  Os8  1  0.503663  0.749999  0.120184  1
  Os  Os9  1  0.996336  0.749999  0.120184  1
  Os  Os10  1  0.496529  0.250000  0.375013  1
  Os  Os11  1  0.003473  0.250000  0.375012  1
  Os  Os12  1  0.996327  0.749999  0.629803  1
  Os  Os13  1  0.503671  0.749999  0.629802  1
  Os  Os14  1  0.993302  0.250000  0.874996  1
  Os  Os15  1  0.506697  0.250000  0.874997  1
