# generated using pymatgen
data_Li(ThIr3)2
_symmetry_space_group_name_H-M   'P 1'
_cell_length_a   5.36859110
_cell_length_b   5.36859170
_cell_length_c   13.36938944
_cell_angle_alpha   78.41746372
_cell_angle_beta   78.41747225
_cell_angle_gamma   59.99999543
_symmetry_Int_Tables_number   1
_chemical_formula_structural   Li(ThIr3)2
_chemical_formula_sum   'Li2 Th4 Ir12'
_cell_volume   324.61298842
_cell_formula_units_Z   2
loop_
 _symmetry_equiv_pos_site_id
 _symmetry_equiv_pos_as_xyz
  1  'x, y, z'
loop_
 _atom_site_type_symbol
 _atom_site_label
 _atom_site_symmetry_multiplicity
 _atom_site_fract_x
 _atom_site_fract_y
 _atom_site_fract_z
 _atom_site_occupancy
  Li  Li0  1  0.720307  0.720307  0.839078  1
  Li  Li1  1  0.279693  0.279693  0.160922  1
  Th  Th2  1  0.950683  0.950683  0.147952  1
  Th  Th3  1  0.049317  0.049317  0.852048  1
  Th  Th4  1  0.853706  0.853706  0.438880  1
  Th  Th5  1  0.146294  0.146294  0.561120  1
  Ir  Ir6  1  0.500000  0.500000  0.500000  1
  Ir  Ir7  1  0.611331  0.611331  0.166008  1
  Ir  Ir8  1  0.388669  0.388669  0.833992  1
  Ir  Ir9  1  0.000000  0.500000  0.000000  1
  Ir  Ir10  1  0.500000  0.000000  0.000000  1
  Ir  Ir11  1  0.500000  0.500000  0.000000  1
  Ir  Ir12  1  0.386533  0.386533  0.330524  1
  Ir  Ir13  1  0.896409  0.386533  0.330524  1
  Ir  Ir14  1  0.386533  0.896409  0.330524  1
  Ir  Ir15  1  0.613467  0.613467  0.669476  1
  Ir  Ir16  1  0.103591  0.613467  0.669476  1
  Ir  Ir17  1  0.613467  0.103591  0.669476  1
