# generated using pymatgen
data_La12Ru(AuBr4)3
_symmetry_space_group_name_H-M   'P 1'
_cell_length_a   10.74781988
_cell_length_b   10.74781927
_cell_length_c   10.74781939
_cell_angle_alpha   108.84611328
_cell_angle_beta   108.84611805
_cell_angle_gamma   108.84611182
_symmetry_Int_Tables_number   1
_chemical_formula_structural   La12Ru(AuBr4)3
_chemical_formula_sum   'La12 Ru1 Au3 Br12'
_cell_volume   977.23239943
_cell_formula_units_Z   1
loop_
 _symmetry_equiv_pos_site_id
 _symmetry_equiv_pos_as_xyz
  1  'x, y, z'
loop_
 _atom_site_type_symbol
 _atom_site_label
 _atom_site_symmetry_multiplicity
 _atom_site_fract_x
 _atom_site_fract_y
 _atom_site_fract_z
 _atom_site_occupancy
  La  La0  1  0.259854  0.750000  0.240146  1
  La  La1  1  0.488112  0.750000  0.011888  1
  La  La2  1  0.240545  0.469185  0.475018  1
  La  La3  1  0.024982  0.030815  0.259455  1
  La  La4  1  0.240146  0.259854  0.750000  1
  La  La5  1  0.011888  0.488112  0.750000  1
  La  La6  1  0.475018  0.240545  0.469185  1
  La  La7  1  0.259455  0.024982  0.030815  1
  La  La8  1  0.750000  0.240146  0.259854  1
  La  La9  1  0.750000  0.011888  0.488112  1
  La  La10  1  0.469185  0.475018  0.240545  1
  La  La11  1  0.030815  0.259455  0.024982  1
  Ru  Ru12  1  0.250000  0.250000  0.250000  1
  Au  Au13  1  0.498581  0.001419  0.250000  1
  Au  Au14  1  0.250000  0.498581  0.001419  1
  Au  Au15  1  0.001419  0.250000  0.498581  1
  Br  Br16  1  0.250000  0.996557  0.503443  1
  Br  Br17  1  0.502377  0.502864  0.752900  1
  Br  Br18  1  0.250000  0.748235  0.751765  1
  Br  Br19  1  0.997623  0.747100  0.997136  1
  Br  Br20  1  0.996557  0.503443  0.250000  1
  Br  Br21  1  0.747100  0.997136  0.997623  1
  Br  Br22  1  0.748235  0.751765  0.250000  1
  Br  Br23  1  0.502864  0.752900  0.502377  1
  Br  Br24  1  0.503443  0.250000  0.996557  1
  Br  Br25  1  0.752900  0.502377  0.502864  1
  Br  Br26  1  0.751765  0.250000  0.748235  1
  Br  Br27  1  0.997136  0.997623  0.747100  1
