# generated using pymatgen
data_SmDyGa6(NiAu)2
_symmetry_space_group_name_H-M   'P 1'
_cell_length_a   4.09525789
_cell_length_b   6.58109200
_cell_length_c   8.00864809
_cell_angle_alpha   90.00000000
_cell_angle_beta   104.81373552
_cell_angle_gamma   90.00000000
_symmetry_Int_Tables_number   1
_chemical_formula_structural   SmDyGa6(NiAu)2
_chemical_formula_sum   'Sm1 Dy1 Ga6 Ni2 Au2'
_cell_volume   208.66905778
_cell_formula_units_Z   1
loop_
 _symmetry_equiv_pos_site_id
 _symmetry_equiv_pos_as_xyz
  1  'x, y, z'
loop_
 _atom_site_type_symbol
 _atom_site_label
 _atom_site_symmetry_multiplicity
 _atom_site_fract_x
 _atom_site_fract_y
 _atom_site_fract_z
 _atom_site_occupancy
  Sm  Sm0  1  0.124521  0.250000  0.249044  1
  Dy  Dy1  1  0.875348  0.750000  0.750694  1
  Ga  Ga2  1  0.070100  0.750000  0.140199  1
  Ga  Ga3  1  0.929561  0.250000  0.859121  1
  Ga  Ga4  1  0.686705  0.552666  0.373411  1
  Ga  Ga5  1  0.314802  0.448930  0.629603  1
  Ga  Ga6  1  0.686705  0.947334  0.373411  1
  Ga  Ga7  1  0.314802  0.051070  0.629603  1
  Ni  Ni8  1  0.224423  0.750000  0.448847  1
  Ni  Ni9  1  0.776425  0.250000  0.552849  1
  Au  Au10  1  0.498304  0.502957  0.996609  1
  Au  Au11  1  0.498304  0.997043  0.996609  1
