# generated using pymatgen
data_Ho12InCo4Pt
_symmetry_space_group_name_H-M   'P 1'
_cell_length_a   8.29074204
_cell_length_b   8.29074213
_cell_length_c   8.29074212
_cell_angle_alpha   111.01555658
_cell_angle_beta   110.49915057
_cell_angle_gamma   106.92891425
_symmetry_Int_Tables_number   1
_chemical_formula_structural   Ho12InCo4Pt
_chemical_formula_sum   'Ho12 In1 Co4 Pt1'
_cell_volume   438.03712010
_cell_formula_units_Z   1
loop_
 _symmetry_equiv_pos_site_id
 _symmetry_equiv_pos_as_xyz
  1  'x, y, z'
loop_
 _atom_site_type_symbol
 _atom_site_label
 _atom_site_symmetry_multiplicity
 _atom_site_fract_x
 _atom_site_fract_y
 _atom_site_fract_z
 _atom_site_occupancy
  Ho  Ho0  1  0.315280  0.620077  0.304796  1
  Ho  Ho1  1  0.684720  0.379923  0.695204  1
  Ho  Ho2  1  0.315280  0.010483  0.695204  1
  Ho  Ho3  1  0.684720  0.989517  0.304796  1
  Ho  Ho4  1  0.186058  0.291471  0.477529  1
  Ho  Ho5  1  0.813942  0.708529  0.522471  1
  Ho  Ho6  1  0.186058  0.708529  0.894588  1
  Ho  Ho7  1  0.813942  0.291471  0.105412  1
  Ho  Ho8  1  0.413861  0.215543  0.198318  1
  Ho  Ho9  1  0.586139  0.784457  0.801682  1
  Ho  Ho10  1  0.017225  0.215543  0.801682  1
  Ho  Ho11  1  0.982775  0.784457  0.198318  1
  In  In12  1  0.500000  0.500000  0.000000  1
  Co  Co13  1  0.111935  0.611935  0.500000  1
  Co  Co14  1  0.888065  0.388065  0.500000  1
  Co  Co15  1  0.379567  0.000000  0.379567  1
  Co  Co16  1  0.620433  0.000000  0.620433  1
  Pt  Pt17  1  0.000000  0.000000  0.000000  1
