# generated using pymatgen
data_Ir8Os
_symmetry_space_group_name_H-M   'P 1'
_cell_length_a   6.12281999
_cell_length_b   6.12282035
_cell_length_c   6.12281964
_cell_angle_alpha   95.75309378
_cell_angle_beta   95.75309035
_cell_angle_gamma   143.08396911
_symmetry_Int_Tables_number   1
_chemical_formula_structural   Ir8Os
_chemical_formula_sum   'Ir8 Os1'
_cell_volume   130.77793611
_cell_formula_units_Z   1
loop_
 _symmetry_equiv_pos_site_id
 _symmetry_equiv_pos_as_xyz
  1  'x, y, z'
loop_
 _atom_site_type_symbol
 _atom_site_label
 _atom_site_symmetry_multiplicity
 _atom_site_fract_x
 _atom_site_fract_y
 _atom_site_fract_z
 _atom_site_occupancy
  Ir  Ir0  1  0.663792  0.336207  0.000000  1
  Ir  Ir1  1  0.336207  0.663792  0.000000  1
  Ir  Ir2  1  0.663792  0.663792  0.327585  1
  Ir  Ir3  1  0.331488  0.000000  0.331488  1
  Ir  Ir4  1  0.000000  0.331488  0.331488  1
  Ir  Ir5  1  0.668511  0.000000  0.668511  1
  Ir  Ir6  1  0.000000  0.668511  0.668511  1
  Ir  Ir7  1  0.336208  0.336208  0.672416  1
  Os  Os8  1  0.000000  0.000000  0.000000  1
