# generated using pymatgen
data_PrNd5(Dy2Pb3)2
_symmetry_space_group_name_H-M   'P 1'
_cell_length_a   9.29629500
_cell_length_b   9.29000426
_cell_length_c   6.79034600
_cell_angle_alpha   90.00000000
_cell_angle_beta   90.00000000
_cell_angle_gamma   119.97760934
_symmetry_Int_Tables_number   1
_chemical_formula_structural   PrNd5(Dy2Pb3)2
_chemical_formula_sum   'Pr1 Nd5 Dy4 Pb6'
_cell_volume   507.97961977
_cell_formula_units_Z   1
loop_
 _symmetry_equiv_pos_site_id
 _symmetry_equiv_pos_as_xyz
  1  'x, y, z'
loop_
 _atom_site_type_symbol
 _atom_site_label
 _atom_site_symmetry_multiplicity
 _atom_site_fract_x
 _atom_site_fract_y
 _atom_site_fract_z
 _atom_site_occupancy
  Pr  Pr0  1  0.000000  0.760282  0.250000  1
  Nd  Nd1  1  0.759599  0.759781  0.750000  1
  Nd  Nd2  1  0.240401  0.000182  0.750000  1
  Nd  Nd3  1  0.000000  0.239906  0.750000  1
  Nd  Nd4  1  0.240311  0.240296  0.250000  1
  Nd  Nd5  1  0.759689  0.999985  0.250000  1
  Dy  Dy6  1  0.666613  0.333239  0.999904  1
  Dy  Dy7  1  0.333387  0.666627  0.999904  1
  Dy  Dy8  1  0.333387  0.666627  0.500096  1
  Dy  Dy9  1  0.666613  0.333239  0.500096  1
  Pb  Pb10  1  0.396884  0.396926  0.750000  1
  Pb  Pb11  1  0.603116  0.000042  0.750000  1
  Pb  Pb12  1  0.000000  0.603137  0.750000  1
  Pb  Pb13  1  0.602054  0.602707  0.250000  1
  Pb  Pb14  1  0.397946  0.000653  0.250000  1
  Pb  Pb15  1  0.000000  0.396374  0.250000  1
