# generated using pymatgen
data_Ge2Mo12PtRh5N4
_symmetry_space_group_name_H-M   'P 1'
_cell_length_a   6.85829281
_cell_length_b   6.84296121
_cell_length_c   6.85073662
_cell_angle_alpha   89.48514106
_cell_angle_beta   89.99000012
_cell_angle_gamma   90.08267107
_symmetry_Int_Tables_number   1
_chemical_formula_structural   Ge2Mo12PtRh5N4
_chemical_formula_sum   'Ge2 Mo12 Pt1 Rh5 N4'
_cell_volume   321.49881643
_cell_formula_units_Z   1
loop_
 _symmetry_equiv_pos_site_id
 _symmetry_equiv_pos_as_xyz
  1  'x, y, z'
loop_
 _atom_site_type_symbol
 _atom_site_label
 _atom_site_symmetry_multiplicity
 _atom_site_fract_x
 _atom_site_fract_y
 _atom_site_fract_z
 _atom_site_occupancy
  Ge  Ge0  1  0.685247  0.177408  0.934793  1
  Ge  Ge1  1  0.185545  0.823062  0.064955  1
  Mo  Mo2  1  0.618927  0.046525  0.543315  1
  Mo  Mo3  1  0.121141  0.955666  0.454688  1
  Mo  Mo4  1  0.867704  0.537316  0.945196  1
  Mo  Mo5  1  0.367483  0.461802  0.057131  1
  Mo  Mo6  1  0.203857  0.622151  0.697655  1
  Mo  Mo7  1  0.300461  0.125381  0.784210  1
  Mo  Mo8  1  0.799791  0.875385  0.213020  1
  Mo  Mo9  1  0.701424  0.376508  0.303345  1
  Mo  Mo10  1  0.048194  0.209023  0.130641  1
  Mo  Mo11  1  0.963363  0.303348  0.621505  1
  Mo  Mo12  1  0.547858  0.790623  0.870187  1
  Mo  Mo13  1  0.460119  0.695135  0.377626  1
  Pt  Pt14  1  0.812018  0.686422  0.567236  1
  Rh  Rh15  1  0.310971  0.313367  0.432779  1
  Rh  Rh16  1  0.063192  0.571930  0.298271  1
  Rh  Rh17  1  0.436220  0.062816  0.172537  1
  Rh  Rh18  1  0.560376  0.426644  0.701423  1
  Rh  Rh19  1  0.936724  0.939088  0.829215  1
  N  N20  1  0.375265  0.872238  0.619503  1
  N  N21  1  0.875503  0.127807  0.380396  1
  N  N22  1  0.129156  0.376116  0.875236  1
  N  N23  1  0.629464  0.624237  0.125135  1
