# generated using pymatgen
data_TmLu(Be12Ni)2
_symmetry_space_group_name_H-M   'P 1'
_cell_length_a   7.20361769
_cell_length_b   7.27062990
_cell_length_c   7.17685029
_cell_angle_alpha   59.81160805
_cell_angle_beta   59.56117706
_cell_angle_gamma   59.44759790
_symmetry_Int_Tables_number   1
_chemical_formula_structural   TmLu(Be12Ni)2
_chemical_formula_sum   'Tm1 Lu1 Be24 Ni2'
_cell_volume   263.41085056
_cell_formula_units_Z   1
loop_
 _symmetry_equiv_pos_site_id
 _symmetry_equiv_pos_as_xyz
  1  'x, y, z'
loop_
 _atom_site_type_symbol
 _atom_site_label
 _atom_site_symmetry_multiplicity
 _atom_site_fract_x
 _atom_site_fract_y
 _atom_site_fract_z
 _atom_site_occupancy
  Tm  Tm0  1  0.751640  0.748360  0.751640  1
  Lu  Lu1  1  0.247946  0.252054  0.247946  1
  Be  Be2  1  0.500006  0.499994  0.500006  1
  Be  Be3  1  0.000039  0.999961  0.000039  1
  Be  Be4  1  0.568391  0.787779  0.431486  1
  Be  Be5  1  0.431486  0.212344  0.568391  1
  Be  Be6  1  0.294419  0.935413  0.705408  1
  Be  Be7  1  0.705408  0.064761  0.294419  1
  Be  Be8  1  0.932371  0.285168  0.067809  1
  Be  Be9  1  0.067809  0.714651  0.932371  1
  Be  Be10  1  0.205735  0.798204  0.560495  1
  Be  Be11  1  0.794412  0.201988  0.439340  1
  Be  Be12  1  0.439340  0.564261  0.794412  1
  Be  Be13  1  0.560495  0.435565  0.205735  1
  Be  Be14  1  0.710750  0.283949  0.935620  1
  Be  Be15  1  0.289080  0.715970  0.064531  1
  Be  Be16  1  0.064531  0.930418  0.289080  1
  Be  Be17  1  0.935620  0.069682  0.710750  1
  Be  Be18  1  0.561497  0.206942  0.795557  1
  Be  Be19  1  0.438328  0.793189  0.204653  1
  Be  Be20  1  0.795557  0.436003  0.561497  1
  Be  Be21  1  0.204653  0.563831  0.438328  1
  Be  Be22  1  0.936481  0.710442  0.289587  1
  Be  Be23  1  0.063702  0.289379  0.710215  1
  Be  Be24  1  0.289587  0.063488  0.936481  1
  Be  Be25  1  0.710215  0.936705  0.063702  1
  Ni  Ni26  1  0.800550  0.558025  0.199950  1
  Ni  Ni27  1  0.199950  0.441474  0.800550  1
