# generated using pymatgen
data_Th5PSe4
_symmetry_space_group_name_H-M   'P 1'
_cell_length_a   17.02528770
_cell_length_b   17.02528779
_cell_length_c   17.02528653
_cell_angle_alpha   14.27994431
_cell_angle_beta   14.27994255
_cell_angle_gamma   14.27994285
_symmetry_Int_Tables_number   1
_chemical_formula_structural   Th5PSe4
_chemical_formula_sum   'Th5 P1 Se4'
_cell_volume   261.36823565
_cell_formula_units_Z   1
loop_
 _symmetry_equiv_pos_site_id
 _symmetry_equiv_pos_as_xyz
  1  'x, y, z'
loop_
 _atom_site_type_symbol
 _atom_site_label
 _atom_site_symmetry_multiplicity
 _atom_site_fract_x
 _atom_site_fract_y
 _atom_site_fract_z
 _atom_site_occupancy
  Th  Th0  1  0.600485  0.600485  0.600485  1
  Th  Th1  1  0.399515  0.399515  0.399515  1
  Th  Th2  1  0.000000  0.000000  0.000000  1
  Th  Th3  1  0.197795  0.197795  0.197795  1
  Th  Th4  1  0.802205  0.802205  0.802205  1
  P  P5  1  0.500000  0.500000  0.500000  1
  Se  Se6  1  0.100351  0.100351  0.100351  1
  Se  Se7  1  0.699855  0.699855  0.699855  1
  Se  Se8  1  0.300145  0.300145  0.300145  1
  Se  Se9  1  0.899649  0.899649  0.899649  1
