# generated using pymatgen
data_Rb8Zr6BeCl20
_symmetry_space_group_name_H-M   'P 1'
_cell_length_a   11.53711130
_cell_length_b   11.53714546
_cell_length_c   11.53713900
_cell_angle_alpha   59.99974259
_cell_angle_beta   60.00011452
_cell_angle_gamma   60.00003584
_symmetry_Int_Tables_number   1
_chemical_formula_structural   Rb8Zr6BeCl20
_chemical_formula_sum   'Rb8 Zr6 Be1 Cl20'
_cell_volume   1085.87097946
_cell_formula_units_Z   1
loop_
 _symmetry_equiv_pos_site_id
 _symmetry_equiv_pos_as_xyz
  1  'x, y, z'
loop_
 _atom_site_type_symbol
 _atom_site_label
 _atom_site_symmetry_multiplicity
 _atom_site_fract_x
 _atom_site_fract_y
 _atom_site_fract_z
 _atom_site_occupancy
  Rb  Rb0  1  0.360093  0.360093  0.360094  1
  Rb  Rb1  1  0.639907  0.639907  0.639906  1
  Rb  Rb2  1  0.360093  0.360094  0.919720  1
  Rb  Rb3  1  0.360093  0.919720  0.360094  1
  Rb  Rb4  1  0.639907  0.639906  0.080280  1
  Rb  Rb5  1  0.639907  0.080280  0.639906  1
  Rb  Rb6  1  0.919719  0.360094  0.360093  1
  Rb  Rb7  1  0.080281  0.639906  0.639907  1
  Zr  Zr8  1  0.855471  0.144530  0.144530  1
  Zr  Zr9  1  0.144529  0.855470  0.855470  1
  Zr  Zr10  1  0.144531  0.855469  0.144532  1
  Zr  Zr11  1  0.855469  0.144531  0.855468  1
  Zr  Zr12  1  0.144531  0.144531  0.855469  1
  Zr  Zr13  1  0.855469  0.855469  0.144531  1
  Be  Be14  1  0.000000  0.000000  0.000000  1
  Cl  Cl15  1  0.318552  0.000000  0.000000  1
  Cl  Cl16  1  0.681448  0.000000  0.000000  1
  Cl  Cl17  1  0.999999  0.318552  0.681448  1
  Cl  Cl18  1  0.000001  0.681448  0.318552  1
  Cl  Cl19  1  0.000001  0.318551  0.999999  1
  Cl  Cl20  1  0.681448  0.999999  0.318553  1
  Cl  Cl21  1  0.999999  0.681449  0.000001  1
  Cl  Cl22  1  0.318552  0.000001  0.681447  1
  Cl  Cl23  1  0.000001  0.999999  0.318551  1
  Cl  Cl24  1  0.999999  0.000001  0.681449  1
  Cl  Cl25  1  0.681448  0.318552  0.999999  1
  Cl  Cl26  1  0.318552  0.681448  0.000001  1
  Cl  Cl27  1  0.688307  0.311692  0.311692  1
  Cl  Cl28  1  0.311693  0.688308  0.688308  1
  Cl  Cl29  1  0.311696  0.688303  0.311697  1
  Cl  Cl30  1  0.688304  0.311697  0.688303  1
  Cl  Cl31  1  0.311695  0.311695  0.688305  1
  Cl  Cl32  1  0.688305  0.688305  0.311695  1
  Cl  Cl33  1  0.249999  0.250000  0.250000  1
  Cl  Cl34  1  0.750001  0.750000  0.750000  1
