# generated using pymatgen
data_Tb5Dy(InHg4)2
_symmetry_space_group_name_H-M   'P 1'
_cell_length_a   6.39536169
_cell_length_b   6.39536019
_cell_length_c   10.26670300
_cell_angle_alpha   90.00000000
_cell_angle_beta   90.00000000
_cell_angle_gamma   105.17091332
_symmetry_Int_Tables_number   1
_chemical_formula_structural   Tb5Dy(InHg4)2
_chemical_formula_sum   'Tb5 Dy1 In2 Hg8'
_cell_volume   405.28048938
_cell_formula_units_Z   1
loop_
 _symmetry_equiv_pos_site_id
 _symmetry_equiv_pos_as_xyz
  1  'x, y, z'
loop_
 _atom_site_type_symbol
 _atom_site_label
 _atom_site_symmetry_multiplicity
 _atom_site_fract_x
 _atom_site_fract_y
 _atom_site_fract_z
 _atom_site_occupancy
  Tb  Tb0  1  0.787444  0.212519  0.999946  1
  Tb  Tb1  1  0.212519  0.787444  0.999946  1
  Tb  Tb2  1  0.212519  0.787444  0.500054  1
  Tb  Tb3  1  0.787444  0.212519  0.500054  1
  Tb  Tb4  1  0.567480  0.567480  0.250000  1
  Dy  Dy5  1  0.432566  0.432566  0.750000  1
  In  In6  1  0.989935  0.989935  0.250000  1
  In  In7  1  0.010349  0.010349  0.750000  1
  Hg  Hg8  1  0.037727  0.489323  0.250000  1
  Hg  Hg9  1  0.962494  0.510513  0.750000  1
  Hg  Hg10  1  0.489323  0.037727  0.250000  1
  Hg  Hg11  1  0.510513  0.962494  0.750000  1
  Hg  Hg12  1  0.291169  0.291169  0.028311  1
  Hg  Hg13  1  0.708675  0.708675  0.970867  1
  Hg  Hg14  1  0.708675  0.708675  0.529133  1
  Hg  Hg15  1  0.291169  0.291169  0.471689  1
