# generated using pymatgen
data_Tm12Co6Rh
_symmetry_space_group_name_H-M   'P 1'
_cell_length_a   11.08588500
_cell_length_b   8.21585914
_cell_length_c   10.92498423
_cell_angle_alpha   54.65315135
_cell_angle_beta   90.00000000
_cell_angle_gamma   90.00000000
_symmetry_Int_Tables_number   1
_chemical_formula_structural   Tm12Co6Rh
_chemical_formula_sum   'Tm24 Co12 Rh2'
_cell_volume   811.62591664
_cell_formula_units_Z   2
loop_
 _symmetry_equiv_pos_site_id
 _symmetry_equiv_pos_as_xyz
  1  'x, y, z'
loop_
 _atom_site_type_symbol
 _atom_site_label
 _atom_site_symmetry_multiplicity
 _atom_site_fract_x
 _atom_site_fract_y
 _atom_site_fract_z
 _atom_site_occupancy
  Tm  Tm0  1  0.707437  0.232547  0.539947  1
  Tm  Tm1  1  0.207437  0.767453  0.960053  1
  Tm  Tm2  1  0.840967  0.502046  0.658469  1
  Tm  Tm3  1  0.340967  0.497954  0.841531  1
  Tm  Tm4  1  0.159033  0.497954  0.341531  1
  Tm  Tm5  1  0.659033  0.502046  0.158469  1
  Tm  Tm6  1  0.002116  0.840107  0.355047  1
  Tm  Tm7  1  0.502116  0.159893  0.144953  1
  Tm  Tm8  1  0.997884  0.159893  0.644953  1
  Tm  Tm9  1  0.497884  0.840107  0.855047  1
  Tm  Tm10  1  0.792563  0.232547  0.039947  1
  Tm  Tm11  1  0.292563  0.767453  0.460053  1
  Tm  Tm12  1  0.928011  0.770124  0.088375  1
  Tm  Tm13  1  0.428011  0.229876  0.411625  1
  Tm  Tm14  1  0.071989  0.229876  0.911625  1
  Tm  Tm15  1  0.571989  0.770124  0.588375  1
  Tm  Tm16  1  0.300532  0.245128  0.678061  1
  Tm  Tm17  1  0.800532  0.754872  0.821939  1
  Tm  Tm18  1  0.699468  0.754872  0.321939  1
  Tm  Tm19  1  0.199468  0.245128  0.178061  1
  Tm  Tm20  1  0.930789  0.258883  0.312935  1
  Tm  Tm21  1  0.430789  0.741117  0.187065  1
  Tm  Tm22  1  0.069211  0.741117  0.687065  1
  Tm  Tm23  1  0.569211  0.258883  0.812935  1
  Co  Co24  1  0.678790  0.907491  0.025670  1
  Co  Co25  1  0.178790  0.092509  0.474330  1
  Co  Co26  1  0.321210  0.092509  0.974330  1
  Co  Co27  1  0.821210  0.907491  0.525670  1
  Co  Co28  1  0.399417  0.494348  0.100627  1
  Co  Co29  1  0.899417  0.505652  0.399373  1
  Co  Co30  1  0.600583  0.505652  0.899373  1
  Co  Co31  1  0.100583  0.494348  0.600627  1
  Co  Co32  1  0.814091  0.100421  0.838322  1
  Co  Co33  1  0.314091  0.899579  0.661678  1
  Co  Co34  1  0.185909  0.899579  0.161678  1
  Co  Co35  1  0.685909  0.100421  0.338322  1
  Rh  Rh36  1  0.500000  0.500000  0.500000  1
  Rh  Rh37  1  0.000000  0.500000  0.000000  1
