# generated using pymatgen
data_Ho2MoWN4
_symmetry_space_group_name_H-M   'P 1'
_cell_length_a   3.19739200
_cell_length_b   5.69689300
_cell_length_c   10.56041800
_cell_angle_alpha   90.00000000
_cell_angle_beta   90.00000000
_cell_angle_gamma   90.00000000
_symmetry_Int_Tables_number   1
_chemical_formula_structural   Ho2MoWN4
_chemical_formula_sum   'Ho4 Mo2 W2 N8'
_cell_volume   192.36012704
_cell_formula_units_Z   2
loop_
 _symmetry_equiv_pos_site_id
 _symmetry_equiv_pos_as_xyz
  1  'x, y, z'
loop_
 _atom_site_type_symbol
 _atom_site_label
 _atom_site_symmetry_multiplicity
 _atom_site_fract_x
 _atom_site_fract_y
 _atom_site_fract_z
 _atom_site_occupancy
  Ho  Ho0  1  0.250000  0.079102  0.853504  1
  Ho  Ho1  1  0.250000  0.579102  0.646496  1
  Ho  Ho2  1  0.750000  0.920292  0.145245  1
  Ho  Ho3  1  0.750000  0.420292  0.354755  1
  Mo  Mo4  1  0.750000  0.567592  0.905975  1
  Mo  Mo5  1  0.750000  0.067592  0.594025  1
  W  W6  1  0.250000  0.433007  0.094589  1
  W  W7  1  0.250000  0.933007  0.405411  1
  N  N8  1  0.250000  0.164977  0.248419  1
  N  N9  1  0.250000  0.664977  0.251581  1
  N  N10  1  0.750000  0.836132  0.750392  1
  N  N11  1  0.750000  0.336132  0.749608  1
  N  N12  1  0.250000  0.760798  0.994871  1
  N  N13  1  0.250000  0.260798  0.505129  1
  N  N14  1  0.750000  0.238101  0.007817  1
  N  N15  1  0.750000  0.738101  0.492183  1
