# generated using pymatgen
data_Nd5SnIrO12
_symmetry_space_group_name_H-M   'P 1'
_cell_length_a   7.13106351
_cell_length_b   7.13106338
_cell_length_c   7.62507938
_cell_angle_alpha   74.49453037
_cell_angle_beta   74.49453296
_cell_angle_gamma   51.24752176
_symmetry_Int_Tables_number   1
_chemical_formula_structural   Nd5SnIrO12
_chemical_formula_sum   'Nd5 Sn1 Ir1 O12'
_cell_volume   288.79390681
_cell_formula_units_Z   1
loop_
 _symmetry_equiv_pos_site_id
 _symmetry_equiv_pos_as_xyz
  1  'x, y, z'
loop_
 _atom_site_type_symbol
 _atom_site_label
 _atom_site_symmetry_multiplicity
 _atom_site_fract_x
 _atom_site_fract_y
 _atom_site_fract_z
 _atom_site_occupancy
  Nd  Nd0  1  0.302851  0.302170  0.360851  1
  Nd  Nd1  1  0.697830  0.697149  0.639149  1
  Nd  Nd2  1  0.689246  0.698360  0.168831  1
  Nd  Nd3  1  0.301640  0.310754  0.831169  1
  Nd  Nd4  1  0.006219  0.993781  0.500000  1
  Sn  Sn5  1  0.761276  0.238724  0.000000  1
  Ir  Ir6  1  0.250198  0.749802  0.000000  1
  O  O7  1  0.094406  0.598473  0.574262  1
  O  O8  1  0.012912  0.985737  0.181223  1
  O  O9  1  0.401527  0.905594  0.425738  1
  O  O10  1  0.495236  0.505650  0.181095  1
  O  O11  1  0.101571  0.583717  0.080097  1
  O  O12  1  0.903779  0.405674  0.421995  1
  O  O13  1  0.014263  0.987088  0.818777  1
  O  O14  1  0.594326  0.096220  0.578005  1
  O  O15  1  0.494350  0.504764  0.818905  1
  O  O16  1  0.563563  0.101476  0.082148  1
  O  O17  1  0.416283  0.898429  0.919903  1
  O  O18  1  0.898524  0.436437  0.917852  1
