# generated using pymatgen
data_CsMgNpTe3
_symmetry_space_group_name_H-M   'P 1'
_cell_length_a   8.90589936
_cell_length_b   8.90589864
_cell_length_c   12.10608100
_cell_angle_alpha   90.00000000
_cell_angle_beta   90.00000000
_cell_angle_gamma   149.59073818
_symmetry_Int_Tables_number   1
_chemical_formula_structural   CsMgNpTe3
_chemical_formula_sum   'Cs2 Mg2 Np2 Te6'
_cell_volume   486.02458509
_cell_formula_units_Z   2
loop_
 _symmetry_equiv_pos_site_id
 _symmetry_equiv_pos_as_xyz
  1  'x, y, z'
loop_
 _atom_site_type_symbol
 _atom_site_label
 _atom_site_symmetry_multiplicity
 _atom_site_fract_x
 _atom_site_fract_y
 _atom_site_fract_z
 _atom_site_occupancy
  Cs  Cs0  1  0.246764  0.753237  0.250000  1
  Cs  Cs1  1  0.753237  0.246764  0.750000  1
  Mg  Mg2  1  0.964652  0.035348  0.250000  1
  Mg  Mg3  1  0.035348  0.964652  0.750000  1
  Np  Np4  1  0.500000  0.500000  0.000000  1
  Np  Np5  1  0.500000  0.500000  0.500000  1
  Te  Te6  1  0.880062  0.119939  0.054873  1
  Te  Te7  1  0.560747  0.439253  0.250000  1
  Te  Te8  1  0.880062  0.119939  0.445126  1
  Te  Te9  1  0.119939  0.880062  0.554874  1
  Te  Te10  1  0.439253  0.560747  0.750000  1
  Te  Te11  1  0.119939  0.880062  0.945126  1
