# generated using pymatgen
data_Tm4AlTc7
_symmetry_space_group_name_H-M   'P 1'
_cell_length_a   5.30241300
_cell_length_b   5.30241380
_cell_length_c   8.95326900
_cell_angle_alpha   90.00000000
_cell_angle_beta   90.00000000
_cell_angle_gamma   120.00000122
_symmetry_Int_Tables_number   1
_chemical_formula_structural   Tm4AlTc7
_chemical_formula_sum   'Tm4 Al1 Tc7'
_cell_volume   218.00147312
_cell_formula_units_Z   1
loop_
 _symmetry_equiv_pos_site_id
 _symmetry_equiv_pos_as_xyz
  1  'x, y, z'
loop_
 _atom_site_type_symbol
 _atom_site_label
 _atom_site_symmetry_multiplicity
 _atom_site_fract_x
 _atom_site_fract_y
 _atom_site_fract_z
 _atom_site_occupancy
  Tm  Tm0  1  0.333333  0.666667  0.434372  1
  Tm  Tm1  1  0.666667  0.333333  0.565628  1
  Tm  Tm2  1  0.666667  0.333333  0.934920  1
  Tm  Tm3  1  0.333333  0.666667  0.065080  1
  Al  Al4  1  0.000000  0.000000  0.500000  1
  Tc  Tc5  1  0.000000  0.000000  0.000000  1
  Tc  Tc6  1  0.829693  0.170307  0.249886  1
  Tc  Tc7  1  0.829693  0.659386  0.249886  1
  Tc  Tc8  1  0.340614  0.170307  0.249886  1
  Tc  Tc9  1  0.170307  0.829693  0.750114  1
  Tc  Tc10  1  0.170307  0.340614  0.750114  1
  Tc  Tc11  1  0.659386  0.829693  0.750114  1
