# generated using pymatgen
data_ScTa3Nb2(B2Ru5)2
_symmetry_space_group_name_H-M   'P 1'
_cell_length_a   9.45248459
_cell_length_b   9.46033271
_cell_length_c   3.04417700
_cell_angle_alpha   90.00000000
_cell_angle_beta   90.00000000
_cell_angle_gamma   90.00195152
_symmetry_Int_Tables_number   1
_chemical_formula_structural   ScTa3Nb2(B2Ru5)2
_chemical_formula_sum   'Sc1 Ta3 Nb2 B4 Ru10'
_cell_volume   272.22141595
_cell_formula_units_Z   1
loop_
 _symmetry_equiv_pos_site_id
 _symmetry_equiv_pos_as_xyz
  1  'x, y, z'
loop_
 _atom_site_type_symbol
 _atom_site_label
 _atom_site_symmetry_multiplicity
 _atom_site_fract_x
 _atom_site_fract_y
 _atom_site_fract_z
 _atom_site_occupancy
  Sc  Sc0  1  0.824187  0.675764  0.000000  1
  Ta  Ta1  1  0.677543  0.175733  0.000000  1
  Ta  Ta2  1  0.501215  0.501104  0.000000  1
  Ta  Ta3  1  0.999276  0.998444  0.000000  1
  Nb  Nb4  1  0.176388  0.323635  0.000000  1
  Nb  Nb5  1  0.324354  0.822855  0.000000  1
  B  B6  1  0.622289  0.877718  0.000000  1
  B  B7  1  0.378222  0.121811  0.000000  1
  B  B8  1  0.119775  0.621270  0.000000  1
  B  B9  1  0.878824  0.380250  0.000000  1
  Ru  Ru10  1  0.565221  0.720817  0.500000  1
  Ru  Ru11  1  0.429113  0.282144  0.500000  1
  Ru  Ru12  1  0.076354  0.782867  0.500000  1
  Ru  Ru13  1  0.928700  0.217023  0.500000  1
  Ru  Ru14  1  0.282278  0.569860  0.500000  1
  Ru  Ru15  1  0.716388  0.421790  0.500000  1
  Ru  Ru16  1  0.217978  0.072110  0.500000  1
  Ru  Ru17  1  0.779371  0.936208  0.500000  1
  Ru  Ru18  1  0.499678  0.002260  0.500000  1
  Ru  Ru19  1  0.002847  0.496339  0.500000  1
