# generated using pymatgen
data_Tm6C2I7
_symmetry_space_group_name_H-M   'P 1'
_cell_length_a   10.89081055
_cell_length_b   10.89081098
_cell_length_c   12.73229016
_cell_angle_alpha   58.33238506
_cell_angle_beta   58.33238290
_cell_angle_gamma   20.72854367
_symmetry_Int_Tables_number   1
_chemical_formula_structural   Tm6C2I7
_chemical_formula_sum   'Tm6 C2 I7'
_cell_volume   452.02346243
_cell_formula_units_Z   1
loop_
 _symmetry_equiv_pos_site_id
 _symmetry_equiv_pos_as_xyz
  1  'x, y, z'
loop_
 _atom_site_type_symbol
 _atom_site_label
 _atom_site_symmetry_multiplicity
 _atom_site_fract_x
 _atom_site_fract_y
 _atom_site_fract_z
 _atom_site_occupancy
  Tm  Tm0  1  0.237993  0.237993  0.803274  1
  Tm  Tm1  1  0.306659  0.306659  0.378554  1
  Tm  Tm2  1  0.137430  0.137430  0.446420  1
  Tm  Tm3  1  0.862570  0.862570  0.553580  1
  Tm  Tm4  1  0.693341  0.693341  0.621446  1
  Tm  Tm5  1  0.762007  0.762007  0.196726  1
  C  C6  1  0.280738  0.280738  0.594103  1
  C  C7  1  0.719262  0.719262  0.405897  1
  I  I8  1  0.160155  0.160155  0.178906  1
  I  I9  1  0.839845  0.839845  0.821094  1
  I  I10  1  0.059196  0.059196  0.719883  1
  I  I11  1  0.940804  0.940804  0.280117  1
  I  I12  1  0.500000  0.500000  0.500000  1
  I  I13  1  0.385732  0.385732  0.074004  1
  I  I14  1  0.614268  0.614268  0.925996  1
