# generated using pymatgen
data_CaLu3Al16(SiIr3)2
_symmetry_space_group_name_H-M   'P 1'
_cell_length_a   7.52206001
_cell_length_b   7.53215227
_cell_length_c   9.33455500
_cell_angle_alpha   90.00000000
_cell_angle_beta   90.00000000
_cell_angle_gamma   119.64428559
_symmetry_Int_Tables_number   1
_chemical_formula_structural   CaLu3Al16(SiIr3)2
_chemical_formula_sum   'Ca1 Lu3 Al16 Si2 Ir6'
_cell_volume   459.64833750
_cell_formula_units_Z   1
loop_
 _symmetry_equiv_pos_site_id
 _symmetry_equiv_pos_as_xyz
  1  'x, y, z'
loop_
 _atom_site_type_symbol
 _atom_site_label
 _atom_site_symmetry_multiplicity
 _atom_site_fract_x
 _atom_site_fract_y
 _atom_site_fract_z
 _atom_site_occupancy
  Ca  Ca0  1  0.994714  0.674285  0.250000  1
  Lu  Lu1  1  0.003872  0.325069  0.750000  1
  Lu  Lu2  1  0.675174  0.995274  0.250000  1
  Lu  Lu3  1  0.323353  0.002841  0.750000  1
  Al  Al4  1  0.000805  0.336658  0.076605  1
  Al  Al5  1  0.998913  0.663412  0.922952  1
  Al  Al6  1  0.998913  0.663412  0.577048  1
  Al  Al7  1  0.336129  0.000396  0.423196  1
  Al  Al8  1  0.000805  0.336658  0.423395  1
  Al  Al9  1  0.663562  0.999126  0.577981  1
  Al  Al10  1  0.663562  0.999126  0.922019  1
  Al  Al11  1  0.336129  0.000396  0.076804  1
  Al  Al12  1  0.335495  0.335377  0.557865  1
  Al  Al13  1  0.664865  0.664751  0.443259  1
  Al  Al14  1  0.664865  0.664751  0.056741  1
  Al  Al15  1  0.335495  0.335377  0.942135  1
  Al  Al16  1  0.337959  0.549741  0.250000  1
  Al  Al17  1  0.665193  0.450883  0.750000  1
  Al  Al18  1  0.547637  0.332782  0.250000  1
  Al  Al19  1  0.451249  0.665101  0.750000  1
  Si  Si20  1  0.128653  0.131438  0.250000  1
  Si  Si21  1  0.872671  0.872157  0.750000  1
  Ir  Ir22  1  0.670848  0.326828  0.998841  1
  Ir  Ir23  1  0.328714  0.671890  0.998823  1
  Ir  Ir24  1  0.328714  0.671890  0.501177  1
  Ir  Ir25  1  0.670848  0.326828  0.501159  1
  Ir  Ir26  1  0.000431  0.001776  0.998447  1
  Ir  Ir27  1  0.000431  0.001776  0.501553  1
