# generated using pymatgen
data_Sc4SnBiC2
_symmetry_space_group_name_H-M   'P 1'
_cell_length_a   3.41513900
_cell_length_b   3.41513777
_cell_length_c   14.86148000
_cell_angle_alpha   90.00000000
_cell_angle_beta   90.00000000
_cell_angle_gamma   120.00000223
_symmetry_Int_Tables_number   1
_chemical_formula_structural   Sc4SnBiC2
_chemical_formula_sum   'Sc4 Sn1 Bi1 C2'
_cell_volume   150.10988638
_cell_formula_units_Z   1
loop_
 _symmetry_equiv_pos_site_id
 _symmetry_equiv_pos_as_xyz
  1  'x, y, z'
loop_
 _atom_site_type_symbol
 _atom_site_label
 _atom_site_symmetry_multiplicity
 _atom_site_fract_x
 _atom_site_fract_y
 _atom_site_fract_z
 _atom_site_occupancy
  Sc  Sc0  1  0.666668  0.333335  0.079978  1
  Sc  Sc1  1  0.666668  0.333335  0.420022  1
  Sc  Sc2  1  0.333333  0.666666  0.580575  1
  Sc  Sc3  1  0.333333  0.666666  0.919425  1
  Sn  Sn4  1  0.666668  0.333335  0.750000  1
  Bi  Bi5  1  0.333333  0.666666  0.250000  1
  C  C6  1  0.000000  0.000000  0.000795  1
  C  C7  1  0.000000  0.000000  0.499205  1
