# generated using pymatgen
data_Pr8Nd4Al2I17
_symmetry_space_group_name_H-M   'P 1'
_cell_length_a   10.05535811
_cell_length_b   12.01381636
_cell_length_c   11.82903515
_cell_angle_alpha   94.16114189
_cell_angle_beta   104.77483344
_cell_angle_gamma   115.24704805
_symmetry_Int_Tables_number   1
_chemical_formula_structural   Pr8Nd4Al2I17
_chemical_formula_sum   'Pr8 Nd4 Al2 I17'
_cell_volume   1222.59092981
_cell_formula_units_Z   1
loop_
 _symmetry_equiv_pos_site_id
 _symmetry_equiv_pos_as_xyz
  1  'x, y, z'
loop_
 _atom_site_type_symbol
 _atom_site_label
 _atom_site_symmetry_multiplicity
 _atom_site_fract_x
 _atom_site_fract_y
 _atom_site_fract_z
 _atom_site_occupancy
  Pr  Pr0  1  0.226100  0.662562  0.010144  1
  Pr  Pr1  1  0.284740  0.004076  0.912408  1
  Pr  Pr2  1  0.375932  0.761765  0.717709  1
  Pr  Pr3  1  0.933723  0.470738  0.666244  1
  Pr  Pr4  1  0.714793  0.996019  0.087514  1
  Pr  Pr5  1  0.163014  0.291896  0.143834  1
  Pr  Pr6  1  0.774929  0.339037  0.990594  1
  Pr  Pr7  1  0.837367  0.708299  0.857204  1
  Nd  Nd8  1  0.064725  0.527638  0.333140  1
  Nd  Nd9  1  0.990277  0.812863  0.573301  1
  Nd  Nd10  1  0.625491  0.238602  0.282157  1
  Nd  Nd11  1  0.009857  0.186666  0.426083  1
  Al  Al12  1  0.108465  0.737267  0.789285  1
  Al  Al13  1  0.891237  0.262801  0.210771  1
  I  I14  1  0.777660  0.529148  0.414278  1
  I  I15  1  0.626969  0.414698  0.738945  1
  I  I16  1  0.840857  0.893967  0.319644  1
  I  I17  1  0.321062  0.211444  0.370722  1
  I  I18  1  0.158900  0.105806  0.679919  1
  I  I19  1  0.587666  0.057992  0.827480  1
  I  I20  1  0.737309  0.165378  0.531220  1
  I  I21  1  0.536174  0.684526  0.954842  1
  I  I22  1  0.370966  0.585838  0.262643  1
  I  I23  1  0.223050  0.470964  0.582978  1
  I  I24  1  0.058778  0.362972  0.889084  1
  I  I25  1  0.464744  0.315420  0.048166  1
  I  I26  1  0.999874  0.000190  0.000052  1
  I  I27  1  0.258648  0.831178  0.464994  1
  I  I28  1  0.412858  0.943772  0.172995  1
  I  I29  1  0.680937  0.788505  0.628971  1
  I  I30  1  0.942896  0.637973  0.112680  1
