# generated using pymatgen
data_Tm6Ga3Fe4Ru5
_symmetry_space_group_name_H-M   'P 1'
_cell_length_a   5.25752239
_cell_length_b   5.16732634
_cell_length_c   13.12838868
_cell_angle_alpha   89.90001875
_cell_angle_beta   88.28547240
_cell_angle_gamma   119.78277802
_symmetry_Int_Tables_number   1
_chemical_formula_structural   Tm6Ga3Fe4Ru5
_chemical_formula_sum   'Tm6 Ga3 Fe4 Ru5'
_cell_volume   309.35809143
_cell_formula_units_Z   1
loop_
 _symmetry_equiv_pos_site_id
 _symmetry_equiv_pos_as_xyz
  1  'x, y, z'
loop_
 _atom_site_type_symbol
 _atom_site_label
 _atom_site_symmetry_multiplicity
 _atom_site_fract_x
 _atom_site_fract_y
 _atom_site_fract_z
 _atom_site_occupancy
  Tm  Tm0  1  0.335394  0.668757  0.917308  1
  Tm  Tm1  1  0.002595  0.999239  0.250551  1
  Tm  Tm2  1  0.662486  0.330532  0.583984  1
  Tm  Tm3  1  0.337514  0.669468  0.666016  1
  Tm  Tm4  1  0.997405  0.000761  0.999449  1
  Tm  Tm5  1  0.664606  0.331243  0.332692  1
  Ga  Ga6  1  0.159913  0.331270  0.458075  1
  Ga  Ga7  1  0.840087  0.668730  0.791925  1
  Ga  Ga8  1  0.000000  0.500000  0.125000  1
  Fe  Fe9  1  0.500000  0.500000  0.125000  1
  Fe  Fe10  1  0.160748  0.833046  0.459148  1
  Fe  Fe11  1  0.839252  0.166954  0.790852  1
  Fe  Fe12  1  0.500000  0.000000  0.125000  1
  Ru  Ru13  1  0.325696  0.665625  0.286296  1
  Ru  Ru14  1  0.000000  0.000000  0.625000  1
  Ru  Ru15  1  0.674304  0.334375  0.963704  1
  Ru  Ru16  1  0.656822  0.832068  0.452711  1
  Ru  Ru17  1  0.343178  0.167932  0.797289  1
