# generated using pymatgen
data_La4Al3RhI2
_symmetry_space_group_name_H-M   'P 1'
_cell_length_a   4.38868800
_cell_length_b   4.38868638
_cell_length_c   17.80936300
_cell_angle_alpha   90.00000000
_cell_angle_beta   90.00000000
_cell_angle_gamma   119.99999716
_symmetry_Int_Tables_number   1
_chemical_formula_structural   La4Al3RhI2
_chemical_formula_sum   'La4 Al3 Rh1 I2'
_cell_volume   297.06280926
_cell_formula_units_Z   1
loop_
 _symmetry_equiv_pos_site_id
 _symmetry_equiv_pos_as_xyz
  1  'x, y, z'
loop_
 _atom_site_type_symbol
 _atom_site_label
 _atom_site_symmetry_multiplicity
 _atom_site_fract_x
 _atom_site_fract_y
 _atom_site_fract_z
 _atom_site_occupancy
  La  La0  1  0.000000  0.000000  0.108550  1
  La  La1  1  0.000000  0.000000  0.896022  1
  La  La2  1  0.000000  0.000000  0.618689  1
  La  La3  1  0.000000  0.000000  0.380697  1
  Al  Al4  1  0.333333  0.666667  0.505556  1
  Al  Al5  1  0.666667  0.333333  0.493867  1
  Al  Al6  1  0.666667  0.333333  0.004302  1
  Rh  Rh7  1  0.333333  0.666667  0.994458  1
  I  I8  1  0.333333  0.666667  0.249313  1
  I  I9  1  0.666667  0.333333  0.748548  1
