# generated using pymatgen
data_Li4Sc8IrPt3
_symmetry_space_group_name_H-M   'P 1'
_cell_length_a   6.51415000
_cell_length_b   4.61386800
_cell_length_c   9.30771900
_cell_angle_alpha   90.00000000
_cell_angle_beta   90.00002639
_cell_angle_gamma   90.00000000
_symmetry_Int_Tables_number   1
_chemical_formula_structural   Li4Sc8IrPt3
_chemical_formula_sum   'Li4 Sc8 Ir1 Pt3'
_cell_volume   279.74748041
_cell_formula_units_Z   1
loop_
 _symmetry_equiv_pos_site_id
 _symmetry_equiv_pos_as_xyz
  1  'x, y, z'
loop_
 _atom_site_type_symbol
 _atom_site_label
 _atom_site_symmetry_multiplicity
 _atom_site_fract_x
 _atom_site_fract_y
 _atom_site_fract_z
 _atom_site_occupancy
  Li  Li0  1  0.250008  0.250001  0.124243  1
  Li  Li1  1  0.750006  0.750001  0.375132  1
  Li  Li2  1  0.249992  0.250001  0.625496  1
  Li  Li3  1  0.749992  0.750001  0.875117  1
  Sc  Sc4  1  0.002066  0.750001  0.122132  1
  Sc  Sc5  1  0.497932  0.750001  0.122135  1
  Sc  Sc6  1  0.000023  0.250001  0.374954  1
  Sc  Sc7  1  0.499979  0.250001  0.374960  1
  Sc  Sc8  1  0.497913  0.750001  0.627993  1
  Sc  Sc9  1  0.002084  0.750001  0.628000  1
  Sc  Sc10  1  0.496157  0.250001  0.874938  1
  Sc  Sc11  1  0.003844  0.250001  0.874941  1
  Ir  Ir12  1  0.250002  0.750001  0.875036  1
  Pt  Pt13  1  0.749997  0.250001  0.126448  1
  Pt  Pt14  1  0.249998  0.750001  0.375021  1
  Pt  Pt15  1  0.750003  0.250001  0.623454  1
