# generated using pymatgen
data_CaY2UAs6Ru7
_symmetry_space_group_name_H-M   'P 1'
_cell_length_a   7.20895521
_cell_length_b   7.22924398
_cell_length_c   7.29897380
_cell_angle_alpha   109.62262946
_cell_angle_beta   109.74650304
_cell_angle_gamma   109.35367163
_symmetry_Int_Tables_number   1
_chemical_formula_structural   CaY2UAs6Ru7
_chemical_formula_sum   'Ca1 Y2 U1 As6 Ru7'
_cell_volume   291.69774014
_cell_formula_units_Z   1
loop_
 _symmetry_equiv_pos_site_id
 _symmetry_equiv_pos_as_xyz
  1  'x, y, z'
loop_
 _atom_site_type_symbol
 _atom_site_label
 _atom_site_symmetry_multiplicity
 _atom_site_fract_x
 _atom_site_fract_y
 _atom_site_fract_z
 _atom_site_occupancy
  Ca  Ca0  1  0.000000  0.500000  0.000000  1
  Y  Y1  1  0.500000  0.000000  0.000000  1
  Y  Y2  1  0.500000  0.500000  0.500000  1
  U  U3  1  0.000000  0.000000  0.500000  1
  As  As4  1  0.316330  0.997695  0.313160  1
  As  As5  1  0.000000  0.319327  0.312956  1
  As  As6  1  0.000000  0.680673  0.687044  1
  As  As7  1  0.316330  0.318635  0.003170  1
  As  As8  1  0.683670  0.681365  0.996830  1
  As  As9  1  0.683670  0.002305  0.686840  1
  Ru  Ru10  1  0.755062  0.512582  0.257965  1
  Ru  Ru11  1  0.515601  0.757801  0.257801  1
  Ru  Ru12  1  0.484399  0.242199  0.742199  1
  Ru  Ru13  1  0.755062  0.242480  0.497097  1
  Ru  Ru14  1  0.244938  0.757520  0.502903  1
  Ru  Ru15  1  0.244938  0.487418  0.742035  1
  Ru  Ru16  1  0.000000  0.000000  0.000000  1
