# generated using pymatgen
data_Hf5Si4Mo
_symmetry_space_group_name_H-M   'P 1'
_cell_length_a   6.84090500
_cell_length_b   6.84090500
_cell_length_c   3.73369900
_cell_angle_alpha   90.00000000
_cell_angle_beta   90.00000000
_cell_angle_gamma   90.00000000
_symmetry_Int_Tables_number   1
_chemical_formula_structural   Hf5Si4Mo
_chemical_formula_sum   'Hf5 Si4 Mo1'
_cell_volume   174.72957568
_cell_formula_units_Z   1
loop_
 _symmetry_equiv_pos_site_id
 _symmetry_equiv_pos_as_xyz
  1  'x, y, z'
loop_
 _atom_site_type_symbol
 _atom_site_label
 _atom_site_symmetry_multiplicity
 _atom_site_fract_x
 _atom_site_fract_y
 _atom_site_fract_z
 _atom_site_occupancy
  Hf  Hf0  1  0.668738  0.180581  0.500000  1
  Hf  Hf1  1  0.331262  0.819419  0.500000  1
  Hf  Hf2  1  0.180581  0.331262  0.500000  1
  Hf  Hf3  1  0.819419  0.668738  0.500000  1
  Hf  Hf4  1  0.000000  0.000000  0.000000  1
  Si  Si5  1  0.127130  0.623952  0.000000  1
  Si  Si6  1  0.872870  0.376048  0.000000  1
  Si  Si7  1  0.623952  0.872870  0.000000  1
  Si  Si8  1  0.376048  0.127130  0.000000  1
  Mo  Mo9  1  0.500000  0.500000  0.000000  1
