# generated using pymatgen
data_La17Nd3(Ir2Os)4
_symmetry_space_group_name_H-M   'P 1'
_cell_length_a   11.42238400
_cell_length_b   11.42238400
_cell_length_c   6.66831100
_cell_angle_alpha   90.00000000
_cell_angle_beta   90.00000000
_cell_angle_gamma   90.00000000
_symmetry_Int_Tables_number   1
_chemical_formula_structural   La17Nd3(Ir2Os)4
_chemical_formula_sum   'La17 Nd3 Ir8 Os4'
_cell_volume   870.02024587
_cell_formula_units_Z   1
loop_
 _symmetry_equiv_pos_site_id
 _symmetry_equiv_pos_as_xyz
  1  'x, y, z'
loop_
 _atom_site_type_symbol
 _atom_site_label
 _atom_site_symmetry_multiplicity
 _atom_site_fract_x
 _atom_site_fract_y
 _atom_site_fract_z
 _atom_site_occupancy
  La  La0  1  0.293897  0.088963  0.389462  1
  La  La1  1  0.294004  0.910681  0.888953  1
  La  La2  1  0.705996  0.089319  0.888953  1
  La  La3  1  0.706103  0.911037  0.389462  1
  La  La4  1  0.589357  0.794556  0.889236  1
  La  La5  1  0.589013  0.205013  0.388195  1
  La  La6  1  0.410987  0.794987  0.388195  1
  La  La7  1  0.410643  0.205444  0.889236  1
  La  La8  1  0.205013  0.410987  0.611805  1
  La  La9  1  0.205444  0.589357  0.110764  1
  La  La10  1  0.794556  0.410643  0.110764  1
  La  La11  1  0.794987  0.589013  0.611805  1
  La  La12  1  0.910681  0.705996  0.111047  1
  La  La13  1  0.911037  0.293897  0.610538  1
  La  La14  1  0.088963  0.706103  0.610538  1
  La  La15  1  0.089319  0.294004  0.111047  1
  La  La16  1  0.500000  0.500000  0.500000  1
  Nd  Nd17  1  0.000000  0.000000  0.500000  1
  Nd  Nd18  1  0.000000  0.000000  0.000000  1
  Nd  Nd19  1  0.500000  0.500000  0.000000  1
  Ir  Ir20  1  0.848119  0.151867  0.249904  1
  Ir  Ir21  1  0.848133  0.848119  0.750096  1
  Ir  Ir22  1  0.151867  0.151881  0.750096  1
  Ir  Ir23  1  0.151881  0.848133  0.249904  1
  Ir  Ir24  1  0.651803  0.348326  0.749850  1
  Ir  Ir25  1  0.651674  0.651803  0.250150  1
  Ir  Ir26  1  0.348326  0.348197  0.250150  1
  Ir  Ir27  1  0.348197  0.651674  0.749850  1
  Os  Os28  1  0.500000  0.000000  0.128489  1
  Os  Os29  1  0.500000  0.000000  0.628558  1
  Os  Os30  1  0.000000  0.500000  0.871511  1
  Os  Os31  1  0.000000  0.500000  0.371442  1
