# generated using pymatgen
data_Tb2Zr2CuNi5P6
_symmetry_space_group_name_H-M   'P 1'
_cell_length_a   3.75306800
_cell_length_b   10.24228865
_cell_length_c   12.37046409
_cell_angle_alpha   89.77470510
_cell_angle_beta   90.00000000
_cell_angle_gamma   90.00000000
_symmetry_Int_Tables_number   1
_chemical_formula_structural   Tb2Zr2CuNi5P6
_chemical_formula_sum   'Tb4 Zr4 Cu2 Ni10 P12'
_cell_volume   475.51703474
_cell_formula_units_Z   2
loop_
 _symmetry_equiv_pos_site_id
 _symmetry_equiv_pos_as_xyz
  1  'x, y, z'
loop_
 _atom_site_type_symbol
 _atom_site_label
 _atom_site_symmetry_multiplicity
 _atom_site_fract_x
 _atom_site_fract_y
 _atom_site_fract_z
 _atom_site_occupancy
  Tb  Tb0  1  0.250000  0.069397  0.205099  1
  Tb  Tb1  1  0.750000  0.930603  0.794901  1
  Tb  Tb2  1  0.750000  0.572517  0.293029  1
  Tb  Tb3  1  0.250000  0.427483  0.706971  1
  Zr  Zr4  1  0.250000  0.161199  0.497059  1
  Zr  Zr5  1  0.750000  0.838801  0.502941  1
  Zr  Zr6  1  0.750000  0.659061  0.002777  1
  Zr  Zr7  1  0.250000  0.340939  0.997223  1
  Cu  Cu8  1  0.250000  0.728951  0.665643  1
  Cu  Cu9  1  0.750000  0.271049  0.334357  1
  Ni  Ni10  1  0.750000  0.229142  0.835605  1
  Ni  Ni11  1  0.250000  0.770858  0.164395  1
  Ni  Ni12  1  0.250000  0.365945  0.220473  1
  Ni  Ni13  1  0.750000  0.634055  0.779527  1
  Ni  Ni14  1  0.750000  0.865450  0.281237  1
  Ni  Ni15  1  0.250000  0.134550  0.718763  1
  Ni  Ni16  1  0.250000  0.603811  0.484248  1
  Ni  Ni17  1  0.750000  0.396189  0.515752  1
  Ni  Ni18  1  0.750000  0.097541  0.014769  1
  Ni  Ni19  1  0.250000  0.902459  0.985231  1
  P  P20  1  0.250000  0.948323  0.623223  1
  P  P21  1  0.750000  0.051677  0.376777  1
  P  P22  1  0.750000  0.445733  0.876059  1
  P  P23  1  0.250000  0.554267  0.123941  1
  P  P24  1  0.250000  0.399847  0.405708  1
  P  P25  1  0.750000  0.600153  0.594292  1
  P  P26  1  0.750000  0.892655  0.097854  1
  P  P27  1  0.250000  0.107345  0.902146  1
  P  P28  1  0.250000  0.771645  0.354092  1
  P  P29  1  0.750000  0.228355  0.645908  1
  P  P30  1  0.750000  0.269415  0.142355  1
  P  P31  1  0.250000  0.730585  0.857645  1
