# generated using pymatgen
data_EuPt4Pb
_symmetry_space_group_name_H-M   'P 1'
_cell_length_a   5.50366900
_cell_length_b   5.50371394
_cell_length_c   5.50370700
_cell_angle_alpha   120.00122799
_cell_angle_beta   90.00079118
_cell_angle_gamma   120.00013333
_symmetry_Int_Tables_number   1
_chemical_formula_structural   EuPt4Pb
_chemical_formula_sum   'Eu1 Pt4 Pb1'
_cell_volume   117.87902419
_cell_formula_units_Z   1
loop_
 _symmetry_equiv_pos_site_id
 _symmetry_equiv_pos_as_xyz
  1  'x, y, z'
loop_
 _atom_site_type_symbol
 _atom_site_label
 _atom_site_symmetry_multiplicity
 _atom_site_fract_x
 _atom_site_fract_y
 _atom_site_fract_z
 _atom_site_occupancy
  Eu  Eu0  1  0.999993  0.000005  0.000005  1
  Pt  Pt1  1  0.375250  0.750496  0.125737  1
  Pt  Pt2  1  0.375251  0.249517  0.624759  1
  Pt  Pt3  1  0.874259  0.249502  0.624758  1
  Pt  Pt4  1  0.375247  0.750489  0.624749  1
  Pb  Pb5  1  0.750004  0.499991  0.249992  1
