# generated using pymatgen
data_SrAc3(SiIr)4
_symmetry_space_group_name_H-M   'P 1'
_cell_length_a   6.54615281
_cell_length_b   6.54615144
_cell_length_c   6.54615245
_cell_angle_alpha   89.96752015
_cell_angle_beta   89.96752149
_cell_angle_gamma   90.03248648
_symmetry_Int_Tables_number   1
_chemical_formula_structural   SrAc3(SiIr)4
_chemical_formula_sum   'Sr1 Ac3 Si4 Ir4'
_cell_volume   280.51629444
_cell_formula_units_Z   1
loop_
 _symmetry_equiv_pos_site_id
 _symmetry_equiv_pos_as_xyz
  1  'x, y, z'
loop_
 _atom_site_type_symbol
 _atom_site_label
 _atom_site_symmetry_multiplicity
 _atom_site_fract_x
 _atom_site_fract_y
 _atom_site_fract_z
 _atom_site_occupancy
  Sr  Sr0  1  0.888367  0.388367  0.111633  1
  Ac  Ac1  1  0.394034  0.108208  0.895868  1
  Ac  Ac2  1  0.608208  0.604132  0.605966  1
  Ac  Ac3  1  0.104132  0.894034  0.391792  1
  Si  Si4  1  0.095843  0.405745  0.595797  1
  Si  Si5  1  0.592968  0.092968  0.407032  1
  Si  Si6  1  0.404203  0.595843  0.094255  1
  Si  Si7  1  0.905745  0.904203  0.904157  1
  Ir  Ir8  1  0.335318  0.333873  0.333843  1
  Ir  Ir9  1  0.833873  0.166157  0.664682  1
  Ir  Ir10  1  0.171153  0.671153  0.828847  1
  Ir  Ir11  1  0.666157  0.835318  0.166127  1
