# generated using pymatgen
data_NdHo2Ag3SnGe2
_symmetry_space_group_name_H-M   'P 1'
_cell_length_a   7.33246907
_cell_length_b   7.33247035
_cell_length_c   4.33475200
_cell_angle_alpha   90.00000000
_cell_angle_beta   90.00000000
_cell_angle_gamma   120.34495846
_symmetry_Int_Tables_number   1
_chemical_formula_structural   NdHo2Ag3SnGe2
_chemical_formula_sum   'Nd1 Ho2 Ag3 Sn1 Ge2'
_cell_volume   201.12928166
_cell_formula_units_Z   1
loop_
 _symmetry_equiv_pos_site_id
 _symmetry_equiv_pos_as_xyz
  1  'x, y, z'
loop_
 _atom_site_type_symbol
 _atom_site_label
 _atom_site_symmetry_multiplicity
 _atom_site_fract_x
 _atom_site_fract_y
 _atom_site_fract_z
 _atom_site_occupancy
  Nd  Nd0  1  0.430987  0.430987  0.000000  1
  Ho  Ho1  1  0.569503  0.000791  0.000000  1
  Ho  Ho2  1  0.000791  0.569503  0.000000  1
  Ag  Ag3  1  0.259744  0.999153  0.500000  1
  Ag  Ag4  1  0.999153  0.259744  0.500000  1
  Ag  Ag5  1  0.742691  0.742691  0.500000  1
  Sn  Sn6  1  0.995523  0.995523  0.000000  1
  Ge  Ge7  1  0.331258  0.670350  0.500000  1
  Ge  Ge8  1  0.670350  0.331258  0.500000  1
