# generated using pymatgen
data_Ac3Ho(AuO3)4
_symmetry_space_group_name_H-M   'P 1'
_cell_length_a   4.01039992
_cell_length_b   5.78283200
_cell_length_c   13.32071500
_cell_angle_alpha   90.00000000
_cell_angle_beta   90.16144105
_cell_angle_gamma   90.00000000
_symmetry_Int_Tables_number   1
_chemical_formula_structural   Ac3Ho(AuO3)4
_chemical_formula_sum   'Ac3 Ho1 Au4 O12'
_cell_volume   308.92572251
_cell_formula_units_Z   1
loop_
 _symmetry_equiv_pos_site_id
 _symmetry_equiv_pos_as_xyz
  1  'x, y, z'
loop_
 _atom_site_type_symbol
 _atom_site_label
 _atom_site_symmetry_multiplicity
 _atom_site_fract_x
 _atom_site_fract_y
 _atom_site_fract_z
 _atom_site_occupancy
  Ac  Ac0  1  0.261150  0.750000  0.082720  1
  Ac  Ac1  1  0.269311  0.250000  0.424273  1
  Ac  Ac2  1  0.733201  0.250000  0.910824  1
  Ho  Ho3  1  0.739366  0.750000  0.581745  1
  Au  Au4  1  0.064997  0.750000  0.820831  1
  Au  Au5  1  0.075854  0.250000  0.666059  1
  Au  Au6  1  0.928087  0.250000  0.173538  1
  Au  Au7  1  0.930515  0.750000  0.336082  1
  O  O8  1  0.171196  0.500423  0.254337  1
  O  O9  1  0.818155  0.991492  0.736952  1
  O  O10  1  0.818155  0.508508  0.736952  1
  O  O11  1  0.171196  0.999577  0.254337  1
  O  O12  1  0.745060  0.488157  0.079500  1
  O  O13  1  0.749761  0.518554  0.433433  1
  O  O14  1  0.250085  0.989168  0.915056  1
  O  O15  1  0.264502  0.988686  0.582685  1
  O  O16  1  0.749761  0.981446  0.433433  1
  O  O17  1  0.745060  0.011843  0.079500  1
  O  O18  1  0.264502  0.511314  0.582685  1
  O  O19  1  0.250085  0.510832  0.915056  1
