# generated using pymatgen
data_TbPrNi10
_symmetry_space_group_name_H-M   'P 1'
_cell_length_a   3.95320400
_cell_length_b   4.92936400
_cell_length_c   8.52544700
_cell_angle_alpha   90.00000000
_cell_angle_beta   90.00000000
_cell_angle_gamma   90.00000000
_symmetry_Int_Tables_number   1
_chemical_formula_structural   TbPrNi10
_chemical_formula_sum   'Tb1 Pr1 Ni10'
_cell_volume   166.13352273
_cell_formula_units_Z   1
loop_
 _symmetry_equiv_pos_site_id
 _symmetry_equiv_pos_as_xyz
  1  'x, y, z'
loop_
 _atom_site_type_symbol
 _atom_site_label
 _atom_site_symmetry_multiplicity
 _atom_site_fract_x
 _atom_site_fract_y
 _atom_site_fract_z
 _atom_site_occupancy
  Tb  Tb0  1  0.000000  0.000000  0.000000  1
  Pr  Pr1  1  0.000000  0.500000  0.500000  1
  Ni  Ni2  1  0.000000  0.000000  0.329274  1
  Ni  Ni3  1  0.000000  0.500000  0.836826  1
  Ni  Ni4  1  0.000000  0.500000  0.163174  1
  Ni  Ni5  1  0.000000  0.000000  0.670726  1
  Ni  Ni6  1  0.500000  0.000000  0.500000  1
  Ni  Ni7  1  0.500000  0.500000  0.000000  1
  Ni  Ni8  1  0.500000  0.247804  0.245876  1
  Ni  Ni9  1  0.500000  0.752196  0.754124  1
  Ni  Ni10  1  0.500000  0.752196  0.245876  1
  Ni  Ni11  1  0.500000  0.247804  0.754124  1
