# generated using pymatgen
data_TmLuSc3(In2Rh)2
_symmetry_space_group_name_H-M   'P 1'
_cell_length_a   3.47212700
_cell_length_b   7.77036948
_cell_length_c   17.78685338
_cell_angle_alpha   89.92930643
_cell_angle_beta   90.00000000
_cell_angle_gamma   90.00000000
_symmetry_Int_Tables_number   1
_chemical_formula_structural   TmLuSc3(In2Rh)2
_chemical_formula_sum   'Tm2 Lu2 Sc6 In8 Rh4'
_cell_volume   479.88377493
_cell_formula_units_Z   2
loop_
 _symmetry_equiv_pos_site_id
 _symmetry_equiv_pos_as_xyz
  1  'x, y, z'
loop_
 _atom_site_type_symbol
 _atom_site_label
 _atom_site_symmetry_multiplicity
 _atom_site_fract_x
 _atom_site_fract_y
 _atom_site_fract_z
 _atom_site_occupancy
  Tm  Tm0  1  0.000000  0.246562  0.720366  1
  Tm  Tm1  1  0.000000  0.753438  0.279634  1
  Lu  Lu2  1  0.000000  0.746478  0.779546  1
  Lu  Lu3  1  0.000000  0.253522  0.220454  1
  Sc  Sc4  1  0.000000  0.000000  0.000000  1
  Sc  Sc5  1  0.000000  0.500000  0.500000  1
  Sc  Sc6  1  0.000000  0.877402  0.585942  1
  Sc  Sc7  1  0.000000  0.122598  0.414058  1
  Sc  Sc8  1  0.000000  0.377547  0.914075  1
  Sc  Sc9  1  0.000000  0.622453  0.085925  1
  In  In10  1  0.500000  0.798172  0.436845  1
  In  In11  1  0.500000  0.201828  0.563155  1
  In  In12  1  0.500000  0.298055  0.063285  1
  In  In13  1  0.500000  0.701945  0.936715  1
  In  In14  1  0.500000  0.929867  0.146405  1
  In  In15  1  0.500000  0.070133  0.853595  1
  In  In16  1  0.500000  0.429451  0.353526  1
  In  In17  1  0.500000  0.570549  0.646474  1
  Rh  Rh18  1  0.500000  0.961391  0.692325  1
  Rh  Rh19  1  0.500000  0.038609  0.307675  1
  Rh  Rh20  1  0.500000  0.462527  0.807793  1
  Rh  Rh21  1  0.500000  0.537473  0.192207  1
