# generated using pymatgen
data_Sc4CBr6
_symmetry_space_group_name_H-M   'P 1'
_cell_length_a   3.67061500
_cell_length_b   12.36890500
_cell_length_c   12.81602400
_cell_angle_alpha   90.00000000
_cell_angle_beta   90.00000000
_cell_angle_gamma   90.00000000
_symmetry_Int_Tables_number   1
_chemical_formula_structural   Sc4CBr6
_chemical_formula_sum   'Sc8 C2 Br12'
_cell_volume   581.86656275
_cell_formula_units_Z   2
loop_
 _symmetry_equiv_pos_site_id
 _symmetry_equiv_pos_as_xyz
  1  'x, y, z'
loop_
 _atom_site_type_symbol
 _atom_site_label
 _atom_site_symmetry_multiplicity
 _atom_site_fract_x
 _atom_site_fract_y
 _atom_site_fract_z
 _atom_site_occupancy
  Sc  Sc0  1  0.000000  0.096687  0.076919  1
  Sc  Sc1  1  0.000000  0.903313  0.923081  1
  Sc  Sc2  1  0.000000  0.596687  0.423081  1
  Sc  Sc3  1  0.000000  0.403313  0.576919  1
  Sc  Sc4  1  0.500000  0.116934  0.862893  1
  Sc  Sc5  1  0.500000  0.883066  0.137107  1
  Sc  Sc6  1  0.500000  0.616934  0.637107  1
  Sc  Sc7  1  0.500000  0.383066  0.362893  1
  C  C8  1  0.500000  0.000000  0.000000  1
  C  C9  1  0.500000  0.500000  0.500000  1
  Br  Br10  1  0.500000  0.270439  0.679739  1
  Br  Br11  1  0.500000  0.729561  0.320261  1
  Br  Br12  1  0.500000  0.770439  0.820261  1
  Br  Br13  1  0.500000  0.229561  0.179739  1
  Br  Br14  1  0.000000  0.259713  0.932905  1
  Br  Br15  1  0.000000  0.740287  0.067095  1
  Br  Br16  1  0.000000  0.481606  0.240712  1
  Br  Br17  1  0.000000  0.518394  0.759288  1
  Br  Br18  1  0.000000  0.981606  0.259288  1
  Br  Br19  1  0.000000  0.018394  0.740712  1
  Br  Br20  1  0.000000  0.240287  0.432905  1
  Br  Br21  1  0.000000  0.759713  0.567095  1
