# generated using pymatgen
data_Cr12InSi8IO28
_symmetry_space_group_name_H-M   'P 1'
_cell_length_a   10.00920284
_cell_length_b   10.00920281
_cell_length_c   10.00920283
_cell_angle_alpha   115.75210217
_cell_angle_beta   115.75209739
_cell_angle_gamma   97.52989486
_symmetry_Int_Tables_number   1
_chemical_formula_structural   Cr12InSi8IO28
_chemical_formula_sum   'Cr12 In1 Si8 I1 O28'
_cell_volume   747.58708846
_cell_formula_units_Z   1
loop_
 _symmetry_equiv_pos_site_id
 _symmetry_equiv_pos_as_xyz
  1  'x, y, z'
loop_
 _atom_site_type_symbol
 _atom_site_label
 _atom_site_symmetry_multiplicity
 _atom_site_fract_x
 _atom_site_fract_y
 _atom_site_fract_z
 _atom_site_occupancy
  Cr  Cr0  1  0.279673  0.049939  0.770266  1
  Cr  Cr1  1  0.279673  0.509407  0.229734  1
  Cr  Cr2  1  0.509407  0.279673  0.229734  1
  Cr  Cr3  1  0.049939  0.279673  0.770266  1
  Cr  Cr4  1  0.721532  0.950953  0.229421  1
  Cr  Cr5  1  0.721532  0.492110  0.770579  1
  Cr  Cr6  1  0.492110  0.721532  0.770579  1
  Cr  Cr7  1  0.950953  0.721532  0.229421  1
  Cr  Cr8  1  0.499534  0.183707  0.684173  1
  Cr  Cr9  1  0.499534  0.815363  0.315827  1
  Cr  Cr10  1  0.815363  0.499534  0.315827  1
  Cr  Cr11  1  0.183707  0.499534  0.684173  1
  In  In12  1  0.037049  0.037049  0.000000  1
  Si  Si13  1  0.887919  0.887919  0.549936  1
  Si  Si14  1  0.337983  0.337983  0.450064  1
  Si  Si15  1  0.337983  0.887919  0.000000  1
  Si  Si16  1  0.887919  0.337983  0.000000  1
  Si  Si17  1  0.110366  0.110366  0.447257  1
  Si  Si18  1  0.663110  0.663110  0.552743  1
  Si  Si19  1  0.663110  0.110366  0.000000  1
  Si  Si20  1  0.110366  0.663110  0.000000  1
  I  I21  1  0.481827  0.481827  0.000000  1
  O  O22  1  0.053200  0.053200  0.707600  1
  O  O23  1  0.345601  0.345601  0.292400  1
  O  O24  1  0.345601  0.053200  0.000000  1
  O  O25  1  0.053200  0.345601  0.000000  1
  O  O26  1  0.945829  0.945829  0.291865  1
  O  O27  1  0.653964  0.653964  0.708135  1
  O  O28  1  0.653964  0.945829  0.000000  1
  O  O29  1  0.945829  0.653964  0.000000  1
  O  O30  1  0.254389  0.070798  0.565614  1
  O  O31  1  0.505185  0.688776  0.434386  1
  O  O32  1  0.505185  0.070798  0.816409  1
  O  O33  1  0.254389  0.688776  0.183591  1
  O  O34  1  0.688776  0.254389  0.183591  1
  O  O35  1  0.070798  0.505185  0.816409  1
  O  O36  1  0.070798  0.254389  0.565614  1
  O  O37  1  0.688776  0.505185  0.434386  1
  O  O38  1  0.744017  0.926989  0.431625  1
  O  O39  1  0.495365  0.312392  0.568375  1
  O  O40  1  0.495365  0.926989  0.182972  1
  O  O41  1  0.744017  0.312392  0.817028  1
  O  O42  1  0.312392  0.744017  0.817028  1
  O  O43  1  0.926989  0.495365  0.182972  1
  O  O44  1  0.926989  0.744017  0.431625  1
  O  O45  1  0.312392  0.495365  0.568375  1
  O  O46  1  0.823980  0.823980  0.647511  1
  O  O47  1  0.176468  0.176468  0.352489  1
  O  O48  1  0.176468  0.823980  0.000000  1
  O  O49  1  0.823980  0.176468  0.000000  1
