# generated using pymatgen
data_Hf2Zr3GaSb3
_symmetry_space_group_name_H-M   'P 1'
_cell_length_a   8.67861600
_cell_length_b   8.67861606
_cell_length_c   5.83690500
_cell_angle_alpha   90.00000000
_cell_angle_beta   90.00000000
_cell_angle_gamma   119.99999975
_symmetry_Int_Tables_number   1
_chemical_formula_structural   Hf2Zr3GaSb3
_chemical_formula_sum   'Hf4 Zr6 Ga2 Sb6'
_cell_volume   380.72746423
_cell_formula_units_Z   2
loop_
 _symmetry_equiv_pos_site_id
 _symmetry_equiv_pos_as_xyz
  1  'x, y, z'
loop_
 _atom_site_type_symbol
 _atom_site_label
 _atom_site_symmetry_multiplicity
 _atom_site_fract_x
 _atom_site_fract_y
 _atom_site_fract_z
 _atom_site_occupancy
  Hf  Hf0  1  0.333333  0.666667  0.500000  1
  Hf  Hf1  1  0.666667  0.333333  0.000000  1
  Hf  Hf2  1  0.666667  0.333333  0.500000  1
  Hf  Hf3  1  0.333333  0.666667  0.000000  1
  Zr  Zr4  1  0.731012  0.731012  0.250000  1
  Zr  Zr5  1  0.731012  0.000000  0.750000  1
  Zr  Zr6  1  0.000000  0.268988  0.250000  1
  Zr  Zr7  1  0.000000  0.731012  0.750000  1
  Zr  Zr8  1  0.268988  0.268988  0.750000  1
  Zr  Zr9  1  0.268988  0.000000  0.250000  1
  Ga  Ga10  1  0.000000  0.000000  0.000000  1
  Ga  Ga11  1  0.000000  0.000000  0.500000  1
  Sb  Sb12  1  0.389428  0.000000  0.750000  1
  Sb  Sb13  1  0.389428  0.389428  0.250000  1
  Sb  Sb14  1  0.000000  0.610572  0.250000  1
  Sb  Sb15  1  0.000000  0.389428  0.750000  1
  Sb  Sb16  1  0.610572  0.610572  0.750000  1
  Sb  Sb17  1  0.610572  0.000000  0.250000  1
