# generated using pymatgen
data_ErZn2HgPd2
_symmetry_space_group_name_H-M   'P 1'
_cell_length_a   5.23433361
_cell_length_b   5.28364207
_cell_length_c   5.28363913
_cell_angle_alpha   63.29750473
_cell_angle_beta   60.30821125
_cell_angle_gamma   60.30822129
_symmetry_Int_Tables_number   1
_chemical_formula_structural   ErZn2HgPd2
_chemical_formula_sum   'Er1 Zn2 Hg1 Pd2'
_cell_volume   106.16755340
_cell_formula_units_Z   1
loop_
 _symmetry_equiv_pos_site_id
 _symmetry_equiv_pos_as_xyz
  1  'x, y, z'
loop_
 _atom_site_type_symbol
 _atom_site_label
 _atom_site_symmetry_multiplicity
 _atom_site_fract_x
 _atom_site_fract_y
 _atom_site_fract_z
 _atom_site_occupancy
  Er  Er0  1  0.991113  0.008887  0.008887  1
  Zn  Zn1  1  0.130062  0.619838  0.619838  1
  Zn  Zn2  1  0.630260  0.619838  0.619838  1
  Hg  Hg3  1  0.244150  0.255850  0.255850  1
  Pd  Pd4  1  0.627207  0.623538  0.122049  1
  Pd  Pd5  1  0.627207  0.122049  0.623538  1
