# generated using pymatgen
data_Li4Sm2DySn4
_symmetry_space_group_name_H-M   'P 1'
_cell_length_a   8.70578364
_cell_length_b   8.70578466
_cell_length_c   8.70578365
_cell_angle_alpha   148.78833494
_cell_angle_beta   132.51045988
_cell_angle_gamma   57.92806785
_symmetry_Int_Tables_number   1
_chemical_formula_structural   Li4Sm2DySn4
_chemical_formula_sum   'Li4 Sm2 Dy1 Sn4'
_cell_volume   250.13640931
_cell_formula_units_Z   1
loop_
 _symmetry_equiv_pos_site_id
 _symmetry_equiv_pos_as_xyz
  1  'x, y, z'
loop_
 _atom_site_type_symbol
 _atom_site_label
 _atom_site_symmetry_multiplicity
 _atom_site_fract_x
 _atom_site_fract_y
 _atom_site_fract_z
 _atom_site_occupancy
  Li  Li0  1  0.017700  0.326819  0.690882  1
  Li  Li1  1  0.982300  0.673181  0.309118  1
  Li  Li2  1  0.635937  0.326819  0.309118  1
  Li  Li3  1  0.364063  0.673181  0.690882  1
  Sm  Sm4  1  0.371122  0.871122  0.500000  1
  Sm  Sm5  1  0.628878  0.128878  0.500000  1
  Dy  Dy6  1  0.000000  0.000000  0.000000  1
  Sn  Sn7  1  0.211573  0.211573  0.000000  1
  Sn  Sn8  1  0.703582  0.500000  0.203582  1
  Sn  Sn9  1  0.296418  0.500000  0.796418  1
  Sn  Sn10  1  0.788427  0.788427  0.000000  1
