# generated using pymatgen
data_Nd7Ni16
_symmetry_space_group_name_H-M   'P 1'
_cell_length_a   8.88490679
_cell_length_b   8.88490695
_cell_length_c   8.88490655
_cell_angle_alpha   131.43871518
_cell_angle_beta   131.43871370
_cell_angle_gamma   71.11697807
_symmetry_Int_Tables_number   1
_chemical_formula_structural   Nd7Ni16
_chemical_formula_sum   'Nd7 Ni16'
_cell_volume   385.92938661
_cell_formula_units_Z   1
loop_
 _symmetry_equiv_pos_site_id
 _symmetry_equiv_pos_as_xyz
  1  'x, y, z'
loop_
 _atom_site_type_symbol
 _atom_site_label
 _atom_site_symmetry_multiplicity
 _atom_site_fract_x
 _atom_site_fract_y
 _atom_site_fract_z
 _atom_site_occupancy
  Nd  Nd0  1  0.095704  0.095704  0.398055  1
  Nd  Nd1  1  0.697649  0.697649  0.601945  1
  Nd  Nd2  1  0.904296  0.302351  0.000000  1
  Nd  Nd3  1  0.750000  0.250000  0.500000  1
  Nd  Nd4  1  0.500000  0.500000  0.000000  1
  Nd  Nd5  1  0.302351  0.904296  0.000000  1
  Nd  Nd6  1  0.250000  0.750000  0.500000  1
  Ni  Ni7  1  0.432007  0.194664  0.000000  1
  Ni  Ni8  1  0.681650  0.932937  0.481778  1
  Ni  Ni9  1  0.932937  0.681650  0.481778  1
  Ni  Ni10  1  0.194664  0.432007  0.000000  1
  Ni  Ni11  1  0.318350  0.800127  0.251287  1
  Ni  Ni12  1  0.941562  0.661703  0.000000  1
  Ni  Ni13  1  0.805336  0.805336  0.237343  1
  Ni  Ni14  1  0.067063  0.548841  0.748713  1
  Ni  Ni15  1  0.058438  0.058438  0.720141  1
  Ni  Ni16  1  0.661703  0.941562  0.000000  1
  Ni  Ni17  1  0.567993  0.567993  0.762657  1
  Ni  Ni18  1  0.800127  0.318350  0.251287  1
  Ni  Ni19  1  0.548841  0.067063  0.748713  1
  Ni  Ni20  1  0.199873  0.451159  0.518222  1
  Ni  Ni21  1  0.338297  0.338297  0.279859  1
  Ni  Ni22  1  0.451159  0.199873  0.518222  1
