# generated using pymatgen
data_Rb4NaLi(DySb2)2
_symmetry_space_group_name_H-M   'P 1'
_cell_length_a   11.29140470
_cell_length_b   11.29140439
_cell_length_c   7.37424200
_cell_angle_alpha   90.00000000
_cell_angle_beta   90.00000000
_cell_angle_gamma   98.91773417
_symmetry_Int_Tables_number   1
_chemical_formula_structural   Rb4NaLi(DySb2)2
_chemical_formula_sum   'Rb8 Na2 Li2 Dy4 Sb8'
_cell_volume   928.81998580
_cell_formula_units_Z   2
loop_
 _symmetry_equiv_pos_site_id
 _symmetry_equiv_pos_as_xyz
  1  'x, y, z'
loop_
 _atom_site_type_symbol
 _atom_site_label
 _atom_site_symmetry_multiplicity
 _atom_site_fract_x
 _atom_site_fract_y
 _atom_site_fract_z
 _atom_site_occupancy
  Rb  Rb0  1  0.071322  0.428678  0.250000  1
  Rb  Rb1  1  0.428678  0.071322  0.750000  1
  Rb  Rb2  1  0.930569  0.569431  0.750000  1
  Rb  Rb3  1  0.569431  0.930569  0.250000  1
  Rb  Rb4  1  0.675283  0.322925  0.213640  1
  Rb  Rb5  1  0.824717  0.177075  0.713640  1
  Rb  Rb6  1  0.322925  0.675283  0.786360  1
  Rb  Rb7  1  0.177075  0.824717  0.286360  1
  Na  Na8  1  0.616006  0.616006  0.000000  1
  Na  Na9  1  0.883994  0.883994  0.500000  1
  Li  Li10  1  0.377611  0.377611  0.000000  1
  Li  Li11  1  0.122389  0.122389  0.500000  1
  Dy  Dy12  1  0.131186  0.131186  0.000000  1
  Dy  Dy13  1  0.368814  0.368814  0.500000  1
  Dy  Dy14  1  0.869788  0.869788  0.000000  1
  Dy  Dy15  1  0.630212  0.630212  0.500000  1
  Sb  Sb16  1  0.848647  0.651352  0.250000  1
  Sb  Sb17  1  0.651352  0.848647  0.750000  1
  Sb  Sb18  1  0.155388  0.344611  0.750000  1
  Sb  Sb19  1  0.344611  0.155388  0.250000  1
  Sb  Sb20  1  0.903312  0.101429  0.221885  1
  Sb  Sb21  1  0.596688  0.398571  0.721885  1
  Sb  Sb22  1  0.101429  0.903312  0.778115  1
  Sb  Sb23  1  0.398571  0.596688  0.278115  1
