# generated using pymatgen
data_Dy3Er3Nb2(Co4P3)4
_symmetry_space_group_name_H-M   'P 1'
_cell_length_a   3.70037500
_cell_length_b   10.61689201
_cell_length_c   12.31493501
_cell_angle_alpha   90.00376772
_cell_angle_beta   90.00000000
_cell_angle_gamma   90.00000000
_symmetry_Int_Tables_number   1
_chemical_formula_structural   Dy3Er3Nb2(Co4P3)4
_chemical_formula_sum   'Dy3 Er3 Nb2 Co16 P12'
_cell_volume   483.81046842
_cell_formula_units_Z   1
loop_
 _symmetry_equiv_pos_site_id
 _symmetry_equiv_pos_as_xyz
  1  'x, y, z'
loop_
 _atom_site_type_symbol
 _atom_site_label
 _atom_site_symmetry_multiplicity
 _atom_site_fract_x
 _atom_site_fract_y
 _atom_site_fract_z
 _atom_site_occupancy
  Dy  Dy0  1  0.000000  0.500043  0.526142  1
  Dy  Dy1  1  0.500000  0.999982  0.473816  1
  Dy  Dy2  1  0.000000  0.320193  0.794628  1
  Er  Er3  1  0.500000  0.820175  0.205321  1
  Er  Er4  1  0.500000  0.179820  0.205286  1
  Er  Er5  1  0.000000  0.679910  0.794702  1
  Nb  Nb6  1  0.500000  0.500014  0.156681  1
  Nb  Nb7  1  0.000000  0.999865  0.843384  1
  Co  Co8  1  0.500000  0.500395  0.702001  1
  Co  Co9  1  0.000000  0.999986  0.297797  1
  Co  Co10  1  0.000000  0.500134  0.985413  1
  Co  Co11  1  0.500000  0.999951  0.014743  1
  Co  Co12  1  0.500000  0.332450  0.991548  1
  Co  Co13  1  0.500000  0.667622  0.991315  1
  Co  Co14  1  0.000000  0.167479  0.008815  1
  Co  Co15  1  0.000000  0.832415  0.008717  1
  Co  Co16  1  0.500000  0.295264  0.432168  1
  Co  Co17  1  0.500000  0.704747  0.432207  1
  Co  Co18  1  0.000000  0.204684  0.567634  1
  Co  Co19  1  0.000000  0.795261  0.567783  1
  Co  Co20  1  0.500000  0.877077  0.704866  1
  Co  Co21  1  0.500000  0.122593  0.704697  1
  Co  Co22  1  0.000000  0.622912  0.295137  1
  Co  Co23  1  0.000000  0.377092  0.295122  1
  P  P24  1  0.500000  0.500406  0.881481  1
  P  P25  1  0.000000  0.999992  0.118789  1
  P  P26  1  0.500000  0.499994  0.355395  1
  P  P27  1  0.000000  0.000053  0.644591  1
  P  P28  1  0.500000  0.310894  0.615430  1
  P  P29  1  0.500000  0.689036  0.615858  1
  P  P30  1  0.000000  0.188986  0.384113  1
  P  P31  1  0.000000  0.810997  0.384133  1
  P  P32  1  0.500000  0.840947  0.893178  1
  P  P33  1  0.500000  0.158622  0.893478  1
  P  P34  1  0.000000  0.659063  0.106840  1
  P  P35  1  0.000000  0.340947  0.106790  1
