# generated using pymatgen
data_Pr15ThCd3HgIr4
_symmetry_space_group_name_H-M   'P 1'
_cell_length_a   10.04849670
_cell_length_b   10.04849591
_cell_length_c   10.04849617
_cell_angle_alpha   59.93361882
_cell_angle_beta   59.93361895
_cell_angle_gamma   59.93361744
_symmetry_Int_Tables_number   1
_chemical_formula_structural   Pr15ThCd3HgIr4
_chemical_formula_sum   'Pr15 Th1 Cd3 Hg1 Ir4'
_cell_volume   716.36413372
_cell_formula_units_Z   1
loop_
 _symmetry_equiv_pos_site_id
 _symmetry_equiv_pos_as_xyz
  1  'x, y, z'
loop_
 _atom_site_type_symbol
 _atom_site_label
 _atom_site_symmetry_multiplicity
 _atom_site_fract_x
 _atom_site_fract_y
 _atom_site_fract_z
 _atom_site_occupancy
  Pr  Pr0  1  0.349419  0.349419  0.952525  1
  Pr  Pr1  1  0.349419  0.952525  0.349419  1
  Pr  Pr2  1  0.952525  0.349419  0.349419  1
  Pr  Pr3  1  0.810464  0.189936  0.189936  1
  Pr  Pr4  1  0.190154  0.808258  0.808258  1
  Pr  Pr5  1  0.189936  0.810464  0.189936  1
  Pr  Pr6  1  0.808258  0.190154  0.808258  1
  Pr  Pr7  1  0.189936  0.189936  0.810464  1
  Pr  Pr8  1  0.808258  0.808258  0.190154  1
  Pr  Pr9  1  0.940740  0.561652  0.561652  1
  Pr  Pr10  1  0.559161  0.939172  0.939172  1
  Pr  Pr11  1  0.561652  0.940740  0.561652  1
  Pr  Pr12  1  0.939172  0.559161  0.939172  1
  Pr  Pr13  1  0.561652  0.561652  0.940740  1
  Pr  Pr14  1  0.939172  0.939172  0.559161  1
  Th  Th15  1  0.344058  0.344058  0.344058  1
  Cd  Cd16  1  0.578694  0.578694  0.259625  1
  Cd  Cd17  1  0.578694  0.259625  0.578694  1
  Cd  Cd18  1  0.259625  0.578694  0.578694  1
  Hg  Hg19  1  0.582899  0.582899  0.582899  1
  Ir  Ir20  1  0.142137  0.142137  0.142137  1
  Ir  Ir21  1  0.146568  0.146568  0.570836  1
  Ir  Ir22  1  0.146568  0.570836  0.146568  1
  Ir  Ir23  1  0.570836  0.146568  0.146568  1
