# generated using pymatgen
data_TbTh5(SnIr)6
_symmetry_space_group_name_H-M   'P 1'
_cell_length_a   7.54892298
_cell_length_b   7.56646051
_cell_length_c   8.25602700
_cell_angle_alpha   90.00000000
_cell_angle_beta   90.00000000
_cell_angle_gamma   119.97661949
_symmetry_Int_Tables_number   1
_chemical_formula_structural   TbTh5(SnIr)6
_chemical_formula_sum   'Tb1 Th5 Sn6 Ir6'
_cell_volume   408.49032126
_cell_formula_units_Z   1
loop_
 _symmetry_equiv_pos_site_id
 _symmetry_equiv_pos_as_xyz
  1  'x, y, z'
loop_
 _atom_site_type_symbol
 _atom_site_label
 _atom_site_symmetry_multiplicity
 _atom_site_fract_x
 _atom_site_fract_y
 _atom_site_fract_z
 _atom_site_occupancy
  Tb  Tb0  1  0.404489  0.000806  0.750000  1
  Th  Th1  1  0.415254  0.001437  0.250000  1
  Th  Th2  1  0.585196  0.586639  0.750000  1
  Th  Th3  1  0.589879  0.589162  0.250000  1
  Th  Th4  1  0.998751  0.410027  0.250000  1
  Th  Th5  1  0.001628  0.414928  0.750000  1
  Sn  Sn6  1  0.251863  0.247603  0.500546  1
  Sn  Sn7  1  0.251863  0.247603  0.999454  1
  Sn  Sn8  1  0.743942  0.999930  0.994321  1
  Sn  Sn9  1  0.004311  0.752214  0.501082  1
  Sn  Sn10  1  0.743942  0.999930  0.505679  1
  Sn  Sn11  1  0.004311  0.752214  0.998918  1
  Ir  Ir12  1  0.671529  0.338103  0.501186  1
  Ir  Ir13  1  0.671529  0.338103  0.998814  1
  Ir  Ir14  1  0.333010  0.660559  0.002160  1
  Ir  Ir15  1  0.333010  0.660559  0.497840  1
  Ir  Ir16  1  0.997840  0.000551  0.750000  1
  Ir  Ir17  1  0.997654  0.999632  0.250000  1
