# generated using pymatgen
data_AcNd(BeCu12)2
_symmetry_space_group_name_H-M   'P 1'
_cell_length_a   8.11396678
_cell_length_b   8.11396713
_cell_length_c   8.11396600
_cell_angle_alpha   59.99999647
_cell_angle_beta   59.99999501
_cell_angle_gamma   59.99999343
_symmetry_Int_Tables_number   1
_chemical_formula_structural   AcNd(BeCu12)2
_chemical_formula_sum   'Ac1 Nd1 Be2 Cu24'
_cell_volume   377.73271959
_cell_formula_units_Z   1
loop_
 _symmetry_equiv_pos_site_id
 _symmetry_equiv_pos_as_xyz
  1  'x, y, z'
loop_
 _atom_site_type_symbol
 _atom_site_label
 _atom_site_symmetry_multiplicity
 _atom_site_fract_x
 _atom_site_fract_y
 _atom_site_fract_z
 _atom_site_occupancy
  Ac  Ac0  1  0.750000  0.750000  0.750000  1
  Nd  Nd1  1  0.250000  0.250000  0.250000  1
  Be  Be2  1  0.500000  0.500000  0.500000  1
  Be  Be3  1  0.000000  0.000000  0.000000  1
  Cu  Cu4  1  0.792693  0.560992  0.209159  1
  Cu  Cu5  1  0.209159  0.437156  0.792693  1
  Cu  Cu6  1  0.560992  0.792693  0.437156  1
  Cu  Cu7  1  0.437156  0.209159  0.560992  1
  Cu  Cu8  1  0.290841  0.939008  0.707307  1
  Cu  Cu9  1  0.707307  0.062844  0.290841  1
  Cu  Cu10  1  0.939008  0.290841  0.062844  1
  Cu  Cu11  1  0.062844  0.707307  0.939008  1
  Cu  Cu12  1  0.209159  0.792693  0.560992  1
  Cu  Cu13  1  0.792693  0.209159  0.437156  1
  Cu  Cu14  1  0.437156  0.560992  0.792693  1
  Cu  Cu15  1  0.560992  0.437156  0.209159  1
  Cu  Cu16  1  0.707307  0.290841  0.939008  1
  Cu  Cu17  1  0.290841  0.707307  0.062844  1
  Cu  Cu18  1  0.062844  0.939008  0.290841  1
  Cu  Cu19  1  0.939008  0.062844  0.707307  1
  Cu  Cu20  1  0.560992  0.209159  0.792693  1
  Cu  Cu21  1  0.437156  0.792693  0.209159  1
  Cu  Cu22  1  0.792693  0.437156  0.560992  1
  Cu  Cu23  1  0.209159  0.560992  0.437156  1
  Cu  Cu24  1  0.939008  0.707307  0.290841  1
  Cu  Cu25  1  0.062844  0.290841  0.707307  1
  Cu  Cu26  1  0.290841  0.062844  0.939008  1
  Cu  Cu27  1  0.707307  0.939008  0.062844  1
