# generated using pymatgen
data_Y7Ho3In8(IrPt)2
_symmetry_space_group_name_H-M   'P 1'
_cell_length_a   3.63469200
_cell_length_b   8.13032105
_cell_length_c   18.27353791
_cell_angle_alpha   89.96551179
_cell_angle_beta   90.00000000
_cell_angle_gamma   90.00000000
_symmetry_Int_Tables_number   1
_chemical_formula_structural   Y7Ho3In8(IrPt)2
_chemical_formula_sum   'Y7 Ho3 In8 Ir2 Pt2'
_cell_volume   540.00511057
_cell_formula_units_Z   1
loop_
 _symmetry_equiv_pos_site_id
 _symmetry_equiv_pos_as_xyz
  1  'x, y, z'
loop_
 _atom_site_type_symbol
 _atom_site_label
 _atom_site_symmetry_multiplicity
 _atom_site_fract_x
 _atom_site_fract_y
 _atom_site_fract_z
 _atom_site_occupancy
  Y  Y0  1  0.000000  0.114905  0.412683  1
  Y  Y1  1  0.000000  0.884557  0.587651  1
  Y  Y2  1  0.000000  0.383105  0.913862  1
  Y  Y3  1  0.000000  0.617507  0.085691  1
  Y  Y4  1  0.000000  0.235936  0.221641  1
  Y  Y5  1  0.000000  0.000023  0.999914  1
  Y  Y6  1  0.000000  0.499921  0.500068  1
  Ho  Ho7  1  0.000000  0.764154  0.777721  1
  Ho  Ho8  1  0.000000  0.248818  0.721150  1
  Ho  Ho9  1  0.000000  0.750788  0.279150  1
  In  In10  1  0.500000  0.424422  0.351085  1
  In  In11  1  0.500000  0.575297  0.648850  1
  In  In12  1  0.500000  0.072032  0.850804  1
  In  In13  1  0.500000  0.927046  0.149241  1
  In  In14  1  0.500000  0.292523  0.066695  1
  In  In15  1  0.500000  0.708253  0.932764  1
  In  In16  1  0.500000  0.207006  0.568832  1
  In  In17  1  0.500000  0.792417  0.431420  1
  Ir  Ir18  1  0.500000  0.017228  0.303901  1
  Ir  Ir19  1  0.500000  0.980384  0.697124  1
  Pt  Pt20  1  0.500000  0.479787  0.802253  1
  Pt  Pt21  1  0.500000  0.523888  0.197502  1
