# generated using pymatgen
data_Zr6Nb4Al12Ir3Ru4
_symmetry_space_group_name_H-M   'P 1'
_cell_length_a   8.84626010
_cell_length_b   8.84625988
_cell_length_c   8.84682801
_cell_angle_alpha   60.00212424
_cell_angle_beta   60.00212464
_cell_angle_gamma   60.00000158
_symmetry_Int_Tables_number   1
_chemical_formula_structural   Zr6Nb4Al12Ir3Ru4
_chemical_formula_sum   'Zr6 Nb4 Al12 Ir3 Ru4'
_cell_volume   489.56000928
_cell_formula_units_Z   1
loop_
 _symmetry_equiv_pos_site_id
 _symmetry_equiv_pos_as_xyz
  1  'x, y, z'
loop_
 _atom_site_type_symbol
 _atom_site_label
 _atom_site_symmetry_multiplicity
 _atom_site_fract_x
 _atom_site_fract_y
 _atom_site_fract_z
 _atom_site_occupancy
  Zr  Zr0  1  0.691794  0.691794  0.308560  1
  Zr  Zr1  1  0.307852  0.691794  0.308560  1
  Zr  Zr2  1  0.691794  0.307852  0.308560  1
  Zr  Zr3  1  0.309019  0.309019  0.691045  1
  Zr  Zr4  1  0.690916  0.309019  0.691045  1
  Zr  Zr5  1  0.309019  0.690916  0.691045  1
  Nb  Nb6  1  0.879678  0.879678  0.360965  1
  Nb  Nb7  1  0.881403  0.360056  0.877138  1
  Nb  Nb8  1  0.360056  0.881403  0.877138  1
  Nb  Nb9  1  0.881403  0.881403  0.877138  1
  Al  Al10  1  0.121454  0.121454  0.635639  1
  Al  Al11  1  0.120183  0.636466  0.123168  1
  Al  Al12  1  0.636466  0.120183  0.123168  1
  Al  Al13  1  0.120183  0.120183  0.123168  1
  Al  Al14  1  0.660431  0.660431  0.018706  1
  Al  Al15  1  0.662256  0.015222  0.660265  1
  Al  Al16  1  0.015222  0.662256  0.660265  1
  Al  Al17  1  0.662256  0.662256  0.660265  1
  Al  Al18  1  0.337354  0.337354  0.987940  1
  Al  Al19  1  0.335570  0.990813  0.338049  1
  Al  Al20  1  0.990813  0.335570  0.338049  1
  Al  Al21  1  0.335570  0.335570  0.338049  1
  Ir  Ir22  1  0.501922  0.501922  0.997683  1
  Ir  Ir23  1  0.998473  0.501922  0.997683  1
  Ir  Ir24  1  0.501922  0.998473  0.997683  1
  Ru  Ru25  1  0.000521  0.000521  0.998436  1
  Ru  Ru26  1  0.997082  0.997082  0.503530  1
  Ru  Ru27  1  0.502305  0.997082  0.503530  1
  Ru  Ru28  1  0.997082  0.502305  0.503530  1
