# generated using pymatgen
data_YZr2Sn3Ir2Rh
_symmetry_space_group_name_H-M   'P 1'
_cell_length_a   7.49848373
_cell_length_b   7.52172326
_cell_length_c   7.43006100
_cell_angle_alpha   90.00000000
_cell_angle_beta   90.00000000
_cell_angle_gamma   120.07915360
_symmetry_Int_Tables_number   1
_chemical_formula_structural   YZr2Sn3Ir2Rh
_chemical_formula_sum   'Y2 Zr4 Sn6 Ir4 Rh2'
_cell_volume   362.63261944
_cell_formula_units_Z   2
loop_
 _symmetry_equiv_pos_site_id
 _symmetry_equiv_pos_as_xyz
  1  'x, y, z'
loop_
 _atom_site_type_symbol
 _atom_site_label
 _atom_site_symmetry_multiplicity
 _atom_site_fract_x
 _atom_site_fract_y
 _atom_site_fract_z
 _atom_site_occupancy
  Y  Y0  1  0.594423  0.998727  0.250000  1
  Y  Y1  1  0.405828  0.404038  0.250000  1
  Zr  Zr2  1  0.608803  0.003532  0.750000  1
  Zr  Zr3  1  0.390937  0.395027  0.750000  1
  Zr  Zr4  1  0.000204  0.603538  0.750000  1
  Zr  Zr5  1  0.000671  0.597781  0.250000  1
  Sn  Sn6  1  0.266910  0.000010  0.992257  1
  Sn  Sn7  1  0.733265  0.732902  0.507504  1
  Sn  Sn8  1  0.999796  0.266756  0.496320  1
  Sn  Sn9  1  0.999796  0.266756  0.003680  1
  Sn  Sn10  1  0.733265  0.732902  0.992496  1
  Sn  Sn11  1  0.266910  0.000010  0.507743  1
  Ir  Ir12  1  0.671700  0.337711  0.972782  1
  Ir  Ir13  1  0.671700  0.337711  0.527218  1
  Ir  Ir14  1  0.327914  0.665833  0.973685  1
  Ir  Ir15  1  0.327914  0.665833  0.526315  1
  Rh  Rh16  1  0.999914  0.004183  0.750000  1
  Rh  Rh17  1  0.000048  0.986750  0.250000  1
