# generated using pymatgen
data_Y5Zr3As11PPd16
_symmetry_space_group_name_H-M   'P 1'
_cell_length_a   13.52784613
_cell_length_b   13.52784630
_cell_length_c   4.09932700
_cell_angle_alpha   90.00000000
_cell_angle_beta   90.00000000
_cell_angle_gamma   120.01567472
_symmetry_Int_Tables_number   1
_chemical_formula_structural   Y5Zr3As11PPd16
_chemical_formula_sum   'Y5 Zr3 As11 P1 Pd16'
_cell_volume   649.57887337
_cell_formula_units_Z   1
loop_
 _symmetry_equiv_pos_site_id
 _symmetry_equiv_pos_as_xyz
  1  'x, y, z'
loop_
 _atom_site_type_symbol
 _atom_site_label
 _atom_site_symmetry_multiplicity
 _atom_site_fract_x
 _atom_site_fract_y
 _atom_site_fract_z
 _atom_site_occupancy
  Y  Y0  1  0.188040  0.188040  0.500000  1
  Y  Y1  1  0.811288  0.997278  0.500000  1
  Y  Y2  1  0.997278  0.811288  0.500000  1
  Y  Y3  1  0.333718  0.666864  0.000000  1
  Y  Y4  1  0.666864  0.333718  0.000000  1
  Zr  Zr5  1  0.557901  0.557901  0.000000  1
  Zr  Zr6  1  0.443616  0.999883  0.000000  1
  Zr  Zr7  1  0.999883  0.443616  0.000000  1
  As  As8  1  0.171095  0.999815  0.000000  1
  As  As9  1  0.999815  0.171095  0.000000  1
  As  As10  1  0.166891  0.483116  0.500000  1
  As  As11  1  0.517736  0.683599  0.500000  1
  As  As12  1  0.316529  0.833026  0.500000  1
  As  As13  1  0.683599  0.517736  0.500000  1
  As  As14  1  0.833026  0.316529  0.500000  1
  As  As15  1  0.483116  0.166891  0.500000  1
  As  As16  1  0.358681  0.358681  0.000000  1
  As  As17  1  0.642101  0.998813  0.000000  1
  As  As18  1  0.998813  0.642101  0.000000  1
  P  P19  1  0.823076  0.823076  0.000000  1
  Pd  Pd20  1  0.731350  0.731350  0.500000  1
  Pd  Pd21  1  0.276817  0.999781  0.500000  1
  Pd  Pd22  1  0.999781  0.276817  0.500000  1
  Pd  Pd23  1  0.181466  0.371915  0.000000  1
  Pd  Pd24  1  0.635155  0.810237  0.000000  1
  Pd  Pd25  1  0.190441  0.818735  0.000000  1
  Pd  Pd26  1  0.810237  0.635155  0.000000  1
  Pd  Pd27  1  0.818735  0.190441  0.000000  1
  Pd  Pd28  1  0.371915  0.181466  0.000000  1
  Pd  Pd29  1  0.356473  0.484410  0.500000  1
  Pd  Pd30  1  0.515870  0.871836  0.500000  1
  Pd  Pd31  1  0.128140  0.643476  0.500000  1
  Pd  Pd32  1  0.871836  0.515870  0.500000  1
  Pd  Pd33  1  0.643476  0.128140  0.500000  1
  Pd  Pd34  1  0.484410  0.356473  0.500000  1
  Pd  Pd35  1  0.990834  0.990834  0.000000  1
