# generated using pymatgen
data_Nd8Si13Ge
_symmetry_space_group_name_H-M   'P 1'
_cell_length_a   7.53626398
_cell_length_b   7.54267750
_cell_length_c   11.75790445
_cell_angle_alpha   89.83781347
_cell_angle_beta   89.83799846
_cell_angle_gamma   134.34148206
_symmetry_Int_Tables_number   1
_chemical_formula_structural   Nd8Si13Ge
_chemical_formula_sum   'Nd8 Si13 Ge1'
_cell_volume   477.99083605
_cell_formula_units_Z   1
loop_
 _symmetry_equiv_pos_site_id
 _symmetry_equiv_pos_as_xyz
  1  'x, y, z'
loop_
 _atom_site_type_symbol
 _atom_site_label
 _atom_site_symmetry_multiplicity
 _atom_site_fract_x
 _atom_site_fract_y
 _atom_site_fract_z
 _atom_site_occupancy
  Nd  Nd0  1  0.496982  0.495805  0.502724  1
  Nd  Nd1  1  0.503941  0.504562  0.998995  1
  Nd  Nd2  1  0.996817  0.992060  0.249215  1
  Nd  Nd3  1  0.996183  0.003350  0.751006  1
  Nd  Nd4  1  0.005654  0.500760  0.624198  1
  Nd  Nd5  1  0.499865  0.003365  0.377321  1
  Nd  Nd6  1  0.993306  0.497788  0.121579  1
  Nd  Nd7  1  0.500214  0.995845  0.876896  1
  Si  Si8  1  0.557404  0.422550  0.247488  1
  Si  Si9  1  0.427302  0.574612  0.750098  1
  Si  Si10  1  0.893252  0.571055  0.867145  1
  Si  Si11  1  0.563456  0.885509  0.135640  1
  Si  Si12  1  0.129415  0.436274  0.359957  1
  Si  Si13  1  0.433067  0.110486  0.635200  1
  Si  Si14  1  0.091181  0.427385  0.873009  1
  Si  Si15  1  0.424471  0.089385  0.128381  1
  Si  Si16  1  0.912846  0.085101  0.493715  1
  Si  Si17  1  0.081530  0.912950  0.508249  1
  Si  Si18  1  0.092382  0.921915  0.995509  1
  Si  Si19  1  0.916840  0.089687  0.004798  1
  Si  Si20  1  0.575228  0.911147  0.627104  1
  Ge  Ge21  1  0.908665  0.568408  0.371772  1
