# generated using pymatgen
data_Y8Lu2Si6C
_symmetry_space_group_name_H-M   'P 1'
_cell_length_a   8.41841900
_cell_length_b   8.41842073
_cell_length_c   6.36423700
_cell_angle_alpha   90.00000000
_cell_angle_beta   90.00000000
_cell_angle_gamma   119.99998927
_symmetry_Int_Tables_number   1
_chemical_formula_structural   Y8Lu2Si6C
_chemical_formula_sum   'Y8 Lu2 Si6 C1'
_cell_volume   390.60534979
_cell_formula_units_Z   1
loop_
 _symmetry_equiv_pos_site_id
 _symmetry_equiv_pos_as_xyz
  1  'x, y, z'
loop_
 _atom_site_type_symbol
 _atom_site_label
 _atom_site_symmetry_multiplicity
 _atom_site_fract_x
 _atom_site_fract_y
 _atom_site_fract_z
 _atom_site_occupancy
  Y  Y0  1  0.666667  0.333333  0.000000  1
  Y  Y1  1  0.333333  0.666667  0.000000  1
  Y  Y2  1  0.000000  0.763831  0.270835  1
  Y  Y3  1  0.236169  0.236169  0.270835  1
  Y  Y4  1  0.763831  0.000000  0.270835  1
  Y  Y5  1  0.000000  0.236169  0.729165  1
  Y  Y6  1  0.763831  0.763831  0.729165  1
  Y  Y7  1  0.236169  0.000000  0.729165  1
  Lu  Lu8  1  0.333333  0.666667  0.500000  1
  Lu  Lu9  1  0.666667  0.333333  0.500000  1
  Si  Si10  1  0.000000  0.400668  0.260346  1
  Si  Si11  1  0.599332  0.599332  0.260346  1
  Si  Si12  1  0.400668  0.000000  0.260346  1
  Si  Si13  1  0.000000  0.599332  0.739654  1
  Si  Si14  1  0.400668  0.400668  0.739654  1
  Si  Si15  1  0.599332  0.000000  0.739654  1
  C  C16  1  0.000000  0.000000  0.500000  1
