# generated using pymatgen
data_Sr5Al7Ga2
_symmetry_space_group_name_H-M   'P 1'
_cell_length_a   12.24831143
_cell_length_b   12.24831112
_cell_length_c   12.24831348
_cell_angle_alpha   27.53128778
_cell_angle_beta   27.53128995
_cell_angle_gamma   27.53128571
_symmetry_Int_Tables_number   1
_chemical_formula_structural   Sr5Al7Ga2
_chemical_formula_sum   'Sr5 Al7 Ga2'
_cell_volume   346.53696131
_cell_formula_units_Z   1
loop_
 _symmetry_equiv_pos_site_id
 _symmetry_equiv_pos_as_xyz
  1  'x, y, z'
loop_
 _atom_site_type_symbol
 _atom_site_label
 _atom_site_symmetry_multiplicity
 _atom_site_fract_x
 _atom_site_fract_y
 _atom_site_fract_z
 _atom_site_occupancy
  Sr  Sr0  1  0.500000  0.500000  0.500000  1
  Sr  Sr1  1  0.216062  0.216062  0.216062  1
  Sr  Sr2  1  0.783938  0.783938  0.783938  1
  Sr  Sr3  1  0.317659  0.317659  0.317659  1
  Sr  Sr4  1  0.682341  0.682341  0.682341  1
  Al  Al5  1  0.000000  0.000000  0.000000  1
  Al  Al6  1  0.722277  0.238508  0.238508  1
  Al  Al7  1  0.238508  0.238508  0.722277  1
  Al  Al8  1  0.238508  0.722277  0.238508  1
  Al  Al9  1  0.761492  0.277723  0.761492  1
  Al  Al10  1  0.277723  0.761492  0.761492  1
  Al  Al11  1  0.761492  0.761492  0.277723  1
  Ga  Ga12  1  0.124956  0.124956  0.124956  1
  Ga  Ga13  1  0.875044  0.875044  0.875044  1
