# generated using pymatgen
data_TbPr2Dy3RuBr10
_symmetry_space_group_name_H-M   'P 1'
_cell_length_a   7.49262539
_cell_length_b   9.42635636
_cell_length_c   9.36350125
_cell_angle_alpha   107.78599470
_cell_angle_beta   95.77269037
_cell_angle_gamma   106.59503870
_symmetry_Int_Tables_number   1
_chemical_formula_structural   TbPr2Dy3RuBr10
_chemical_formula_sum   'Tb1 Pr2 Dy3 Ru1 Br10'
_cell_volume   590.56727921
_cell_formula_units_Z   1
loop_
 _symmetry_equiv_pos_site_id
 _symmetry_equiv_pos_as_xyz
  1  'x, y, z'
loop_
 _atom_site_type_symbol
 _atom_site_label
 _atom_site_symmetry_multiplicity
 _atom_site_fract_x
 _atom_site_fract_y
 _atom_site_fract_z
 _atom_site_occupancy
  Tb  Tb0  1  0.632850  0.859814  0.819294  1
  Pr  Pr1  1  0.123848  0.046643  0.761150  1
  Pr  Pr2  1  0.876605  0.953507  0.239026  1
  Dy  Dy3  1  0.976840  0.303480  0.097136  1
  Dy  Dy4  1  0.023368  0.696505  0.902931  1
  Dy  Dy5  1  0.366155  0.140147  0.180446  1
  Ru  Ru6  1  0.000445  0.000151  0.000185  1
  Br  Br7  1  0.553003  0.175470  0.920743  1
  Br  Br8  1  0.446972  0.824941  0.079921  1
  Br  Br9  1  0.354598  0.452349  0.271800  1
  Br  Br10  1  0.645708  0.547009  0.728135  1
  Br  Br11  1  0.264761  0.087726  0.450601  1
  Br  Br12  1  0.735709  0.912483  0.548911  1
  Br  Br13  1  0.788767  0.264620  0.343767  1
  Br  Br14  1  0.210365  0.735168  0.655953  1
  Br  Br15  1  0.085702  0.376609  0.834496  1
  Br  Br16  1  0.914303  0.623380  0.165505  1
