# generated using pymatgen
data_Sc10Co8Si19P
_symmetry_space_group_name_H-M   'P 1'
_cell_length_a   12.00924669
_cell_length_b   12.00880069
_cell_length_c   3.93132900
_cell_angle_alpha   90.00000000
_cell_angle_beta   90.00000000
_cell_angle_gamma   90.14557941
_symmetry_Int_Tables_number   1
_chemical_formula_structural   Sc10Co8Si19P
_chemical_formula_sum   'Sc10 Co8 Si19 P1'
_cell_volume   566.96126816
_cell_formula_units_Z   1
loop_
 _symmetry_equiv_pos_site_id
 _symmetry_equiv_pos_as_xyz
  1  'x, y, z'
loop_
 _atom_site_type_symbol
 _atom_site_label
 _atom_site_symmetry_multiplicity
 _atom_site_fract_x
 _atom_site_fract_y
 _atom_site_fract_z
 _atom_site_occupancy
  Sc  Sc0  1  0.999857  0.999978  0.000000  1
  Sc  Sc1  1  0.499993  0.499877  0.000000  1
  Sc  Sc2  1  0.673801  0.173771  0.500000  1
  Sc  Sc3  1  0.176564  0.323458  0.500000  1
  Sc  Sc4  1  0.823491  0.676581  0.500000  1
  Sc  Sc5  1  0.325348  0.825351  0.500000  1
  Sc  Sc6  1  0.888402  0.388462  0.500000  1
  Sc  Sc7  1  0.389817  0.110414  0.500000  1
  Sc  Sc8  1  0.610420  0.889818  0.500000  1
  Sc  Sc9  1  0.111823  0.611849  0.500000  1
  Co  Co10  1  0.524389  0.250817  0.000000  1
  Co  Co11  1  0.254919  0.475665  0.000000  1
  Co  Co12  1  0.745458  0.523679  0.000000  1
  Co  Co13  1  0.476625  0.747303  0.000000  1
  Co  Co14  1  0.975654  0.754917  0.000000  1
  Co  Co15  1  0.023704  0.245490  0.000000  1
  Co  Co16  1  0.750835  0.024380  0.000000  1
  Co  Co17  1  0.247306  0.976618  0.000000  1
  Si  Si18  1  0.068514  0.431654  0.000000  1
  Si  Si19  1  0.931608  0.568499  0.000000  1
  Si  Si20  1  0.432889  0.932875  0.000000  1
  Si  Si21  1  0.198200  0.156594  0.000000  1
  Si  Si22  1  0.157303  0.802380  0.000000  1
  Si  Si23  1  0.842578  0.197753  0.000000  1
  Si  Si24  1  0.801404  0.843706  0.000000  1
  Si  Si25  1  0.302379  0.657296  0.000000  1
  Si  Si26  1  0.697765  0.342640  0.000000  1
  Si  Si27  1  0.656611  0.698167  0.000000  1
  Si  Si28  1  0.343684  0.301417  0.000000  1
  Si  Si29  1  0.001763  0.163511  0.500000  1
  Si  Si30  1  0.164390  0.998221  0.500000  1
  Si  Si31  1  0.835265  0.001863  0.500000  1
  Si  Si32  1  0.998088  0.836652  0.500000  1
  Si  Si33  1  0.498232  0.664401  0.500000  1
  Si  Si34  1  0.501875  0.335284  0.500000  1
  Si  Si35  1  0.663577  0.501775  0.500000  1
  Si  Si36  1  0.336651  0.498076  0.500000  1
  P  P37  1  0.568819  0.068808  0.000000  1
