# generated using pymatgen
data_Ho9ErPt18
_symmetry_space_group_name_H-M   'P 1'
_cell_length_a   9.75432308
_cell_length_b   9.75432308
_cell_length_c   5.76982200
_cell_angle_alpha   90.00000000
_cell_angle_beta   90.00000000
_cell_angle_gamma   89.98510383
_symmetry_Int_Tables_number   1
_chemical_formula_structural   Ho9ErPt18
_chemical_formula_sum   'Ho9 Er1 Pt18'
_cell_volume   548.98018977
_cell_formula_units_Z   1
loop_
 _symmetry_equiv_pos_site_id
 _symmetry_equiv_pos_as_xyz
  1  'x, y, z'
loop_
 _atom_site_type_symbol
 _atom_site_label
 _atom_site_symmetry_multiplicity
 _atom_site_fract_x
 _atom_site_fract_y
 _atom_site_fract_z
 _atom_site_occupancy
  Ho  Ho0  1  0.452562  0.808966  0.000000  1
  Ho  Ho1  1  0.547438  0.191034  0.000000  1
  Ho  Ho2  1  0.191034  0.547438  0.000000  1
  Ho  Ho3  1  0.808966  0.452562  0.000000  1
  Ho  Ho4  1  0.500000  0.500000  0.500000  1
  Ho  Ho5  1  0.308941  0.047431  0.500000  1
  Ho  Ho6  1  0.691059  0.952569  0.500000  1
  Ho  Ho7  1  0.952569  0.691059  0.500000  1
  Ho  Ho8  1  0.047431  0.308941  0.500000  1
  Er  Er9  1  0.000000  0.000000  0.000000  1
  Pt  Pt10  1  0.191708  0.808292  0.250499  1
  Pt  Pt11  1  0.808292  0.191708  0.749501  1
  Pt  Pt12  1  0.808292  0.191708  0.250499  1
  Pt  Pt13  1  0.191708  0.808292  0.749501  1
  Pt  Pt14  1  0.440813  0.782012  0.500000  1
  Pt  Pt15  1  0.559187  0.217988  0.500000  1
  Pt  Pt16  1  0.217988  0.559187  0.500000  1
  Pt  Pt17  1  0.782012  0.440813  0.500000  1
  Pt  Pt18  1  0.308168  0.308168  0.249398  1
  Pt  Pt19  1  0.691832  0.691832  0.750602  1
  Pt  Pt20  1  0.691832  0.691832  0.249398  1
  Pt  Pt21  1  0.308168  0.308168  0.750602  1
  Pt  Pt22  1  0.281764  0.059098  0.000000  1
  Pt  Pt23  1  0.718236  0.940902  0.000000  1
  Pt  Pt24  1  0.940902  0.718236  0.000000  1
  Pt  Pt25  1  0.059098  0.281764  0.000000  1
  Pt  Pt26  1  0.000000  0.000000  0.500000  1
  Pt  Pt27  1  0.500000  0.500000  0.000000  1
