# generated using pymatgen
data_Er2Si7(IrRh3)3
_symmetry_space_group_name_H-M   'P 1'
_cell_length_a   9.74493500
_cell_length_b   9.74493379
_cell_length_c   3.85654900
_cell_angle_alpha   90.00000000
_cell_angle_beta   90.00000000
_cell_angle_gamma   120.00000255
_symmetry_Int_Tables_number   1
_chemical_formula_structural   Er2Si7(IrRh3)3
_chemical_formula_sum   'Er2 Si7 Ir3 Rh9'
_cell_volume   317.16650278
_cell_formula_units_Z   1
loop_
 _symmetry_equiv_pos_site_id
 _symmetry_equiv_pos_as_xyz
  1  'x, y, z'
loop_
 _atom_site_type_symbol
 _atom_site_label
 _atom_site_symmetry_multiplicity
 _atom_site_fract_x
 _atom_site_fract_y
 _atom_site_fract_z
 _atom_site_occupancy
  Er  Er0  1  0.333333  0.666667  0.751078  1
  Er  Er1  1  0.666667  0.333333  0.251547  1
  Si  Si2  1  0.000000  0.000000  0.465890  1
  Si  Si3  1  0.402958  0.289515  0.753466  1
  Si  Si4  1  0.710485  0.113442  0.753466  1
  Si  Si5  1  0.886558  0.597042  0.753466  1
  Si  Si6  1  0.599021  0.710096  0.250485  1
  Si  Si7  1  0.289904  0.888925  0.250485  1
  Si  Si8  1  0.111075  0.400979  0.250485  1
  Ir  Ir9  1  0.443451  0.061344  0.753216  1
  Ir  Ir10  1  0.938656  0.382106  0.753216  1
  Ir  Ir11  1  0.617894  0.556549  0.753216  1
  Rh  Rh12  1  0.554804  0.933542  0.250580  1
  Rh  Rh13  1  0.066458  0.621262  0.250580  1
  Rh  Rh14  1  0.378738  0.445196  0.250580  1
  Rh  Rh15  1  0.142731  0.258361  0.746145  1
  Rh  Rh16  1  0.741639  0.884371  0.746145  1
  Rh  Rh17  1  0.115629  0.857269  0.746145  1
  Rh  Rh18  1  0.854994  0.735108  0.256602  1
  Rh  Rh19  1  0.264892  0.119885  0.256602  1
  Rh  Rh20  1  0.880115  0.145006  0.256602  1
