# generated using pymatgen
data_Hf9TaRe3Ni
_symmetry_space_group_name_H-M   'P 1'
_cell_length_a   8.69319500
_cell_length_b   8.69319277
_cell_length_c   8.45158300
_cell_angle_alpha   90.00000000
_cell_angle_beta   90.00000000
_cell_angle_gamma   119.99999707
_symmetry_Int_Tables_number   1
_chemical_formula_structural   Hf9TaRe3Ni
_chemical_formula_sum   'Hf18 Ta2 Re6 Ni2'
_cell_volume   553.13028422
_cell_formula_units_Z   2
loop_
 _symmetry_equiv_pos_site_id
 _symmetry_equiv_pos_as_xyz
  1  'x, y, z'
loop_
 _atom_site_type_symbol
 _atom_site_label
 _atom_site_symmetry_multiplicity
 _atom_site_fract_x
 _atom_site_fract_y
 _atom_site_fract_z
 _atom_site_occupancy
  Hf  Hf0  1  0.199781  0.800219  0.442613  1
  Hf  Hf1  1  0.199781  0.399563  0.442613  1
  Hf  Hf2  1  0.600437  0.800219  0.442613  1
  Hf  Hf3  1  0.800219  0.199781  0.557387  1
  Hf  Hf4  1  0.800219  0.600437  0.557387  1
  Hf  Hf5  1  0.399563  0.199781  0.557387  1
  Hf  Hf6  1  0.800219  0.199781  0.942613  1
  Hf  Hf7  1  0.800219  0.600437  0.942613  1
  Hf  Hf8  1  0.399563  0.199781  0.942613  1
  Hf  Hf9  1  0.199781  0.800219  0.057387  1
  Hf  Hf10  1  0.199781  0.399563  0.057387  1
  Hf  Hf11  1  0.600437  0.800219  0.057387  1
  Hf  Hf12  1  0.541923  0.458077  0.250000  1
  Hf  Hf13  1  0.541923  0.083844  0.250000  1
  Hf  Hf14  1  0.916156  0.458077  0.250000  1
  Hf  Hf15  1  0.458077  0.541923  0.750000  1
  Hf  Hf16  1  0.458077  0.916156  0.750000  1
  Hf  Hf17  1  0.083844  0.541923  0.750000  1
  Ta  Ta18  1  0.000000  0.000000  0.500000  1
  Ta  Ta19  1  0.000000  0.000000  0.000000  1
  Re  Re20  1  0.885548  0.114452  0.250000  1
  Re  Re21  1  0.885548  0.771097  0.250000  1
  Re  Re22  1  0.228903  0.114452  0.250000  1
  Re  Re23  1  0.114452  0.885548  0.750000  1
  Re  Re24  1  0.114452  0.228903  0.750000  1
  Re  Re25  1  0.771097  0.885548  0.750000  1
  Ni  Ni26  1  0.333333  0.666667  0.250000  1
  Ni  Ni27  1  0.666667  0.333333  0.750000  1
