# generated using pymatgen
data_EuErGe4N7
_symmetry_space_group_name_H-M   'P 1'
_cell_length_a   6.28306300
_cell_length_b   6.28073577
_cell_length_c   10.35692600
_cell_angle_alpha   90.00000000
_cell_angle_beta   90.00000000
_cell_angle_gamma   120.01110437
_symmetry_Int_Tables_number   1
_chemical_formula_structural   EuErGe4N7
_chemical_formula_sum   'Eu2 Er2 Ge8 N14'
_cell_volume   353.91163135
_cell_formula_units_Z   2
loop_
 _symmetry_equiv_pos_site_id
 _symmetry_equiv_pos_as_xyz
  1  'x, y, z'
loop_
 _atom_site_type_symbol
 _atom_site_label
 _atom_site_symmetry_multiplicity
 _atom_site_fract_x
 _atom_site_fract_y
 _atom_site_fract_z
 _atom_site_occupancy
  Eu  Eu0  1  0.664887  0.332784  0.600292  1
  Eu  Eu1  1  0.335113  0.667216  0.100292  1
  Er  Er2  1  0.666350  0.332995  0.952358  1
  Er  Er3  1  0.333650  0.667005  0.452358  1
  Ge  Ge4  1  0.172745  0.345870  0.759815  1
  Ge  Ge5  1  0.827291  0.173506  0.259838  1
  Ge  Ge6  1  0.346282  0.173257  0.259973  1
  Ge  Ge7  1  0.653718  0.826743  0.759973  1
  Ge  Ge8  1  0.172709  0.826494  0.759838  1
  Ge  Ge9  1  0.827255  0.654130  0.259815  1
  Ge  Ge10  1  0.999481  0.999687  0.024211  1
  Ge  Ge11  1  0.000519  0.000313  0.524211  1
  N  N12  1  0.999762  0.999677  0.833038  1
  N  N13  1  0.000238  0.000323  0.333038  1
  N  N14  1  0.839205  0.680733  0.081365  1
  N  N15  1  0.160341  0.841047  0.581407  1
  N  N16  1  0.681302  0.840394  0.581485  1
  N  N17  1  0.318698  0.159606  0.081485  1
  N  N18  1  0.839659  0.158953  0.081407  1
  N  N19  1  0.160795  0.319267  0.581365  1
  N  N20  1  0.497713  0.501597  0.813200  1
  N  N21  1  0.997274  0.498928  0.312612  1
  N  N22  1  0.502358  0.004422  0.313228  1
  N  N23  1  0.497642  0.995578  0.813228  1
  N  N24  1  0.502287  0.498403  0.313200  1
  N  N25  1  0.002726  0.501072  0.812612  1
