# generated using pymatgen
data_NdCo3As3Ru2
_symmetry_space_group_name_H-M   'P 1'
_cell_length_a   3.91239200
_cell_length_b   10.96568300
_cell_length_c   12.44203500
_cell_angle_alpha   90.00000000
_cell_angle_beta   90.00000000
_cell_angle_gamma   90.00000000
_symmetry_Int_Tables_number   1
_chemical_formula_structural   NdCo3As3Ru2
_chemical_formula_sum   'Nd4 Co12 As12 Ru8'
_cell_volume   533.78881319
_cell_formula_units_Z   4
loop_
 _symmetry_equiv_pos_site_id
 _symmetry_equiv_pos_as_xyz
  1  'x, y, z'
loop_
 _atom_site_type_symbol
 _atom_site_label
 _atom_site_symmetry_multiplicity
 _atom_site_fract_x
 _atom_site_fract_y
 _atom_site_fract_z
 _atom_site_occupancy
  Nd  Nd0  1  0.250000  0.586180  0.705429  1
  Nd  Nd1  1  0.250000  0.913820  0.205429  1
  Nd  Nd2  1  0.750000  0.413820  0.294571  1
  Nd  Nd3  1  0.750000  0.086180  0.794571  1
  Co  Co4  1  0.250000  0.219689  0.177688  1
  Co  Co5  1  0.250000  0.280311  0.677688  1
  Co  Co6  1  0.750000  0.780311  0.822312  1
  Co  Co7  1  0.750000  0.719689  0.322312  1
  Co  Co8  1  0.250000  0.884781  0.696623  1
  Co  Co9  1  0.250000  0.615219  0.196623  1
  Co  Co10  1  0.750000  0.115219  0.303377  1
  Co  Co11  1  0.750000  0.384781  0.803377  1
  Co  Co12  1  0.250000  0.466863  0.933435  1
  Co  Co13  1  0.250000  0.033137  0.433435  1
  Co  Co14  1  0.750000  0.533137  0.066565  1
  Co  Co15  1  0.750000  0.966863  0.566565  1
  As  As16  1  0.250000  0.418868  0.112261  1
  As  As17  1  0.250000  0.081132  0.612261  1
  As  As18  1  0.750000  0.581132  0.887739  1
  As  As19  1  0.750000  0.918868  0.387739  1
  As  As20  1  0.250000  0.275668  0.866974  1
  As  As21  1  0.250000  0.224332  0.366974  1
  As  As22  1  0.750000  0.724332  0.133026  1
  As  As23  1  0.750000  0.775668  0.633026  1
  As  As24  1  0.250000  0.601799  0.385776  1
  As  As25  1  0.250000  0.898201  0.885776  1
  As  As26  1  0.750000  0.398201  0.614224  1
  As  As27  1  0.750000  0.101799  0.114224  1
  Ru  Ru28  1  0.250000  0.705314  0.985680  1
  Ru  Ru29  1  0.250000  0.794686  0.485680  1
  Ru  Ru30  1  0.750000  0.294686  0.014320  1
  Ru  Ru31  1  0.750000  0.205314  0.514320  1
  Ru  Ru32  1  0.250000  0.402853  0.488494  1
  Ru  Ru33  1  0.250000  0.097147  0.988494  1
  Ru  Ru34  1  0.750000  0.597147  0.511506  1
  Ru  Ru35  1  0.750000  0.902853  0.011506  1
