# generated using pymatgen
data_HoScFe7Co5P7
_symmetry_space_group_name_H-M   'P 1'
_cell_length_a   8.93300829
_cell_length_b   8.91559833
_cell_length_c   3.58111500
_cell_angle_alpha   90.00000000
_cell_angle_beta   90.00000000
_cell_angle_gamma   119.82621815
_symmetry_Int_Tables_number   1
_chemical_formula_structural   HoScFe7Co5P7
_chemical_formula_sum   'Ho1 Sc1 Fe7 Co5 P7'
_cell_volume   247.43149600
_cell_formula_units_Z   1
loop_
 _symmetry_equiv_pos_site_id
 _symmetry_equiv_pos_as_xyz
  1  'x, y, z'
loop_
 _atom_site_type_symbol
 _atom_site_label
 _atom_site_symmetry_multiplicity
 _atom_site_fract_x
 _atom_site_fract_y
 _atom_site_fract_z
 _atom_site_occupancy
  Ho  Ho0  1  0.333226  0.667611  0.500000  1
  Sc  Sc1  1  0.000939  0.998498  0.000000  1
  Fe  Fe2  1  0.788334  0.178617  0.000000  1
  Fe  Fe3  1  0.391746  0.213024  0.000000  1
  Fe  Fe4  1  0.818478  0.606039  0.000000  1
  Fe  Fe5  1  0.050350  0.771323  0.500000  1
  Fe  Fe6  1  0.535694  0.100155  0.500000  1
  Fe  Fe7  1  0.562804  0.464992  0.500000  1
  Fe  Fe8  1  0.897111  0.433617  0.500000  1
  Co  Co9  1  0.293347  0.901073  0.000000  1
  Co  Co10  1  0.608424  0.709506  0.000000  1
  Co  Co11  1  0.100916  0.392990  0.000000  1
  Co  Co12  1  0.722424  0.949014  0.500000  1
  Co  Co13  1  0.227900  0.278889  0.500000  1
  P  P14  1  0.554761  0.928401  0.000000  1
  P  P15  1  0.374101  0.446791  0.000000  1
  P  P16  1  0.071887  0.628885  0.000000  1
  P  P17  1  0.956036  0.216128  0.500000  1
  P  P18  1  0.259170  0.043033  0.500000  1
  P  P19  1  0.786254  0.739619  0.500000  1
  P  P20  1  0.666099  0.331792  0.000000  1
