# generated using pymatgen
data_Er20CuIr7Ru4
_symmetry_space_group_name_H-M   'P 1'
_cell_length_a   10.75906125
_cell_length_b   10.75906125
_cell_length_c   6.38665004
_cell_angle_alpha   90.00807443
_cell_angle_beta   90.00807443
_cell_angle_gamma   89.63953679
_symmetry_Int_Tables_number   1
_chemical_formula_structural   Er20CuIr7Ru4
_chemical_formula_sum   'Er20 Cu1 Ir7 Ru4'
_cell_volume   739.28735152
_cell_formula_units_Z   1
loop_
 _symmetry_equiv_pos_site_id
 _symmetry_equiv_pos_as_xyz
  1  'x, y, z'
loop_
 _atom_site_type_symbol
 _atom_site_label
 _atom_site_symmetry_multiplicity
 _atom_site_fract_x
 _atom_site_fract_y
 _atom_site_fract_z
 _atom_site_occupancy
  Er  Er0  1  0.292141  0.085569  0.377702  1
  Er  Er1  1  0.293965  0.913953  0.876918  1
  Er  Er2  1  0.703430  0.083793  0.869353  1
  Er  Er3  1  0.704611  0.907547  0.380445  1
  Er  Er4  1  0.586254  0.793010  0.878208  1
  Er  Er5  1  0.580608  0.206821  0.377335  1
  Er  Er6  1  0.412525  0.792977  0.377834  1
  Er  Er7  1  0.412990  0.206582  0.877949  1
  Er  Er8  1  0.206990  0.413746  0.621792  1
  Er  Er9  1  0.207023  0.587475  0.122166  1
  Er  Er10  1  0.793179  0.419392  0.122665  1
  Er  Er11  1  0.793418  0.587010  0.622051  1
  Er  Er12  1  0.914431  0.707859  0.122298  1
  Er  Er13  1  0.916207  0.296570  0.630647  1
  Er  Er14  1  0.086047  0.706035  0.623082  1
  Er  Er15  1  0.092453  0.295389  0.119555  1
  Er  Er16  1  0.000850  0.998171  0.500723  1
  Er  Er17  1  0.001829  0.999150  0.999277  1
  Er  Er18  1  0.499669  0.500117  0.999205  1
  Er  Er19  1  0.499883  0.500331  0.500795  1
  Cu  Cu20  1  0.846659  0.153341  0.250000  1
  Ir  Ir21  1  0.848082  0.849079  0.750288  1
  Ir  Ir22  1  0.150921  0.151918  0.749712  1
  Ir  Ir23  1  0.152615  0.847385  0.250000  1
  Ir  Ir24  1  0.654060  0.345940  0.750000  1
  Ir  Ir25  1  0.652502  0.652299  0.250116  1
  Ir  Ir26  1  0.347701  0.347498  0.249884  1
  Ir  Ir27  1  0.347196  0.652804  0.750000  1
  Ru  Ru28  1  0.501009  0.999974  0.126108  1
  Ru  Ru29  1  0.500746  0.000019  0.623679  1
  Ru  Ru30  1  0.999981  0.499254  0.876321  1
  Ru  Ru31  1  0.000026  0.498991  0.373892  1
