# generated using pymatgen
data_Ba7SrTa4O18
_symmetry_space_group_name_H-M   'P 1'
_cell_length_a   6.16546100
_cell_length_b   6.16546088
_cell_length_c   16.15356800
_cell_angle_alpha   90.00000000
_cell_angle_beta   90.00000000
_cell_angle_gamma   119.99998600
_symmetry_Int_Tables_number   1
_chemical_formula_structural   Ba7SrTa4O18
_chemical_formula_sum   'Ba7 Sr1 Ta4 O18'
_cell_volume   531.77786798
_cell_formula_units_Z   1
loop_
 _symmetry_equiv_pos_site_id
 _symmetry_equiv_pos_as_xyz
  1  'x, y, z'
loop_
 _atom_site_type_symbol
 _atom_site_label
 _atom_site_symmetry_multiplicity
 _atom_site_fract_x
 _atom_site_fract_y
 _atom_site_fract_z
 _atom_site_occupancy
  Ba  Ba0  1  0.000000  0.000000  0.743468  1
  Ba  Ba1  1  0.000000  0.000000  0.256532  1
  Ba  Ba2  1  0.666667  0.333333  0.613051  1
  Ba  Ba3  1  0.333333  0.666667  0.141238  1
  Ba  Ba4  1  0.333333  0.666667  0.386949  1
  Ba  Ba5  1  0.666667  0.333333  0.858762  1
  Ba  Ba6  1  0.000000  0.000000  0.000000  1
  Sr  Sr7  1  0.000000  0.000000  0.500000  1
  Ta  Ta8  1  0.666667  0.333333  0.350960  1
  Ta  Ta9  1  0.333333  0.666667  0.834892  1
  Ta  Ta10  1  0.333333  0.666667  0.649040  1
  Ta  Ta11  1  0.666667  0.333333  0.165108  1
  O  O12  1  0.528155  0.953253  0.741006  1
  O  O13  1  0.046747  0.574903  0.741006  1
  O  O14  1  0.425097  0.471845  0.741006  1
  O  O15  1  0.471845  0.046747  0.258994  1
  O  O16  1  0.953253  0.425097  0.258994  1
  O  O17  1  0.574903  0.528155  0.258994  1
  O  O18  1  0.114195  0.357561  0.594232  1
  O  O19  1  0.642439  0.756634  0.594232  1
  O  O20  1  0.243366  0.885805  0.594232  1
  O  O21  1  0.892002  0.642378  0.112128  1
  O  O22  1  0.357622  0.249623  0.112128  1
  O  O23  1  0.750377  0.107998  0.112128  1
  O  O24  1  0.885805  0.642439  0.405768  1
  O  O25  1  0.357561  0.243366  0.405768  1
  O  O26  1  0.756634  0.114195  0.405768  1
  O  O27  1  0.107998  0.357622  0.887872  1
  O  O28  1  0.642378  0.750377  0.887872  1
  O  O29  1  0.249623  0.892002  0.887872  1
