# generated using pymatgen
data_Zr10Sn5Bi2Au
_symmetry_space_group_name_H-M   'P 1'
_cell_length_a   8.88281440
_cell_length_b   8.87494547
_cell_length_c   5.95725263
_cell_angle_alpha   90.05265034
_cell_angle_beta   89.97370269
_cell_angle_gamma   119.97070489
_symmetry_Int_Tables_number   1
_chemical_formula_structural   Zr10Sn5Bi2Au
_chemical_formula_sum   'Zr10 Sn5 Bi2 Au1'
_cell_volume   406.83740327
_cell_formula_units_Z   1
loop_
 _symmetry_equiv_pos_site_id
 _symmetry_equiv_pos_as_xyz
  1  'x, y, z'
loop_
 _atom_site_type_symbol
 _atom_site_label
 _atom_site_symmetry_multiplicity
 _atom_site_fract_x
 _atom_site_fract_y
 _atom_site_fract_z
 _atom_site_occupancy
  Zr  Zr0  1  0.328469  0.664235  0.000000  1
  Zr  Zr1  1  0.666890  0.333445  0.500000  1
  Zr  Zr2  1  0.667699  0.333849  0.000000  1
  Zr  Zr3  1  0.328040  0.664020  0.500000  1
  Zr  Zr4  1  0.275404  0.999517  0.248612  1
  Zr  Zr5  1  0.275404  0.275888  0.751388  1
  Zr  Zr6  1  0.004830  0.722792  0.750518  1
  Zr  Zr7  1  0.004830  0.282038  0.249482  1
  Zr  Zr8  1  0.724824  0.719694  0.249982  1
  Zr  Zr9  1  0.724824  0.005129  0.750018  1
  Sn  Sn10  1  0.000096  0.000048  0.500000  1
  Sn  Sn11  1  0.999915  0.384646  0.752282  1
  Sn  Sn12  1  0.999915  0.615269  0.247718  1
  Sn  Sn13  1  0.383752  0.383443  0.248528  1
  Sn  Sn14  1  0.383752  0.000309  0.751472  1
  Bi  Bi15  1  0.615082  0.999702  0.247584  1
  Bi  Bi16  1  0.615082  0.615380  0.752416  1
  Au  Au17  1  0.001193  0.000596  0.000000  1
