# generated using pymatgen
data_Y6Al7Pd16
_symmetry_space_group_name_H-M   'P 1'
_cell_length_a   9.00263249
_cell_length_b   9.00263311
_cell_length_c   9.00263200
_cell_angle_alpha   59.99999674
_cell_angle_beta   59.99999445
_cell_angle_gamma   59.99999859
_symmetry_Int_Tables_number   1
_chemical_formula_structural   Y6Al7Pd16
_chemical_formula_sum   'Y6 Al7 Pd16'
_cell_volume   515.93327625
_cell_formula_units_Z   1
loop_
 _symmetry_equiv_pos_site_id
 _symmetry_equiv_pos_as_xyz
  1  'x, y, z'
loop_
 _atom_site_type_symbol
 _atom_site_label
 _atom_site_symmetry_multiplicity
 _atom_site_fract_x
 _atom_site_fract_y
 _atom_site_fract_z
 _atom_site_occupancy
  Y  Y0  1  0.713735  0.286265  0.286265  1
  Y  Y1  1  0.286265  0.713735  0.713735  1
  Y  Y2  1  0.286265  0.713735  0.286265  1
  Y  Y3  1  0.286265  0.286265  0.713735  1
  Y  Y4  1  0.713735  0.286265  0.713735  1
  Y  Y5  1  0.713735  0.713735  0.286265  1
  Al  Al6  1  0.500000  0.000000  0.000000  1
  Al  Al7  1  0.000000  0.500000  0.500000  1
  Al  Al8  1  0.000000  0.500000  0.000000  1
  Al  Al9  1  0.000000  0.000000  0.500000  1
  Al  Al10  1  0.500000  0.000000  0.500000  1
  Al  Al11  1  0.500000  0.500000  0.000000  1
  Al  Al12  1  0.000000  0.000000  0.000000  1
  Pd  Pd13  1  0.335206  0.335206  0.335206  1
  Pd  Pd14  1  0.335206  0.335206  0.994384  1
  Pd  Pd15  1  0.994384  0.335206  0.335206  1
  Pd  Pd16  1  0.335206  0.994384  0.335206  1
  Pd  Pd17  1  0.664794  0.664794  0.664794  1
  Pd  Pd18  1  0.664794  0.664794  0.005616  1
  Pd  Pd19  1  0.664794  0.005616  0.664794  1
  Pd  Pd20  1  0.005616  0.664794  0.664794  1
  Pd  Pd21  1  0.119195  0.119195  0.119195  1
  Pd  Pd22  1  0.119195  0.119195  0.642417  1
  Pd  Pd23  1  0.642417  0.119195  0.119195  1
  Pd  Pd24  1  0.119195  0.642417  0.119195  1
  Pd  Pd25  1  0.880805  0.880805  0.880805  1
  Pd  Pd26  1  0.880805  0.880805  0.357583  1
  Pd  Pd27  1  0.880805  0.357583  0.880805  1
  Pd  Pd28  1  0.357583  0.880805  0.880805  1
