# generated using pymatgen
data_Lu16Sc4Bi7Sb5
_symmetry_space_group_name_H-M   'P 1'
_cell_length_a   7.92342941
_cell_length_b   9.22586729
_cell_length_c   11.64102972
_cell_angle_alpha   89.94334313
_cell_angle_beta   89.91337937
_cell_angle_gamma   89.97881277
_symmetry_Int_Tables_number   1
_chemical_formula_structural   Lu16Sc4Bi7Sb5
_chemical_formula_sum   'Lu16 Sc4 Bi7 Sb5'
_cell_volume   850.96374281
_cell_formula_units_Z   1
loop_
 _symmetry_equiv_pos_site_id
 _symmetry_equiv_pos_as_xyz
  1  'x, y, z'
loop_
 _atom_site_type_symbol
 _atom_site_label
 _atom_site_symmetry_multiplicity
 _atom_site_fract_x
 _atom_site_fract_y
 _atom_site_fract_z
 _atom_site_occupancy
  Lu  Lu0  1  0.352699  0.247880  0.285731  1
  Lu  Lu1  1  0.644864  0.750013  0.714627  1
  Lu  Lu2  1  0.144917  0.749936  0.785211  1
  Lu  Lu3  1  0.857776  0.247320  0.215736  1
  Lu  Lu4  1  0.184235  0.249998  0.781693  1
  Lu  Lu5  1  0.817592  0.751977  0.219103  1
  Lu  Lu6  1  0.313112  0.752994  0.282239  1
  Lu  Lu7  1  0.684067  0.250052  0.718202  1
  Lu  Lu8  1  0.191214  0.065175  0.059743  1
  Lu  Lu9  1  0.807786  0.934461  0.942092  1
  Lu  Lu10  1  0.306314  0.934994  0.556128  1
  Lu  Lu11  1  0.807915  0.565669  0.942228  1
  Lu  Lu12  1  0.694664  0.064952  0.441372  1
  Lu  Lu13  1  0.192201  0.434226  0.057876  1
  Lu  Lu14  1  0.692525  0.434272  0.441983  1
  Lu  Lu15  1  0.307584  0.565803  0.557726  1
  Sc  Sc16  1  0.026631  0.248210  0.510582  1
  Sc  Sc17  1  0.974498  0.751926  0.486749  1
  Sc  Sc18  1  0.473836  0.750015  0.012123  1
  Sc  Sc19  1  0.525925  0.249907  0.988022  1
  Bi  Bi20  1  0.933867  0.996218  0.671226  1
  Bi  Bi21  1  0.433778  0.996271  0.828835  1
  Bi  Bi22  1  0.934042  0.503716  0.670691  1
  Bi  Bi23  1  0.566230  0.003716  0.170950  1
  Bi  Bi24  1  0.066106  0.496315  0.328888  1
  Bi  Bi25  1  0.566172  0.496252  0.171347  1
  Bi  Bi26  1  0.433945  0.503776  0.828860  1
  Sb  Sb27  1  0.401705  0.249998  0.542587  1
  Sb  Sb28  1  0.598524  0.749981  0.457316  1
  Sb  Sb29  1  0.098827  0.749919  0.042400  1
  Sb  Sb30  1  0.901039  0.249968  0.957648  1
  Sb  Sb31  1  0.065411  0.004088  0.330088  1
