# generated using pymatgen
data_ZrNb2GaC2
_symmetry_space_group_name_H-M   'P 1'
_cell_length_a   3.21127700
_cell_length_b   3.21127722
_cell_length_c   19.13715000
_cell_angle_alpha   90.00000000
_cell_angle_beta   90.00000000
_cell_angle_gamma   119.99998746
_symmetry_Int_Tables_number   1
_chemical_formula_structural   ZrNb2GaC2
_chemical_formula_sum   'Zr2 Nb4 Ga2 C4'
_cell_volume   170.90844172
_cell_formula_units_Z   2
loop_
 _symmetry_equiv_pos_site_id
 _symmetry_equiv_pos_as_xyz
  1  'x, y, z'
loop_
 _atom_site_type_symbol
 _atom_site_label
 _atom_site_symmetry_multiplicity
 _atom_site_fract_x
 _atom_site_fract_y
 _atom_site_fract_z
 _atom_site_occupancy
  Zr  Zr0  1  0.000000  0.000000  0.500000  1
  Zr  Zr1  1  0.000000  0.000000  0.000000  1
  Nb  Nb2  1  0.666667  0.333333  0.363431  1
  Nb  Nb3  1  0.333333  0.666667  0.863431  1
  Nb  Nb4  1  0.333333  0.666667  0.636569  1
  Nb  Nb5  1  0.666667  0.333333  0.136569  1
  Ga  Ga6  1  0.000000  0.000000  0.750000  1
  Ga  Ga7  1  0.000000  0.000000  0.250000  1
  C  C8  1  0.333333  0.666667  0.424324  1
  C  C9  1  0.666667  0.333333  0.924324  1
  C  C10  1  0.333333  0.666667  0.075676  1
  C  C11  1  0.666667  0.333333  0.575676  1
