# generated using pymatgen
data_BaPr(TaSe2)6
_symmetry_space_group_name_H-M   'P 1'
_cell_length_a   6.06880200
_cell_length_b   6.06880176
_cell_length_c   15.90196400
_cell_angle_alpha   90.00000000
_cell_angle_beta   90.00000000
_cell_angle_gamma   119.99999042
_symmetry_Int_Tables_number   1
_chemical_formula_structural   BaPr(TaSe2)6
_chemical_formula_sum   'Ba1 Pr1 Ta6 Se12'
_cell_volume   507.20947655
_cell_formula_units_Z   1
loop_
 _symmetry_equiv_pos_site_id
 _symmetry_equiv_pos_as_xyz
  1  'x, y, z'
loop_
 _atom_site_type_symbol
 _atom_site_label
 _atom_site_symmetry_multiplicity
 _atom_site_fract_x
 _atom_site_fract_y
 _atom_site_fract_z
 _atom_site_occupancy
  Ba  Ba0  1  0.000000  0.000000  0.500000  1
  Pr  Pr1  1  0.000000  0.000000  0.000000  1
  Ta  Ta2  1  0.000000  0.000000  0.236767  1
  Ta  Ta3  1  0.000000  0.000000  0.763233  1
  Ta  Ta4  1  0.333333  0.666667  0.237157  1
  Ta  Ta5  1  0.666667  0.333333  0.762843  1
  Ta  Ta6  1  0.666667  0.333333  0.237157  1
  Ta  Ta7  1  0.333333  0.666667  0.762843  1
  Se  Se8  1  0.340308  0.000000  0.132158  1
  Se  Se9  1  0.000000  0.340308  0.132158  1
  Se  Se10  1  0.659692  0.659692  0.132158  1
  Se  Se11  1  0.338455  0.338455  0.658240  1
  Se  Se12  1  0.661545  0.661545  0.341760  1
  Se  Se13  1  0.661545  0.000000  0.658240  1
  Se  Se14  1  0.000000  0.661545  0.658240  1
  Se  Se15  1  0.000000  0.659692  0.867842  1
  Se  Se16  1  0.340308  0.340308  0.867842  1
  Se  Se17  1  0.000000  0.338455  0.341760  1
  Se  Se18  1  0.338455  0.000000  0.341760  1
  Se  Se19  1  0.659692  0.000000  0.867842  1
