# generated using pymatgen
data_Y9Ho(IrPt2)2
_symmetry_space_group_name_H-M   'P 1'
_cell_length_a   11.11801700
_cell_length_b   11.11801700
_cell_length_c   6.34388300
_cell_angle_alpha   90.00000000
_cell_angle_beta   90.00000000
_cell_angle_gamma   90.00000000
_symmetry_Int_Tables_number   1
_chemical_formula_structural   Y9Ho(IrPt2)2
_chemical_formula_sum   'Y18 Ho2 Ir4 Pt8'
_cell_volume   784.16929356
_cell_formula_units_Z   2
loop_
 _symmetry_equiv_pos_site_id
 _symmetry_equiv_pos_as_xyz
  1  'x, y, z'
loop_
 _atom_site_type_symbol
 _atom_site_label
 _atom_site_symmetry_multiplicity
 _atom_site_fract_x
 _atom_site_fract_y
 _atom_site_fract_z
 _atom_site_occupancy
  Y  Y0  1  0.294583  0.087647  0.374865  1
  Y  Y1  1  0.294583  0.912353  0.874865  1
  Y  Y2  1  0.705417  0.087647  0.874865  1
  Y  Y3  1  0.705417  0.912353  0.374865  1
  Y  Y4  1  0.587705  0.794682  0.874800  1
  Y  Y5  1  0.587705  0.205318  0.374800  1
  Y  Y6  1  0.412295  0.794682  0.374800  1
  Y  Y7  1  0.412295  0.205318  0.874800  1
  Y  Y8  1  0.205318  0.412295  0.625200  1
  Y  Y9  1  0.205318  0.587705  0.125200  1
  Y  Y10  1  0.794682  0.412295  0.125200  1
  Y  Y11  1  0.794682  0.587705  0.625200  1
  Y  Y12  1  0.912353  0.705417  0.125135  1
  Y  Y13  1  0.912353  0.294583  0.625135  1
  Y  Y14  1  0.087647  0.705417  0.625135  1
  Y  Y15  1  0.087647  0.294583  0.125135  1
  Y  Y16  1  0.500000  0.500000  0.000000  1
  Y  Y17  1  0.500000  0.500000  0.500000  1
  Ho  Ho18  1  0.000000  0.000000  0.500000  1
  Ho  Ho19  1  0.000000  0.000000  0.000000  1
  Ir  Ir20  1  0.500000  0.000000  0.122244  1
  Ir  Ir21  1  0.500000  0.000000  0.622244  1
  Ir  Ir22  1  0.000000  0.500000  0.877756  1
  Ir  Ir23  1  0.000000  0.500000  0.377756  1
  Pt  Pt24  1  0.847009  0.152991  0.250000  1
  Pt  Pt25  1  0.847009  0.847009  0.750000  1
  Pt  Pt26  1  0.152991  0.152991  0.750000  1
  Pt  Pt27  1  0.152991  0.847009  0.250000  1
  Pt  Pt28  1  0.653881  0.346119  0.750000  1
  Pt  Pt29  1  0.653881  0.653881  0.250000  1
  Pt  Pt30  1  0.346119  0.346119  0.250000  1
  Pt  Pt31  1  0.346119  0.653881  0.750000  1
