# generated using pymatgen
data_Ac2PrMg3Ir2Pt
_symmetry_space_group_name_H-M   'P 1'
_cell_length_a   7.70183863
_cell_length_b   7.70183788
_cell_length_c   4.20706200
_cell_angle_alpha   90.00000000
_cell_angle_beta   90.00000000
_cell_angle_gamma   120.38906001
_symmetry_Int_Tables_number   1
_chemical_formula_structural   Ac2PrMg3Ir2Pt
_chemical_formula_sum   'Ac2 Pr1 Mg3 Ir2 Pt1'
_cell_volume   215.26941308
_cell_formula_units_Z   1
loop_
 _symmetry_equiv_pos_site_id
 _symmetry_equiv_pos_as_xyz
  1  'x, y, z'
loop_
 _atom_site_type_symbol
 _atom_site_label
 _atom_site_symmetry_multiplicity
 _atom_site_fract_x
 _atom_site_fract_y
 _atom_site_fract_z
 _atom_site_occupancy
  Ac  Ac0  1  0.420093  0.999627  0.000000  1
  Ac  Ac1  1  0.999627  0.420093  0.000000  1
  Pr  Pr2  1  0.584607  0.584607  0.000000  1
  Mg  Mg3  1  0.993579  0.761870  0.500000  1
  Mg  Mg4  1  0.246002  0.246002  0.500000  1
  Mg  Mg5  1  0.761870  0.993579  0.500000  1
  Ir  Ir6  1  0.333869  0.663164  0.500000  1
  Ir  Ir7  1  0.663164  0.333869  0.500000  1
  Pt  Pt8  1  0.997190  0.997190  0.000000  1
