# generated using pymatgen
data_Cs3Nb2SbSe11
_symmetry_space_group_name_H-M   'P 1'
_cell_length_a   10.74818451
_cell_length_b   10.74818421
_cell_length_c   10.46182250
_cell_angle_alpha   85.02145731
_cell_angle_beta   85.02145656
_cell_angle_gamma   84.86346790
_symmetry_Int_Tables_number   1
_chemical_formula_structural   Cs3Nb2SbSe11
_chemical_formula_sum   'Cs6 Nb4 Sb2 Se22'
_cell_volume   1195.38294194
_cell_formula_units_Z   2
loop_
 _symmetry_equiv_pos_site_id
 _symmetry_equiv_pos_as_xyz
  1  'x, y, z'
loop_
 _atom_site_type_symbol
 _atom_site_label
 _atom_site_symmetry_multiplicity
 _atom_site_fract_x
 _atom_site_fract_y
 _atom_site_fract_z
 _atom_site_occupancy
  Cs  Cs0  1  0.354362  0.190761  0.658960  1
  Cs  Cs1  1  0.190761  0.354362  0.158960  1
  Cs  Cs2  1  0.958302  0.819567  0.396236  1
  Cs  Cs3  1  0.819567  0.958302  0.896236  1
  Cs  Cs4  1  0.566301  0.720833  0.558043  1
  Cs  Cs5  1  0.720833  0.566301  0.058043  1
  Nb  Nb6  1  0.455543  0.917805  0.170812  1
  Nb  Nb7  1  0.208073  0.806528  0.983876  1
  Nb  Nb8  1  0.917805  0.455543  0.670812  1
  Nb  Nb9  1  0.806528  0.208073  0.483876  1
  Sb  Sb10  1  0.587734  0.250769  0.214860  1
  Sb  Sb11  1  0.250769  0.587734  0.714860  1
  Se  Se12  1  0.430267  0.101789  0.329529  1
  Se  Se13  1  0.137713  0.042164  0.928874  1
  Se  Se14  1  0.382688  0.619516  0.913668  1
  Se  Se15  1  0.888492  0.465259  0.421279  1
  Se  Se16  1  0.816916  0.164898  0.235126  1
  Se  Se17  1  0.485874  0.096807  0.987814  1
  Se  Se18  1  0.619516  0.382688  0.413668  1
  Se  Se19  1  0.164898  0.816916  0.735126  1
  Se  Se20  1  0.660555  0.841327  0.225619  1
  Se  Se21  1  0.032255  0.696373  0.063331  1
  Se  Se22  1  0.696373  0.032255  0.563331  1
  Se  Se23  1  0.096807  0.485874  0.487814  1
  Se  Se24  1  0.700325  0.348508  0.681211  1
  Se  Se25  1  0.465259  0.888492  0.921279  1
  Se  Se26  1  0.189376  0.982730  0.144584  1
  Se  Se27  1  0.982730  0.189376  0.644584  1
  Se  Se28  1  0.841327  0.660555  0.725619  1
  Se  Se29  1  0.824942  0.308843  0.863637  1
  Se  Se30  1  0.308843  0.824942  0.363637  1
  Se  Se31  1  0.042164  0.137713  0.428874  1
  Se  Se32  1  0.348508  0.700325  0.181211  1
  Se  Se33  1  0.101789  0.430267  0.829529  1
