# generated using pymatgen
data_Y4Th2Co14Ni3P12Rh
_symmetry_space_group_name_H-M   'P 1'
_cell_length_a   3.77305500
_cell_length_b   10.53058500
_cell_length_c   12.31193700
_cell_angle_alpha   90.00000000
_cell_angle_beta   90.00000000
_cell_angle_gamma   90.00000000
_symmetry_Int_Tables_number   1
_chemical_formula_structural   Y4Th2Co14Ni3P12Rh
_chemical_formula_sum   'Y4 Th2 Co14 Ni3 P12 Rh1'
_cell_volume   489.18374613
_cell_formula_units_Z   1
loop_
 _symmetry_equiv_pos_site_id
 _symmetry_equiv_pos_as_xyz
  1  'x, y, z'
loop_
 _atom_site_type_symbol
 _atom_site_label
 _atom_site_symmetry_multiplicity
 _atom_site_fract_x
 _atom_site_fract_y
 _atom_site_fract_z
 _atom_site_occupancy
  Y  Y0  1  0.500000  0.814232  0.204545  1
  Y  Y1  1  0.500000  0.185768  0.204545  1
  Y  Y2  1  0.000000  0.686109  0.795416  1
  Y  Y3  1  0.000000  0.313891  0.795416  1
  Th  Th4  1  0.000000  0.500000  0.524347  1
  Th  Th5  1  0.500000  0.000000  0.476925  1
  Co  Co6  1  0.000000  0.500000  0.983876  1
  Co  Co7  1  0.500000  0.000000  0.016803  1
  Co  Co8  1  0.500000  0.332142  0.991976  1
  Co  Co9  1  0.500000  0.667858  0.991976  1
  Co  Co10  1  0.000000  0.164601  0.004760  1
  Co  Co11  1  0.000000  0.835399  0.004760  1
  Co  Co12  1  0.500000  0.300603  0.428347  1
  Co  Co13  1  0.500000  0.699397  0.428347  1
  Co  Co14  1  0.000000  0.199573  0.572084  1
  Co  Co15  1  0.000000  0.800427  0.572084  1
  Co  Co16  1  0.500000  0.880987  0.715563  1
  Co  Co17  1  0.500000  0.119013  0.715563  1
  Co  Co18  1  0.000000  0.620533  0.285907  1
  Co  Co19  1  0.000000  0.379467  0.285907  1
  Ni  Ni20  1  0.000000  0.000000  0.841828  1
  Ni  Ni21  1  0.500000  0.500000  0.703256  1
  Ni  Ni22  1  0.000000  0.000000  0.296695  1
  P  P23  1  0.500000  0.500000  0.882195  1
  P  P24  1  0.000000  0.000000  0.117582  1
  P  P25  1  0.500000  0.500000  0.344591  1
  P  P26  1  0.000000  0.000000  0.660010  1
  P  P27  1  0.500000  0.304258  0.616782  1
  P  P28  1  0.500000  0.695742  0.616782  1
  P  P29  1  0.000000  0.195335  0.383534  1
  P  P30  1  0.000000  0.804665  0.383534  1
  P  P31  1  0.500000  0.846861  0.897086  1
  P  P32  1  0.500000  0.153139  0.897086  1
  P  P33  1  0.000000  0.656104  0.101641  1
  P  P34  1  0.000000  0.343896  0.101641  1
  Rh  Rh35  1  0.500000  0.500000  0.156608  1
