# generated using pymatgen
data_Er16In3Ni4Hg
_symmetry_space_group_name_H-M   'P 1'
_cell_length_a   9.49637106
_cell_length_b   9.49637068
_cell_length_c   9.49637121
_cell_angle_alpha   60.07686383
_cell_angle_beta   60.07686097
_cell_angle_gamma   60.07686504
_symmetry_Int_Tables_number   1
_chemical_formula_structural   Er16In3Ni4Hg
_chemical_formula_sum   'Er16 In3 Ni4 Hg1'
_cell_volume   606.61595768
_cell_formula_units_Z   1
loop_
 _symmetry_equiv_pos_site_id
 _symmetry_equiv_pos_as_xyz
  1  'x, y, z'
loop_
 _atom_site_type_symbol
 _atom_site_label
 _atom_site_symmetry_multiplicity
 _atom_site_fract_x
 _atom_site_fract_y
 _atom_site_fract_z
 _atom_site_occupancy
  Er  Er0  1  0.345614  0.345614  0.345614  1
  Er  Er1  1  0.348555  0.348555  0.952687  1
  Er  Er2  1  0.348555  0.952687  0.348555  1
  Er  Er3  1  0.952687  0.348555  0.348555  1
  Er  Er4  1  0.811783  0.188794  0.188794  1
  Er  Er5  1  0.189399  0.812026  0.812026  1
  Er  Er6  1  0.188794  0.811783  0.188794  1
  Er  Er7  1  0.812026  0.189399  0.812026  1
  Er  Er8  1  0.188794  0.188794  0.811783  1
  Er  Er9  1  0.812026  0.812026  0.189399  1
  Er  Er10  1  0.934641  0.563788  0.563788  1
  Er  Er11  1  0.562913  0.937741  0.937741  1
  Er  Er12  1  0.563788  0.934641  0.563788  1
  Er  Er13  1  0.937741  0.562913  0.937741  1
  Er  Er14  1  0.563788  0.563788  0.934641  1
  Er  Er15  1  0.937741  0.937741  0.562913  1
  In  In16  1  0.582185  0.582185  0.253505  1
  In  In17  1  0.582185  0.253505  0.582185  1
  In  In18  1  0.253505  0.582185  0.582185  1
  Ni  Ni19  1  0.143149  0.143149  0.143149  1
  Ni  Ni20  1  0.140161  0.140161  0.573121  1
  Ni  Ni21  1  0.140161  0.573121  0.140161  1
  Ni  Ni22  1  0.573121  0.140161  0.140161  1
  Hg  Hg23  1  0.586689  0.586689  0.586689  1
