# generated using pymatgen
data_Zr4Mn(TlSe5)2
_symmetry_space_group_name_H-M   'P 1'
_cell_length_a   6.66355190
_cell_length_b   11.33826792
_cell_length_c   9.13141800
_cell_angle_alpha   58.88066615
_cell_angle_beta   68.48431596
_cell_angle_gamma   89.91636619
_symmetry_Int_Tables_number   1
_chemical_formula_structural   Zr4Mn(TlSe5)2
_chemical_formula_sum   'Zr4 Mn1 Tl2 Se10'
_cell_volume   533.92588046
_cell_formula_units_Z   1
loop_
 _symmetry_equiv_pos_site_id
 _symmetry_equiv_pos_as_xyz
  1  'x, y, z'
loop_
 _atom_site_type_symbol
 _atom_site_label
 _atom_site_symmetry_multiplicity
 _atom_site_fract_x
 _atom_site_fract_y
 _atom_site_fract_z
 _atom_site_occupancy
  Zr  Zr0  1  0.397025  0.795595  0.204359  1
  Zr  Zr1  1  0.201672  0.404503  0.591623  1
  Zr  Zr2  1  0.604976  0.208660  0.795284  1
  Zr  Zr3  1  0.994741  0.992099  0.007197  1
  Mn  Mn4  1  0.802101  0.599580  0.400931  1
  Tl  Tl5  1  0.787508  0.075934  0.424764  1
  Tl  Tl6  1  0.009895  0.525413  0.976722  1
  Se  Se7  1  0.990970  0.837754  0.350635  1
  Se  Se8  1  0.590487  0.036883  0.153091  1
  Se  Se9  1  0.190550  0.239368  0.950187  1
  Se  Se10  1  0.791443  0.436543  0.754081  1
  Se  Se11  1  0.392250  0.636284  0.549130  1
  Se  Se12  1  0.407017  0.962551  0.851232  1
  Se  Se13  1  0.008156  0.162127  0.648353  1
  Se  Se14  1  0.609924  0.358001  0.450792  1
  Se  Se15  1  0.212358  0.562746  0.247230  1
  Se  Se16  1  0.808924  0.765961  0.044386  1
