# generated using pymatgen
data_HgBiIr2O7
_symmetry_space_group_name_H-M   'P 1'
_cell_length_a   7.33534619
_cell_length_b   7.33534670
_cell_length_c   7.20918800
_cell_angle_alpha   60.56730838
_cell_angle_beta   60.56730614
_cell_angle_gamma   61.16770675
_symmetry_Int_Tables_number   1
_chemical_formula_structural   HgBiIr2O7
_chemical_formula_sum   'Hg2 Bi2 Ir4 O14'
_cell_volume   279.02057565
_cell_formula_units_Z   2
loop_
 _symmetry_equiv_pos_site_id
 _symmetry_equiv_pos_as_xyz
  1  'x, y, z'
loop_
 _atom_site_type_symbol
 _atom_site_label
 _atom_site_symmetry_multiplicity
 _atom_site_fract_x
 _atom_site_fract_y
 _atom_site_fract_z
 _atom_site_occupancy
  Hg  Hg0  1  0.125000  0.125000  0.625000  1
  Hg  Hg1  1  0.125000  0.125000  0.125000  1
  Bi  Bi2  1  0.625000  0.125000  0.125000  1
  Bi  Bi3  1  0.125000  0.625000  0.125000  1
  Ir  Ir4  1  0.125000  0.625000  0.625000  1
  Ir  Ir5  1  0.625000  0.125000  0.625000  1
  Ir  Ir6  1  0.625000  0.625000  0.125000  1
  Ir  Ir7  1  0.625000  0.625000  0.625000  1
  O  O8  1  0.706300  0.706300  0.293700  1
  O  O9  1  0.308295  0.308295  0.691705  1
  O  O10  1  0.692447  0.301135  0.710116  1
  O  O11  1  0.301135  0.692447  0.296302  1
  O  O12  1  0.301135  0.692447  0.710116  1
  O  O13  1  0.692447  0.301135  0.296302  1
  O  O14  1  0.543700  0.543700  0.956300  1
  O  O15  1  0.941705  0.941705  0.558295  1
  O  O16  1  0.557553  0.948865  0.539884  1
  O  O17  1  0.948865  0.557553  0.953698  1
  O  O18  1  0.948865  0.557553  0.539884  1
  O  O19  1  0.557553  0.948865  0.953698  1
  O  O20  1  0.242890  0.242890  0.257110  1
  O  O21  1  0.007110  0.007110  0.992890  1
