# generated using pymatgen
data_Pr3O2F5
_symmetry_space_group_name_H-M   'P 1'
_cell_length_a   5.94997000
_cell_length_b   18.10321800
_cell_length_c   5.67303500
_cell_angle_alpha   90.00000000
_cell_angle_beta   90.00000000
_cell_angle_gamma   90.00000000
_symmetry_Int_Tables_number   1
_chemical_formula_structural   Pr3O2F5
_chemical_formula_sum   'Pr12 O8 F20'
_cell_volume   611.06304549
_cell_formula_units_Z   4
loop_
 _symmetry_equiv_pos_site_id
 _symmetry_equiv_pos_as_xyz
  1  'x, y, z'
loop_
 _atom_site_type_symbol
 _atom_site_label
 _atom_site_symmetry_multiplicity
 _atom_site_fract_x
 _atom_site_fract_y
 _atom_site_fract_z
 _atom_site_occupancy
  Pr  Pr0  1  0.319921  0.096823  0.036220  1
  Pr  Pr1  1  0.319921  0.403178  0.036220  1
  Pr  Pr2  1  0.763581  0.250000  0.039595  1
  Pr  Pr3  1  0.263582  0.250000  0.460405  1
  Pr  Pr4  1  0.819922  0.096823  0.463780  1
  Pr  Pr5  1  0.819922  0.403178  0.463780  1
  Pr  Pr6  1  0.180077  0.596823  0.536220  1
  Pr  Pr7  1  0.180077  0.903178  0.536220  1
  Pr  Pr8  1  0.736418  0.750000  0.539595  1
  Pr  Pr9  1  0.236418  0.750000  0.960405  1
  Pr  Pr10  1  0.680077  0.596823  0.963780  1
  Pr  Pr11  1  0.680077  0.903178  0.963780  1
  O  O12  1  0.036096  0.168263  0.209046  1
  O  O13  1  0.036096  0.331737  0.209046  1
  O  O14  1  0.536096  0.168263  0.290954  1
  O  O15  1  0.536096  0.331737  0.290954  1
  O  O16  1  0.463905  0.668262  0.709046  1
  O  O17  1  0.463905  0.831737  0.709046  1
  O  O18  1  0.963905  0.668262  0.790954  1
  O  O19  1  0.963905  0.831737  0.790954  1
  F  F20  1  0.622095  0.750000  0.129574  1
  F  F21  1  0.334016  0.627235  0.167701  1
  F  F22  1  0.334016  0.872765  0.167701  1
  F  F23  1  0.603956  0.013101  0.221305  1
  F  F24  1  0.603956  0.486898  0.221305  1
  F  F25  1  0.103955  0.013101  0.278695  1
  F  F26  1  0.103955  0.486898  0.278695  1
  F  F27  1  0.834016  0.627235  0.332299  1
  F  F28  1  0.834016  0.872765  0.332299  1
  F  F29  1  0.122095  0.750000  0.370426  1
  F  F30  1  0.877904  0.250000  0.629573  1
  F  F31  1  0.165985  0.127235  0.667700  1
  F  F32  1  0.165985  0.372765  0.667700  1
  F  F33  1  0.896043  0.513101  0.721305  1
  F  F34  1  0.896043  0.986898  0.721305  1
  F  F35  1  0.396043  0.513101  0.778694  1
  F  F36  1  0.396043  0.986898  0.778694  1
  F  F37  1  0.665983  0.127235  0.832299  1
  F  F38  1  0.665983  0.372765  0.832299  1
  F  F39  1  0.377905  0.250000  0.870426  1
