# generated using pymatgen
data_ZrSc2Ti2Sn3
_symmetry_space_group_name_H-M   'P 1'
_cell_length_a   8.32992618
_cell_length_b   8.36005165
_cell_length_c   5.68206300
_cell_angle_alpha   90.00000000
_cell_angle_beta   90.00000000
_cell_angle_gamma   120.11970464
_symmetry_Int_Tables_number   1
_chemical_formula_structural   ZrSc2Ti2Sn3
_chemical_formula_sum   'Zr2 Sc4 Ti4 Sn6'
_cell_volume   342.26435217
_cell_formula_units_Z   2
loop_
 _symmetry_equiv_pos_site_id
 _symmetry_equiv_pos_as_xyz
  1  'x, y, z'
loop_
 _atom_site_type_symbol
 _atom_site_label
 _atom_site_symmetry_multiplicity
 _atom_site_fract_x
 _atom_site_fract_y
 _atom_site_fract_z
 _atom_site_occupancy
  Zr  Zr0  1  0.758697  0.760092  0.250000  1
  Zr  Zr1  1  0.758697  0.998605  0.750000  1
  Sc  Sc2  1  0.238028  0.998431  0.250000  1
  Sc  Sc3  1  0.238028  0.239598  0.750000  1
  Sc  Sc4  1  0.997725  0.759323  0.750000  1
  Sc  Sc5  1  0.997725  0.238402  0.250000  1
  Ti  Ti6  1  0.338438  0.669219  0.000000  1
  Ti  Ti7  1  0.667333  0.333666  0.500000  1
  Ti  Ti8  1  0.667333  0.333666  0.000000  1
  Ti  Ti9  1  0.338438  0.669219  0.500000  1
  Sn  Sn10  1  0.600819  0.002396  0.250000  1
  Sn  Sn11  1  0.600819  0.598422  0.750000  1
  Sn  Sn12  1  0.001569  0.400723  0.750000  1
  Sn  Sn13  1  0.001569  0.600846  0.250000  1
  Sn  Sn14  1  0.397391  0.397218  0.250000  1
  Sn  Sn15  1  0.397391  0.000173  0.750000  1
