# generated using pymatgen
data_KPaMnTe5
_symmetry_space_group_name_H-M   'P 1'
_cell_length_a   6.20083400
_cell_length_b   8.36244000
_cell_length_c   10.34637300
_cell_angle_alpha   90.00000000
_cell_angle_beta   90.00000000
_cell_angle_gamma   90.00000000
_symmetry_Int_Tables_number   1
_chemical_formula_structural   KPaMnTe5
_chemical_formula_sum   'K2 Pa2 Mn2 Te10'
_cell_volume   536.50188372
_cell_formula_units_Z   2
loop_
 _symmetry_equiv_pos_site_id
 _symmetry_equiv_pos_as_xyz
  1  'x, y, z'
loop_
 _atom_site_type_symbol
 _atom_site_label
 _atom_site_symmetry_multiplicity
 _atom_site_fract_x
 _atom_site_fract_y
 _atom_site_fract_z
 _atom_site_occupancy
  K  K0  1  0.749999  0.500000  0.215205  1
  K  K1  1  0.249999  0.500000  0.784795  1
  Pa  Pa2  1  0.249999  0.000000  0.319544  1
  Pa  Pa3  1  0.749999  0.000000  0.680455  1
  Mn  Mn4  1  0.000000  0.000000  0.000000  1
  Mn  Mn5  1  0.500001  0.000000  0.000000  1
  Te  Te6  1  0.249999  0.245411  0.106073  1
  Te  Te7  1  0.249999  0.754588  0.106073  1
  Te  Te8  1  0.749999  0.000000  0.228922  1
  Te  Te9  1  0.000000  0.248872  0.500000  1
  Te  Te10  1  0.500001  0.248872  0.500000  1
  Te  Te11  1  0.000000  0.751128  0.500000  1
  Te  Te12  1  0.500001  0.751128  0.500000  1
  Te  Te13  1  0.249999  0.000000  0.771078  1
  Te  Te14  1  0.749999  0.245411  0.893928  1
  Te  Te15  1  0.749999  0.754588  0.893928  1
