# generated using pymatgen
data_Pu5Sc3(B6Mo)4
_symmetry_space_group_name_H-M   'P 1'
_cell_length_a   3.65790700
_cell_length_b   9.07178818
_cell_length_c   11.43417948
_cell_angle_alpha   89.93534215
_cell_angle_beta   90.00000000
_cell_angle_gamma   90.00000000
_symmetry_Int_Tables_number   1
_chemical_formula_structural   Pu5Sc3(B6Mo)4
_chemical_formula_sum   'Pu5 Sc3 B24 Mo4'
_cell_volume   379.42879759
_cell_formula_units_Z   1
loop_
 _symmetry_equiv_pos_site_id
 _symmetry_equiv_pos_as_xyz
  1  'x, y, z'
loop_
 _atom_site_type_symbol
 _atom_site_label
 _atom_site_symmetry_multiplicity
 _atom_site_fract_x
 _atom_site_fract_y
 _atom_site_fract_z
 _atom_site_occupancy
  Pu  Pu0  1  0.000000  0.319263  0.415777  1
  Pu  Pu1  1  0.000000  0.680345  0.586822  1
  Pu  Pu2  1  0.000000  0.819846  0.084379  1
  Pu  Pu3  1  0.000000  0.180061  0.912333  1
  Pu  Pu4  1  0.000000  0.942772  0.370177  1
  Sc  Sc5  1  0.000000  0.056205  0.629790  1
  Sc  Sc6  1  0.000000  0.444137  0.128195  1
  Sc  Sc7  1  0.000000  0.555714  0.871591  1
  B  B8  1  0.500000  0.550537  0.433436  1
  B  B9  1  0.500000  0.446952  0.566251  1
  B  B10  1  0.500000  0.054663  0.064632  1
  B  B11  1  0.500000  0.946957  0.934208  1
  B  B12  1  0.500000  0.752422  0.419679  1
  B  B13  1  0.500000  0.247231  0.581263  1
  B  B14  1  0.500000  0.255322  0.079461  1
  B  B15  1  0.500000  0.745269  0.920120  1
  B  B16  1  0.500000  0.794778  0.262674  1
  B  B17  1  0.500000  0.204741  0.736821  1
  B  B18  1  0.500000  0.297386  0.234984  1
  B  B19  1  0.500000  0.704397  0.764074  1
  B  B20  1  0.500000  0.627525  0.180822  1
  B  B21  1  0.500000  0.370931  0.818561  1
  B  B22  1  0.500000  0.131107  0.317452  1
  B  B23  1  0.500000  0.869834  0.683211  1
  B  B24  1  0.500000  0.980117  0.212196  1
  B  B25  1  0.500000  0.020350  0.786876  1
  B  B26  1  0.500000  0.479365  0.286203  1
  B  B27  1  0.500000  0.520652  0.713585  1
  B  B28  1  0.500000  0.596989  0.026776  1
  B  B29  1  0.500000  0.402551  0.973129  1
  B  B30  1  0.500000  0.099021  0.473396  1
  B  B31  1  0.500000  0.901277  0.527512  1
  Mo  Mo32  1  0.000000  0.642782  0.320314  1
  Mo  Mo33  1  0.000000  0.360137  0.680446  1
  Mo  Mo34  1  0.000000  0.138850  0.183048  1
  Mo  Mo35  1  0.000000  0.859514  0.819806  1
