# generated using pymatgen
data_Y3Tm3(Si3Ru)8
_symmetry_space_group_name_H-M   'P 1'
_cell_length_a   10.10766911
_cell_length_b   10.10761218
_cell_length_c   8.12742565
_cell_angle_alpha   89.91605090
_cell_angle_beta   90.08521455
_cell_angle_gamma   132.61568828
_symmetry_Int_Tables_number   1
_chemical_formula_structural   Y3Tm3(Si3Ru)8
_chemical_formula_sum   'Y3 Tm3 Si24 Ru8'
_cell_volume   611.05140628
_cell_formula_units_Z   1
loop_
 _symmetry_equiv_pos_site_id
 _symmetry_equiv_pos_as_xyz
  1  'x, y, z'
loop_
 _atom_site_type_symbol
 _atom_site_label
 _atom_site_symmetry_multiplicity
 _atom_site_fract_x
 _atom_site_fract_y
 _atom_site_fract_z
 _atom_site_occupancy
  Y  Y0  1  0.497174  0.997157  0.750033  1
  Y  Y1  1  0.997537  0.497550  0.750028  1
  Y  Y2  1  0.502476  0.002489  0.249975  1
  Tm  Tm3  1  0.000038  0.000002  0.000077  1
  Tm  Tm4  1  0.499995  0.500040  0.499928  1
  Tm  Tm5  1  0.002494  0.502470  0.249945  1
  Si  Si6  1  0.294298  0.704984  0.000695  1
  Si  Si7  1  0.794840  0.205678  0.499232  1
  Si  Si8  1  0.705678  0.294827  0.000771  1
  Si  Si9  1  0.204971  0.794299  0.499301  1
  Si  Si10  1  0.831910  0.832106  0.333162  1
  Si  Si11  1  0.168050  0.167934  0.666912  1
  Si  Si12  1  0.667933  0.668045  0.833098  1
  Si  Si13  1  0.332112  0.331915  0.166837  1
  Si  Si14  1  0.621880  0.387887  0.228566  1
  Si  Si15  1  0.611429  0.377169  0.771176  1
  Si  Si16  1  0.113313  0.879146  0.729193  1
  Si  Si17  1  0.121585  0.887642  0.271959  1
  Si  Si18  1  0.379186  0.613373  0.770828  1
  Si  Si19  1  0.387584  0.621541  0.228018  1
  Si  Si20  1  0.887947  0.121922  0.271420  1
  Si  Si21  1  0.877126  0.111370  0.728846  1
  Si  Si22  1  0.844338  0.611720  0.005567  1
  Si  Si23  1  0.387317  0.153902  0.995008  1
  Si  Si24  1  0.888355  0.656047  0.503689  1
  Si  Si25  1  0.345934  0.112582  0.495360  1
  Si  Si26  1  0.156054  0.388375  0.996357  1
  Si  Si27  1  0.612561  0.845923  0.004598  1
  Si  Si28  1  0.111740  0.344344  0.494395  1
  Si  Si29  1  0.653899  0.887300  0.505034  1
  Ru  Ru30  1  0.166153  0.828600  0.001746  1
  Ru  Ru31  1  0.671446  0.333867  0.499083  1
  Ru  Ru32  1  0.833881  0.171427  0.000914  1
  Ru  Ru33  1  0.328588  0.666169  0.498242  1
  Ru  Ru34  1  0.625989  0.626248  0.127396  1
  Ru  Ru35  1  0.373909  0.374048  0.872387  1
  Ru  Ru36  1  0.874012  0.873884  0.627650  1
  Ru  Ru37  1  0.126268  0.126019  0.372576  1
