# generated using pymatgen
data_Pr2LuV(WO6)2
_symmetry_space_group_name_H-M   'P 1'
_cell_length_a   5.46030213
_cell_length_b   7.69399965
_cell_length_c   11.39425100
_cell_angle_alpha   90.00000000
_cell_angle_beta   90.00000000
_cell_angle_gamma   89.66019399
_symmetry_Int_Tables_number   1
_chemical_formula_structural   Pr2LuV(WO6)2
_chemical_formula_sum   'Pr4 Lu2 V2 W4 O24'
_cell_volume   478.68187180
_cell_formula_units_Z   2
loop_
 _symmetry_equiv_pos_site_id
 _symmetry_equiv_pos_as_xyz
  1  'x, y, z'
loop_
 _atom_site_type_symbol
 _atom_site_label
 _atom_site_symmetry_multiplicity
 _atom_site_fract_x
 _atom_site_fract_y
 _atom_site_fract_z
 _atom_site_occupancy
  Pr  Pr0  1  0.043393  0.250323  0.033270  1
  Pr  Pr1  1  0.543395  0.750324  0.466730  1
  Pr  Pr2  1  0.454124  0.253164  0.555388  1
  Pr  Pr3  1  0.954124  0.753165  0.944612  1
  Lu  Lu4  1  0.543520  0.508835  0.144301  1
  Lu  Lu5  1  0.043521  0.008836  0.355698  1
  V  V6  1  0.950094  0.504838  0.636134  1
  V  V7  1  0.450094  0.004839  0.863866  1
  W  W8  1  0.551845  0.997844  0.137259  1
  W  W9  1  0.051845  0.497845  0.362742  1
  W  W10  1  0.945751  0.999357  0.644192  1
  W  W11  1  0.445751  0.499358  0.855808  1
  O  O12  1  0.256924  0.538070  0.011123  1
  O  O13  1  0.271718  0.958986  0.026473  1
  O  O14  1  0.677583  0.766272  0.113788  1
  O  O15  1  0.429809  0.235463  0.141337  1
  O  O16  1  0.860156  0.075059  0.195920  1
  O  O17  1  0.908066  0.437690  0.217910  1
  O  O18  1  0.408067  0.937689  0.282090  1
  O  O19  1  0.360156  0.575058  0.304081  1
  O  O20  1  0.929809  0.735462  0.358663  1
  O  O21  1  0.177583  0.266272  0.386211  1
  O  O22  1  0.771718  0.458987  0.473527  1
  O  O23  1  0.756923  0.038069  0.488876  1
  O  O24  1  0.228925  0.540941  0.524681  1
  O  O25  1  0.229656  0.964274  0.534350  1
  O  O26  1  0.847066  0.756515  0.624541  1
  O  O27  1  0.042506  0.244510  0.643513  1
  O  O28  1  0.640559  0.060007  0.713890  1
  O  O29  1  0.618301  0.448052  0.715859  1
  O  O30  1  0.118299  0.948051  0.784141  1
  O  O31  1  0.140560  0.560006  0.786109  1
  O  O32  1  0.542506  0.744509  0.856486  1
  O  O33  1  0.347066  0.256515  0.875459  1
  O  O34  1  0.729656  0.464275  0.965650  1
  O  O35  1  0.728925  0.040940  0.975319  1
