# generated using pymatgen
data_Er3Lu(PbO4)3
_symmetry_space_group_name_H-M   'P 1'
_cell_length_a   6.43379636
_cell_length_b   6.49059152
_cell_length_c   6.69155547
_cell_angle_alpha   100.56989299
_cell_angle_beta   98.55455464
_cell_angle_gamma   99.40557492
_symmetry_Int_Tables_number   1
_chemical_formula_structural   Er3Lu(PbO4)3
_chemical_formula_sum   'Er3 Lu1 Pb3 O12'
_cell_volume   266.35752974
_cell_formula_units_Z   1
loop_
 _symmetry_equiv_pos_site_id
 _symmetry_equiv_pos_as_xyz
  1  'x, y, z'
loop_
 _atom_site_type_symbol
 _atom_site_label
 _atom_site_symmetry_multiplicity
 _atom_site_fract_x
 _atom_site_fract_y
 _atom_site_fract_z
 _atom_site_occupancy
  Er  Er0  1  0.396024  0.698579  0.861636  1
  Er  Er1  1  0.693578  0.869741  0.389383  1
  Er  Er2  1  0.602777  0.300297  0.137513  1
  Lu  Lu3  1  0.307868  0.131109  0.610355  1
  Pb  Pb4  1  0.001080  0.000703  0.000225  1
  Pb  Pb5  1  0.850571  0.397894  0.675753  1
  Pb  Pb6  1  0.149882  0.601559  0.325559  1
  O  O7  1  0.049083  0.675287  0.894547  1
  O  O8  1  0.680274  0.932601  0.063683  1
  O  O9  1  0.923179  0.074576  0.683333  1
  O  O10  1  0.950664  0.325192  0.105751  1
  O  O11  1  0.319628  0.068203  0.932801  1
  O  O12  1  0.080084  0.927704  0.318785  1
  O  O13  1  0.569535  0.182568  0.426135  1
  O  O14  1  0.179766  0.419645  0.579454  1
  O  O15  1  0.423952  0.585787  0.174821  1
  O  O16  1  0.425435  0.819803  0.575038  1
  O  O17  1  0.821895  0.576672  0.421084  1
  O  O18  1  0.574726  0.412081  0.824144  1
