# generated using pymatgen
data_Zr2In5
_symmetry_space_group_name_H-M   'P 1'
_cell_length_a   10.41763400
_cell_length_b   10.41763400
_cell_length_c   3.12006100
_cell_angle_alpha   90.00000000
_cell_angle_beta   90.00000000
_cell_angle_gamma   90.00000000
_symmetry_Int_Tables_number   1
_chemical_formula_structural   Zr2In5
_chemical_formula_sum   'Zr4 In10'
_cell_volume   338.61116641
_cell_formula_units_Z   2
loop_
 _symmetry_equiv_pos_site_id
 _symmetry_equiv_pos_as_xyz
  1  'x, y, z'
loop_
 _atom_site_type_symbol
 _atom_site_label
 _atom_site_symmetry_multiplicity
 _atom_site_fract_x
 _atom_site_fract_y
 _atom_site_fract_z
 _atom_site_occupancy
  Zr  Zr0  1  0.319918  0.819918  0.500000  1
  Zr  Zr1  1  0.819918  0.680082  0.500000  1
  Zr  Zr2  1  0.180082  0.319918  0.500000  1
  Zr  Zr3  1  0.680082  0.180082  0.500000  1
  In  In4  1  0.438413  0.290607  0.000000  1
  In  In5  1  0.561587  0.709393  0.000000  1
  In  In6  1  0.709393  0.438413  0.000000  1
  In  In7  1  0.290607  0.561587  0.000000  1
  In  In8  1  0.500000  0.000000  0.000000  1
  In  In9  1  0.000000  0.500000  0.000000  1
  In  In10  1  0.209393  0.061587  0.000000  1
  In  In11  1  0.061587  0.790607  0.000000  1
  In  In12  1  0.938413  0.209393  0.000000  1
  In  In13  1  0.790607  0.938413  0.000000  1
