# generated using pymatgen
data_TbPr2Mg3PdPb2
_symmetry_space_group_name_H-M   'P 1'
_cell_length_a   7.65322735
_cell_length_b   7.65322843
_cell_length_c   4.64207400
_cell_angle_alpha   90.00000000
_cell_angle_beta   90.00000000
_cell_angle_gamma   119.51215930
_symmetry_Int_Tables_number   1
_chemical_formula_structural   TbPr2Mg3PdPb2
_chemical_formula_sum   'Tb1 Pr2 Mg3 Pd1 Pb2'
_cell_volume   236.61701331
_cell_formula_units_Z   1
loop_
 _symmetry_equiv_pos_site_id
 _symmetry_equiv_pos_as_xyz
  1  'x, y, z'
loop_
 _atom_site_type_symbol
 _atom_site_label
 _atom_site_symmetry_multiplicity
 _atom_site_fract_x
 _atom_site_fract_y
 _atom_site_fract_z
 _atom_site_occupancy
  Tb  Tb0  1  0.397306  0.397306  0.500000  1
  Pr  Pr1  1  0.599356  0.999446  0.500000  1
  Pr  Pr2  1  0.999446  0.599356  0.500000  1
  Mg  Mg3  1  0.771678  0.771678  0.000000  1
  Mg  Mg4  1  0.228463  0.001782  0.000000  1
  Mg  Mg5  1  0.001782  0.228463  0.000000  1
  Pd  Pd6  1  0.005119  0.005119  0.500000  1
  Pb  Pb7  1  0.662326  0.334524  0.000000  1
  Pb  Pb8  1  0.334524  0.662326  0.000000  1
