# generated using pymatgen
data_Ho3Al12Fe3Au
_symmetry_space_group_name_H-M   'P 1'
_cell_length_a   8.79747686
_cell_length_b   8.75562072
_cell_length_c   9.38274839
_cell_angle_alpha   89.96886362
_cell_angle_beta   89.96543521
_cell_angle_gamma   119.83922134
_symmetry_Int_Tables_number   1
_chemical_formula_structural   Ho3Al12Fe3Au
_chemical_formula_sum   'Ho6 Al24 Fe6 Au2'
_cell_volume   626.91234180
_cell_formula_units_Z   2
loop_
 _symmetry_equiv_pos_site_id
 _symmetry_equiv_pos_as_xyz
  1  'x, y, z'
loop_
 _atom_site_type_symbol
 _atom_site_label
 _atom_site_symmetry_multiplicity
 _atom_site_fract_x
 _atom_site_fract_y
 _atom_site_fract_z
 _atom_site_occupancy
  Ho  Ho0  1  0.193936  0.388591  0.256240  1
  Ho  Ho1  1  0.806064  0.611409  0.743760  1
  Ho  Ho2  1  0.612517  0.806312  0.251336  1
  Ho  Ho3  1  0.387483  0.193688  0.748664  1
  Ho  Ho4  1  0.194003  0.805435  0.256384  1
  Ho  Ho5  1  0.805997  0.194565  0.743616  1
  Al  Al6  1  0.313641  0.656830  0.017521  1
  Al  Al7  1  0.686359  0.343170  0.982479  1
  Al  Al8  1  0.666728  0.333458  0.517547  1
  Al  Al9  1  0.333272  0.666542  0.482453  1
  Al  Al10  1  0.160894  0.323884  0.574928  1
  Al  Al11  1  0.839106  0.676116  0.425072  1
  Al  Al12  1  0.677343  0.838528  0.571422  1
  Al  Al13  1  0.853959  0.683122  0.081532  1
  Al  Al14  1  0.322657  0.161472  0.428578  1
  Al  Al15  1  0.146041  0.316878  0.918468  1
  Al  Al16  1  0.160795  0.836926  0.575024  1
  Al  Al17  1  0.310392  0.155209  0.084137  1
  Al  Al18  1  0.839205  0.163074  0.424976  1
  Al  Al19  1  0.689608  0.844791  0.915863  1
  Al  Al20  1  0.853949  0.170845  0.081433  1
  Al  Al21  1  0.146051  0.829155  0.918567  1
  Al  Al22  1  0.563098  0.125095  0.262312  1
  Al  Al23  1  0.436902  0.874905  0.737688  1
  Al  Al24  1  0.885599  0.442860  0.250604  1
  Al  Al25  1  0.114401  0.557140  0.749396  1
  Al  Al26  1  0.562979  0.438098  0.262355  1
  Al  Al27  1  0.437021  0.561902  0.737645  1
  Al  Al28  1  0.997203  0.998627  0.251665  1
  Al  Al29  1  0.002797  0.001373  0.748335  1
  Fe  Fe30  1  0.000000  0.500000  0.000000  1
  Fe  Fe31  1  0.500000  0.000000  0.500000  1
  Fe  Fe32  1  0.000000  0.500000  0.500000  1
  Fe  Fe33  1  0.500000  0.500000  0.500000  1
  Fe  Fe34  1  0.000000  0.000000  0.000000  1
  Fe  Fe35  1  0.000000  0.000000  0.500000  1
  Au  Au36  1  0.500000  0.000000  0.000000  1
  Au  Au37  1  0.500000  0.500000  0.000000  1
