# generated using pymatgen
data_Tb8Zn(Ga4Ir)3
_symmetry_space_group_name_H-M   'P 1'
_cell_length_a   7.12707900
_cell_length_b   8.92093000
_cell_length_c   8.92093000
_cell_angle_alpha   120.00000002
_cell_angle_beta   90.00000000
_cell_angle_gamma   90.00000000
_symmetry_Int_Tables_number   1
_chemical_formula_structural   Tb8Zn(Ga4Ir)3
_chemical_formula_sum   'Tb8 Zn1 Ga12 Ir3'
_cell_volume   491.20464766
_cell_formula_units_Z   1
loop_
 _symmetry_equiv_pos_site_id
 _symmetry_equiv_pos_as_xyz
  1  'x, y, z'
loop_
 _atom_site_type_symbol
 _atom_site_label
 _atom_site_symmetry_multiplicity
 _atom_site_fract_x
 _atom_site_fract_y
 _atom_site_fract_z
 _atom_site_occupancy
  Tb  Tb0  1  0.753804  0.000000  0.000000  1
  Tb  Tb1  1  0.247945  0.000000  0.000000  1
  Tb  Tb2  1  0.751877  0.472325  0.527675  1
  Tb  Tb3  1  0.242051  0.516465  0.483535  1
  Tb  Tb4  1  0.751877  0.055351  0.527675  1
  Tb  Tb5  1  0.242051  0.967071  0.483535  1
  Tb  Tb6  1  0.751877  0.472325  0.944649  1
  Tb  Tb7  1  0.242051  0.516465  0.032929  1
  Zn  Zn8  1  0.570326  0.666667  0.333333  1
  Ga  Ga9  1  0.950685  0.829213  0.170787  1
  Ga  Ga10  1  0.043512  0.168153  0.831847  1
  Ga  Ga11  1  0.950685  0.341575  0.170787  1
  Ga  Ga12  1  0.451284  0.169175  0.830825  1
  Ga  Ga13  1  0.043512  0.663692  0.831847  1
  Ga  Ga14  1  0.543666  0.834798  0.165202  1
  Ga  Ga15  1  0.950685  0.829213  0.658425  1
  Ga  Ga16  1  0.451284  0.661649  0.830825  1
  Ga  Ga17  1  0.043512  0.168153  0.336308  1
  Ga  Ga18  1  0.543666  0.330403  0.165202  1
  Ga  Ga19  1  0.451284  0.169175  0.338351  1
  Ga  Ga20  1  0.543666  0.834798  0.669597  1
  Ir  Ir21  1  0.980752  0.666667  0.333333  1
  Ir  Ir22  1  0.030762  0.333333  0.666667  1
  Ir  Ir23  1  0.467183  0.333333  0.666667  1
