# generated using pymatgen
data_Tb3ErAl24Pt7Au2
_symmetry_space_group_name_H-M   'P 1'
_cell_length_a   7.57556379
_cell_length_b   7.58736907
_cell_length_c   13.17386273
_cell_angle_alpha   84.55552047
_cell_angle_beta   79.00320253
_cell_angle_gamma   59.92944908
_symmetry_Int_Tables_number   1
_chemical_formula_structural   Tb3ErAl24Pt7Au2
_chemical_formula_sum   'Tb3 Er1 Al24 Pt7 Au2'
_cell_volume   643.26792215
_cell_formula_units_Z   1
loop_
 _symmetry_equiv_pos_site_id
 _symmetry_equiv_pos_as_xyz
  1  'x, y, z'
loop_
 _atom_site_type_symbol
 _atom_site_label
 _atom_site_symmetry_multiplicity
 _atom_site_fract_x
 _atom_site_fract_y
 _atom_site_fract_z
 _atom_site_occupancy
  Tb  Tb0  1  0.607133  0.830899  0.190928  1
  Tb  Tb1  1  0.733791  0.498872  0.809823  1
  Tb  Tb2  1  0.266331  0.500958  0.190149  1
  Er  Er3  1  0.392944  0.169276  0.808416  1
  Al  Al4  1  0.682716  0.835020  0.944532  1
  Al  Al5  1  0.316818  0.165816  0.054280  1
  Al  Al6  1  0.145953  0.839180  0.562320  1
  Al  Al7  1  0.853992  0.160832  0.437866  1
  Al  Al8  1  0.488211  0.159427  0.559656  1
  Al  Al9  1  0.511700  0.840668  0.440603  1
  Al  Al10  1  0.222923  0.160469  0.326469  1
  Al  Al11  1  0.776293  0.839961  0.674294  1
  Al  Al12  1  0.439982  0.506259  0.674288  1
  Al  Al13  1  0.559725  0.493218  0.326350  1
  Al  Al14  1  0.109629  0.154682  0.672923  1
  Al  Al15  1  0.890644  0.845432  0.327771  1
  Al  Al16  1  0.352978  0.498393  0.944309  1
  Al  Al17  1  0.647277  0.500827  0.054909  1
  Al  Al18  1  0.016308  0.167223  0.953511  1
  Al  Al19  1  0.984719  0.832756  0.045737  1
  Al  Al20  1  0.195410  0.499249  0.437773  1
  Al  Al21  1  0.804525  0.500561  0.562481  1
  Al  Al22  1  0.733104  0.164497  0.183443  1
  Al  Al23  1  0.267362  0.836153  0.816615  1
  Al  Al24  1  0.061119  0.633186  0.817643  1
  Al  Al25  1  0.939868  0.365605  0.182307  1
  Al  Al26  1  0.853768  0.042421  0.816127  1
  Al  Al27  1  0.145175  0.957951  0.183897  1
  Pt  Pt28  1  0.657374  0.171499  0.999705  1
  Pt  Pt29  1  0.342521  0.828651  0.000165  1
  Pt  Pt30  1  0.537449  0.166882  0.362428  1
  Pt  Pt31  1  0.462606  0.833514  0.637831  1
  Pt  Pt32  1  0.779515  0.175123  0.636763  1
  Pt  Pt33  1  0.219865  0.824848  0.363621  1
  Pt  Pt34  1  0.000074  0.499917  0.999921  1
  Au  Au35  1  0.120338  0.490909  0.637941  1
  Au  Au36  1  0.879860  0.508864  0.362205  1
