# generated using pymatgen
data_K8Nb4V3Cd(PO5)8
_symmetry_space_group_name_H-M   'P 1'
_cell_length_a   6.55366600
_cell_length_b   10.94595500
_cell_length_c   13.15462500
_cell_angle_alpha   90.00000000
_cell_angle_beta   90.00000000
_cell_angle_gamma   90.00000000
_symmetry_Int_Tables_number   1
_chemical_formula_structural   K8Nb4V3Cd(PO5)8
_chemical_formula_sum   'K8 Nb4 V3 Cd1 P8 O40'
_cell_volume   943.66193016
_cell_formula_units_Z   1
loop_
 _symmetry_equiv_pos_site_id
 _symmetry_equiv_pos_as_xyz
  1  'x, y, z'
loop_
 _atom_site_type_symbol
 _atom_site_label
 _atom_site_symmetry_multiplicity
 _atom_site_fract_x
 _atom_site_fract_y
 _atom_site_fract_z
 _atom_site_occupancy
  K  K0  1  0.726962  0.292222  0.869853  1
  K  K1  1  0.281718  0.805512  0.121694  1
  K  K2  1  0.225168  0.800838  0.629879  1
  K  K3  1  0.781497  0.305526  0.381396  1
  K  K4  1  0.802955  0.064654  0.604172  1
  K  K5  1  0.190477  0.564940  0.399235  1
  K  K6  1  0.307072  0.560122  0.889497  1
  K  K7  1  0.698814  0.064470  0.101707  1
  Nb  Nb8  1  0.005522  0.000750  0.869012  1
  Nb  Nb9  1  0.990168  0.499130  0.126478  1
  Nb  Nb10  1  0.505921  0.503972  0.631295  1
  Nb  Nb11  1  0.496883  0.003232  0.369223  1
  V  V12  1  0.756508  0.750479  0.253773  1
  V  V13  1  0.747613  0.751462  0.753299  1
  V  V14  1  0.252181  0.252377  0.246716  1
  Cd  Cd15  1  0.246730  0.248574  0.742723  1
  P  P16  1  0.996322  0.509203  0.681226  1
  P  P17  1  0.999316  0.003838  0.314645  1
  P  P18  1  0.510273  0.001010  0.819120  1
  P  P19  1  0.496423  0.507194  0.186230  1
  P  P20  1  0.171613  0.254177  0.002719  1
  P  P21  1  0.834996  0.754766  0.003677  1
  P  P22  1  0.663559  0.756454  0.499556  1
  P  P23  1  0.327727  0.253020  0.493633  1
  O  O24  1  0.492351  0.390322  0.730751  1
  O  O25  1  0.553914  0.872499  0.275592  1
  O  O26  1  0.965180  0.875124  0.777330  1
  O  O27  1  0.035829  0.387138  0.227605  1
  O  O28  1  0.031066  0.373407  0.016656  1
  O  O29  1  0.969771  0.871518  0.994960  1
  O  O30  1  0.530131  0.875348  0.487512  1
  O  O31  1  0.463371  0.368174  0.512343  1
  O  O32  1  0.298963  0.232642  0.099975  1
  O  O33  1  0.700151  0.730003  0.910678  1
  O  O34  1  0.801746  0.738581  0.404002  1
  O  O35  1  0.174405  0.223208  0.576527  1
  O  O36  1  0.015219  0.401679  0.753641  1
  O  O37  1  0.959059  0.890882  0.246706  1
  O  O38  1  0.535615  0.884507  0.754233  1
  O  O39  1  0.463813  0.393413  0.252508  1
  O  O40  1  0.525992  0.634816  0.722159  1
  O  O41  1  0.466454  0.121731  0.270163  1
  O  O42  1  0.989816  0.122719  0.775109  1
  O  O43  1  0.950184  0.635999  0.226873  1
  O  O44  1  0.972586  0.626774  0.745648  1
  O  O45  1  0.031581  0.116989  0.246951  1
  O  O46  1  0.502050  0.111012  0.748109  1
  O  O47  1  0.535569  0.619712  0.254810  1
  O  O48  1  0.814316  0.492404  0.604767  1
  O  O49  1  0.189961  0.977107  0.382740  1
  O  O50  1  0.311575  0.987010  0.885151  1
  O  O51  1  0.683244  0.485125  0.113989  1
  O  O52  1  0.315848  0.280286  0.915075  1
  O  O53  1  0.698487  0.769244  0.100566  1
  O  O54  1  0.800194  0.775236  0.593579  1
  O  O55  1  0.204658  0.276375  0.394259  1
  O  O56  1  0.190088  0.526603  0.612041  1
  O  O57  1  0.814524  0.029099  0.386496  1
  O  O58  1  0.686899  0.017142  0.897995  1
  O  O59  1  0.307337  0.535505  0.117614  1
  O  O60  1  0.019156  0.147643  0.986877  1
  O  O61  1  0.987242  0.644884  0.019190  1
  O  O62  1  0.512416  0.648161  0.509567  1
  O  O63  1  0.482819  0.143667  0.478495  1
