# generated using pymatgen
data_Pr2TiCrO8
_symmetry_space_group_name_H-M   'P 1'
_cell_length_a   6.23955308
_cell_length_b   6.23955324
_cell_length_c   6.23955285
_cell_angle_alpha   105.95966397
_cell_angle_beta   105.95966767
_cell_angle_gamma   116.74874677
_symmetry_Int_Tables_number   1
_chemical_formula_structural   Pr2TiCrO8
_chemical_formula_sum   'Pr2 Ti1 Cr1 O8'
_cell_volume   184.70865376
_cell_formula_units_Z   1
loop_
 _symmetry_equiv_pos_site_id
 _symmetry_equiv_pos_as_xyz
  1  'x, y, z'
loop_
 _atom_site_type_symbol
 _atom_site_label
 _atom_site_symmetry_multiplicity
 _atom_site_fract_x
 _atom_site_fract_y
 _atom_site_fract_z
 _atom_site_occupancy
  Pr  Pr0  1  0.000000  0.000000  0.000000  1
  Pr  Pr1  1  0.250000  0.750000  0.500000  1
  Ti  Ti2  1  0.750000  0.250000  0.500000  1
  Cr  Cr3  1  0.500000  0.500000  0.000000  1
  O  O4  1  0.344025  0.518540  0.174516  1
  O  O5  1  0.380032  0.063329  0.316704  1
  O  O6  1  0.746625  0.063329  0.683296  1
  O  O7  1  0.344025  0.169508  0.825484  1
  O  O8  1  0.830492  0.655975  0.174516  1
  O  O9  1  0.936671  0.253375  0.316704  1
  O  O10  1  0.936671  0.619968  0.683296  1
  O  O11  1  0.481460  0.655975  0.825484  1
