# generated using pymatgen
data_Na2H2WF8
_symmetry_space_group_name_H-M   'P 1'
_cell_length_a   5.76334346
_cell_length_b   5.61315244
_cell_length_c   5.61315295
_cell_angle_alpha   96.69778563
_cell_angle_beta   105.84577074
_cell_angle_gamma   105.84577938
_symmetry_Int_Tables_number   1
_chemical_formula_structural   Na2H2WF8
_chemical_formula_sum   'Na2 H2 W1 F8'
_cell_volume   164.42473153
_cell_formula_units_Z   1
loop_
 _symmetry_equiv_pos_site_id
 _symmetry_equiv_pos_as_xyz
  1  'x, y, z'
loop_
 _atom_site_type_symbol
 _atom_site_label
 _atom_site_symmetry_multiplicity
 _atom_site_fract_x
 _atom_site_fract_y
 _atom_site_fract_z
 _atom_site_occupancy
  Na  Na0  1  0.499999  0.729220  0.270778  1
  Na  Na1  1  0.499999  0.270778  0.729220  1
  H  H2  1  0.767173  0.343795  0.343795  1
  H  H3  1  0.232827  0.656206  0.656206  1
  W  W4  1  0.000000  0.000000  0.000000  1
  F  F5  1  0.762701  0.668074  0.004390  1
  F  F6  1  0.766110  0.150108  0.150108  1
  F  F7  1  0.237299  0.995611  0.331927  1
  F  F8  1  0.731602  0.462853  0.462853  1
  F  F9  1  0.268398  0.537147  0.537147  1
  F  F10  1  0.762701  0.004390  0.668074  1
  F  F11  1  0.233890  0.849891  0.849891  1
  F  F12  1  0.237299  0.331927  0.995611  1
