# generated using pymatgen
data_TbHo(NiIr)2
_symmetry_space_group_name_H-M   'P 1'
_cell_length_a   5.38761795
_cell_length_b   5.21083917
_cell_length_c   5.21083857
_cell_angle_alpha   58.23289764
_cell_angle_beta   58.87125933
_cell_angle_gamma   58.87126697
_symmetry_Int_Tables_number   1
_chemical_formula_structural   TbHo(NiIr)2
_chemical_formula_sum   'Tb1 Ho1 Ni2 Ir2'
_cell_volume   100.26178719
_cell_formula_units_Z   1
loop_
 _symmetry_equiv_pos_site_id
 _symmetry_equiv_pos_as_xyz
  1  'x, y, z'
loop_
 _atom_site_type_symbol
 _atom_site_label
 _atom_site_symmetry_multiplicity
 _atom_site_fract_x
 _atom_site_fract_y
 _atom_site_fract_z
 _atom_site_occupancy
  Tb  Tb0  1  0.752282  0.747718  0.747718  1
  Ho  Ho1  1  0.497642  0.502358  0.502358  1
  Ni  Ni2  1  0.125114  0.624791  0.124980  1
  Ni  Ni3  1  0.125114  0.124980  0.624791  1
  Ir  Ir4  1  0.125210  0.125076  0.125076  1
  Ir  Ir5  1  0.624637  0.125076  0.125076  1
