# generated using pymatgen
data_Y2Al4Au3
_symmetry_space_group_name_H-M   'P 1'
_cell_length_a   14.08326600
_cell_length_b   14.08326639
_cell_length_c   4.19587200
_cell_angle_alpha   90.00000000
_cell_angle_beta   90.00000000
_cell_angle_gamma   120.00000378
_symmetry_Int_Tables_number   1
_chemical_formula_structural   Y2Al4Au3
_chemical_formula_sum   'Y8 Al16 Au12'
_cell_volume   720.70846438
_cell_formula_units_Z   4
loop_
 _symmetry_equiv_pos_site_id
 _symmetry_equiv_pos_as_xyz
  1  'x, y, z'
loop_
 _atom_site_type_symbol
 _atom_site_label
 _atom_site_symmetry_multiplicity
 _atom_site_fract_x
 _atom_site_fract_y
 _atom_site_fract_z
 _atom_site_occupancy
  Y  Y0  1  0.447623  0.000000  0.000000  1
  Y  Y1  1  0.000000  0.447623  0.000000  1
  Y  Y2  1  0.552377  0.552377  0.000000  1
  Y  Y3  1  0.333333  0.666667  0.000000  1
  Y  Y4  1  0.666667  0.333333  0.000000  1
  Y  Y5  1  0.823012  0.000000  0.500000  1
  Y  Y6  1  0.000000  0.823012  0.500000  1
  Y  Y7  1  0.176988  0.176988  0.500000  1
  Al  Al8  1  0.180295  0.376267  0.000000  1
  Al  Al9  1  0.623733  0.804030  0.000000  1
  Al  Al10  1  0.376267  0.180295  0.000000  1
  Al  Al11  1  0.195970  0.819705  0.000000  1
  Al  Al12  1  0.804030  0.623733  0.000000  1
  Al  Al13  1  0.819705  0.195970  0.000000  1
  Al  Al14  1  0.281771  0.000000  0.500000  1
  Al  Al15  1  0.000000  0.281771  0.500000  1
  Al  Al16  1  0.718229  0.718229  0.500000  1
  Al  Al17  1  0.351642  0.472542  0.500000  1
  Al  Al18  1  0.527458  0.879101  0.500000  1
  Al  Al19  1  0.472542  0.351642  0.500000  1
  Al  Al20  1  0.120899  0.648358  0.500000  1
  Al  Al21  1  0.879101  0.527458  0.500000  1
  Al  Al22  1  0.648358  0.120899  0.500000  1
  Al  Al23  1  0.000000  0.000000  0.000000  1
  Au  Au24  1  0.174909  0.490023  0.500000  1
  Au  Au25  1  0.509977  0.684886  0.500000  1
  Au  Au26  1  0.490023  0.174909  0.500000  1
  Au  Au27  1  0.315114  0.825091  0.500000  1
  Au  Au28  1  0.684886  0.509977  0.500000  1
  Au  Au29  1  0.825091  0.315114  0.500000  1
  Au  Au30  1  0.179232  0.000000  0.000000  1
  Au  Au31  1  0.000000  0.179232  0.000000  1
  Au  Au32  1  0.820768  0.820768  0.000000  1
  Au  Au33  1  0.656984  0.000000  0.000000  1
  Au  Au34  1  0.000000  0.656984  0.000000  1
  Au  Au35  1  0.343016  0.343016  0.000000  1
