# generated using pymatgen
data_Tm2Co9TcAs6
_symmetry_space_group_name_H-M   'P 1'
_cell_length_a   3.80238300
_cell_length_b   10.70581200
_cell_length_c   12.20193500
_cell_angle_alpha   90.00000000
_cell_angle_beta   90.00000000
_cell_angle_gamma   90.00000000
_symmetry_Int_Tables_number   1
_chemical_formula_structural   Tm2Co9TcAs6
_chemical_formula_sum   'Tm4 Co18 Tc2 As12'
_cell_volume   496.71145931
_cell_formula_units_Z   2
loop_
 _symmetry_equiv_pos_site_id
 _symmetry_equiv_pos_as_xyz
  1  'x, y, z'
loop_
 _atom_site_type_symbol
 _atom_site_label
 _atom_site_symmetry_multiplicity
 _atom_site_fract_x
 _atom_site_fract_y
 _atom_site_fract_z
 _atom_site_occupancy
  Tm  Tm0  1  0.250000  0.580606  0.701847  1
  Tm  Tm1  1  0.250000  0.919394  0.201847  1
  Tm  Tm2  1  0.750000  0.417322  0.295522  1
  Tm  Tm3  1  0.750000  0.082678  0.795522  1
  Co  Co4  1  0.750000  0.287907  0.009080  1
  Co  Co5  1  0.750000  0.212093  0.509080  1
  Co  Co6  1  0.250000  0.406615  0.488025  1
  Co  Co7  1  0.250000  0.093385  0.988025  1
  Co  Co8  1  0.750000  0.593129  0.512056  1
  Co  Co9  1  0.750000  0.906871  0.012056  1
  Co  Co10  1  0.250000  0.216198  0.177207  1
  Co  Co11  1  0.250000  0.283802  0.677207  1
  Co  Co12  1  0.750000  0.782797  0.823834  1
  Co  Co13  1  0.750000  0.717203  0.323834  1
  Co  Co14  1  0.250000  0.886465  0.699675  1
  Co  Co15  1  0.250000  0.613535  0.199675  1
  Co  Co16  1  0.750000  0.116407  0.302045  1
  Co  Co17  1  0.750000  0.383593  0.802045  1
  Co  Co18  1  0.250000  0.466461  0.932170  1
  Co  Co19  1  0.250000  0.033539  0.432170  1
  Co  Co20  1  0.750000  0.532648  0.068658  1
  Co  Co21  1  0.750000  0.967352  0.568658  1
  Tc  Tc22  1  0.250000  0.708262  0.989832  1
  Tc  Tc23  1  0.250000  0.791738  0.489832  1
  As  As24  1  0.250000  0.414925  0.114211  1
  As  As25  1  0.250000  0.085075  0.614211  1
  As  As26  1  0.750000  0.581286  0.884021  1
  As  As27  1  0.750000  0.918714  0.384021  1
  As  As28  1  0.250000  0.266939  0.868967  1
  As  As29  1  0.250000  0.233061  0.368967  1
  As  As30  1  0.750000  0.732632  0.133619  1
  As  As31  1  0.750000  0.767368  0.633619  1
  As  As32  1  0.250000  0.594552  0.389942  1
  As  As33  1  0.250000  0.905448  0.889942  1
  As  As34  1  0.750000  0.399583  0.609289  1
  As  As35  1  0.750000  0.100417  0.109289  1
