# generated using pymatgen
data_Ho(TaC)5
_symmetry_space_group_name_H-M   'P 1'
_cell_length_a   5.52390575
_cell_length_b   5.59182127
_cell_length_c   5.61129659
_cell_angle_alpha   99.14483825
_cell_angle_beta   101.11389512
_cell_angle_gamma   119.48097577
_symmetry_Int_Tables_number   1
_chemical_formula_structural   Ho(TaC)5
_chemical_formula_sum   'Ho1 Ta5 C5'
_cell_volume   141.36770233
_cell_formula_units_Z   1
loop_
 _symmetry_equiv_pos_site_id
 _symmetry_equiv_pos_as_xyz
  1  'x, y, z'
loop_
 _atom_site_type_symbol
 _atom_site_label
 _atom_site_symmetry_multiplicity
 _atom_site_fract_x
 _atom_site_fract_y
 _atom_site_fract_z
 _atom_site_occupancy
  Ho  Ho0  1  0.402824  0.077775  0.234472  1
  Ta  Ta1  1  0.081259  0.441571  0.254201  1
  Ta  Ta2  1  0.733991  0.739734  0.275733  1
  Ta  Ta3  1  0.279682  0.270846  0.733610  1
  Ta  Ta4  1  0.918136  0.547116  0.739036  1
  Ta  Ta5  1  0.566620  0.917293  0.749796  1
  C  C6  1  0.677504  0.344524  0.994803  1
  C  C7  1  0.333562  0.652401  0.992955  1
  C  C8  1  0.839834  0.166424  0.504538  1
  C  C9  1  0.506408  0.515328  0.511716  1
  C  C10  1  0.160186  0.826993  0.509139  1
