# generated using pymatgen
data_Tb2Dy6Tc3B24Os
_symmetry_space_group_name_H-M   'P 1'
_cell_length_a   3.68151900
_cell_length_b   9.16763700
_cell_length_c   11.55846101
_cell_angle_alpha   89.95637558
_cell_angle_beta   90.00000000
_cell_angle_gamma   90.00000000
_symmetry_Int_Tables_number   1
_chemical_formula_structural   Tb2Dy6Tc3B24Os
_chemical_formula_sum   'Tb2 Dy6 Tc3 B24 Os1'
_cell_volume   390.10753724
_cell_formula_units_Z   1
loop_
 _symmetry_equiv_pos_site_id
 _symmetry_equiv_pos_as_xyz
  1  'x, y, z'
loop_
 _atom_site_type_symbol
 _atom_site_label
 _atom_site_symmetry_multiplicity
 _atom_site_fract_x
 _atom_site_fract_y
 _atom_site_fract_z
 _atom_site_occupancy
  Tb  Tb0  1  0.000000  0.323761  0.413764  1
  Tb  Tb1  1  0.000000  0.675525  0.584327  1
  Dy  Dy2  1  0.000000  0.823046  0.087210  1
  Dy  Dy3  1  0.000000  0.177760  0.914704  1
  Dy  Dy4  1  0.000000  0.942297  0.369798  1
  Dy  Dy5  1  0.000000  0.058320  0.630144  1
  Dy  Dy6  1  0.000000  0.442725  0.130301  1
  Dy  Dy7  1  0.000000  0.557204  0.869513  1
  Tc  Tc8  1  0.000000  0.638397  0.320487  1
  Tc  Tc9  1  0.000000  0.361612  0.680072  1
  Tc  Tc10  1  0.000000  0.137653  0.178129  1
  B  B11  1  0.500000  0.553336  0.432564  1
  B  B12  1  0.500000  0.446734  0.567121  1
  B  B13  1  0.500000  0.053138  0.067040  1
  B  B14  1  0.500000  0.946283  0.932827  1
  B  B15  1  0.500000  0.748245  0.418215  1
  B  B16  1  0.500000  0.251402  0.581693  1
  B  B17  1  0.500000  0.248666  0.081469  1
  B  B18  1  0.500000  0.751736  0.918246  1
  B  B19  1  0.500000  0.791183  0.265539  1
  B  B20  1  0.500000  0.208893  0.735046  1
  B  B21  1  0.500000  0.290980  0.234348  1
  B  B22  1  0.500000  0.709666  0.765620  1
  B  B23  1  0.500000  0.631105  0.185783  1
  B  B24  1  0.500000  0.368851  0.814744  1
  B  B25  1  0.500000  0.130426  0.313689  1
  B  B26  1  0.500000  0.869130  0.686197  1
  B  B27  1  0.500000  0.982122  0.211627  1
  B  B28  1  0.500000  0.016833  0.788361  1
  B  B29  1  0.500000  0.482723  0.287934  1
  B  B30  1  0.500000  0.517218  0.711864  1
  B  B31  1  0.500000  0.602100  0.028242  1
  B  B32  1  0.500000  0.398829  0.971634  1
  B  B33  1  0.500000  0.101526  0.471793  1
  B  B34  1  0.500000  0.898493  0.528604  1
  Os  Os35  1  0.000000  0.862079  0.821351  1
