# generated using pymatgen
data_Ho5Ta3(ReB6)4
_symmetry_space_group_name_H-M   'P 1'
_cell_length_a   3.58165800
_cell_length_b   8.97042649
_cell_length_c   11.35210570
_cell_angle_alpha   89.91106637
_cell_angle_beta   90.00000000
_cell_angle_gamma   90.00000000
_symmetry_Int_Tables_number   1
_chemical_formula_structural   Ho5Ta3(ReB6)4
_chemical_formula_sum   'Ho5 Ta3 Re4 B24'
_cell_volume   364.73136234
_cell_formula_units_Z   1
loop_
 _symmetry_equiv_pos_site_id
 _symmetry_equiv_pos_as_xyz
  1  'x, y, z'
loop_
 _atom_site_type_symbol
 _atom_site_label
 _atom_site_symmetry_multiplicity
 _atom_site_fract_x
 _atom_site_fract_y
 _atom_site_fract_z
 _atom_site_occupancy
  Ho  Ho0  1  0.000000  0.322020  0.414159  1
  Ho  Ho1  1  0.000000  0.677032  0.587619  1
  Ho  Ho2  1  0.000000  0.822294  0.085917  1
  Ho  Ho3  1  0.000000  0.177546  0.912419  1
  Ho  Ho4  1  0.000000  0.945354  0.374039  1
  Ta  Ta5  1  0.000000  0.055730  0.628750  1
  Ta  Ta6  1  0.000000  0.445529  0.123249  1
  Ta  Ta7  1  0.000000  0.555444  0.875942  1
  Re  Re8  1  0.000000  0.634071  0.314442  1
  Re  Re9  1  0.000000  0.358530  0.684439  1
  Re  Re10  1  0.000000  0.148124  0.177443  1
  Re  Re11  1  0.000000  0.856873  0.819962  1
  B  B12  1  0.500000  0.550835  0.433344  1
  B  B13  1  0.500000  0.444734  0.567383  1
  B  B14  1  0.500000  0.055632  0.065170  1
  B  B15  1  0.500000  0.945849  0.933466  1
  B  B16  1  0.500000  0.747817  0.417415  1
  B  B17  1  0.500000  0.245838  0.584033  1
  B  B18  1  0.500000  0.256013  0.079593  1
  B  B19  1  0.500000  0.745378  0.918568  1
  B  B20  1  0.500000  0.792656  0.262428  1
  B  B21  1  0.500000  0.204162  0.738334  1
  B  B22  1  0.500000  0.297374  0.233955  1
  B  B23  1  0.500000  0.703577  0.763611  1
  B  B24  1  0.500000  0.627660  0.181200  1
  B  B25  1  0.500000  0.371669  0.818704  1
  B  B26  1  0.500000  0.133671  0.314926  1
  B  B27  1  0.500000  0.871116  0.683106  1
  B  B28  1  0.500000  0.984311  0.210877  1
  B  B29  1  0.500000  0.018852  0.787551  1
  B  B30  1  0.500000  0.479320  0.285480  1
  B  B31  1  0.500000  0.519666  0.713777  1
  B  B32  1  0.500000  0.599163  0.025425  1
  B  B33  1  0.500000  0.402086  0.972581  1
  B  B34  1  0.500000  0.102362  0.478694  1
  B  B35  1  0.500000  0.901714  0.532000  1
