# generated using pymatgen
data_Ho6Lu6Os3Rh
_symmetry_space_group_name_H-M   'P 1'
_cell_length_a   7.31057652
_cell_length_b   8.91386239
_cell_length_c   6.27257616
_cell_angle_alpha   90.22578119
_cell_angle_beta   90.11966691
_cell_angle_gamma   90.01198129
_symmetry_Int_Tables_number   1
_chemical_formula_structural   Ho6Lu6Os3Rh
_chemical_formula_sum   'Ho6 Lu6 Os3 Rh1'
_cell_volume   408.75131766
_cell_formula_units_Z   1
loop_
 _symmetry_equiv_pos_site_id
 _symmetry_equiv_pos_as_xyz
  1  'x, y, z'
loop_
 _atom_site_type_symbol
 _atom_site_label
 _atom_site_symmetry_multiplicity
 _atom_site_fract_x
 _atom_site_fract_y
 _atom_site_fract_z
 _atom_site_occupancy
  Ho  Ho0  1  0.672590  0.059760  0.334573  1
  Ho  Ho1  1  0.179225  0.439290  0.167624  1
  Ho  Ho2  1  0.538993  0.250313  0.873396  1
  Ho  Ho3  1  0.038041  0.249764  0.628465  1
  Ho  Ho4  1  0.462585  0.749904  0.123014  1
  Ho  Ho5  1  0.963101  0.750087  0.373393  1
  Lu  Lu6  1  0.325037  0.562975  0.668664  1
  Lu  Lu7  1  0.823484  0.933187  0.828332  1
  Lu  Lu8  1  0.324394  0.937098  0.669090  1
  Lu  Lu9  1  0.822722  0.566853  0.828331  1
  Lu  Lu10  1  0.671651  0.440427  0.335230  1
  Lu  Lu11  1  0.178307  0.060430  0.167574  1
  Os  Os12  1  0.383382  0.250043  0.463091  1
  Os  Os13  1  0.115195  0.751258  0.959606  1
  Os  Os14  1  0.615843  0.748733  0.537952  1
  Rh  Rh15  1  0.885450  0.249878  0.041664  1
