# generated using pymatgen
data_Tb2Er5Tm(SiBr6)2
_symmetry_space_group_name_H-M   'P 1'
_cell_length_a   4.03194400
_cell_length_b   13.18566349
_cell_length_c   13.93152432
_cell_angle_alpha   90.39576650
_cell_angle_beta   90.00000000
_cell_angle_gamma   90.00000000
_symmetry_Int_Tables_number   1
_chemical_formula_structural   Tb2Er5Tm(SiBr6)2
_chemical_formula_sum   'Tb2 Er5 Tm1 Si2 Br12'
_cell_volume   740.63589428
_cell_formula_units_Z   1
loop_
 _symmetry_equiv_pos_site_id
 _symmetry_equiv_pos_as_xyz
  1  'x, y, z'
loop_
 _atom_site_type_symbol
 _atom_site_label
 _atom_site_symmetry_multiplicity
 _atom_site_fract_x
 _atom_site_fract_y
 _atom_site_fract_z
 _atom_site_occupancy
  Tb  Tb0  1  0.000000  0.619056  0.920709  1
  Tb  Tb1  1  0.000000  0.380975  0.079339  1
  Er  Er2  1  0.500000  0.117324  0.342328  1
  Er  Er3  1  0.500000  0.882681  0.657662  1
  Er  Er4  1  0.500000  0.618170  0.158651  1
  Er  Er5  1  0.000000  0.116899  0.578095  1
  Er  Er6  1  0.000000  0.883119  0.421933  1
  Tm  Tm7  1  0.500000  0.381877  0.841412  1
  Si  Si8  1  0.500000  0.000013  0.500014  1
  Si  Si9  1  0.500000  0.499778  0.999690  1
  Br  Br10  1  0.500000  0.241083  0.166085  1
  Br  Br11  1  0.500000  0.758885  0.833876  1
  Br  Br12  1  0.500000  0.746987  0.336860  1
  Br  Br13  1  0.500000  0.253255  0.663527  1
  Br  Br14  1  0.000000  0.254396  0.412356  1
  Br  Br15  1  0.000000  0.745588  0.587662  1
  Br  Br16  1  0.000000  0.755871  0.092253  1
  Br  Br17  1  0.000000  0.244733  0.907172  1
  Br  Br18  1  0.000000  0.001538  0.243948  1
  Br  Br19  1  0.000000  0.998449  0.756063  1
  Br  Br20  1  0.000000  0.505954  0.259118  1
  Br  Br21  1  0.000000  0.493368  0.741246  1
