# generated using pymatgen
data_TbCe4Tm5(CoBi2)2
_symmetry_space_group_name_H-M   'P 1'
_cell_length_a   7.89424501
_cell_length_b   9.03899800
_cell_length_c   12.09739876
_cell_angle_alpha   90.00000000
_cell_angle_beta   90.24515071
_cell_angle_gamma   90.00000000
_symmetry_Int_Tables_number   1
_chemical_formula_structural   TbCe4Tm5(CoBi2)2
_chemical_formula_sum   'Tb2 Ce8 Tm10 Co4 Bi8'
_cell_volume   863.21486954
_cell_formula_units_Z   2
loop_
 _symmetry_equiv_pos_site_id
 _symmetry_equiv_pos_as_xyz
  1  'x, y, z'
loop_
 _atom_site_type_symbol
 _atom_site_label
 _atom_site_symmetry_multiplicity
 _atom_site_fract_x
 _atom_site_fract_y
 _atom_site_fract_z
 _atom_site_occupancy
  Tb  Tb0  1  0.481746  0.250000  0.000632  1
  Tb  Tb1  1  0.518254  0.750000  0.999368  1
  Ce  Ce2  1  0.656699  0.013892  0.550869  1
  Ce  Ce3  1  0.343301  0.986108  0.449131  1
  Ce  Ce4  1  0.155725  0.985882  0.948269  1
  Ce  Ce5  1  0.343301  0.513892  0.449131  1
  Ce  Ce6  1  0.844275  0.014118  0.051731  1
  Ce  Ce7  1  0.656699  0.486108  0.550869  1
  Ce  Ce8  1  0.844275  0.485882  0.051731  1
  Ce  Ce9  1  0.155725  0.514118  0.948269  1
  Tm  Tm10  1  0.834184  0.750000  0.790037  1
  Tm  Tm11  1  0.165816  0.250000  0.209963  1
  Tm  Tm12  1  0.333551  0.250000  0.707661  1
  Tm  Tm13  1  0.666449  0.750000  0.292339  1
  Tm  Tm14  1  0.368129  0.750000  0.699072  1
  Tm  Tm15  1  0.631871  0.250000  0.300928  1
  Tm  Tm16  1  0.868791  0.250000  0.798621  1
  Tm  Tm17  1  0.131209  0.750000  0.201379  1
  Tm  Tm18  1  0.978853  0.750000  0.499882  1
  Tm  Tm19  1  0.021147  0.250000  0.500118  1
  Co  Co20  1  0.631394  0.750000  0.538258  1
  Co  Co21  1  0.368606  0.250000  0.461742  1
  Co  Co22  1  0.127781  0.250000  0.961690  1
  Co  Co23  1  0.872219  0.750000  0.038310  1
  Bi  Bi24  1  0.567055  0.493025  0.822876  1
  Bi  Bi25  1  0.432945  0.506975  0.177124  1
  Bi  Bi26  1  0.065774  0.507065  0.674345  1
  Bi  Bi27  1  0.432945  0.993025  0.177124  1
  Bi  Bi28  1  0.934226  0.492935  0.325655  1
  Bi  Bi29  1  0.567055  0.006975  0.822876  1
  Bi  Bi30  1  0.934226  0.007065  0.325655  1
  Bi  Bi31  1  0.065774  0.992935  0.674345  1
