# generated using pymatgen
data_Mg2Al4PdPt9
_symmetry_space_group_name_H-M   'P 1'
_cell_length_a   4.06020500
_cell_length_b   5.49409298
_cell_length_c   10.81088007
_cell_angle_alpha   89.69818246
_cell_angle_beta   90.00000000
_cell_angle_gamma   90.00000000
_symmetry_Int_Tables_number   1
_chemical_formula_structural   Mg2Al4PdPt9
_chemical_formula_sum   'Mg2 Al4 Pd1 Pt9'
_cell_volume   241.15651024
_cell_formula_units_Z   1
loop_
 _symmetry_equiv_pos_site_id
 _symmetry_equiv_pos_as_xyz
  1  'x, y, z'
loop_
 _atom_site_type_symbol
 _atom_site_label
 _atom_site_symmetry_multiplicity
 _atom_site_fract_x
 _atom_site_fract_y
 _atom_site_fract_z
 _atom_site_occupancy
  Mg  Mg0  1  0.500000  0.183583  0.638599  1
  Mg  Mg1  1  0.500000  0.816417  0.361401  1
  Al  Al2  1  0.500000  0.678807  0.855844  1
  Al  Al3  1  0.500000  0.321193  0.144156  1
  Al  Al4  1  0.000000  0.500000  0.500000  1
  Al  Al5  1  0.000000  0.000000  0.000000  1
  Pd  Pd6  1  0.000000  0.500000  0.000000  1
  Pt  Pt7  1  0.500000  0.306407  0.388896  1
  Pt  Pt8  1  0.500000  0.693593  0.611104  1
  Pt  Pt9  1  0.500000  0.797000  0.100869  1
  Pt  Pt10  1  0.500000  0.203000  0.899131  1
  Pt  Pt11  1  0.000000  0.435434  0.742850  1
  Pt  Pt12  1  0.000000  0.564566  0.257150  1
  Pt  Pt13  1  0.000000  0.932319  0.768030  1
  Pt  Pt14  1  0.000000  0.067681  0.231970  1
  Pt  Pt15  1  0.000000  0.000000  0.500000  1
