# generated using pymatgen
data_Sm8Hf(IO8)3
_symmetry_space_group_name_H-M   'P 1'
_cell_length_a   5.58615813
_cell_length_b   7.85590249
_cell_length_c   11.88893604
_cell_angle_alpha   76.36122715
_cell_angle_beta   90.26688743
_cell_angle_gamma   89.67176490
_symmetry_Int_Tables_number   1
_chemical_formula_structural   Sm8Hf(IO8)3
_chemical_formula_sum   'Sm8 Hf1 I3 O24'
_cell_volume   507.00764144
_cell_formula_units_Z   1
loop_
 _symmetry_equiv_pos_site_id
 _symmetry_equiv_pos_as_xyz
  1  'x, y, z'
loop_
 _atom_site_type_symbol
 _atom_site_label
 _atom_site_symmetry_multiplicity
 _atom_site_fract_x
 _atom_site_fract_y
 _atom_site_fract_z
 _atom_site_occupancy
  Sm  Sm0  1  0.742491  0.974727  0.755707  1
  Sm  Sm1  1  0.256694  0.012295  0.254534  1
  Sm  Sm2  1  0.195045  0.777371  0.586527  1
  Sm  Sm3  1  0.816649  0.802397  0.066796  1
  Sm  Sm4  1  0.679256  0.505888  0.758566  1
  Sm  Sm5  1  0.304131  0.505653  0.238777  1
  Sm  Sm6  1  0.196549  0.200465  0.924263  1
  Sm  Sm7  1  0.801475  0.222607  0.423055  1
  Hf  Hf8  1  0.256371  0.717443  0.889096  1
  I  I9  1  0.745821  0.734738  0.381035  1
  I  I10  1  0.250016  0.267491  0.617922  1
  I  I11  1  0.745057  0.278378  0.113033  1
  O  O12  1  0.028259  0.940587  0.897414  1
  O  O13  1  0.536668  0.857765  0.926888  1
  O  O14  1  0.924981  0.946154  0.392531  1
  O  O15  1  0.471555  0.772652  0.724535  1
  O  O16  1  0.467529  0.835542  0.432778  1
  O  O17  1  0.978102  0.711090  0.761239  1
  O  O18  1  0.578909  0.816930  0.232899  1
  O  O19  1  0.853933  0.641366  0.532072  1
  O  O20  1  0.368030  0.473574  0.884258  1
  O  O21  1  0.020550  0.708198  0.287072  1
  O  O22  1  0.376841  0.488628  0.617166  1
  O  O23  1  0.851101  0.355372  0.954881  1
  O  O24  1  0.150288  0.639780  0.060459  1
  O  O25  1  0.626684  0.513161  0.375652  1
  O  O26  1  0.982548  0.298188  0.715280  1
  O  O27  1  0.629148  0.508347  0.107220  1
  O  O28  1  0.138524  0.363021  0.465982  1
  O  O29  1  0.422351  0.183771  0.761856  1
  O  O30  1  0.029925  0.288280  0.242966  1
  O  O31  1  0.518621  0.162291  0.562461  1
  O  O32  1  0.534234  0.224394  0.272108  1
  O  O33  1  0.064314  0.060829  0.604352  1
  O  O34  1  0.478641  0.149367  0.072767  1
  O  O35  1  0.978710  0.061258  0.105853  1
