# generated using pymatgen
data_B4Pd7Pt5
_symmetry_space_group_name_H-M   'P 1'
_cell_length_a   4.87823265
_cell_length_b   5.55573174
_cell_length_c   7.83735309
_cell_angle_alpha   90.07724564
_cell_angle_beta   89.96696969
_cell_angle_gamma   89.95214224
_symmetry_Int_Tables_number   1
_chemical_formula_structural   B4Pd7Pt5
_chemical_formula_sum   'B4 Pd7 Pt5'
_cell_volume   212.40883177
_cell_formula_units_Z   1
loop_
 _symmetry_equiv_pos_site_id
 _symmetry_equiv_pos_as_xyz
  1  'x, y, z'
loop_
 _atom_site_type_symbol
 _atom_site_label
 _atom_site_symmetry_multiplicity
 _atom_site_fract_x
 _atom_site_fract_y
 _atom_site_fract_z
 _atom_site_occupancy
  B  B0  1  0.577910  0.104462  0.751572  1
  B  B1  1  0.078122  0.391568  0.245771  1
  B  B2  1  0.919677  0.608975  0.746521  1
  B  B3  1  0.422431  0.892897  0.249588  1
  Pd  Pd4  1  0.836437  0.038345  0.249142  1
  Pd  Pd5  1  0.334258  0.461416  0.751970  1
  Pd  Pd6  1  0.665188  0.539124  0.253484  1
  Pd  Pd7  1  0.163313  0.962278  0.749064  1
  Pd  Pd8  1  0.179260  0.679215  0.432030  1
  Pd  Pd9  1  0.822638  0.321451  0.931855  1
  Pd  Pd10  1  0.323603  0.179630  0.066600  1
  Pt  Pt11  1  0.682458  0.819156  0.928470  1
  Pt  Pt12  1  0.182267  0.680600  0.076085  1
  Pt  Pt13  1  0.816198  0.318475  0.575033  1
  Pt  Pt14  1  0.317252  0.181568  0.422479  1
  Pt  Pt15  1  0.678988  0.820840  0.570335  1
