# generated using pymatgen
data_Th2(TcB2)3
_symmetry_space_group_name_H-M   'P 1'
_cell_length_a   6.33926155
_cell_length_b   6.33926115
_cell_length_c   7.64915238
_cell_angle_alpha   90.83820339
_cell_angle_beta   90.83819077
_cell_angle_gamma   115.07098031
_symmetry_Int_Tables_number   1
_chemical_formula_structural   Th2(TcB2)3
_chemical_formula_sum   'Th4 Tc6 B12'
_cell_volume   278.32595491
_cell_formula_units_Z   2
loop_
 _symmetry_equiv_pos_site_id
 _symmetry_equiv_pos_as_xyz
  1  'x, y, z'
loop_
 _atom_site_type_symbol
 _atom_site_label
 _atom_site_symmetry_multiplicity
 _atom_site_fract_x
 _atom_site_fract_y
 _atom_site_fract_z
 _atom_site_occupancy
  Th  Th0  1  0.095384  0.438041  0.325768  1
  Th  Th1  1  0.561959  0.904616  0.174232  1
  Th  Th2  1  0.904616  0.561959  0.674232  1
  Th  Th3  1  0.438041  0.095384  0.825768  1
  Tc  Tc4  1  0.588459  0.411541  0.250000  1
  Tc  Tc5  1  0.411541  0.588459  0.750000  1
  Tc  Tc6  1  0.991569  0.804180  0.086748  1
  Tc  Tc7  1  0.195820  0.008431  0.413252  1
  Tc  Tc8  1  0.008431  0.195820  0.913252  1
  Tc  Tc9  1  0.804180  0.991569  0.586748  1
  B  B10  1  0.245867  0.153769  0.133089  1
  B  B11  1  0.846231  0.754133  0.366911  1
  B  B12  1  0.754133  0.846231  0.866911  1
  B  B13  1  0.153769  0.245867  0.633089  1
  B  B14  1  0.582773  0.161199  0.482823  1
  B  B15  1  0.838801  0.417227  0.017177  1
  B  B16  1  0.417227  0.838801  0.517177  1
  B  B17  1  0.161199  0.582773  0.982823  1
  B  B18  1  0.444354  0.349920  0.533624  1
  B  B19  1  0.650080  0.555646  0.966376  1
  B  B20  1  0.555646  0.650080  0.466376  1
  B  B21  1  0.349920  0.444354  0.033624  1
