# generated using pymatgen
data_Nd6CuSi2AuSe14
_symmetry_space_group_name_H-M   'P 1'
_cell_length_a   10.67888300
_cell_length_b   10.67885087
_cell_length_c   6.10504900
_cell_angle_alpha   90.00030373
_cell_angle_beta   89.99991015
_cell_angle_gamma   119.99976536
_symmetry_Int_Tables_number   1
_chemical_formula_structural   Nd6CuSi2AuSe14
_chemical_formula_sum   'Nd6 Cu1 Si2 Au1 Se14'
_cell_volume   602.93592640
_cell_formula_units_Z   1
loop_
 _symmetry_equiv_pos_site_id
 _symmetry_equiv_pos_as_xyz
  1  'x, y, z'
loop_
 _atom_site_type_symbol
 _atom_site_label
 _atom_site_symmetry_multiplicity
 _atom_site_fract_x
 _atom_site_fract_y
 _atom_site_fract_z
 _atom_site_occupancy
  Nd  Nd0  1  0.130011  0.355214  0.254681  1
  Nd  Nd1  1  0.869451  0.642960  0.753236  1
  Nd  Nd2  1  0.644796  0.774796  0.254683  1
  Nd  Nd3  1  0.225206  0.869998  0.254684  1
  Nd  Nd4  1  0.773510  0.130551  0.753234  1
  Nd  Nd5  1  0.357038  0.226490  0.753248  1
  Cu  Cu6  1  0.999959  0.999987  0.786235  1
  Si  Si7  1  0.333337  0.666673  0.666655  1
  Si  Si8  1  0.666666  0.333328  0.164269  1
  Au  Au9  1  0.000015  0.000001  0.283126  1
  Se  Se10  1  0.333339  0.666670  0.039231  1
  Se  Se11  1  0.666652  0.333332  0.537031  1
  Se  Se12  1  0.093980  0.256269  0.773116  1
  Se  Se13  1  0.900460  0.727618  0.270868  1
  Se  Se14  1  0.743723  0.837695  0.773115  1
  Se  Se15  1  0.162282  0.906028  0.773130  1
  Se  Se16  1  0.827166  0.099534  0.270851  1
  Se  Se17  1  0.272398  0.172854  0.270870  1
  Se  Se18  1  0.417648  0.523712  0.517729  1
  Se  Se19  1  0.582387  0.476720  0.015513  1
  Se  Se20  1  0.476295  0.893939  0.517728  1
  Se  Se21  1  0.106072  0.582361  0.517730  1
  Se  Se22  1  0.894332  0.417611  0.015519  1
  Se  Se23  1  0.523280  0.105662  0.015516  1
