# generated using pymatgen
data_Ta18V8CuSi
_symmetry_space_group_name_H-M   'P 1'
_cell_length_a   9.92376191
_cell_length_b   9.92376436
_cell_length_c   9.92376200
_cell_angle_alpha   93.85909436
_cell_angle_beta   93.85906060
_cell_angle_gamma   149.92776099
_symmetry_Int_Tables_number   1
_chemical_formula_structural   Ta18V8CuSi
_chemical_formula_sum   'Ta18 V8 Cu1 Si1'
_cell_volume   472.95143430
_cell_formula_units_Z   1
loop_
 _symmetry_equiv_pos_site_id
 _symmetry_equiv_pos_as_xyz
  1  'x, y, z'
loop_
 _atom_site_type_symbol
 _atom_site_label
 _atom_site_symmetry_multiplicity
 _atom_site_fract_x
 _atom_site_fract_y
 _atom_site_fract_z
 _atom_site_occupancy
  Ta  Ta0  1  0.564931  0.793422  0.358781  1
  Ta  Ta1  1  0.085020  0.157053  0.242746  1
  Ta  Ta2  1  0.585694  0.342947  0.927966  1
  Ta  Ta3  1  0.657725  0.585694  0.242746  1
  Ta  Ta4  1  0.342949  0.414980  0.757254  1
  Ta  Ta5  1  0.793422  0.434642  0.228491  1
  Ta  Ta6  1  0.414980  0.657727  0.072034  1
  Ta  Ta7  1  0.157054  0.914306  0.072032  1
  Ta  Ta8  1  0.706579  0.935070  0.641219  1
  Ta  Ta9  1  0.434641  0.206150  0.641219  1
  Ta  Ta10  1  0.914306  0.842273  0.757254  1
  Ta  Ta11  1  0.065358  0.706578  0.771509  1
  Ta  Ta12  1  0.206150  0.564930  0.771509  1
  Ta  Ta13  1  0.250000  0.750000  0.500000  1
  Ta  Ta14  1  0.293849  0.065358  0.358781  1
  Ta  Ta15  1  0.750000  0.250000  0.500000  1
  Ta  Ta16  1  0.842272  0.085020  0.927968  1
  Ta  Ta17  1  0.935070  0.293850  0.228491  1
  V  V18  1  0.366345  0.866345  0.232691  1
  V  V19  1  0.866345  0.633655  0.500000  1
  V  V20  1  0.499705  0.000295  0.000000  1
  V  V21  1  0.133655  0.366345  0.500000  1
  V  V22  1  0.633655  0.133655  0.767309  1
  V  V23  1  0.000295  0.499705  0.000000  1
  V  V24  1  0.499705  0.499705  0.499412  1
  V  V25  1  0.000295  0.000295  0.500588  1
  Cu  Cu26  1  0.749999  0.750000  0.999999  1
  Si  Si27  1  0.250001  0.250000  0.000001  1
