# generated using pymatgen
data_YTh(Ni4Pt)2
_symmetry_space_group_name_H-M   'P 1'
_cell_length_a   4.06043100
_cell_length_b   5.12428564
_cell_length_c   8.55019125
_cell_angle_alpha   93.52844850
_cell_angle_beta   90.00000000
_cell_angle_gamma   90.00000000
_symmetry_Int_Tables_number   1
_chemical_formula_structural   YTh(Ni4Pt)2
_chemical_formula_sum   'Y1 Th1 Ni8 Pt2'
_cell_volume   177.56495226
_cell_formula_units_Z   1
loop_
 _symmetry_equiv_pos_site_id
 _symmetry_equiv_pos_as_xyz
  1  'x, y, z'
loop_
 _atom_site_type_symbol
 _atom_site_label
 _atom_site_symmetry_multiplicity
 _atom_site_fract_x
 _atom_site_fract_y
 _atom_site_fract_z
 _atom_site_occupancy
  Y  Y0  1  0.000000  0.500000  0.500000  1
  Th  Th1  1  0.000000  0.000000  0.000000  1
  Ni  Ni2  1  0.000000  0.977383  0.342403  1
  Ni  Ni3  1  0.000000  0.475056  0.840757  1
  Ni  Ni4  1  0.000000  0.524944  0.159243  1
  Ni  Ni5  1  0.000000  0.022617  0.657597  1
  Ni  Ni6  1  0.500000  0.000000  0.500000  1
  Ni  Ni7  1  0.500000  0.500000  0.000000  1
  Ni  Ni8  1  0.500000  0.751038  0.251067  1
  Ni  Ni9  1  0.500000  0.248962  0.748933  1
  Pt  Pt10  1  0.500000  0.251970  0.251576  1
  Pt  Pt11  1  0.500000  0.748030  0.748424  1
