# generated using pymatgen
data_La2Sb4RuRh2
_symmetry_space_group_name_H-M   'P 1'
_cell_length_a   4.64575000
_cell_length_b   11.00512300
_cell_length_c   16.48763000
_cell_angle_alpha   90.00000000
_cell_angle_beta   90.00000000
_cell_angle_gamma   90.00000000
_symmetry_Int_Tables_number   1
_chemical_formula_structural   La2Sb4RuRh2
_chemical_formula_sum   'La8 Sb16 Ru4 Rh8'
_cell_volume   842.96388631
_cell_formula_units_Z   4
loop_
 _symmetry_equiv_pos_site_id
 _symmetry_equiv_pos_as_xyz
  1  'x, y, z'
loop_
 _atom_site_type_symbol
 _atom_site_label
 _atom_site_symmetry_multiplicity
 _atom_site_fract_x
 _atom_site_fract_y
 _atom_site_fract_z
 _atom_site_occupancy
  La  La0  1  0.250000  0.750446  0.506395  1
  La  La1  1  0.250000  0.749554  0.006395  1
  La  La2  1  0.750000  0.249554  0.493605  1
  La  La3  1  0.750000  0.250446  0.993605  1
  La  La4  1  0.250000  0.587039  0.749066  1
  La  La5  1  0.250000  0.912961  0.249066  1
  La  La6  1  0.750000  0.412961  0.250934  1
  La  La7  1  0.750000  0.087039  0.750934  1
  Sb  Sb8  1  0.250000  0.278906  0.651471  1
  Sb  Sb9  1  0.250000  0.221094  0.151471  1
  Sb  Sb10  1  0.750000  0.721094  0.348529  1
  Sb  Sb11  1  0.750000  0.778906  0.848529  1
  Sb  Sb12  1  0.250000  0.883923  0.707762  1
  Sb  Sb13  1  0.250000  0.616077  0.207762  1
  Sb  Sb14  1  0.750000  0.116077  0.292238  1
  Sb  Sb15  1  0.750000  0.383923  0.792238  1
  Sb  Sb16  1  0.250000  0.057754  0.896642  1
  Sb  Sb17  1  0.250000  0.442246  0.396642  1
  Sb  Sb18  1  0.750000  0.942246  0.103358  1
  Sb  Sb19  1  0.750000  0.557754  0.603358  1
  Sb  Sb20  1  0.250000  0.449495  0.931657  1
  Sb  Sb21  1  0.250000  0.050505  0.431657  1
  Sb  Sb22  1  0.750000  0.550505  0.068343  1
  Sb  Sb23  1  0.750000  0.949495  0.568343  1
  Ru  Ru24  1  0.250000  0.465995  0.555476  1
  Ru  Ru25  1  0.250000  0.034005  0.055476  1
  Ru  Ru26  1  0.750000  0.534005  0.444524  1
  Ru  Ru27  1  0.750000  0.965995  0.944524  1
  Rh  Rh28  1  0.250000  0.057428  0.591709  1
  Rh  Rh29  1  0.250000  0.442572  0.091709  1
  Rh  Rh30  1  0.750000  0.942572  0.408291  1
  Rh  Rh31  1  0.750000  0.557428  0.908291  1
  Rh  Rh32  1  0.250000  0.276255  0.818349  1
  Rh  Rh33  1  0.250000  0.223745  0.318349  1
  Rh  Rh34  1  0.750000  0.723745  0.181651  1
  Rh  Rh35  1  0.750000  0.776255  0.681651  1
