# generated using pymatgen
data_Ba6Lu2NiPdO12
_symmetry_space_group_name_H-M   'P 1'
_cell_length_a   7.14034836
_cell_length_b   7.14034939
_cell_length_c   7.14034893
_cell_angle_alpha   93.67964366
_cell_angle_beta   93.67965757
_cell_angle_gamma   93.67964484
_symmetry_Int_Tables_number   1
_chemical_formula_structural   Ba6Lu2NiPdO12
_chemical_formula_sum   'Ba6 Lu2 Ni1 Pd1 O12'
_cell_volume   361.69471350
_cell_formula_units_Z   1
loop_
 _symmetry_equiv_pos_site_id
 _symmetry_equiv_pos_as_xyz
  1  'x, y, z'
loop_
 _atom_site_type_symbol
 _atom_site_label
 _atom_site_symmetry_multiplicity
 _atom_site_fract_x
 _atom_site_fract_y
 _atom_site_fract_z
 _atom_site_occupancy
  Ba  Ba0  1  0.377157  0.112273  0.753210  1
  Ba  Ba1  1  0.753210  0.377158  0.112274  1
  Ba  Ba2  1  0.246789  0.622843  0.887727  1
  Ba  Ba3  1  0.622842  0.887726  0.246791  1
  Ba  Ba4  1  0.112274  0.753210  0.377158  1
  Ba  Ba5  1  0.887726  0.246790  0.622843  1
  Lu  Lu6  1  0.757076  0.757077  0.757076  1
  Lu  Lu7  1  0.242925  0.242924  0.242924  1
  Ni  Ni8  1  0.000000  0.000000  0.000000  1
  Pd  Pd9  1  0.500000  0.500000  0.500000  1
  O  O10  1  0.777957  0.592777  0.470234  1
  O  O11  1  0.592778  0.470233  0.777957  1
  O  O12  1  0.470233  0.777957  0.592778  1
  O  O13  1  0.029822  0.896838  0.710433  1
  O  O14  1  0.896837  0.710432  0.029822  1
  O  O15  1  0.710433  0.029822  0.896837  1
  O  O16  1  0.222044  0.407222  0.529767  1
  O  O17  1  0.407222  0.529766  0.222044  1
  O  O18  1  0.529766  0.222044  0.407221  1
  O  O19  1  0.970178  0.103163  0.289568  1
  O  O20  1  0.289568  0.970177  0.103162  1
  O  O21  1  0.103162  0.289567  0.970177  1
