# generated using pymatgen
data_Sr7Ca(CN4)2
_symmetry_space_group_name_H-M   'P 1'
_cell_length_a   3.79586400
_cell_length_b   12.13537631
_cell_length_c   14.78028405
_cell_angle_alpha   88.59502546
_cell_angle_beta   90.00000000
_cell_angle_gamma   90.00000000
_symmetry_Int_Tables_number   1
_chemical_formula_structural   Sr7Ca(CN4)2
_chemical_formula_sum   'Sr14 Ca2 C4 N16'
_cell_volume   680.63783794
_cell_formula_units_Z   2
loop_
 _symmetry_equiv_pos_site_id
 _symmetry_equiv_pos_as_xyz
  1  'x, y, z'
loop_
 _atom_site_type_symbol
 _atom_site_label
 _atom_site_symmetry_multiplicity
 _atom_site_fract_x
 _atom_site_fract_y
 _atom_site_fract_z
 _atom_site_occupancy
  Sr  Sr0  1  0.250000  0.649257  0.252655  1
  Sr  Sr1  1  0.750000  0.350743  0.747345  1
  Sr  Sr2  1  0.250000  0.140881  0.240195  1
  Sr  Sr3  1  0.750000  0.859119  0.759805  1
  Sr  Sr4  1  0.250000  0.885962  0.382139  1
  Sr  Sr5  1  0.750000  0.114038  0.617861  1
  Sr  Sr6  1  0.250000  0.382459  0.106113  1
  Sr  Sr7  1  0.750000  0.617541  0.893887  1
  Sr  Sr8  1  0.250000  0.375681  0.542365  1
  Sr  Sr9  1  0.750000  0.624319  0.457635  1
  Sr  Sr10  1  0.250000  0.877963  0.963004  1
  Sr  Sr11  1  0.750000  0.122037  0.036996  1
  Sr  Sr12  1  0.250000  0.612751  0.673293  1
  Sr  Sr13  1  0.750000  0.387249  0.326707  1
  Ca  Ca14  1  0.250000  0.111679  0.830106  1
  Ca  Ca15  1  0.750000  0.888321  0.169894  1
  C  C16  1  0.250000  0.855165  0.583085  1
  C  C17  1  0.750000  0.144835  0.416915  1
  C  C18  1  0.250000  0.353412  0.912497  1
  C  C19  1  0.750000  0.646588  0.087503  1
  N  N20  1  0.250000  0.942143  0.625849  1
  N  N21  1  0.750000  0.057857  0.374151  1
  N  N22  1  0.250000  0.447004  0.876166  1
  N  N23  1  0.750000  0.552996  0.123834  1
  N  N24  1  0.250000  0.768430  0.539633  1
  N  N25  1  0.750000  0.231570  0.460367  1
  N  N26  1  0.250000  0.260721  0.950425  1
  N  N27  1  0.750000  0.739279  0.049575  1
  N  N28  1  0.250000  0.506105  0.379599  1
  N  N29  1  0.750000  0.493895  0.620401  1
  N  N30  1  0.250000  0.995718  0.120861  1
  N  N31  1  0.750000  0.004282  0.879139  1
  N  N32  1  0.750000  0.270651  0.178469  1
  N  N33  1  0.250000  0.729349  0.821531  1
  N  N34  1  0.750000  0.777789  0.308593  1
  N  N35  1  0.250000  0.222211  0.691407  1
