# generated using pymatgen
data_Sm8Hf5Zr7Sn16
_symmetry_space_group_name_H-M   'P 1'
_cell_length_a   7.81326618
_cell_length_b   7.85962191
_cell_length_c   14.78369560
_cell_angle_alpha   89.99014667
_cell_angle_beta   90.03130164
_cell_angle_gamma   89.94563315
_symmetry_Int_Tables_number   1
_chemical_formula_structural   Sm8Hf5Zr7Sn16
_chemical_formula_sum   'Sm8 Hf5 Zr7 Sn16'
_cell_volume   907.85610724
_cell_formula_units_Z   1
loop_
 _symmetry_equiv_pos_site_id
 _symmetry_equiv_pos_as_xyz
  1  'x, y, z'
loop_
 _atom_site_type_symbol
 _atom_site_label
 _atom_site_symmetry_multiplicity
 _atom_site_fract_x
 _atom_site_fract_y
 _atom_site_fract_z
 _atom_site_occupancy
  Sm  Sm0  1  0.511058  0.323947  0.907798  1
  Sm  Sm1  1  0.010923  0.176217  0.592381  1
  Sm  Sm2  1  0.489019  0.676085  0.407807  1
  Sm  Sm3  1  0.988900  0.823812  0.091945  1
  Sm  Sm4  1  0.488745  0.676351  0.092092  1
  Sm  Sm5  1  0.988933  0.823932  0.407885  1
  Sm  Sm6  1  0.511165  0.324059  0.592322  1
  Sm  Sm7  1  0.011011  0.176036  0.907823  1
  Hf  Hf8  1  0.846863  0.661165  0.869170  1
  Hf  Hf9  1  0.166821  0.511778  0.750219  1
  Hf  Hf10  1  0.667676  0.988006  0.750252  1
  Hf  Hf11  1  0.832500  0.488578  0.249799  1
  Hf  Hf12  1  0.332671  0.011534  0.249909  1
  Zr  Zr13  1  0.346245  0.838745  0.870244  1
  Zr  Zr14  1  0.846276  0.661562  0.630667  1
  Zr  Zr15  1  0.653918  0.161533  0.369953  1
  Zr  Zr16  1  0.153509  0.338557  0.130128  1
  Zr  Zr17  1  0.653928  0.161425  0.129728  1
  Zr  Zr18  1  0.153940  0.338582  0.369966  1
  Zr  Zr19  1  0.346050  0.838396  0.630181  1
  Sn  Sn20  1  0.315586  0.042239  0.043765  1
  Sn  Sn21  1  0.815916  0.457886  0.456332  1
  Sn  Sn22  1  0.684098  0.957922  0.543759  1
  Sn  Sn23  1  0.182951  0.542591  0.955870  1
  Sn  Sn24  1  0.685054  0.956328  0.955732  1
  Sn  Sn25  1  0.184103  0.542039  0.543794  1
  Sn  Sn26  1  0.315885  0.041983  0.456352  1
  Sn  Sn27  1  0.815765  0.458450  0.043054  1
  Sn  Sn28  1  0.540016  0.617218  0.750397  1
  Sn  Sn29  1  0.039566  0.882645  0.750422  1
  Sn  Sn30  1  0.460327  0.382872  0.249955  1
  Sn  Sn31  1  0.960238  0.117054  0.249955  1
  Sn  Sn32  1  0.314930  0.155351  0.749966  1
  Sn  Sn33  1  0.814898  0.345038  0.750291  1
  Sn  Sn34  1  0.685233  0.844645  0.250051  1
  Sn  Sn35  1  0.185283  0.655438  0.250038  1
