# generated using pymatgen
data_PrMgCdPt3
_symmetry_space_group_name_H-M   'P 1'
_cell_length_a   5.35858524
_cell_length_b   5.35858434
_cell_length_c   5.35858520
_cell_angle_alpha   62.82083892
_cell_angle_beta   62.82082885
_cell_angle_gamma   62.82084189
_symmetry_Int_Tables_number   1
_chemical_formula_structural   PrMgCdPt3
_chemical_formula_sum   'Pr1 Mg1 Cd1 Pt3'
_cell_volume   115.62462247
_cell_formula_units_Z   1
loop_
 _symmetry_equiv_pos_site_id
 _symmetry_equiv_pos_as_xyz
  1  'x, y, z'
loop_
 _atom_site_type_symbol
 _atom_site_label
 _atom_site_symmetry_multiplicity
 _atom_site_fract_x
 _atom_site_fract_y
 _atom_site_fract_z
 _atom_site_occupancy
  Pr  Pr0  1  0.242773  0.242773  0.242773  1
  Mg  Mg1  1  0.628939  0.628939  0.628939  1
  Cd  Cd2  1  0.995572  0.995572  0.995572  1
  Pt  Pt3  1  0.627831  0.627831  0.127054  1
  Pt  Pt4  1  0.627831  0.127054  0.627831  1
  Pt  Pt5  1  0.127054  0.627831  0.627831  1
