# generated using pymatgen
data_TbTmZn5Sn
_symmetry_space_group_name_H-M   'P 1'
_cell_length_a   8.34169354
_cell_length_b   8.34169337
_cell_length_c   8.99161000
_cell_angle_alpha   90.00000000
_cell_angle_beta   90.00000000
_cell_angle_gamma   149.75241118
_symmetry_Int_Tables_number   1
_chemical_formula_structural   TbTmZn5Sn
_chemical_formula_sum   'Tb2 Tm2 Zn10 Sn2'
_cell_volume   315.17394128
_cell_formula_units_Z   2
loop_
 _symmetry_equiv_pos_site_id
 _symmetry_equiv_pos_as_xyz
  1  'x, y, z'
loop_
 _atom_site_type_symbol
 _atom_site_label
 _atom_site_symmetry_multiplicity
 _atom_site_fract_x
 _atom_site_fract_y
 _atom_site_fract_z
 _atom_site_occupancy
  Tb  Tb0  1  0.000000  0.000000  0.500000  1
  Tb  Tb1  1  0.000000  0.000000  0.000000  1
  Tm  Tm2  1  0.203002  0.796998  0.250000  1
  Tm  Tm3  1  0.796998  0.203002  0.750000  1
  Zn  Zn4  1  0.812887  0.187113  0.390797  1
  Zn  Zn5  1  0.187113  0.812887  0.609203  1
  Zn  Zn6  1  0.812887  0.187113  0.109203  1
  Zn  Zn7  1  0.187113  0.812887  0.890797  1
  Zn  Zn8  1  0.656825  0.343175  0.481113  1
  Zn  Zn9  1  0.343175  0.656825  0.518887  1
  Zn  Zn10  1  0.656825  0.343175  0.018887  1
  Zn  Zn11  1  0.343175  0.656825  0.981113  1
  Zn  Zn12  1  0.391959  0.608041  0.250000  1
  Zn  Zn13  1  0.608041  0.391959  0.750000  1
  Sn  Sn14  1  0.554278  0.445722  0.250000  1
  Sn  Sn15  1  0.445722  0.554278  0.750000  1
