# generated using pymatgen
data_Dy8Lu8Sc4Si15Rh
_symmetry_space_group_name_H-M   'P 1'
_cell_length_a   7.17080310
_cell_length_b   7.61312589
_cell_length_c   14.21208300
_cell_angle_alpha   90.00000000
_cell_angle_beta   90.00000000
_cell_angle_gamma   89.98168649
_symmetry_Int_Tables_number   1
_chemical_formula_structural   Dy8Lu8Sc4Si15Rh
_chemical_formula_sum   'Dy8 Lu8 Sc4 Si15 Rh1'
_cell_volume   775.86921870
_cell_formula_units_Z   1
loop_
 _symmetry_equiv_pos_site_id
 _symmetry_equiv_pos_as_xyz
  1  'x, y, z'
loop_
 _atom_site_type_symbol
 _atom_site_label
 _atom_site_symmetry_multiplicity
 _atom_site_fract_x
 _atom_site_fract_y
 _atom_site_fract_z
 _atom_site_occupancy
  Dy  Dy0  1  0.014756  0.182611  0.096649  1
  Dy  Dy1  1  0.987661  0.822813  0.904764  1
  Dy  Dy2  1  0.486819  0.679877  0.905061  1
  Dy  Dy3  1  0.987661  0.822813  0.595236  1
  Dy  Dy4  1  0.514691  0.319713  0.096524  1
  Dy  Dy5  1  0.014756  0.182611  0.403351  1
  Dy  Dy6  1  0.514691  0.319713  0.403476  1
  Dy  Dy7  1  0.486819  0.679877  0.594939  1
  Lu  Lu8  1  0.312255  0.172142  0.628247  1
  Lu  Lu9  1  0.675771  0.826207  0.373593  1
  Lu  Lu10  1  0.175030  0.678408  0.373815  1
  Lu  Lu11  1  0.675771  0.826207  0.126407  1
  Lu  Lu12  1  0.832573  0.318822  0.628201  1
  Lu  Lu13  1  0.312255  0.172142  0.871753  1
  Lu  Lu14  1  0.832573  0.318822  0.871799  1
  Lu  Lu15  1  0.175030  0.678408  0.126185  1
  Sc  Sc16  1  0.158821  0.516832  0.750000  1
  Sc  Sc17  1  0.841265  0.488538  0.250000  1
  Sc  Sc18  1  0.341915  0.013617  0.250000  1
  Sc  Sc19  1  0.665654  0.988515  0.750000  1
  Si  Si20  1  0.977522  0.899270  0.250000  1
  Si  Si21  1  0.478123  0.602349  0.250000  1
  Si  Si22  1  0.522556  0.397850  0.750000  1
  Si  Si23  1  0.287182  0.861648  0.750000  1
  Si  Si24  1  0.715257  0.136398  0.250000  1
  Si  Si25  1  0.215980  0.366024  0.250000  1
  Si  Si26  1  0.777846  0.629539  0.750000  1
  Si  Si27  1  0.157600  0.471293  0.538653  1
  Si  Si28  1  0.844024  0.532500  0.461042  1
  Si  Si29  1  0.345183  0.969209  0.459905  1
  Si  Si30  1  0.844024  0.532500  0.038958  1
  Si  Si31  1  0.653726  0.032231  0.539814  1
  Si  Si32  1  0.157600  0.471293  0.961347  1
  Si  Si33  1  0.653726  0.032231  0.960186  1
  Si  Si34  1  0.345183  0.969209  0.040095  1
  Rh  Rh35  1  0.017702  0.087765  0.750000  1
