# generated using pymatgen
data_Zr4TiMnRe6
_symmetry_space_group_name_H-M   'P 1'
_cell_length_a   5.30948881
_cell_length_b   5.26387341
_cell_length_c   8.65499600
_cell_angle_alpha   90.00000000
_cell_angle_beta   90.00000000
_cell_angle_gamma   119.71619916
_symmetry_Int_Tables_number   1
_chemical_formula_structural   Zr4TiMnRe6
_chemical_formula_sum   'Zr4 Ti1 Mn1 Re6'
_cell_volume   210.08282073
_cell_formula_units_Z   1
loop_
 _symmetry_equiv_pos_site_id
 _symmetry_equiv_pos_as_xyz
  1  'x, y, z'
loop_
 _atom_site_type_symbol
 _atom_site_label
 _atom_site_symmetry_multiplicity
 _atom_site_fract_x
 _atom_site_fract_y
 _atom_site_fract_z
 _atom_site_occupancy
  Zr  Zr0  1  0.331928  0.665964  0.436559  1
  Zr  Zr1  1  0.667203  0.333601  0.942785  1
  Zr  Zr2  1  0.667203  0.333601  0.557215  1
  Zr  Zr3  1  0.331928  0.665964  0.063441  1
  Ti  Ti4  1  0.660074  0.830036  0.750000  1
  Mn  Mn5  1  0.339850  0.169926  0.250000  1
  Re  Re6  1  0.830950  0.173169  0.250000  1
  Re  Re7  1  0.166143  0.339426  0.750000  1
  Re  Re8  1  0.166143  0.826716  0.750000  1
  Re  Re9  1  0.830950  0.657781  0.250000  1
  Re  Re10  1  0.003815  0.001907  0.495628  1
  Re  Re11  1  0.003815  0.001907  0.004372  1
