# generated using pymatgen
data_Ti2AlAsRu4
_symmetry_space_group_name_H-M   'P 1'
_cell_length_a   4.32684300
_cell_length_b   6.08655800
_cell_length_c   12.88472400
_cell_angle_alpha   90.00000000
_cell_angle_beta   90.00092593
_cell_angle_gamma   90.00000000
_symmetry_Int_Tables_number   1
_chemical_formula_structural   Ti2AlAsRu4
_chemical_formula_sum   'Ti6 Al3 As3 Ru12'
_cell_volume   339.32669095
_cell_formula_units_Z   3
loop_
 _symmetry_equiv_pos_site_id
 _symmetry_equiv_pos_as_xyz
  1  'x, y, z'
loop_
 _atom_site_type_symbol
 _atom_site_label
 _atom_site_symmetry_multiplicity
 _atom_site_fract_x
 _atom_site_fract_y
 _atom_site_fract_z
 _atom_site_occupancy
  Ti  Ti0  1  0.000013  0.499999  0.995860  1
  Ti  Ti1  1  0.499814  0.000000  0.166666  1
  Ti  Ti2  1  0.999829  0.499999  0.337474  1
  Ti  Ti3  1  0.500012  0.000000  0.504664  1
  Ti  Ti4  1  0.000173  0.499999  0.666667  1
  Ti  Ti5  1  0.500173  0.000000  0.828667  1
  Al  Al6  1  0.499996  0.499999  0.502117  1
  Al  Al7  1  0.000182  0.000000  0.666664  1
  Al  Al8  1  0.500183  0.499999  0.831219  1
  As  As9  1  0.999998  0.000000  0.996345  1
  As  As10  1  0.499817  0.499999  0.166665  1
  As  As11  1  0.999821  0.000000  0.336994  1
  Ru  Ru12  1  0.500001  0.251294  0.003123  1
  Ru  Ru13  1  0.500001  0.748705  0.003123  1
  Ru  Ru14  1  0.999850  0.247666  0.166667  1
  Ru  Ru15  1  0.999850  0.752334  0.166667  1
  Ru  Ru16  1  0.499826  0.251301  0.330205  1
  Ru  Ru17  1  0.499826  0.748700  0.330205  1
  Ru  Ru18  1  0.000004  0.249678  0.497222  1
  Ru  Ru19  1  0.000004  0.750322  0.497222  1
  Ru  Ru20  1  0.500139  0.249662  0.666668  1
  Ru  Ru21  1  0.500139  0.750339  0.666668  1
  Ru  Ru22  1  0.000175  0.249681  0.836114  1
  Ru  Ru23  1  0.000175  0.750319  0.836114  1
