# generated using pymatgen
data_Dy2Tm2MoOsC4
_symmetry_space_group_name_H-M   'P 1'
_cell_length_a   5.06649300
_cell_length_b   6.57904334
_cell_length_c   9.83124803
_cell_angle_alpha   89.21508514
_cell_angle_beta   90.00000000
_cell_angle_gamma   90.00000000
_symmetry_Int_Tables_number   1
_chemical_formula_structural   Dy2Tm2MoOsC4
_chemical_formula_sum   'Dy4 Tm4 Mo2 Os2 C8'
_cell_volume   327.67106548
_cell_formula_units_Z   2
loop_
 _symmetry_equiv_pos_site_id
 _symmetry_equiv_pos_as_xyz
  1  'x, y, z'
loop_
 _atom_site_type_symbol
 _atom_site_label
 _atom_site_symmetry_multiplicity
 _atom_site_fract_x
 _atom_site_fract_y
 _atom_site_fract_z
 _atom_site_occupancy
  Dy  Dy0  1  0.250000  0.539285  0.217746  1
  Dy  Dy1  1  0.750000  0.460715  0.782254  1
  Dy  Dy2  1  0.750000  0.967795  0.715176  1
  Dy  Dy3  1  0.250000  0.032205  0.284824  1
  Tm  Tm4  1  0.250000  0.674915  0.558721  1
  Tm  Tm5  1  0.750000  0.325085  0.441279  1
  Tm  Tm6  1  0.750000  0.827514  0.058886  1
  Tm  Tm7  1  0.250000  0.172486  0.941114  1
  Mo  Mo8  1  0.250000  0.716101  0.868241  1
  Mo  Mo9  1  0.750000  0.283899  0.131759  1
  Os  Os10  1  0.750000  0.780294  0.367442  1
  Os  Os11  1  0.250000  0.219706  0.632558  1
  C  C12  1  0.250000  0.447714  0.757954  1
  C  C13  1  0.750000  0.552286  0.242046  1
  C  C14  1  0.750000  0.048035  0.261086  1
  C  C15  1  0.250000  0.951965  0.738914  1
  C  C16  1  0.250000  0.827895  0.052720  1
  C  C17  1  0.750000  0.172105  0.947280  1
  C  C18  1  0.750000  0.673221  0.549809  1
  C  C19  1  0.250000  0.326779  0.450191  1
