# generated using pymatgen
data_LiHf2(Co3B2)3
_symmetry_space_group_name_H-M   'P 1'
_cell_length_a   5.65636720
_cell_length_b   5.65636846
_cell_length_c   5.65636791
_cell_angle_alpha   95.57802536
_cell_angle_beta   95.57802948
_cell_angle_gamma   95.57802873
_symmetry_Int_Tables_number   1
_chemical_formula_structural   LiHf2(Co3B2)3
_chemical_formula_sum   'Li1 Hf2 Co9 B6'
_cell_volume   178.22075842
_cell_formula_units_Z   1
loop_
 _symmetry_equiv_pos_site_id
 _symmetry_equiv_pos_as_xyz
  1  'x, y, z'
loop_
 _atom_site_type_symbol
 _atom_site_label
 _atom_site_symmetry_multiplicity
 _atom_site_fract_x
 _atom_site_fract_y
 _atom_site_fract_z
 _atom_site_occupancy
  Li  Li0  1  0.000000  0.000000  0.000000  1
  Hf  Hf1  1  0.681420  0.681420  0.681420  1
  Hf  Hf2  1  0.318580  0.318580  0.318580  1
  Co  Co3  1  0.000000  0.000000  0.500000  1
  Co  Co4  1  0.500000  0.000000  0.000000  1
  Co  Co5  1  0.000000  0.500000  0.000000  1
  Co  Co6  1  0.702156  0.201159  0.702156  1
  Co  Co7  1  0.702156  0.702156  0.201159  1
  Co  Co8  1  0.201159  0.702156  0.702156  1
  Co  Co9  1  0.297844  0.798841  0.297844  1
  Co  Co10  1  0.297844  0.297844  0.798841  1
  Co  Co11  1  0.798841  0.297844  0.297844  1
  B  B12  1  0.617265  0.382735  0.000000  1
  B  B13  1  0.000000  0.617265  0.382735  1
  B  B14  1  0.382735  0.000000  0.617265  1
  B  B15  1  0.000000  0.382735  0.617265  1
  B  B16  1  0.617265  0.000000  0.382735  1
  B  B17  1  0.382735  0.617265  0.000000  1
