# generated using pymatgen
data_PrNd9(Sb3S)2
_symmetry_space_group_name_H-M   'P 1'
_cell_length_a   9.34437500
_cell_length_b   9.35242174
_cell_length_c   6.67606300
_cell_angle_alpha   90.00000000
_cell_angle_beta   90.00000000
_cell_angle_gamma   120.03410368
_symmetry_Int_Tables_number   1
_chemical_formula_structural   PrNd9(Sb3S)2
_chemical_formula_sum   'Pr1 Nd9 Sb6 S2'
_cell_volume   505.09846800
_cell_formula_units_Z   1
loop_
 _symmetry_equiv_pos_site_id
 _symmetry_equiv_pos_as_xyz
  1  'x, y, z'
loop_
 _atom_site_type_symbol
 _atom_site_label
 _atom_site_symmetry_multiplicity
 _atom_site_fract_x
 _atom_site_fract_y
 _atom_site_fract_z
 _atom_site_occupancy
  Pr  Pr0  1  0.999985  0.749262  0.250000  1
  Nd  Nd1  1  0.749980  0.750384  0.750000  1
  Nd  Nd2  1  0.250011  0.000413  0.750000  1
  Nd  Nd3  1  0.000011  0.250261  0.750000  1
  Nd  Nd4  1  0.249738  0.249426  0.250000  1
  Nd  Nd5  1  0.750272  0.999666  0.250000  1
  Nd  Nd6  1  0.666705  0.333328  0.999960  1
  Nd  Nd7  1  0.333297  0.666670  0.999933  1
  Nd  Nd8  1  0.333297  0.666670  0.500067  1
  Nd  Nd9  1  0.666705  0.333328  0.500040  1
  Sb  Sb10  1  0.394267  0.394304  0.750000  1
  Sb  Sb11  1  0.605751  0.999995  0.750000  1
  Sb  Sb12  1  0.999963  0.606058  0.750000  1
  Sb  Sb13  1  0.604785  0.605329  0.250000  1
  Sb  Sb14  1  0.395199  0.000582  0.250000  1
  Sb  Sb15  1  0.000030  0.392841  0.250000  1
  S  S16  1  0.000001  0.000739  0.999362  1
  S  S17  1  0.000001  0.000739  0.500638  1
