# generated using pymatgen
data_Ho4Lu2ReBi2
_symmetry_space_group_name_H-M   'P 1'
_cell_length_a   8.18579046
_cell_length_b   8.18138148
_cell_length_c   4.31890300
_cell_angle_alpha   90.00000000
_cell_angle_beta   90.00000000
_cell_angle_gamma   119.98218376
_symmetry_Int_Tables_number   1
_chemical_formula_structural   Ho4Lu2ReBi2
_chemical_formula_sum   'Ho4 Lu2 Re1 Bi2'
_cell_volume   250.53550918
_cell_formula_units_Z   1
loop_
 _symmetry_equiv_pos_site_id
 _symmetry_equiv_pos_as_xyz
  1  'x, y, z'
loop_
 _atom_site_type_symbol
 _atom_site_label
 _atom_site_symmetry_multiplicity
 _atom_site_fract_x
 _atom_site_fract_y
 _atom_site_fract_z
 _atom_site_occupancy
  Ho  Ho0  1  0.000000  0.614295  0.500000  1
  Ho  Ho1  1  0.388598  0.387935  0.500000  1
  Ho  Ho2  1  0.000000  0.231269  0.000000  1
  Ho  Ho3  1  0.611402  0.999336  0.500000  1
  Lu  Lu4  1  0.230536  0.999710  0.000000  1
  Lu  Lu5  1  0.769464  0.769174  0.000000  1
  Re  Re6  1  0.000000  0.996536  0.500000  1
  Bi  Bi7  1  0.334976  0.668361  0.000000  1
  Bi  Bi8  1  0.665024  0.333383  0.000000  1
