# generated using pymatgen
data_Ho2Tm2Al17SiIr6
_symmetry_space_group_name_H-M   'P 1'
_cell_length_a   7.53851403
_cell_length_b   7.53851391
_cell_length_c   9.38792200
_cell_angle_alpha   90.00000000
_cell_angle_beta   90.00000000
_cell_angle_gamma   119.67065822
_symmetry_Int_Tables_number   1
_chemical_formula_structural   Ho2Tm2Al17SiIr6
_chemical_formula_sum   'Ho2 Tm2 Al17 Si1 Ir6'
_cell_volume   463.55719389
_cell_formula_units_Z   1
loop_
 _symmetry_equiv_pos_site_id
 _symmetry_equiv_pos_as_xyz
  1  'x, y, z'
loop_
 _atom_site_type_symbol
 _atom_site_label
 _atom_site_symmetry_multiplicity
 _atom_site_fract_x
 _atom_site_fract_y
 _atom_site_fract_z
 _atom_site_occupancy
  Ho  Ho0  1  0.003577  0.330226  0.750000  1
  Ho  Ho1  1  0.330226  0.003577  0.750000  1
  Tm  Tm2  1  0.994182  0.676746  0.250000  1
  Tm  Tm3  1  0.676746  0.994182  0.250000  1
  Al  Al4  1  0.874480  0.874480  0.750000  1
  Al  Al5  1  0.000256  0.337228  0.078541  1
  Al  Al6  1  0.998722  0.665643  0.925928  1
  Al  Al7  1  0.998722  0.665643  0.574072  1
  Al  Al8  1  0.337228  0.000256  0.421459  1
  Al  Al9  1  0.000256  0.337228  0.421459  1
  Al  Al10  1  0.665643  0.998722  0.574072  1
  Al  Al11  1  0.665643  0.998722  0.925928  1
  Al  Al12  1  0.337228  0.000256  0.078541  1
  Al  Al13  1  0.332259  0.332259  0.556446  1
  Al  Al14  1  0.663751  0.663751  0.445965  1
  Al  Al15  1  0.663751  0.663751  0.054035  1
  Al  Al16  1  0.332259  0.332259  0.943554  1
  Al  Al17  1  0.336822  0.550267  0.250000  1
  Al  Al18  1  0.661101  0.451968  0.750000  1
  Al  Al19  1  0.550267  0.336822  0.250000  1
  Al  Al20  1  0.451968  0.661101  0.750000  1
  Si  Si21  1  0.130991  0.130991  0.250000  1
  Ir  Ir22  1  0.670491  0.326578  0.000550  1
  Ir  Ir23  1  0.326578  0.670491  0.000550  1
  Ir  Ir24  1  0.326578  0.670491  0.499450  1
  Ir  Ir25  1  0.670491  0.326578  0.499450  1
  Ir  Ir26  1  0.999894  0.999894  0.008029  1
  Ir  Ir27  1  0.999894  0.999894  0.491971  1
