# generated using pymatgen
data_Ba6Zr2TcO12
_symmetry_space_group_name_H-M   'P 1'
_cell_length_a   9.38456597
_cell_length_b   9.38456585
_cell_length_c   7.41238481
_cell_angle_alpha   67.67481508
_cell_angle_beta   67.67481618
_cell_angle_gamma   36.88938240
_symmetry_Int_Tables_number   1
_chemical_formula_structural   Ba6Zr2TcO12
_chemical_formula_sum   'Ba6 Zr2 Tc1 O12'
_cell_volume   359.07437648
_cell_formula_units_Z   1
loop_
 _symmetry_equiv_pos_site_id
 _symmetry_equiv_pos_as_xyz
  1  'x, y, z'
loop_
 _atom_site_type_symbol
 _atom_site_label
 _atom_site_symmetry_multiplicity
 _atom_site_fract_x
 _atom_site_fract_y
 _atom_site_fract_z
 _atom_site_occupancy
  Ba  Ba0  1  0.213355  0.213355  0.706975  1
  Ba  Ba1  1  0.884425  0.884425  0.705225  1
  Ba  Ba2  1  0.548646  0.548646  0.708893  1
  Ba  Ba3  1  0.786645  0.786645  0.293025  1
  Ba  Ba4  1  0.451354  0.451354  0.291107  1
  Ba  Ba5  1  0.115575  0.115575  0.294775  1
  Zr  Zr6  1  0.665426  0.665426  0.000363  1
  Zr  Zr7  1  0.334574  0.334574  0.999637  1
  Tc  Tc8  1  0.000000  0.000000  0.000000  1
  O  O9  1  0.281352  0.281352  0.314466  1
  O  O10  1  0.949446  0.949446  0.306239  1
  O  O11  1  0.613149  0.613149  0.315080  1
  O  O12  1  0.718648  0.718648  0.685534  1
  O  O13  1  0.386851  0.386851  0.684920  1
  O  O14  1  0.050554  0.050554  0.693761  1
  O  O15  1  0.000000  0.500000  0.000000  1
  O  O16  1  0.674356  0.162964  0.999657  1
  O  O17  1  0.325644  0.837036  0.000343  1
  O  O18  1  0.500000  0.000000  0.000000  1
  O  O19  1  0.162964  0.674356  0.999657  1
  O  O20  1  0.837036  0.325644  0.000343  1
