# generated using pymatgen
data_Li2Dy5P12Ir3Rh14
_symmetry_space_group_name_H-M   'P 1'
_cell_length_a   12.70697709
_cell_length_b   12.71971601
_cell_length_c   3.93285200
_cell_angle_alpha   90.00000000
_cell_angle_beta   90.00000000
_cell_angle_gamma   119.92014907
_symmetry_Int_Tables_number   1
_chemical_formula_structural   Li2Dy5P12Ir3Rh14
_chemical_formula_sum   'Li2 Dy5 P12 Ir3 Rh14'
_cell_volume   550.94314231
_cell_formula_units_Z   1
loop_
 _symmetry_equiv_pos_site_id
 _symmetry_equiv_pos_as_xyz
  1  'x, y, z'
loop_
 _atom_site_type_symbol
 _atom_site_label
 _atom_site_symmetry_multiplicity
 _atom_site_fract_x
 _atom_site_fract_y
 _atom_site_fract_z
 _atom_site_occupancy
  Li  Li0  1  0.001305  0.443612  0.500000  1
  Li  Li1  1  0.557043  0.557101  0.500000  1
  Dy  Dy2  1  0.333471  0.665240  0.500000  1
  Dy  Dy3  1  0.667987  0.335186  0.500000  1
  Dy  Dy4  1  0.001079  0.809236  0.000000  1
  Dy  Dy5  1  0.191942  0.190681  0.000000  1
  Dy  Dy6  1  0.811282  0.999675  0.000000  1
  P  P7  1  0.000396  0.631874  0.500000  1
  P  P8  1  0.368381  0.367907  0.500000  1
  P  P9  1  0.635635  0.000115  0.500000  1
  P  P10  1  0.513995  0.685606  0.000000  1
  P  P11  1  0.310696  0.828005  0.000000  1
  P  P12  1  0.172225  0.482419  0.000000  1
  P  P13  1  0.482215  0.171922  0.000000  1
  P  P14  1  0.689723  0.517931  0.000000  1
  P  P15  1  0.828151  0.314274  0.000000  1
  P  P16  1  0.997728  0.179933  0.500000  1
  P  P17  1  0.818007  0.819870  0.500000  1
  P  P18  1  0.177952  0.999828  0.500000  1
  Ir  Ir19  1  0.281791  0.999855  0.000000  1
  Ir  Ir20  1  0.816968  0.195132  0.500000  1
  Ir  Ir21  1  0.997794  0.000204  0.500000  1
  Rh  Rh22  1  0.507774  0.868132  0.000000  1
  Rh  Rh23  1  0.130699  0.640275  0.000000  1
  Rh  Rh24  1  0.358541  0.486579  0.000000  1
  Rh  Rh25  1  0.490358  0.359724  0.000000  1
  Rh  Rh26  1  0.871969  0.513435  0.000000  1
  Rh  Rh27  1  0.638804  0.131499  0.000000  1
  Rh  Rh28  1  0.453754  0.000156  0.500000  1
  Rh  Rh29  1  0.997956  0.280885  0.000000  1
  Rh  Rh30  1  0.716797  0.719293  0.000000  1
  Rh  Rh31  1  0.622096  0.804774  0.500000  1
  Rh  Rh32  1  0.198019  0.821616  0.500000  1
  Rh  Rh33  1  0.177732  0.374009  0.500000  1
  Rh  Rh34  1  0.376297  0.178167  0.500000  1
  Rh  Rh35  1  0.803436  0.625848  0.500000  1
