# generated using pymatgen
data_Zr2InCoPd
_symmetry_space_group_name_H-M   'P 1'
_cell_length_a   7.50285107
_cell_length_b   7.50285029
_cell_length_c   3.27224400
_cell_angle_alpha   90.00000000
_cell_angle_beta   90.00000000
_cell_angle_gamma   88.77062180
_symmetry_Int_Tables_number   1
_chemical_formula_structural   Zr2InCoPd
_chemical_formula_sum   'Zr4 In2 Co2 Pd2'
_cell_volume   184.16127232
_cell_formula_units_Z   2
loop_
 _symmetry_equiv_pos_site_id
 _symmetry_equiv_pos_as_xyz
  1  'x, y, z'
loop_
 _atom_site_type_symbol
 _atom_site_label
 _atom_site_symmetry_multiplicity
 _atom_site_fract_x
 _atom_site_fract_y
 _atom_site_fract_z
 _atom_site_occupancy
  Zr  Zr0  1  0.186858  0.313142  0.000000  1
  Zr  Zr1  1  0.813142  0.686858  0.000000  1
  Zr  Zr2  1  0.655182  0.155182  0.000000  1
  Zr  Zr3  1  0.344818  0.844818  0.000000  1
  In  In4  1  0.000000  0.000000  0.500000  1
  In  In5  1  0.500000  0.500000  0.500000  1
  Co  Co6  1  0.375072  0.124928  0.500000  1
  Co  Co7  1  0.624928  0.875072  0.500000  1
  Pd  Pd8  1  0.871608  0.371608  0.500000  1
  Pd  Pd9  1  0.128392  0.628392  0.500000  1
