# generated using pymatgen
data_LaPuB12
_symmetry_space_group_name_H-M   'P 1'
_cell_length_a   5.84515773
_cell_length_b   5.84515735
_cell_length_c   5.84515700
_cell_angle_alpha   59.99999633
_cell_angle_beta   59.99999845
_cell_angle_gamma   60.00000338
_symmetry_Int_Tables_number   1
_chemical_formula_structural   LaPuB12
_chemical_formula_sum   'La1 Pu1 B12'
_cell_volume   141.21265494
_cell_formula_units_Z   1
loop_
 _symmetry_equiv_pos_site_id
 _symmetry_equiv_pos_as_xyz
  1  'x, y, z'
loop_
 _atom_site_type_symbol
 _atom_site_label
 _atom_site_symmetry_multiplicity
 _atom_site_fract_x
 _atom_site_fract_y
 _atom_site_fract_z
 _atom_site_occupancy
  La  La0  1  0.000000  0.000000  0.000000  1
  Pu  Pu1  1  0.500000  0.500000  0.500000  1
  B  B2  1  0.900424  0.599576  0.599576  1
  B  B3  1  0.400424  0.099576  0.099576  1
  B  B4  1  0.900424  0.900424  0.599576  1
  B  B5  1  0.400424  0.400424  0.099576  1
  B  B6  1  0.599576  0.900424  0.599576  1
  B  B7  1  0.099576  0.400424  0.099576  1
  B  B8  1  0.599576  0.599576  0.900424  1
  B  B9  1  0.099576  0.099576  0.400424  1
  B  B10  1  0.900424  0.599576  0.900424  1
  B  B11  1  0.400424  0.099576  0.400424  1
  B  B12  1  0.599576  0.900424  0.900424  1
  B  B13  1  0.099576  0.400424  0.400424  1
