# generated using pymatgen
data_Lu4MnNi13
_symmetry_space_group_name_H-M   'P 1'
_cell_length_a   4.93640283
_cell_length_b   4.89489827
_cell_length_c   12.36738200
_cell_angle_alpha   78.56985738
_cell_angle_beta   78.48799014
_cell_angle_gamma   59.71911409
_symmetry_Int_Tables_number   1
_chemical_formula_structural   Lu4MnNi13
_chemical_formula_sum   'Lu4 Mn1 Ni13'
_cell_volume   251.18635925
_cell_formula_units_Z   1
loop_
 _symmetry_equiv_pos_site_id
 _symmetry_equiv_pos_as_xyz
  1  'x, y, z'
loop_
 _atom_site_type_symbol
 _atom_site_label
 _atom_site_symmetry_multiplicity
 _atom_site_fract_x
 _atom_site_fract_y
 _atom_site_fract_z
 _atom_site_occupancy
  Lu  Lu0  1  0.947581  0.947827  0.157012  1
  Lu  Lu1  1  0.052419  0.052173  0.842988  1
  Lu  Lu2  1  0.852127  0.852989  0.442758  1
  Lu  Lu3  1  0.147873  0.147011  0.557242  1
  Mn  Mn4  1  0.500000  0.000000  0.000000  1
  Ni  Ni5  1  0.500000  0.500000  0.500000  1
  Ni  Ni6  1  0.722213  0.722227  0.833347  1
  Ni  Ni7  1  0.277787  0.277773  0.166653  1
  Ni  Ni8  1  0.611004  0.611912  0.166080  1
  Ni  Ni9  1  0.388996  0.388088  0.833920  1
  Ni  Ni10  1  0.000000  0.500000  0.000000  1
  Ni  Ni11  1  0.500000  0.500000  0.000000  1
  Ni  Ni12  1  0.389280  0.389207  0.331017  1
  Ni  Ni13  1  0.890495  0.389207  0.331017  1
  Ni  Ni14  1  0.388727  0.891380  0.331163  1
  Ni  Ni15  1  0.610720  0.610793  0.668983  1
  Ni  Ni16  1  0.109505  0.610793  0.668983  1
  Ni  Ni17  1  0.611273  0.108620  0.668837  1
