# generated using pymatgen
data_Tm10Lu3Th3(InRh)4
_symmetry_space_group_name_H-M   'P 1'
_cell_length_a   9.62932974
_cell_length_b   9.64490904
_cell_length_c   9.65048018
_cell_angle_alpha   59.95611368
_cell_angle_beta   59.90988886
_cell_angle_gamma   59.94312314
_symmetry_Int_Tables_number   1
_chemical_formula_structural   Tm10Lu3Th3(InRh)4
_chemical_formula_sum   'Tm10 Lu3 Th3 In4 Rh4'
_cell_volume   632.84999731
_cell_formula_units_Z   1
loop_
 _symmetry_equiv_pos_site_id
 _symmetry_equiv_pos_as_xyz
  1  'x, y, z'
loop_
 _atom_site_type_symbol
 _atom_site_label
 _atom_site_symmetry_multiplicity
 _atom_site_fract_x
 _atom_site_fract_y
 _atom_site_fract_z
 _atom_site_occupancy
  Tm  Tm0  1  0.195643  0.601803  0.601113  1
  Tm  Tm1  1  0.062663  0.439382  0.438715  1
  Tm  Tm2  1  0.437842  0.062330  0.062112  1
  Tm  Tm3  1  0.438099  0.062418  0.437408  1
  Tm  Tm4  1  0.062588  0.439157  0.059299  1
  Tm  Tm5  1  0.438074  0.437566  0.062252  1
  Tm  Tm6  1  0.062748  0.059138  0.438802  1
  Tm  Tm7  1  0.185023  0.813908  0.814051  1
  Tm  Tm8  1  0.815141  0.184557  0.185446  1
  Tm  Tm9  1  0.814746  0.184935  0.814728  1
  Lu  Lu10  1  0.185170  0.813812  0.187525  1
  Lu  Lu11  1  0.814727  0.815022  0.185208  1
  Lu  Lu12  1  0.186177  0.187557  0.813315  1
  Th  Th13  1  0.596520  0.599539  0.599647  1
  Th  Th14  1  0.596592  0.599446  0.204246  1
  Th  Th15  1  0.596237  0.203669  0.600048  1
  In  In16  1  0.837286  0.833507  0.833813  1
  In  In17  1  0.837563  0.833672  0.494935  1
  In  In18  1  0.836962  0.496681  0.833144  1
  In  In19  1  0.496008  0.834652  0.834865  1
  Rh  Rh20  1  0.394160  0.391149  0.392116  1
  Rh  Rh21  1  0.394210  0.390955  0.822731  1
  Rh  Rh22  1  0.393712  0.822664  0.391677  1
  Rh  Rh23  1  0.822109  0.392479  0.392803  1
