# generated using pymatgen
data_Pr2Sc3Ga4
_symmetry_space_group_name_H-M   'P 1'
_cell_length_a   7.45490200
_cell_length_b   7.70658000
_cell_length_c   14.74481800
_cell_angle_alpha   90.00000000
_cell_angle_beta   90.00000000
_cell_angle_gamma   90.00000000
_symmetry_Int_Tables_number   1
_chemical_formula_structural   Pr2Sc3Ga4
_chemical_formula_sum   'Pr8 Sc12 Ga16'
_cell_volume   847.11631494
_cell_formula_units_Z   4
loop_
 _symmetry_equiv_pos_site_id
 _symmetry_equiv_pos_as_xyz
  1  'x, y, z'
loop_
 _atom_site_type_symbol
 _atom_site_label
 _atom_site_symmetry_multiplicity
 _atom_site_fract_x
 _atom_site_fract_y
 _atom_site_fract_z
 _atom_site_occupancy
  Pr  Pr0  1  0.012352  0.174656  0.404093  1
  Pr  Pr1  1  0.512352  0.325344  0.404093  1
  Pr  Pr2  1  0.487648  0.674656  0.904093  1
  Pr  Pr3  1  0.487648  0.674656  0.595907  1
  Pr  Pr4  1  0.987648  0.825344  0.595907  1
  Pr  Pr5  1  0.987648  0.825344  0.904093  1
  Pr  Pr6  1  0.512352  0.325344  0.095907  1
  Pr  Pr7  1  0.012352  0.174656  0.095907  1
  Sc  Sc8  1  0.329399  0.175015  0.624702  1
  Sc  Sc9  1  0.670601  0.824985  0.375298  1
  Sc  Sc10  1  0.661631  0.000783  0.750000  1
  Sc  Sc11  1  0.170601  0.675015  0.375298  1
  Sc  Sc12  1  0.829399  0.324985  0.875298  1
  Sc  Sc13  1  0.829399  0.324985  0.624702  1
  Sc  Sc14  1  0.838369  0.500783  0.250000  1
  Sc  Sc15  1  0.338369  0.999217  0.250000  1
  Sc  Sc16  1  0.329399  0.175015  0.875298  1
  Sc  Sc17  1  0.170601  0.675015  0.124702  1
  Sc  Sc18  1  0.670601  0.824985  0.124702  1
  Sc  Sc19  1  0.161631  0.499217  0.750000  1
  Ga  Ga20  1  0.287138  0.881507  0.750000  1
  Ga  Ga21  1  0.468031  0.623970  0.250000  1
  Ga  Ga22  1  0.031969  0.123970  0.750000  1
  Ga  Ga23  1  0.531969  0.376030  0.750000  1
  Ga  Ga24  1  0.155813  0.462000  0.540660  1
  Ga  Ga25  1  0.968031  0.876030  0.250000  1
  Ga  Ga26  1  0.712862  0.118493  0.250000  1
  Ga  Ga27  1  0.844187  0.538000  0.040660  1
  Ga  Ga28  1  0.344187  0.962000  0.040660  1
  Ga  Ga29  1  0.155813  0.462000  0.959340  1
  Ga  Ga30  1  0.655813  0.038000  0.540660  1
  Ga  Ga31  1  0.344187  0.962000  0.459340  1
  Ga  Ga32  1  0.844187  0.538000  0.459340  1
  Ga  Ga33  1  0.787138  0.618493  0.750000  1
  Ga  Ga34  1  0.212862  0.381507  0.250000  1
  Ga  Ga35  1  0.655813  0.038000  0.959340  1
