# generated using pymatgen
data_Ho6Ti4Al12Ir4Ru3
_symmetry_space_group_name_H-M   'P 1'
_cell_length_a   8.98346648
_cell_length_b   8.98346637
_cell_length_c   8.96686572
_cell_angle_alpha   59.93874737
_cell_angle_beta   59.93874673
_cell_angle_gamma   60.00000510
_symmetry_Int_Tables_number   1
_chemical_formula_structural   Ho6Ti4Al12Ir4Ru3
_chemical_formula_sum   'Ho6 Ti4 Al12 Ir4 Ru3'
_cell_volume   511.22357841
_cell_formula_units_Z   1
loop_
 _symmetry_equiv_pos_site_id
 _symmetry_equiv_pos_as_xyz
  1  'x, y, z'
loop_
 _atom_site_type_symbol
 _atom_site_label
 _atom_site_symmetry_multiplicity
 _atom_site_fract_x
 _atom_site_fract_y
 _atom_site_fract_z
 _atom_site_occupancy
  Ho  Ho0  1  0.706071  0.706071  0.291737  1
  Ho  Ho1  1  0.296121  0.706071  0.291737  1
  Ho  Ho2  1  0.706071  0.296121  0.291737  1
  Ho  Ho3  1  0.293120  0.293120  0.708945  1
  Ho  Ho4  1  0.704815  0.293120  0.708945  1
  Ho  Ho5  1  0.293120  0.704815  0.708945  1
  Ti  Ti6  1  0.880283  0.880283  0.359151  1
  Ti  Ti7  1  0.880547  0.358025  0.880880  1
  Ti  Ti8  1  0.358025  0.880547  0.880880  1
  Ti  Ti9  1  0.880547  0.880547  0.880880  1
  Al  Al10  1  0.119847  0.119847  0.640458  1
  Al  Al11  1  0.119655  0.641157  0.119532  1
  Al  Al12  1  0.641157  0.119655  0.119532  1
  Al  Al13  1  0.119655  0.119655  0.119532  1
  Al  Al14  1  0.670590  0.670590  0.988229  1
  Al  Al15  1  0.669099  0.991732  0.670069  1
  Al  Al16  1  0.991732  0.669099  0.670069  1
  Al  Al17  1  0.669099  0.669099  0.670069  1
  Al  Al18  1  0.329510  0.329510  0.011469  1
  Al  Al19  1  0.331476  0.006936  0.330111  1
  Al  Al20  1  0.006936  0.331476  0.330111  1
  Al  Al21  1  0.331476  0.331476  0.330111  1
  Ir  Ir22  1  0.999878  0.999878  0.000366  1
  Ir  Ir23  1  0.999254  0.999254  0.500238  1
  Ir  Ir24  1  0.501254  0.999254  0.500238  1
  Ir  Ir25  1  0.999254  0.501254  0.500238  1
  Ru  Ru26  1  0.501384  0.501384  0.998595  1
  Ru  Ru27  1  0.998638  0.501384  0.998595  1
  Ru  Ru28  1  0.501384  0.998638  0.998595  1
