# generated using pymatgen
data_Dy4Ho4Cd2CoRu
_symmetry_space_group_name_H-M   'P 1'
_cell_length_a   9.62920345
_cell_length_b   9.55133576
_cell_length_c   9.55061580
_cell_angle_alpha   59.50210914
_cell_angle_beta   59.72639612
_cell_angle_gamma   59.73753693
_symmetry_Int_Tables_number   1
_chemical_formula_structural   Dy4Ho4Cd2CoRu
_chemical_formula_sum   'Dy8 Ho8 Cd4 Co2 Ru2'
_cell_volume   616.24277444
_cell_formula_units_Z   2
loop_
 _symmetry_equiv_pos_site_id
 _symmetry_equiv_pos_as_xyz
  1  'x, y, z'
loop_
 _atom_site_type_symbol
 _atom_site_label
 _atom_site_symmetry_multiplicity
 _atom_site_fract_x
 _atom_site_fract_y
 _atom_site_fract_z
 _atom_site_occupancy
  Dy  Dy0  1  0.938523  0.938666  0.559325  1
  Dy  Dy1  1  0.812088  0.188439  0.188054  1
  Dy  Dy2  1  0.936858  0.562907  0.563334  1
  Dy  Dy3  1  0.938335  0.559228  0.938627  1
  Dy  Dy4  1  0.816214  0.807456  0.186818  1
  Dy  Dy5  1  0.339921  0.348869  0.348728  1
  Dy  Dy6  1  0.559153  0.940645  0.940709  1
  Dy  Dy7  1  0.563520  0.938465  0.559619  1
  Ho  Ho8  1  0.189244  0.811056  0.810854  1
  Ho  Ho9  1  0.189326  0.186699  0.807942  1
  Ho  Ho10  1  0.343639  0.352149  0.960371  1
  Ho  Ho11  1  0.343333  0.960589  0.352094  1
  Ho  Ho12  1  0.816192  0.187132  0.807351  1
  Ho  Ho13  1  0.563601  0.559374  0.938593  1
  Ho  Ho14  1  0.189695  0.807866  0.186655  1
  Ho  Ho15  1  0.962986  0.348252  0.348604  1
  Cd  Cd16  1  0.580979  0.579906  0.257990  1
  Cd  Cd17  1  0.258696  0.580082  0.580056  1
  Cd  Cd18  1  0.581206  0.579931  0.580244  1
  Cd  Cd19  1  0.581022  0.258133  0.579944  1
  Co  Co20  1  0.138682  0.579530  0.142813  1
  Co  Co21  1  0.138492  0.142785  0.579677  1
  Ru  Ru22  1  0.579521  0.140915  0.140617  1
  Ru  Ru23  1  0.138775  0.140932  0.140988  1
