# generated using pymatgen
data_Y2GaIrRu
_symmetry_space_group_name_H-M   'P 1'
_cell_length_a   5.57411029
_cell_length_b   5.57410991
_cell_length_c   5.57411101
_cell_angle_alpha   136.90481261
_cell_angle_beta   116.91302266
_cell_angle_gamma   79.46378524
_symmetry_Int_Tables_number   1
_chemical_formula_structural   Y2GaIrRu
_chemical_formula_sum   'Y2 Ga1 Ir1 Ru1'
_cell_volume   102.36477132
_cell_formula_units_Z   1
loop_
 _symmetry_equiv_pos_site_id
 _symmetry_equiv_pos_as_xyz
  1  'x, y, z'
loop_
 _atom_site_type_symbol
 _atom_site_label
 _atom_site_symmetry_multiplicity
 _atom_site_fract_x
 _atom_site_fract_y
 _atom_site_fract_z
 _atom_site_occupancy
  Y  Y0  1  0.706450  0.208060  0.498390  1
  Y  Y1  1  0.290330  0.791940  0.498390  1
  Ga  Ga2  1  0.004741  0.000000  0.004741  1
  Ir  Ir3  1  0.722470  0.500000  0.222470  1
  Ru  Ru4  1  0.276009  0.500000  0.776009  1
