# generated using pymatgen
data_CeDy2AlC3
_symmetry_space_group_name_H-M   'P 1'
_cell_length_a   3.60483600
_cell_length_b   7.29091000
_cell_length_c   9.90520500
_cell_angle_alpha   90.00000000
_cell_angle_beta   90.00000000
_cell_angle_gamma   90.00000000
_symmetry_Int_Tables_number   1
_chemical_formula_structural   CeDy2AlC3
_chemical_formula_sum   'Ce2 Dy4 Al2 C6'
_cell_volume   260.33389552
_cell_formula_units_Z   2
loop_
 _symmetry_equiv_pos_site_id
 _symmetry_equiv_pos_as_xyz
  1  'x, y, z'
loop_
 _atom_site_type_symbol
 _atom_site_label
 _atom_site_symmetry_multiplicity
 _atom_site_fract_x
 _atom_site_fract_y
 _atom_site_fract_z
 _atom_site_occupancy
  Ce  Ce0  1  0.000000  0.750000  0.464659  1
  Ce  Ce1  1  0.000000  0.250000  0.535341  1
  Dy  Dy2  1  0.500000  0.516969  0.197274  1
  Dy  Dy3  1  0.500000  0.483031  0.802726  1
  Dy  Dy4  1  0.500000  0.983031  0.197274  1
  Dy  Dy5  1  0.500000  0.016969  0.802726  1
  Al  Al6  1  0.000000  0.750000  0.002560  1
  Al  Al7  1  0.000000  0.250000  0.997440  1
  C  C8  1  0.500000  0.506892  0.567472  1
  C  C9  1  0.500000  0.493108  0.432528  1
  C  C10  1  0.500000  0.993108  0.567472  1
  C  C11  1  0.500000  0.006892  0.432528  1
  C  C12  1  0.000000  0.750000  0.207410  1
  C  C13  1  0.000000  0.250000  0.792590  1
