# generated using pymatgen
data_DyHoTa2(ReB6)2
_symmetry_space_group_name_H-M   'P 1'
_cell_length_a   3.55133500
_cell_length_b   8.93855300
_cell_length_c   11.29532200
_cell_angle_alpha   89.99899814
_cell_angle_beta   90.00000000
_cell_angle_gamma   90.00000000
_symmetry_Int_Tables_number   1
_chemical_formula_structural   DyHoTa2(ReB6)2
_chemical_formula_sum   'Dy2 Ho2 Ta4 Re4 B24'
_cell_volume   358.55639880
_cell_formula_units_Z   2
loop_
 _symmetry_equiv_pos_site_id
 _symmetry_equiv_pos_as_xyz
  1  'x, y, z'
loop_
 _atom_site_type_symbol
 _atom_site_label
 _atom_site_symmetry_multiplicity
 _atom_site_fract_x
 _atom_site_fract_y
 _atom_site_fract_z
 _atom_site_occupancy
  Dy  Dy0  1  0.000000  0.323085  0.413483  1
  Dy  Dy1  1  0.000000  0.676915  0.586517  1
  Ho  Ho2  1  0.000000  0.823185  0.086424  1
  Ho  Ho3  1  0.000000  0.176815  0.913576  1
  Ta  Ta4  1  0.000000  0.946213  0.374554  1
  Ta  Ta5  1  0.000000  0.053787  0.625446  1
  Ta  Ta6  1  0.000000  0.446115  0.125214  1
  Ta  Ta7  1  0.000000  0.553885  0.874786  1
  Re  Re8  1  0.000000  0.643998  0.317146  1
  Re  Re9  1  0.000000  0.356002  0.682854  1
  Re  Re10  1  0.000000  0.143730  0.182246  1
  Re  Re11  1  0.000000  0.856270  0.817754  1
  B  B12  1  0.500000  0.554922  0.433598  1
  B  B13  1  0.500000  0.445078  0.566402  1
  B  B14  1  0.500000  0.054794  0.066052  1
  B  B15  1  0.500000  0.945206  0.933948  1
  B  B16  1  0.500000  0.755197  0.417939  1
  B  B17  1  0.500000  0.244803  0.582061  1
  B  B18  1  0.500000  0.254984  0.081621  1
  B  B19  1  0.500000  0.745016  0.918379  1
  B  B20  1  0.500000  0.797894  0.262690  1
  B  B21  1  0.500000  0.202106  0.737310  1
  B  B22  1  0.500000  0.297783  0.236736  1
  B  B23  1  0.500000  0.702217  0.763264  1
  B  B24  1  0.500000  0.630227  0.180854  1
  B  B25  1  0.500000  0.369773  0.819146  1
  B  B26  1  0.500000  0.129929  0.318772  1
  B  B27  1  0.500000  0.870071  0.681228  1
  B  B28  1  0.500000  0.981983  0.213846  1
  B  B29  1  0.500000  0.018017  0.786154  1
  B  B30  1  0.500000  0.482154  0.285644  1
  B  B31  1  0.500000  0.517846  0.714356  1
  B  B32  1  0.500000  0.599214  0.026347  1
  B  B33  1  0.500000  0.400786  0.973653  1
  B  B34  1  0.500000  0.098985  0.473668  1
  B  B35  1  0.500000  0.901015  0.526332  1
