# generated using pymatgen
data_Tl3VF6
_symmetry_space_group_name_H-M   'P 1'
_cell_length_a   6.38321140
_cell_length_b   6.46375462
_cell_length_c   6.49245600
_cell_angle_alpha   62.09598290
_cell_angle_beta   61.85060129
_cell_angle_gamma   60.62313743
_symmetry_Int_Tables_number   1
_chemical_formula_structural   Tl3VF6
_chemical_formula_sum   'Tl3 V1 F6'
_cell_volume   195.82180407
_cell_formula_units_Z   1
loop_
 _symmetry_equiv_pos_site_id
 _symmetry_equiv_pos_as_xyz
  1  'x, y, z'
loop_
 _atom_site_type_symbol
 _atom_site_label
 _atom_site_symmetry_multiplicity
 _atom_site_fract_x
 _atom_site_fract_y
 _atom_site_fract_z
 _atom_site_occupancy
  Tl  Tl0  1  0.259764  0.240175  0.229256  1
  Tl  Tl1  1  0.499778  0.500297  0.500257  1
  Tl  Tl2  1  0.739975  0.760145  0.771135  1
  V  V3  1  0.000134  0.999821  0.999850  1
  F  F4  1  0.752287  0.289170  0.124117  1
  F  F5  1  0.731865  0.844969  0.166906  1
  F  F6  1  0.113091  0.836008  0.292290  1
  F  F7  1  0.886852  0.164102  0.707390  1
  F  F8  1  0.268080  0.154872  0.833251  1
  F  F9  1  0.248178  0.710438  0.875553  1
