# generated using pymatgen
data_Hf5Ta3(Co4P3)4
_symmetry_space_group_name_H-M   'P 1'
_cell_length_a   11.93350500
_cell_length_b   11.93350469
_cell_length_c   3.62736800
_cell_angle_alpha   90.00000000
_cell_angle_beta   90.00000000
_cell_angle_gamma   119.99999253
_symmetry_Int_Tables_number   1
_chemical_formula_structural   Hf5Ta3(Co4P3)4
_chemical_formula_sum   'Hf5 Ta3 Co16 P12'
_cell_volume   447.36119469
_cell_formula_units_Z   1
loop_
 _symmetry_equiv_pos_site_id
 _symmetry_equiv_pos_as_xyz
  1  'x, y, z'
loop_
 _atom_site_type_symbol
 _atom_site_label
 _atom_site_symmetry_multiplicity
 _atom_site_fract_x
 _atom_site_fract_y
 _atom_site_fract_z
 _atom_site_occupancy
  Hf  Hf0  1  0.666667  0.333333  0.000000  1
  Hf  Hf1  1  0.333333  0.666667  0.000000  1
  Hf  Hf2  1  0.178024  0.178024  0.500000  1
  Hf  Hf3  1  0.821976  0.000000  0.500000  1
  Hf  Hf4  1  0.000000  0.821976  0.500000  1
  Ta  Ta5  1  0.553957  0.553957  0.000000  1
  Ta  Ta6  1  0.446043  0.000000  0.000000  1
  Ta  Ta7  1  0.000000  0.446043  0.000000  1
  Co  Co8  1  0.820790  0.193919  0.000000  1
  Co  Co9  1  0.806081  0.626870  0.000000  1
  Co  Co10  1  0.373130  0.179210  0.000000  1
  Co  Co11  1  0.193919  0.820790  0.000000  1
  Co  Co12  1  0.626870  0.806081  0.000000  1
  Co  Co13  1  0.179210  0.373130  0.000000  1
  Co  Co14  1  0.644034  0.128779  0.500000  1
  Co  Co15  1  0.871221  0.515254  0.500000  1
  Co  Co16  1  0.484746  0.355966  0.500000  1
  Co  Co17  1  0.128779  0.644034  0.500000  1
  Co  Co18  1  0.515254  0.871221  0.500000  1
  Co  Co19  1  0.355966  0.484746  0.500000  1
  Co  Co20  1  0.721841  0.721841  0.500000  1
  Co  Co21  1  0.278159  0.000000  0.500000  1
  Co  Co22  1  0.000000  0.278159  0.500000  1
  Co  Co23  1  0.000000  0.000000  0.000000  1
  P  P24  1  0.350226  0.350226  0.000000  1
  P  P25  1  0.649774  0.000000  0.000000  1
  P  P26  1  0.000000  0.649774  0.000000  1
  P  P27  1  0.829405  0.311167  0.500000  1
  P  P28  1  0.688833  0.518238  0.500000  1
  P  P29  1  0.481762  0.170595  0.500000  1
  P  P30  1  0.311167  0.829405  0.500000  1
  P  P31  1  0.518238  0.688833  0.500000  1
  P  P32  1  0.170595  0.481762  0.500000  1
  P  P33  1  0.824541  0.824541  0.000000  1
  P  P34  1  0.175459  0.000000  0.000000  1
  P  P35  1  0.000000  0.175459  0.000000  1
