# generated using pymatgen
data_DyY3(GaCo)4
_symmetry_space_group_name_H-M   'P 1'
_cell_length_a   4.43460200
_cell_length_b   6.88268518
_cell_length_c   7.04553816
_cell_angle_alpha   89.84744640
_cell_angle_beta   90.00000000
_cell_angle_gamma   90.00000000
_symmetry_Int_Tables_number   1
_chemical_formula_structural   DyY3(GaCo)4
_chemical_formula_sum   'Dy1 Y3 Ga4 Co4'
_cell_volume   215.04293837
_cell_formula_units_Z   1
loop_
 _symmetry_equiv_pos_site_id
 _symmetry_equiv_pos_as_xyz
  1  'x, y, z'
loop_
 _atom_site_type_symbol
 _atom_site_label
 _atom_site_symmetry_multiplicity
 _atom_site_fract_x
 _atom_site_fract_y
 _atom_site_fract_z
 _atom_site_occupancy
  Dy  Dy0  1  0.750000  0.803071  0.477214  1
  Y  Y1  1  0.250000  0.194550  0.521552  1
  Y  Y2  1  0.250000  0.304413  0.021712  1
  Y  Y3  1  0.750000  0.695766  0.978022  1
  Ga  Ga4  1  0.250000  0.894867  0.193845  1
  Ga  Ga5  1  0.750000  0.394818  0.306326  1
  Ga  Ga6  1  0.250000  0.605295  0.693883  1
  Ga  Ga7  1  0.750000  0.104898  0.805819  1
  Co  Co8  1  0.250000  0.935522  0.844052  1
  Co  Co9  1  0.250000  0.565727  0.344686  1
  Co  Co10  1  0.750000  0.064561  0.157043  1
  Co  Co11  1  0.750000  0.436511  0.655846  1
