# generated using pymatgen
data_Ce4Nd4Zn8PdRh7
_symmetry_space_group_name_H-M   'P 1'
_cell_length_a   3.93532800
_cell_length_b   7.46482770
_cell_length_c   16.42122961
_cell_angle_alpha   90.54566776
_cell_angle_beta   90.00000000
_cell_angle_gamma   90.00000000
_symmetry_Int_Tables_number   1
_chemical_formula_structural   Ce4Nd4Zn8PdRh7
_chemical_formula_sum   'Ce4 Nd4 Zn8 Pd1 Rh7'
_cell_volume   482.37712138
_cell_formula_units_Z   1
loop_
 _symmetry_equiv_pos_site_id
 _symmetry_equiv_pos_as_xyz
  1  'x, y, z'
loop_
 _atom_site_type_symbol
 _atom_site_label
 _atom_site_symmetry_multiplicity
 _atom_site_fract_x
 _atom_site_fract_y
 _atom_site_fract_z
 _atom_site_occupancy
  Ce  Ce0  1  0.250000  0.175416  0.940286  1
  Ce  Ce1  1  0.750000  0.318839  0.439991  1
  Ce  Ce2  1  0.750000  0.953015  0.279265  1
  Ce  Ce3  1  0.750000  0.827610  0.059234  1
  Nd  Nd4  1  0.250000  0.666279  0.563991  1
  Nd  Nd5  1  0.750000  0.446613  0.214343  1
  Nd  Nd6  1  0.250000  0.051065  0.715821  1
  Nd  Nd7  1  0.250000  0.553412  0.786470  1
  Zn  Zn8  1  0.750000  0.000377  0.561321  1
  Zn  Zn9  1  0.250000  0.614154  0.343087  1
  Zn  Zn10  1  0.750000  0.380201  0.652986  1
  Zn  Zn11  1  0.250000  0.498669  0.061402  1
  Zn  Zn12  1  0.750000  0.505868  0.940224  1
  Zn  Zn13  1  0.250000  0.991903  0.439842  1
  Zn  Zn14  1  0.250000  0.122790  0.149690  1
  Zn  Zn15  1  0.750000  0.881788  0.849167  1
  Pd  Pd16  1  0.750000  0.750800  0.429742  1
  Rh  Rh17  1  0.250000  0.235446  0.320785  1
  Rh  Rh18  1  0.750000  0.247843  0.822851  1
  Rh  Rh19  1  0.750000  0.755248  0.686231  1
  Rh  Rh20  1  0.250000  0.251875  0.558570  1
  Rh  Rh21  1  0.250000  0.766556  0.183680  1
  Rh  Rh22  1  0.750000  0.246405  0.057612  1
  Rh  Rh23  1  0.250000  0.757828  0.943413  1
