# generated using pymatgen
data_Ce2ErNb(Al3Ir)6
_symmetry_space_group_name_H-M   'P 1'
_cell_length_a   7.55311297
_cell_length_b   7.56951506
_cell_length_c   9.37742100
_cell_angle_alpha   90.00000000
_cell_angle_beta   90.00000000
_cell_angle_gamma   119.69920154
_symmetry_Int_Tables_number   1
_chemical_formula_structural   Ce2ErNb(Al3Ir)6
_chemical_formula_sum   'Ce2 Er1 Nb1 Al18 Ir6'
_cell_volume   465.71098927
_cell_formula_units_Z   1
loop_
 _symmetry_equiv_pos_site_id
 _symmetry_equiv_pos_as_xyz
  1  'x, y, z'
loop_
 _atom_site_type_symbol
 _atom_site_label
 _atom_site_symmetry_multiplicity
 _atom_site_fract_x
 _atom_site_fract_y
 _atom_site_fract_z
 _atom_site_occupancy
  Ce  Ce0  1  0.005998  0.329970  0.750000  1
  Ce  Ce1  1  0.328661  0.004658  0.750000  1
  Er  Er2  1  0.995451  0.671652  0.250000  1
  Nb  Nb3  1  0.670344  0.994371  0.250000  1
  Al  Al4  1  0.119053  0.121764  0.250000  1
  Al  Al5  1  0.865536  0.868360  0.750000  1
  Al  Al6  1  0.994733  0.329342  0.081409  1
  Al  Al7  1  0.996699  0.664653  0.927981  1
  Al  Al8  1  0.996699  0.664653  0.572019  1
  Al  Al9  1  0.340619  0.999759  0.418894  1
  Al  Al10  1  0.994733  0.329342  0.418591  1
  Al  Al11  1  0.665339  0.998642  0.564574  1
  Al  Al12  1  0.665339  0.998642  0.935426  1
  Al  Al13  1  0.340619  0.999759  0.081106  1
  Al  Al14  1  0.335683  0.335329  0.545961  1
  Al  Al15  1  0.667601  0.671734  0.439646  1
  Al  Al16  1  0.667601  0.671734  0.060354  1
  Al  Al17  1  0.335683  0.335329  0.954039  1
  Al  Al18  1  0.345447  0.560046  0.250000  1
  Al  Al19  1  0.658437  0.453778  0.750000  1
  Al  Al20  1  0.552588  0.334855  0.250000  1
  Al  Al21  1  0.456299  0.661550  0.750000  1
  Ir  Ir22  1  0.673399  0.329003  0.001908  1
  Ir  Ir23  1  0.327418  0.672514  0.001095  1
  Ir  Ir24  1  0.327418  0.672514  0.498905  1
  Ir  Ir25  1  0.673399  0.329003  0.498092  1
  Ir  Ir26  1  0.999602  0.998523  0.001239  1
  Ir  Ir27  1  0.999602  0.998523  0.498761  1
