# generated using pymatgen
data_Ti3(NbB3)2
_symmetry_space_group_name_H-M   'P 1'
_cell_length_a   11.42425711
_cell_length_b   11.42425703
_cell_length_c   3.30600700
_cell_angle_alpha   90.00000000
_cell_angle_beta   90.00000000
_cell_angle_gamma   164.60600348
_symmetry_Int_Tables_number   1
_chemical_formula_structural   Ti3(NbB3)2
_chemical_formula_sum   'Ti3 Nb2 B6'
_cell_volume   114.53831045
_cell_formula_units_Z   1
loop_
 _symmetry_equiv_pos_site_id
 _symmetry_equiv_pos_as_xyz
  1  'x, y, z'
loop_
 _atom_site_type_symbol
 _atom_site_label
 _atom_site_symmetry_multiplicity
 _atom_site_fract_x
 _atom_site_fract_y
 _atom_site_fract_z
 _atom_site_occupancy
  Ti  Ti0  1  0.000864  0.999136  0.000000  1
  Ti  Ti1  1  0.612219  0.387781  0.000000  1
  Ti  Ti2  1  0.804704  0.195296  0.500000  1
  Nb  Nb3  1  0.386099  0.613901  0.000000  1
  Nb  Nb4  1  0.193538  0.806462  0.500000  1
  B  B5  1  0.920303  0.079697  0.500000  1
  B  B6  1  0.080187  0.919813  0.500000  1
  B  B7  1  0.728921  0.271079  0.000000  1
  B  B8  1  0.271839  0.728161  0.000000  1
  B  B9  1  0.539789  0.460211  0.500000  1
  B  B10  1  0.461537  0.538463  0.500000  1
