# generated using pymatgen
data_ErGaCu3Pd
_symmetry_space_group_name_H-M   'P 1'
_cell_length_a   5.05764607
_cell_length_b   5.05764638
_cell_length_c   5.01067759
_cell_angle_alpha   59.68943606
_cell_angle_beta   59.68943548
_cell_angle_gamma   59.99999853
_symmetry_Int_Tables_number   1
_chemical_formula_structural   ErGaCu3Pd
_chemical_formula_sum   'Er1 Ga1 Cu3 Pd1'
_cell_volume   90.20355760
_cell_formula_units_Z   1
loop_
 _symmetry_equiv_pos_site_id
 _symmetry_equiv_pos_as_xyz
  1  'x, y, z'
loop_
 _atom_site_type_symbol
 _atom_site_label
 _atom_site_symmetry_multiplicity
 _atom_site_fract_x
 _atom_site_fract_y
 _atom_site_fract_z
 _atom_site_occupancy
  Er  Er0  1  0.002782  0.002782  0.991654  1
  Ga  Ga1  1  0.621022  0.621022  0.136936  1
  Cu  Cu2  1  0.623738  0.125949  0.626576  1
  Cu  Cu3  1  0.125949  0.623738  0.626576  1
  Cu  Cu4  1  0.623738  0.623738  0.626576  1
  Pd  Pd5  1  0.252772  0.252772  0.241684  1
