# generated using pymatgen
data_Pr2Tm7ScBi6
_symmetry_space_group_name_H-M   'P 1'
_cell_length_a   8.13737500
_cell_length_b   9.41738700
_cell_length_c   11.91566500
_cell_angle_alpha   90.00000000
_cell_angle_beta   90.00000000
_cell_angle_gamma   90.00000000
_symmetry_Int_Tables_number   1
_chemical_formula_structural   Pr2Tm7ScBi6
_chemical_formula_sum   'Pr4 Tm14 Sc2 Bi12'
_cell_volume   913.13088648
_cell_formula_units_Z   2
loop_
 _symmetry_equiv_pos_site_id
 _symmetry_equiv_pos_as_xyz
  1  'x, y, z'
loop_
 _atom_site_type_symbol
 _atom_site_label
 _atom_site_symmetry_multiplicity
 _atom_site_fract_x
 _atom_site_fract_y
 _atom_site_fract_z
 _atom_site_occupancy
  Pr  Pr0  1  0.316346  0.250000  0.220020  1
  Pr  Pr1  1  0.816346  0.250000  0.279980  1
  Pr  Pr2  1  0.680832  0.750000  0.779669  1
  Pr  Pr3  1  0.180832  0.750000  0.720331  1
  Tm  Tm4  1  0.352190  0.750000  0.218946  1
  Tm  Tm5  1  0.852190  0.750000  0.281054  1
  Tm  Tm6  1  0.647473  0.250000  0.780789  1
  Tm  Tm7  1  0.147473  0.250000  0.719211  1
  Tm  Tm8  1  0.692908  0.566696  0.060316  1
  Tm  Tm9  1  0.192908  0.933304  0.439684  1
  Tm  Tm10  1  0.308903  0.064511  0.938411  1
  Tm  Tm11  1  0.808903  0.435489  0.561589  1
  Tm  Tm12  1  0.308903  0.435489  0.938411  1
  Tm  Tm13  1  0.808903  0.064511  0.561589  1
  Tm  Tm14  1  0.692908  0.933304  0.060316  1
  Tm  Tm15  1  0.192908  0.566696  0.439684  1
  Tm  Tm16  1  0.478783  0.250000  0.488399  1
  Tm  Tm17  1  0.978783  0.250000  0.011601  1
  Sc  Sc18  1  0.521793  0.750000  0.510839  1
  Sc  Sc19  1  0.021793  0.750000  0.989161  1
  Bi  Bi20  1  0.397624  0.750000  0.964457  1
  Bi  Bi21  1  0.897624  0.750000  0.535543  1
  Bi  Bi22  1  0.597548  0.250000  0.036169  1
  Bi  Bi23  1  0.097548  0.250000  0.463831  1
  Bi  Bi24  1  0.566312  0.987351  0.331099  1
  Bi  Bi25  1  0.066312  0.512649  0.168901  1
  Bi  Bi26  1  0.435582  0.493188  0.669163  1
  Bi  Bi27  1  0.935582  0.006812  0.830837  1
  Bi  Bi28  1  0.435582  0.006812  0.669163  1
  Bi  Bi29  1  0.935582  0.493188  0.830837  1
  Bi  Bi30  1  0.566312  0.512649  0.331099  1
  Bi  Bi31  1  0.066312  0.987351  0.168901  1
