# generated using pymatgen
data_Tb8HoEr11(CoBi2)4
_symmetry_space_group_name_H-M   'P 1'
_cell_length_a   7.98033007
_cell_length_b   8.88136900
_cell_length_c   12.35376211
_cell_angle_alpha   90.00000000
_cell_angle_beta   90.01526850
_cell_angle_gamma   90.00000000
_symmetry_Int_Tables_number   1
_chemical_formula_structural   Tb8HoEr11(CoBi2)4
_chemical_formula_sum   'Tb8 Ho1 Er11 Co4 Bi8'
_cell_volume   875.58837600
_cell_formula_units_Z   1
loop_
 _symmetry_equiv_pos_site_id
 _symmetry_equiv_pos_as_xyz
  1  'x, y, z'
loop_
 _atom_site_type_symbol
 _atom_site_label
 _atom_site_symmetry_multiplicity
 _atom_site_fract_x
 _atom_site_fract_y
 _atom_site_fract_z
 _atom_site_occupancy
  Tb  Tb0  1  0.346747  0.750000  0.699481  1
  Tb  Tb1  1  0.653234  0.250000  0.300483  1
  Tb  Tb2  1  0.846740  0.250000  0.800429  1
  Tb  Tb3  1  0.153162  0.750000  0.199628  1
  Tb  Tb4  1  0.884448  0.750000  0.810767  1
  Tb  Tb5  1  0.115530  0.250000  0.189236  1
  Tb  Tb6  1  0.384468  0.250000  0.689187  1
  Tb  Tb7  1  0.615545  0.750000  0.310821  1
  Ho  Ho8  1  0.447437  0.750000  0.997771  1
  Er  Er9  1  0.675442  0.538025  0.562723  1
  Er  Er10  1  0.324517  0.462070  0.437272  1
  Er  Er11  1  0.175353  0.461860  0.937338  1
  Er  Er12  1  0.324517  0.037930  0.437272  1
  Er  Er13  1  0.824618  0.537952  0.062633  1
  Er  Er14  1  0.675442  0.961975  0.562723  1
  Er  Er15  1  0.824618  0.962048  0.062633  1
  Er  Er16  1  0.175353  0.038140  0.937338  1
  Er  Er17  1  0.052778  0.750000  0.497738  1
  Er  Er18  1  0.947365  0.250000  0.502260  1
  Er  Er19  1  0.552669  0.250000  0.002232  1
  Co  Co20  1  0.066204  0.750000  0.991645  1
  Co  Co21  1  0.933682  0.250000  0.008363  1
  Co  Co22  1  0.566339  0.250000  0.508352  1
  Co  Co23  1  0.433642  0.750000  0.491653  1
  Bi  Bi24  1  0.571439  0.509411  0.827615  1
  Bi  Bi25  1  0.428637  0.490331  0.172397  1
  Bi  Bi26  1  0.071345  0.490435  0.672253  1
  Bi  Bi27  1  0.428637  0.009669  0.172397  1
  Bi  Bi28  1  0.928655  0.509535  0.327747  1
  Bi  Bi29  1  0.571439  0.990589  0.827615  1
  Bi  Bi30  1  0.928655  0.990465  0.327747  1
  Bi  Bi31  1  0.071345  0.009565  0.672253  1
