# generated using pymatgen
data_DyMgReH6
_symmetry_space_group_name_H-M   'P 1'
_cell_length_a   4.91463814
_cell_length_b   4.91466636
_cell_length_c   4.91459800
_cell_angle_alpha   119.99976792
_cell_angle_beta   119.99940504
_cell_angle_gamma   90.00060118
_symmetry_Int_Tables_number   1
_chemical_formula_structural   DyMgReH6
_chemical_formula_sum   'Dy1 Mg1 Re1 H6'
_cell_volume   83.93860356
_cell_formula_units_Z   1
loop_
 _symmetry_equiv_pos_site_id
 _symmetry_equiv_pos_as_xyz
  1  'x, y, z'
loop_
 _atom_site_type_symbol
 _atom_site_label
 _atom_site_symmetry_multiplicity
 _atom_site_fract_x
 _atom_site_fract_y
 _atom_site_fract_z
 _atom_site_occupancy
  Dy  Dy0  1  0.750016  0.249998  0.500000  1
  Mg  Mg1  1  0.250011  0.750003  0.500010  1
  Re  Re2  1  0.999902  0.999987  0.999925  1
  H  H3  1  0.253445  0.253440  0.000004  1
  H  H4  1  0.746572  0.253431  0.000004  1
  H  H5  1  0.253447  0.746557  0.000004  1
  H  H6  1  0.746575  0.746567  0.000007  1
  H  H7  1  0.746578  0.746570  0.493144  1
  H  H8  1  0.253450  0.253443  0.506895  1
