# generated using pymatgen
data_Nd6ZrCr(Co4P3)4
_symmetry_space_group_name_H-M   'P 1'
_cell_length_a   3.76814100
_cell_length_b   10.75758700
_cell_length_c   12.53968800
_cell_angle_alpha   90.00000000
_cell_angle_beta   90.00000000
_cell_angle_gamma   90.00000000
_symmetry_Int_Tables_number   1
_chemical_formula_structural   Nd6ZrCr(Co4P3)4
_chemical_formula_sum   'Nd6 Zr1 Cr1 Co16 P12'
_cell_volume   508.31010487
_cell_formula_units_Z   1
loop_
 _symmetry_equiv_pos_site_id
 _symmetry_equiv_pos_as_xyz
  1  'x, y, z'
loop_
 _atom_site_type_symbol
 _atom_site_label
 _atom_site_symmetry_multiplicity
 _atom_site_fract_x
 _atom_site_fract_y
 _atom_site_fract_z
 _atom_site_occupancy
  Nd  Nd0  1  0.000000  0.500000  0.528971  1
  Nd  Nd1  1  0.500000  0.000000  0.478439  1
  Nd  Nd2  1  0.500000  0.820316  0.206417  1
  Nd  Nd3  1  0.500000  0.179684  0.206417  1
  Nd  Nd4  1  0.000000  0.683066  0.795132  1
  Nd  Nd5  1  0.000000  0.316934  0.795132  1
  Zr  Zr6  1  0.500000  0.500000  0.152368  1
  Cr  Cr7  1  0.000000  0.000000  0.841850  1
  Co  Co8  1  0.500000  0.500000  0.704470  1
  Co  Co9  1  0.000000  0.000000  0.295494  1
  Co  Co10  1  0.000000  0.500000  0.983531  1
  Co  Co11  1  0.500000  0.000000  0.009764  1
  Co  Co12  1  0.500000  0.326571  0.988722  1
  Co  Co13  1  0.500000  0.673429  0.988722  1
  Co  Co14  1  0.000000  0.161685  0.001568  1
  Co  Co15  1  0.000000  0.838315  0.001568  1
  Co  Co16  1  0.500000  0.294224  0.434701  1
  Co  Co17  1  0.500000  0.705776  0.434701  1
  Co  Co18  1  0.000000  0.202598  0.570582  1
  Co  Co19  1  0.000000  0.797402  0.570582  1
  Co  Co20  1  0.500000  0.882468  0.708884  1
  Co  Co21  1  0.500000  0.117532  0.708884  1
  Co  Co22  1  0.000000  0.620195  0.299899  1
  Co  Co23  1  0.000000  0.379805  0.299899  1
  P  P24  1  0.500000  0.500000  0.884907  1
  P  P25  1  0.000000  0.000000  0.112890  1
  P  P26  1  0.500000  0.500000  0.357334  1
  P  P27  1  0.000000  0.000000  0.659010  1
  P  P28  1  0.500000  0.304701  0.616046  1
  P  P29  1  0.500000  0.695299  0.616046  1
  P  P30  1  0.000000  0.192402  0.388178  1
  P  P31  1  0.000000  0.807598  0.388178  1
  P  P32  1  0.500000  0.852891  0.889900  1
  P  P33  1  0.500000  0.147109  0.889900  1
  P  P34  1  0.000000  0.662673  0.095455  1
  P  P35  1  0.000000  0.337327  0.095455  1
