# generated using pymatgen
data_Tm2FeCo8Mo3P7
_symmetry_space_group_name_H-M   'P 1'
_cell_length_a   9.03283311
_cell_length_b   9.05683455
_cell_length_c   3.70609200
_cell_angle_alpha   90.00000000
_cell_angle_beta   90.00000000
_cell_angle_gamma   119.91843088
_symmetry_Int_Tables_number   1
_chemical_formula_structural   Tm2FeCo8Mo3P7
_chemical_formula_sum   'Tm2 Fe1 Co8 Mo3 P7'
_cell_volume   262.78684912
_cell_formula_units_Z   1
loop_
 _symmetry_equiv_pos_site_id
 _symmetry_equiv_pos_as_xyz
  1  'x, y, z'
loop_
 _atom_site_type_symbol
 _atom_site_label
 _atom_site_symmetry_multiplicity
 _atom_site_fract_x
 _atom_site_fract_y
 _atom_site_fract_z
 _atom_site_occupancy
  Tm  Tm0  1  0.334229  0.665665  0.000000  1
  Tm  Tm1  1  0.999364  0.999718  0.500000  1
  Fe  Fe2  1  0.546241  0.494230  0.000000  1
  Co  Co3  1  0.729165  0.963208  0.000000  1
  Co  Co4  1  0.233405  0.270157  0.000000  1
  Co  Co5  1  0.037445  0.766051  0.000000  1
  Co  Co6  1  0.948504  0.454030  0.000000  1
  Co  Co7  1  0.505668  0.051367  0.000000  1
  Co  Co8  1  0.105654  0.384921  0.500000  1
  Co  Co9  1  0.279591  0.894566  0.500000  1
  Co  Co10  1  0.615382  0.722120  0.500000  1
  Mo  Mo11  1  0.763289  0.209652  0.500000  1
  Mo  Mo12  1  0.445097  0.235077  0.500000  1
  Mo  Mo13  1  0.789985  0.554479  0.500000  1
  P  P14  1  0.968915  0.220141  0.000000  1
  P  P15  1  0.250845  0.030759  0.000000  1
  P  P16  1  0.778226  0.747507  0.000000  1
  P  P17  1  0.078479  0.623223  0.500000  1
  P  P18  1  0.545543  0.922604  0.500000  1
  P  P19  1  0.379497  0.456349  0.500000  1
  P  P20  1  0.665478  0.334173  0.000000  1
