# generated using pymatgen
data_V5SbO11
_symmetry_space_group_name_H-M   'P 1'
_cell_length_a   5.61963999
_cell_length_b   7.21982794
_cell_length_c   9.79468407
_cell_angle_alpha   88.76929789
_cell_angle_beta   98.71243038
_cell_angle_gamma   107.94276000
_symmetry_Int_Tables_number   1
_chemical_formula_structural   V5SbO11
_chemical_formula_sum   'V10 Sb2 O22'
_cell_volume   373.57393934
_cell_formula_units_Z   2
loop_
 _symmetry_equiv_pos_site_id
 _symmetry_equiv_pos_as_xyz
  1  'x, y, z'
loop_
 _atom_site_type_symbol
 _atom_site_label
 _atom_site_symmetry_multiplicity
 _atom_site_fract_x
 _atom_site_fract_y
 _atom_site_fract_z
 _atom_site_occupancy
  V  V0  1  0.705954  0.927172  0.764267  1
  V  V1  1  0.294046  0.072828  0.235733  1
  V  V2  1  0.233524  0.135743  0.587892  1
  V  V3  1  0.766476  0.864257  0.412108  1
  V  V4  1  0.701303  0.427693  0.765320  1
  V  V5  1  0.298697  0.572307  0.234680  1
  V  V6  1  0.181923  0.199152  0.935922  1
  V  V7  1  0.818077  0.800848  0.064078  1
  V  V8  1  0.182169  0.696312  0.938979  1
  V  V9  1  0.817831  0.303688  0.061021  1
  Sb  Sb10  1  0.758872  0.357294  0.410202  1
  Sb  Sb11  1  0.241128  0.642706  0.589798  1
  O  O12  1  0.125617  0.018474  0.387159  1
  O  O13  1  0.874383  0.981526  0.612841  1
  O  O14  1  0.628684  0.078136  0.345279  1
  O  O15  1  0.371316  0.921864  0.654721  1
  O  O16  1  0.905810  0.642208  0.472946  1
  O  O17  1  0.094190  0.357792  0.527054  1
  O  O18  1  0.936961  0.425450  0.248157  1
  O  O19  1  0.063039  0.574550  0.751843  1
  O  O20  1  0.205843  0.449292  0.035506  1
  O  O21  1  0.794157  0.550708  0.964494  1
  O  O22  1  0.824591  0.200994  0.854343  1
  O  O23  1  0.175409  0.799006  0.145657  1
  O  O24  1  0.588944  0.299409  0.576791  1
  O  O25  1  0.411056  0.700591  0.423209  1
  O  O26  1  0.336163  0.255499  0.789574  1
  O  O27  1  0.663837  0.744501  0.210426  1
  O  O28  1  0.018819  0.912312  0.892668  1
  O  O29  1  0.981181  0.087688  0.107332  1
  O  O30  1  0.431874  0.356866  0.298033  1
  O  O31  1  0.568126  0.643134  0.701967  1
  O  O32  1  0.458096  0.168741  0.073808  1
  O  O33  1  0.541904  0.831259  0.926192  1
