# generated using pymatgen
data_Y8Re2TcB24Ru
_symmetry_space_group_name_H-M   'P 1'
_cell_length_a   3.68296100
_cell_length_b   9.18033729
_cell_length_c   11.56880700
_cell_angle_alpha   89.91505119
_cell_angle_beta   90.00000000
_cell_angle_gamma   90.00000000
_symmetry_Int_Tables_number   1
_chemical_formula_structural   Y8Re2TcB24Ru
_chemical_formula_sum   'Y8 Re2 Tc1 B24 Ru1'
_cell_volume   391.15046992
_cell_formula_units_Z   1
loop_
 _symmetry_equiv_pos_site_id
 _symmetry_equiv_pos_as_xyz
  1  'x, y, z'
loop_
 _atom_site_type_symbol
 _atom_site_label
 _atom_site_symmetry_multiplicity
 _atom_site_fract_x
 _atom_site_fract_y
 _atom_site_fract_z
 _atom_site_occupancy
  Y  Y0  1  0.000000  0.323317  0.413775  1
  Y  Y1  1  0.000000  0.675157  0.583986  1
  Y  Y2  1  0.000000  0.823130  0.087303  1
  Y  Y3  1  0.000000  0.178647  0.914137  1
  Y  Y4  1  0.000000  0.941956  0.370798  1
  Y  Y5  1  0.000000  0.056693  0.630452  1
  Y  Y6  1  0.000000  0.444121  0.129935  1
  Y  Y7  1  0.000000  0.558399  0.869823  1
  Re  Re8  1  0.000000  0.361773  0.679661  1
  Re  Re9  1  0.000000  0.137674  0.178078  1
  Tc  Tc10  1  0.000000  0.638187  0.320708  1
  B  B11  1  0.500000  0.553053  0.432522  1
  B  B12  1  0.500000  0.446600  0.566743  1
  B  B13  1  0.500000  0.053113  0.066726  1
  B  B14  1  0.500000  0.946053  0.932539  1
  B  B15  1  0.500000  0.747856  0.418594  1
  B  B16  1  0.500000  0.250843  0.581536  1
  B  B17  1  0.500000  0.249303  0.081353  1
  B  B18  1  0.500000  0.751990  0.918364  1
  B  B19  1  0.500000  0.791419  0.265721  1
  B  B20  1  0.500000  0.208652  0.734976  1
  B  B21  1  0.500000  0.291531  0.234484  1
  B  B22  1  0.500000  0.709566  0.765396  1
  B  B23  1  0.500000  0.631438  0.185875  1
  B  B24  1  0.500000  0.369445  0.814669  1
  B  B25  1  0.500000  0.130236  0.313827  1
  B  B26  1  0.500000  0.868387  0.686040  1
  B  B27  1  0.500000  0.981846  0.211749  1
  B  B28  1  0.500000  0.016239  0.788416  1
  B  B29  1  0.500000  0.482679  0.288014  1
  B  B30  1  0.500000  0.517525  0.711560  1
  B  B31  1  0.500000  0.602909  0.028299  1
  B  B32  1  0.500000  0.399951  0.971642  1
  B  B33  1  0.500000  0.101196  0.472064  1
  B  B34  1  0.500000  0.897259  0.529063  1
  Ru  Ru35  1  0.000000  0.861861  0.821172  1
