# generated using pymatgen
data_CsThCuTe3
_symmetry_space_group_name_H-M   'P 1'
_cell_length_a   8.89583169
_cell_length_b   8.89583162
_cell_length_c   11.66820800
_cell_angle_alpha   90.00000000
_cell_angle_beta   90.00000000
_cell_angle_gamma   150.72540643
_symmetry_Int_Tables_number   1
_chemical_formula_structural   CsThCuTe3
_chemical_formula_sum   'Cs2 Th2 Cu2 Te6'
_cell_volume   451.52553846
_cell_formula_units_Z   2
loop_
 _symmetry_equiv_pos_site_id
 _symmetry_equiv_pos_as_xyz
  1  'x, y, z'
loop_
 _atom_site_type_symbol
 _atom_site_label
 _atom_site_symmetry_multiplicity
 _atom_site_fract_x
 _atom_site_fract_y
 _atom_site_fract_z
 _atom_site_occupancy
  Cs  Cs0  1  0.255867  0.744134  0.250000  1
  Cs  Cs1  1  0.744134  0.255867  0.750000  1
  Th  Th2  1  0.000000  0.000000  0.000000  1
  Th  Th3  1  0.000000  0.000000  0.500000  1
  Cu  Cu4  1  0.531411  0.468589  0.250000  1
  Cu  Cu5  1  0.468589  0.531411  0.750000  1
  Te  Te6  1  0.620282  0.379719  0.064080  1
  Te  Te7  1  0.939587  0.060414  0.250000  1
  Te  Te8  1  0.620282  0.379719  0.435920  1
  Te  Te9  1  0.379719  0.620282  0.564079  1
  Te  Te10  1  0.060414  0.939587  0.750000  1
  Te  Te11  1  0.379719  0.620282  0.935921  1
