# generated using pymatgen
data_Ho3SiAs2Ru3
_symmetry_space_group_name_H-M   'P 1'
_cell_length_a   7.02982900
_cell_length_b   7.02982832
_cell_length_c   3.77257000
_cell_angle_alpha   90.00000000
_cell_angle_beta   90.00000000
_cell_angle_gamma   119.99999850
_symmetry_Int_Tables_number   1
_chemical_formula_structural   Ho3SiAs2Ru3
_chemical_formula_sum   'Ho3 Si1 As2 Ru3'
_cell_volume   161.45720308
_cell_formula_units_Z   1
loop_
 _symmetry_equiv_pos_site_id
 _symmetry_equiv_pos_as_xyz
  1  'x, y, z'
loop_
 _atom_site_type_symbol
 _atom_site_label
 _atom_site_symmetry_multiplicity
 _atom_site_fract_x
 _atom_site_fract_y
 _atom_site_fract_z
 _atom_site_occupancy
  Ho  Ho0  1  0.403870  0.403870  0.500000  1
  Ho  Ho1  1  0.596130  0.000000  0.500000  1
  Ho  Ho2  1  0.000000  0.596130  0.500000  1
  Si  Si3  1  0.000000  0.000000  0.500000  1
  As  As4  1  0.666667  0.333333  0.000000  1
  As  As5  1  0.333333  0.666667  0.000000  1
  Ru  Ru6  1  0.764601  0.764601  0.000000  1
  Ru  Ru7  1  0.235399  0.000000  0.000000  1
  Ru  Ru8  1  0.000000  0.235399  0.000000  1
