# generated using pymatgen
data_Dy5Tm3(CuP)12
_symmetry_space_group_name_H-M   'P 1'
_cell_length_a   3.83378000
_cell_length_b   10.64120202
_cell_length_c   12.92397503
_cell_angle_alpha   89.99271064
_cell_angle_beta   90.00000000
_cell_angle_gamma   90.00000000
_symmetry_Int_Tables_number   1
_chemical_formula_structural   Dy5Tm3(CuP)12
_chemical_formula_sum   'Dy5 Tm3 Cu12 P12'
_cell_volume   527.24683613
_cell_formula_units_Z   1
loop_
 _symmetry_equiv_pos_site_id
 _symmetry_equiv_pos_as_xyz
  1  'x, y, z'
loop_
 _atom_site_type_symbol
 _atom_site_label
 _atom_site_symmetry_multiplicity
 _atom_site_fract_x
 _atom_site_fract_y
 _atom_site_fract_z
 _atom_site_occupancy
  Dy  Dy0  1  0.250000  0.931809  0.792907  1
  Dy  Dy1  1  0.750000  0.431161  0.708116  1
  Dy  Dy2  1  0.250000  0.568502  0.291476  1
  Dy  Dy3  1  0.750000  0.068832  0.207903  1
  Dy  Dy4  1  0.250000  0.840621  0.503594  1
  Tm  Tm5  1  0.750000  0.340757  0.996409  1
  Tm  Tm6  1  0.250000  0.658767  0.003389  1
  Tm  Tm7  1  0.750000  0.159401  0.496601  1
  Cu  Cu8  1  0.250000  0.404226  0.512187  1
  Cu  Cu9  1  0.750000  0.904642  0.987590  1
  Cu  Cu10  1  0.250000  0.094583  0.012850  1
  Cu  Cu11  1  0.750000  0.594627  0.488006  1
  Cu  Cu12  1  0.250000  0.271937  0.330523  1
  Cu  Cu13  1  0.750000  0.771913  0.167429  1
  Cu  Cu14  1  0.250000  0.228848  0.830758  1
  Cu  Cu15  1  0.750000  0.728810  0.669947  1
  Cu  Cu16  1  0.250000  0.859854  0.281588  1
  Cu  Cu17  1  0.750000  0.359885  0.217243  1
  Cu  Cu18  1  0.250000  0.639951  0.783093  1
  Cu  Cu19  1  0.750000  0.141411  0.718193  1
  P  P20  1  0.250000  0.242328  0.641075  1
  P  P21  1  0.750000  0.742346  0.859100  1
  P  P22  1  0.250000  0.257679  0.140892  1
  P  P23  1  0.750000  0.756419  0.357104  1
  P  P24  1  0.250000  0.604435  0.603155  1
  P  P25  1  0.750000  0.106224  0.898096  1
  P  P26  1  0.250000  0.894007  0.102070  1
  P  P27  1  0.750000  0.394073  0.397447  1
  P  P28  1  0.250000  0.057405  0.370828  1
  P  P29  1  0.750000  0.556386  0.128249  1
  P  P30  1  0.250000  0.443429  0.871549  1
  P  P31  1  0.750000  0.944733  0.630634  1
