# generated using pymatgen
data_La6Pr3HoC4I15
_symmetry_space_group_name_H-M   'P 1'
_cell_length_a   9.87612844
_cell_length_b   10.78869718
_cell_length_c   11.87843971
_cell_angle_alpha   93.60564672
_cell_angle_beta   114.20643638
_cell_angle_gamma   109.56139472
_symmetry_Int_Tables_number   1
_chemical_formula_structural   La6Pr3HoC4I15
_chemical_formula_sum   'La6 Pr3 Ho1 C4 I15'
_cell_volume   1057.82863428
_cell_formula_units_Z   1
loop_
 _symmetry_equiv_pos_site_id
 _symmetry_equiv_pos_as_xyz
  1  'x, y, z'
loop_
 _atom_site_type_symbol
 _atom_site_label
 _atom_site_symmetry_multiplicity
 _atom_site_fract_x
 _atom_site_fract_y
 _atom_site_fract_z
 _atom_site_occupancy
  La  La0  1  0.220903  0.113239  0.742878  1
  La  La1  1  0.401983  0.458707  0.655206  1
  La  La2  1  0.472711  0.814928  0.897667  1
  La  La3  1  0.706596  0.568295  0.045953  1
  La  La4  1  0.294640  0.432942  0.956984  1
  La  La5  1  0.657772  0.254580  0.832756  1
  Pr  Pr6  1  0.345938  0.746312  0.165121  1
  Pr  Pr7  1  0.775890  0.882566  0.257564  1
  Pr  Pr8  1  0.528777  0.187440  0.102497  1
  Ho  Ho9  1  0.592968  0.545946  0.333157  1
  C  C10  1  0.482511  0.301001  0.936828  1
  C  C11  1  0.518607  0.698890  0.062574  1
  C  C12  1  0.452508  0.361424  0.832837  1
  C  C13  1  0.546649  0.636349  0.165585  1
  I  I14  1  0.207941  0.907263  0.941340  1
  I  I15  1  0.101406  0.184944  0.466592  1
  I  I16  1  0.149639  0.554821  0.703415  1
  I  I17  1  0.403466  0.966467  0.644294  1
  I  I18  1  0.717053  0.734967  0.822009  1
  I  I19  1  0.299953  0.275044  0.189015  1
  I  I20  1  0.837197  0.447247  0.303553  1
  I  I21  1  0.881758  0.798440  0.525372  1
  I  I22  1  0.369897  0.628041  0.411242  1
  I  I23  1  0.054888  0.833286  0.223047  1
  I  I24  1  0.794889  0.096736  0.065774  1
  I  I25  1  0.643203  0.375649  0.582186  1
  I  I26  1  0.942375  0.164800  0.779272  1
  I  I27  1  0.594381  0.028698  0.351589  1
  I  I28  1  0.003501  0.500977  0.003691  1
