# generated using pymatgen
data_Cs2P2IrOs
_symmetry_space_group_name_H-M   'P 1'
_cell_length_a   4.05662100
_cell_length_b   4.05662100
_cell_length_c   11.97642600
_cell_angle_alpha   90.00000000
_cell_angle_beta   90.00000000
_cell_angle_gamma   90.00000000
_symmetry_Int_Tables_number   1
_chemical_formula_structural   Cs2P2IrOs
_chemical_formula_sum   'Cs2 P2 Ir1 Os1'
_cell_volume   197.08614941
_cell_formula_units_Z   1
loop_
 _symmetry_equiv_pos_site_id
 _symmetry_equiv_pos_as_xyz
  1  'x, y, z'
loop_
 _atom_site_type_symbol
 _atom_site_label
 _atom_site_symmetry_multiplicity
 _atom_site_fract_x
 _atom_site_fract_y
 _atom_site_fract_z
 _atom_site_occupancy
  Cs  Cs0  1  0.000000  0.500000  0.276278  1
  Cs  Cs1  1  0.500000  0.000000  0.723722  1
  P  P2  1  0.000000  0.500000  0.899215  1
  P  P3  1  0.500000  0.000000  0.100785  1
  Ir  Ir4  1  0.500000  0.500000  0.000000  1
  Os  Os5  1  0.000000  0.000000  0.000000  1
