# generated using pymatgen
data_Dy2MgAl3GeAu2
_symmetry_space_group_name_H-M   'P 1'
_cell_length_a   6.90188231
_cell_length_b   7.10733010
_cell_length_c   4.22601700
_cell_angle_alpha   90.00000000
_cell_angle_beta   90.00000000
_cell_angle_gamma   120.36511432
_symmetry_Int_Tables_number   1
_chemical_formula_structural   Dy2MgAl3GeAu2
_chemical_formula_sum   'Dy2 Mg1 Al3 Ge1 Au2'
_cell_volume   178.86538181
_cell_formula_units_Z   1
loop_
 _symmetry_equiv_pos_site_id
 _symmetry_equiv_pos_as_xyz
  1  'x, y, z'
loop_
 _atom_site_type_symbol
 _atom_site_label
 _atom_site_symmetry_multiplicity
 _atom_site_fract_x
 _atom_site_fract_y
 _atom_site_fract_z
 _atom_site_occupancy
  Dy  Dy0  1  0.426140  0.423748  0.500000  1
  Dy  Dy1  1  0.579133  0.005705  0.500000  1
  Mg  Mg2  1  0.007604  0.588377  0.500000  1
  Al  Al3  1  0.751378  0.764617  0.000000  1
  Al  Al4  1  0.237262  0.990046  0.000000  1
  Al  Al5  1  0.008998  0.244154  0.000000  1
  Ge  Ge6  1  0.671539  0.335882  0.000000  1
  Au  Au7  1  0.318948  0.662037  0.000000  1
  Au  Au8  1  0.998998  0.985436  0.500000  1
