# generated using pymatgen
data_Hf6Tl4GeI18
_symmetry_space_group_name_H-M   'P 1'
_cell_length_a   11.21393888
_cell_length_b   11.34683278
_cell_length_c   11.46141500
_cell_angle_alpha   118.49602594
_cell_angle_beta   100.18095103
_cell_angle_gamma   103.79531636
_symmetry_Int_Tables_number   1
_chemical_formula_structural   Hf6Tl4GeI18
_chemical_formula_sum   'Hf6 Tl4 Ge1 I18'
_cell_volume   1170.39631641
_cell_formula_units_Z   1
loop_
 _symmetry_equiv_pos_site_id
 _symmetry_equiv_pos_as_xyz
  1  'x, y, z'
loop_
 _atom_site_type_symbol
 _atom_site_label
 _atom_site_symmetry_multiplicity
 _atom_site_fract_x
 _atom_site_fract_y
 _atom_site_fract_z
 _atom_site_occupancy
  Hf  Hf0  1  0.150812  0.055826  0.230833  1
  Hf  Hf1  1  0.849188  0.944174  0.769167  1
  Hf  Hf2  1  0.862454  0.127739  0.134055  1
  Hf  Hf3  1  0.137546  0.872261  0.865945  1
  Hf  Hf4  1  0.145835  0.239571  0.045233  1
  Hf  Hf5  1  0.854165  0.760429  0.954767  1
  Tl  Tl6  1  0.647947  0.537195  0.225241  1
  Tl  Tl7  1  0.352053  0.462805  0.774759  1
  Tl  Tl8  1  0.681712  0.223834  0.562438  1
  Tl  Tl9  1  0.318288  0.776166  0.437562  1
  Ge  Ge10  1  0.000000  0.000000  0.000000  1
  I  I11  1  0.008960  0.413027  0.198689  1
  I  I12  1  0.991040  0.586973  0.801311  1
  I  I13  1  0.331138  0.334814  0.312837  1
  I  I14  1  0.668862  0.665186  0.687163  1
  I  I15  1  0.324496  0.524026  0.100379  1
  I  I16  1  0.675504  0.475974  0.899621  1
  I  I17  1  0.004668  0.794120  0.210573  1
  I  I18  1  0.995332  0.205880  0.789427  1
  I  I19  1  0.701394  0.278907  0.292090  1
  I  I20  1  0.298606  0.721093  0.707910  1
  I  I21  1  0.318088  0.127366  0.901948  1
  I  I22  1  0.681912  0.872634  0.098052  1
  I  I23  1  0.015728  0.206046  0.411149  1
  I  I24  1  0.984272  0.793954  0.588851  1
  I  I25  1  0.322503  0.921188  0.109868  1
  I  I26  1  0.677497  0.078812  0.890132  1
  I  I27  1  0.335918  0.121896  0.505010  1
  I  I28  1  0.664082  0.878104  0.494990  1
