# generated using pymatgen
data_CaSc4Co3Ni6As7
_symmetry_space_group_name_H-M   'P 1'
_cell_length_a   3.83788400
_cell_length_b   9.67984317
_cell_length_c   9.67984100
_cell_angle_alpha   119.99998918
_cell_angle_beta   90.00000000
_cell_angle_gamma   90.00000000
_symmetry_Int_Tables_number   1
_chemical_formula_structural   CaSc4Co3Ni6As7
_chemical_formula_sum   'Ca1 Sc4 Co3 Ni6 As7'
_cell_volume   311.42901176
_cell_formula_units_Z   1
loop_
 _symmetry_equiv_pos_site_id
 _symmetry_equiv_pos_as_xyz
  1  'x, y, z'
loop_
 _atom_site_type_symbol
 _atom_site_label
 _atom_site_symmetry_multiplicity
 _atom_site_fract_x
 _atom_site_fract_y
 _atom_site_fract_z
 _atom_site_occupancy
  Ca  Ca0  1  0.500000  0.333333  0.666667  1
  Sc  Sc1  1  0.500000  0.768541  0.890039  1
  Sc  Sc2  1  0.500000  0.121499  0.231459  1
  Sc  Sc3  1  0.500000  0.109961  0.878501  1
  Sc  Sc4  1  0.000000  0.666667  0.333333  1
  Co  Co5  1  0.500000  0.945079  0.388115  1
  Co  Co6  1  0.500000  0.443036  0.054921  1
  Co  Co7  1  0.500000  0.611885  0.556964  1
  Ni  Ni8  1  0.000000  0.578857  0.939178  1
  Ni  Ni9  1  0.000000  0.360321  0.421143  1
  Ni  Ni10  1  0.000000  0.060822  0.639679  1
  Ni  Ni11  1  0.000000  0.872630  0.161687  1
  Ni  Ni12  1  0.000000  0.289058  0.127370  1
  Ni  Ni13  1  0.000000  0.838313  0.710942  1
  As  As14  1  0.500000  0.710703  0.138213  1
  As  As15  1  0.500000  0.427511  0.289297  1
  As  As16  1  0.500000  0.861787  0.572489  1
  As  As17  1  0.000000  0.000000  0.000000  1
  As  As18  1  0.000000  0.576770  0.681220  1
  As  As19  1  0.000000  0.104449  0.423230  1
  As  As20  1  0.000000  0.318780  0.895551  1
