# generated using pymatgen
data_Tm6Lu2Re3B24Ru
_symmetry_space_group_name_H-M   'P 1'
_cell_length_a   3.63259700
_cell_length_b   9.08386261
_cell_length_c   11.45093501
_cell_angle_alpha   90.11239968
_cell_angle_beta   90.00000000
_cell_angle_gamma   90.00000000
_symmetry_Int_Tables_number   1
_chemical_formula_structural   Tm6Lu2Re3B24Ru
_chemical_formula_sum   'Tm6 Lu2 Re3 B24 Ru1'
_cell_volume   377.85736472
_cell_formula_units_Z   1
loop_
 _symmetry_equiv_pos_site_id
 _symmetry_equiv_pos_as_xyz
  1  'x, y, z'
loop_
 _atom_site_type_symbol
 _atom_site_label
 _atom_site_symmetry_multiplicity
 _atom_site_fract_x
 _atom_site_fract_y
 _atom_site_fract_z
 _atom_site_occupancy
  Tm  Tm0  1  0.000000  0.321390  0.414023  1
  Tm  Tm1  1  0.000000  0.677538  0.587871  1
  Tm  Tm2  1  0.000000  0.824130  0.084120  1
  Tm  Tm3  1  0.000000  0.177604  0.913897  1
  Tm  Tm4  1  0.000000  0.941893  0.369848  1
  Tm  Tm5  1  0.000000  0.056154  0.629178  1
  Lu  Lu6  1  0.000000  0.443415  0.129916  1
  Lu  Lu7  1  0.000000  0.556742  0.871513  1
  Re  Re8  1  0.000000  0.362542  0.678892  1
  Re  Re9  1  0.000000  0.139058  0.179619  1
  Re  Re10  1  0.000000  0.860886  0.820797  1
  B  B11  1  0.500000  0.553522  0.432942  1
  B  B12  1  0.500000  0.447557  0.566351  1
  B  B13  1  0.500000  0.053346  0.066271  1
  B  B14  1  0.500000  0.947042  0.933390  1
  B  B15  1  0.500000  0.748817  0.418816  1
  B  B16  1  0.500000  0.250079  0.580686  1
  B  B17  1  0.500000  0.251105  0.080773  1
  B  B18  1  0.500000  0.749687  0.919443  1
  B  B19  1  0.500000  0.791214  0.264700  1
  B  B20  1  0.500000  0.207577  0.734978  1
  B  B21  1  0.500000  0.293436  0.235236  1
  B  B22  1  0.500000  0.706483  0.765636  1
  B  B23  1  0.500000  0.630534  0.184560  1
  B  B24  1  0.500000  0.370352  0.815379  1
  B  B25  1  0.500000  0.131029  0.315553  1
  B  B26  1  0.500000  0.868624  0.684927  1
  B  B27  1  0.500000  0.981462  0.211693  1
  B  B28  1  0.500000  0.018484  0.787805  1
  B  B29  1  0.500000  0.482330  0.287716  1
  B  B30  1  0.500000  0.519493  0.712518  1
  B  B31  1  0.500000  0.600225  0.028425  1
  B  B32  1  0.500000  0.400413  0.972674  1
  B  B33  1  0.500000  0.100176  0.471659  1
  B  B34  1  0.500000  0.897566  0.527910  1
  Ru  Ru35  1  0.000000  0.638096  0.320281  1
