# generated using pymatgen
data_Li4Ca3ErSi8
_symmetry_space_group_name_H-M   'P 1'
_cell_length_a   3.80069000
_cell_length_b   7.84932348
_cell_length_c   10.48991272
_cell_angle_alpha   89.83010387
_cell_angle_beta   90.00000000
_cell_angle_gamma   90.00000000
_symmetry_Int_Tables_number   1
_chemical_formula_structural   Li4Ca3ErSi8
_chemical_formula_sum   'Li4 Ca3 Er1 Si8'
_cell_volume   312.94256735
_cell_formula_units_Z   1
loop_
 _symmetry_equiv_pos_site_id
 _symmetry_equiv_pos_as_xyz
  1  'x, y, z'
loop_
 _atom_site_type_symbol
 _atom_site_label
 _atom_site_symmetry_multiplicity
 _atom_site_fract_x
 _atom_site_fract_y
 _atom_site_fract_z
 _atom_site_occupancy
  Li  Li0  1  0.250000  0.997604  0.388374  1
  Li  Li1  1  0.750000  0.000707  0.610460  1
  Li  Li2  1  0.250000  0.497210  0.109053  1
  Li  Li3  1  0.750000  0.509156  0.888497  1
  Ca  Ca4  1  0.750000  0.866415  0.134918  1
  Ca  Ca5  1  0.250000  0.635011  0.637565  1
  Ca  Ca6  1  0.750000  0.363200  0.364960  1
  Er  Er7  1  0.250000  0.128154  0.865406  1
  Si  Si8  1  0.750000  0.266935  0.059292  1
  Si  Si9  1  0.250000  0.740309  0.932779  1
  Si  Si10  1  0.750000  0.767091  0.432444  1
  Si  Si11  1  0.250000  0.225771  0.574580  1
  Si  Si12  1  0.750000  0.845186  0.823994  1
  Si  Si13  1  0.250000  0.163759  0.169184  1
  Si  Si14  1  0.750000  0.330301  0.683998  1
  Si  Si15  1  0.250000  0.663192  0.324496  1
