# generated using pymatgen
data_Th2CSe
_symmetry_space_group_name_H-M   'P 1'
_cell_length_a   7.35876704
_cell_length_b   7.35876702
_cell_length_c   7.35876708
_cell_angle_alpha   30.54280242
_cell_angle_beta   30.54280052
_cell_angle_gamma   30.54279609
_symmetry_Int_Tables_number   1
_chemical_formula_structural   Th2CSe
_chemical_formula_sum   'Th2 C1 Se1'
_cell_volume   91.22895931
_cell_formula_units_Z   1
loop_
 _symmetry_equiv_pos_site_id
 _symmetry_equiv_pos_as_xyz
  1  'x, y, z'
loop_
 _atom_site_type_symbol
 _atom_site_label
 _atom_site_symmetry_multiplicity
 _atom_site_fract_x
 _atom_site_fract_y
 _atom_site_fract_z
 _atom_site_occupancy
  Th  Th0  1  0.267305  0.267305  0.267305  1
  Th  Th1  1  0.732695  0.732695  0.732695  1
  C  C2  1  0.000000  0.000000  0.000000  1
  Se  Se3  1  0.500000  0.500000  0.500000  1
