# generated using pymatgen
data_Tb9Dy3Co4SnPd
_symmetry_space_group_name_H-M   'P 1'
_cell_length_a   8.36145976
_cell_length_b   8.36078891
_cell_length_c   8.36146067
_cell_angle_alpha   111.00991818
_cell_angle_beta   110.27309954
_cell_angle_gamma   107.15920783
_symmetry_Int_Tables_number   1
_chemical_formula_structural   Tb9Dy3Co4SnPd
_chemical_formula_sum   'Tb9 Dy3 Co4 Sn1 Pd1'
_cell_volume   449.39184008
_cell_formula_units_Z   1
loop_
 _symmetry_equiv_pos_site_id
 _symmetry_equiv_pos_as_xyz
  1  'x, y, z'
loop_
 _atom_site_type_symbol
 _atom_site_label
 _atom_site_symmetry_multiplicity
 _atom_site_fract_x
 _atom_site_fract_y
 _atom_site_fract_z
 _atom_site_occupancy
  Tb  Tb0  1  0.413030  0.212514  0.200851  1
  Tb  Tb1  1  0.587163  0.787722  0.799708  1
  Tb  Tb2  1  0.011664  0.212514  0.799484  1
  Tb  Tb3  1  0.988012  0.787722  0.200559  1
  Tb  Tb4  1  0.186341  0.294019  0.480818  1
  Tb  Tb5  1  0.813766  0.705950  0.519467  1
  Tb  Tb6  1  0.186482  0.705950  0.892184  1
  Tb  Tb7  1  0.813202  0.294019  0.107678  1
  Tb  Tb8  1  0.314338  0.619175  0.304837  1
  Dy  Dy9  1  0.685426  0.380438  0.695012  1
  Dy  Dy10  1  0.314648  0.010107  0.695458  1
  Dy  Dy11  1  0.685638  0.990581  0.304943  1
  Co  Co12  1  0.379415  0.999790  0.379044  1
  Co  Co13  1  0.620747  0.999790  0.620375  1
  Co  Co14  1  0.111988  0.611927  0.499938  1
  Co  Co15  1  0.887921  0.387970  0.500049  1
  Sn  Sn16  1  0.500216  0.499889  0.999673  1
  Pd  Pd17  1  0.000004  0.999923  0.999920  1
