# generated using pymatgen
data_LiHf(InRh2)2
_symmetry_space_group_name_H-M   'P 1'
_cell_length_a   6.33606009
_cell_length_b   6.32942407
_cell_length_c   6.43487604
_cell_angle_alpha   90.00004313
_cell_angle_beta   90.00009643
_cell_angle_gamma   89.98395080
_symmetry_Int_Tables_number   1
_chemical_formula_structural   LiHf(InRh2)2
_chemical_formula_sum   'Li2 Hf2 In4 Rh8'
_cell_volume   258.06175693
_cell_formula_units_Z   2
loop_
 _symmetry_equiv_pos_site_id
 _symmetry_equiv_pos_as_xyz
  1  'x, y, z'
loop_
 _atom_site_type_symbol
 _atom_site_label
 _atom_site_symmetry_multiplicity
 _atom_site_fract_x
 _atom_site_fract_y
 _atom_site_fract_z
 _atom_site_occupancy
  Li  Li0  1  0.750016  0.250006  0.999999  1
  Li  Li1  1  0.249985  0.749994  0.000001  1
  Hf  Hf2  1  0.250005  0.750009  0.499997  1
  Hf  Hf3  1  0.749995  0.249991  0.500004  1
  In  In4  1  0.250152  0.249944  0.000070  1
  In  In5  1  0.749849  0.750056  0.999930  1
  In  In6  1  0.749976  0.750163  0.500073  1
  In  In7  1  0.250024  0.249837  0.499927  1
  Rh  Rh8  1  0.000001  0.000005  0.248474  1
  Rh  Rh9  1  0.000005  0.499994  0.248477  1
  Rh  Rh10  1  0.500001  0.499996  0.248462  1
  Rh  Rh11  1  0.500000  0.000009  0.248489  1
  Rh  Rh12  1  0.500000  0.999991  0.751511  1
  Rh  Rh13  1  0.500000  0.500004  0.751537  1
  Rh  Rh14  1  0.999995  0.500006  0.751523  1
  Rh  Rh15  1  0.999999  0.999995  0.751526  1
