# generated using pymatgen
data_Mn24OsW4
_symmetry_space_group_name_H-M   'P 1'
_cell_length_a   7.59735045
_cell_length_b   7.59730208
_cell_length_c   7.59751801
_cell_angle_alpha   109.47255547
_cell_angle_beta   109.46344542
_cell_angle_gamma   109.47773371
_symmetry_Int_Tables_number   1
_chemical_formula_structural   Mn24OsW4
_chemical_formula_sum   'Mn24 Os1 W4'
_cell_volume   337.57556850
_cell_formula_units_Z   1
loop_
 _symmetry_equiv_pos_site_id
 _symmetry_equiv_pos_as_xyz
  1  'x, y, z'
loop_
 _atom_site_type_symbol
 _atom_site_label
 _atom_site_symmetry_multiplicity
 _atom_site_fract_x
 _atom_site_fract_y
 _atom_site_fract_z
 _atom_site_occupancy
  Mn  Mn0  1  0.388240  0.675500  0.000038  1
  Mn  Mn1  1  0.712842  0.324488  0.324574  1
  Mn  Mn2  1  0.388258  0.000146  0.675536  1
  Mn  Mn3  1  0.675511  0.388257  0.000003  1
  Mn  Mn4  1  0.000058  0.388226  0.675534  1
  Mn  Mn5  1  0.324559  0.712740  0.324456  1
  Mn  Mn6  1  0.324379  0.324542  0.712792  1
  Mn  Mn7  1  0.999948  0.675480  0.388127  1
  Mn  Mn8  1  0.675603  0.000146  0.388297  1
  Mn  Mn9  1  0.611719  0.611710  0.287157  1
  Mn  Mn10  1  0.287147  0.611624  0.611831  1
  Mn  Mn11  1  0.611798  0.287231  0.611779  1
  Mn  Mn12  1  0.377460  0.195785  0.000029  1
  Mn  Mn13  1  0.181735  0.804260  0.804317  1
  Mn  Mn14  1  0.377520  0.000019  0.195699  1
  Mn  Mn15  1  0.195697  0.377437  0.999894  1
  Mn  Mn16  1  0.999962  0.377391  0.195671  1
  Mn  Mn17  1  0.804420  0.181813  0.804324  1
  Mn  Mn18  1  0.804237  0.804315  0.181726  1
  Mn  Mn19  1  0.999976  0.195698  0.377494  1
  Mn  Mn20  1  0.195674  0.000062  0.377432  1
  Mn  Mn21  1  0.622465  0.622478  0.818286  1
  Mn  Mn22  1  0.818272  0.622487  0.622537  1
  Mn  Mn23  1  0.622596  0.818300  0.622564  1
  Os  Os24  1  0.999996  0.999983  0.000016  1
  W  W25  1  0.636995  0.999954  0.999988  1
  W  W26  1  0.999973  0.636971  0.999952  1
  W  W27  1  0.000001  0.999990  0.636996  1
  W  W28  1  0.362960  0.362969  0.362949  1
