# generated using pymatgen
data_Ho16MgCo3NiHg3
_symmetry_space_group_name_H-M   'P 1'
_cell_length_a   9.44297629
_cell_length_b   9.43277886
_cell_length_c   9.43278000
_cell_angle_alpha   60.00000301
_cell_angle_beta   60.03571924
_cell_angle_gamma   60.03571341
_symmetry_Int_Tables_number   1
_chemical_formula_structural   Ho16MgCo3NiHg3
_chemical_formula_sum   'Ho16 Mg1 Co3 Ni1 Hg3'
_cell_volume   594.43929933
_cell_formula_units_Z   1
loop_
 _symmetry_equiv_pos_site_id
 _symmetry_equiv_pos_as_xyz
  1  'x, y, z'
loop_
 _atom_site_type_symbol
 _atom_site_label
 _atom_site_symmetry_multiplicity
 _atom_site_fract_x
 _atom_site_fract_y
 _atom_site_fract_z
 _atom_site_occupancy
  Ho  Ho0  1  0.345859  0.347420  0.347420  1
  Ho  Ho1  1  0.345859  0.347420  0.959299  1
  Ho  Ho2  1  0.345859  0.959299  0.347420  1
  Ho  Ho3  1  0.953287  0.348904  0.348904  1
  Ho  Ho4  1  0.813381  0.189532  0.189532  1
  Ho  Ho5  1  0.184238  0.814218  0.814218  1
  Ho  Ho6  1  0.184238  0.814218  0.187326  1
  Ho  Ho7  1  0.813381  0.189532  0.807556  1
  Ho  Ho8  1  0.184238  0.187326  0.814218  1
  Ho  Ho9  1  0.813381  0.807556  0.189532  1
  Ho  Ho10  1  0.935258  0.563665  0.563664  1
  Ho  Ho11  1  0.560387  0.937156  0.937155  1
  Ho  Ho12  1  0.560388  0.937156  0.565301  1
  Ho  Ho13  1  0.935258  0.563665  0.937411  1
  Ho  Ho14  1  0.560387  0.565302  0.937155  1
  Ho  Ho15  1  0.935258  0.937412  0.563664  1
  Mg  Mg16  1  0.284188  0.571938  0.571938  1
  Co  Co17  1  0.139713  0.142420  0.142420  1
  Co  Co18  1  0.139713  0.142420  0.575445  1
  Co  Co19  1  0.139713  0.575445  0.142420  1
  Ni  Ni20  1  0.576373  0.141209  0.141209  1
  Hg  Hg21  1  0.583213  0.585300  0.585300  1
  Hg  Hg22  1  0.583213  0.585300  0.246188  1
  Hg  Hg23  1  0.583213  0.246188  0.585300  1
