# generated using pymatgen
data_Sm7Mg(Si4Mo3)4
_symmetry_space_group_name_H-M   'P 1'
_cell_length_a   6.81747214
_cell_length_b   7.00242951
_cell_length_c   13.00721657
_cell_angle_alpha   89.85919607
_cell_angle_beta   90.04898001
_cell_angle_gamma   90.05516873
_symmetry_Int_Tables_number   1
_chemical_formula_structural   Sm7Mg(Si4Mo3)4
_chemical_formula_sum   'Sm7 Mg1 Si16 Mo12'
_cell_volume   620.94740810
_cell_formula_units_Z   1
loop_
 _symmetry_equiv_pos_site_id
 _symmetry_equiv_pos_as_xyz
  1  'x, y, z'
loop_
 _atom_site_type_symbol
 _atom_site_label
 _atom_site_symmetry_multiplicity
 _atom_site_fract_x
 _atom_site_fract_y
 _atom_site_fract_z
 _atom_site_occupancy
  Sm  Sm0  1  0.996103  0.165342  0.094214  1
  Sm  Sm1  1  0.003248  0.834048  0.903026  1
  Sm  Sm2  1  0.502400  0.665977  0.906125  1
  Sm  Sm3  1  0.001378  0.833556  0.594408  1
  Sm  Sm4  1  0.496294  0.334359  0.094492  1
  Sm  Sm5  1  0.998357  0.165461  0.408240  1
  Sm  Sm6  1  0.498561  0.336121  0.409734  1
  Mg  Mg7  1  0.515894  0.668067  0.594866  1
  Si  Si8  1  0.033713  0.140310  0.749225  1
  Si  Si9  1  0.963423  0.860805  0.251067  1
  Si  Si10  1  0.463999  0.638118  0.251086  1
  Si  Si11  1  0.532911  0.365929  0.747582  1
  Si  Si12  1  0.311724  0.869198  0.744758  1
  Si  Si13  1  0.692735  0.123600  0.252045  1
  Si  Si14  1  0.194903  0.374857  0.251008  1
  Si  Si15  1  0.799954  0.625174  0.746336  1
  Si  Si16  1  0.166301  0.462391  0.549218  1
  Si  Si17  1  0.843663  0.544311  0.453931  1
  Si  Si18  1  0.344521  0.950890  0.453960  1
  Si  Si19  1  0.842248  0.545968  0.047295  1
  Si  Si20  1  0.651919  0.036787  0.549867  1
  Si  Si21  1  0.156700  0.453986  0.950735  1
  Si  Si22  1  0.656851  0.046493  0.951448  1
  Si  Si23  1  0.342056  0.954172  0.047282  1
  Mo  Mo24  1  0.167312  0.500752  0.748789  1
  Mo  Mo25  1  0.834430  0.502034  0.250475  1
  Mo  Mo26  1  0.333260  0.996245  0.250676  1
  Mo  Mo27  1  0.664821  0.003059  0.749637  1
  Mo  Mo28  1  0.329004  0.168555  0.627059  1
  Mo  Mo29  1  0.668431  0.833183  0.375759  1
  Mo  Mo30  1  0.168075  0.663501  0.374310  1
  Mo  Mo31  1  0.668506  0.835479  0.126876  1
  Mo  Mo32  1  0.828665  0.336212  0.624132  1
  Mo  Mo33  1  0.330390  0.163543  0.872513  1
  Mo  Mo34  1  0.829652  0.337687  0.871330  1
  Mo  Mo35  1  0.167598  0.663828  0.126498  1
