# generated using pymatgen
data_LiPrP2Pd
_symmetry_space_group_name_H-M   'P 1'
_cell_length_a   5.88417899
_cell_length_b   4.08793645
_cell_length_c   10.25938102
_cell_angle_alpha   90.00377886
_cell_angle_beta   29.33959655
_cell_angle_gamma   69.78636316
_symmetry_Int_Tables_number   1
_chemical_formula_structural   LiPrP2Pd
_chemical_formula_sum   'Li1 Pr1 P2 Pd1'
_cell_volume   85.72225905
_cell_formula_units_Z   1
loop_
 _symmetry_equiv_pos_site_id
 _symmetry_equiv_pos_as_xyz
  1  'x, y, z'
loop_
 _atom_site_type_symbol
 _atom_site_label
 _atom_site_symmetry_multiplicity
 _atom_site_fract_x
 _atom_site_fract_y
 _atom_site_fract_z
 _atom_site_occupancy
  Li  Li0  1  0.999862  0.500139  0.250069  1
  Pr  Pr1  1  0.000006  0.999994  0.999997  1
  P  P2  1  0.000182  0.000020  0.387248  1
  P  P3  1  0.999777  0.000020  0.612771  1
  Pd  Pd4  1  0.000173  0.499827  0.749914  1
