# generated using pymatgen
data_Nd7Dy(OsI4)2
_symmetry_space_group_name_H-M   'P 1'
_cell_length_a   11.95839150
_cell_length_b   11.93181629
_cell_length_c   6.40071498
_cell_angle_alpha   89.99790368
_cell_angle_beta   90.08623527
_cell_angle_gamma   89.84909420
_symmetry_Int_Tables_number   1
_chemical_formula_structural   Nd7Dy(OsI4)2
_chemical_formula_sum   'Nd7 Dy1 Os2 I8'
_cell_volume   913.28393042
_cell_formula_units_Z   1
loop_
 _symmetry_equiv_pos_site_id
 _symmetry_equiv_pos_as_xyz
  1  'x, y, z'
loop_
 _atom_site_type_symbol
 _atom_site_label
 _atom_site_symmetry_multiplicity
 _atom_site_fract_x
 _atom_site_fract_y
 _atom_site_fract_z
 _atom_site_occupancy
  Nd  Nd0  1  0.803116  0.079915  0.999978  1
  Nd  Nd1  1  0.081176  0.803966  0.500830  1
  Nd  Nd2  1  0.079060  0.196088  0.000460  1
  Nd  Nd3  1  0.195573  0.080279  0.500695  1
  Nd  Nd4  1  0.918184  0.804020  0.999220  1
  Nd  Nd5  1  0.919685  0.196186  0.498727  1
  Nd  Nd6  1  0.195095  0.918246  0.999525  1
  Dy  Dy7  1  0.814979  0.923812  0.498472  1
  Os  Os8  1  0.000139  0.999983  0.249770  1
  Os  Os9  1  0.999992  0.000063  0.749757  1
  I  I10  1  0.655827  0.135910  0.491410  1
  I  I11  1  0.851132  0.661284  0.505214  1
  I  I12  1  0.344441  0.144057  0.994850  1
  I  I13  1  0.143786  0.346067  0.494614  1
  I  I14  1  0.654345  0.855645  0.007258  1
  I  I15  1  0.345766  0.855164  0.509290  1
  I  I16  1  0.143358  0.652464  0.990678  1
  I  I17  1  0.854348  0.346849  0.009253  1
