# generated using pymatgen
data_CsPaCl6
_symmetry_space_group_name_H-M   'P 1'
_cell_length_a   7.38123009
_cell_length_b   7.38122986
_cell_length_c   13.27420392
_cell_angle_alpha   79.37107733
_cell_angle_beta   79.37107869
_cell_angle_gamma   55.25001661
_symmetry_Int_Tables_number   1
_chemical_formula_structural   CsPaCl6
_chemical_formula_sum   'Cs2 Pa2 Cl12'
_cell_volume   581.20637375
_cell_formula_units_Z   2
loop_
 _symmetry_equiv_pos_site_id
 _symmetry_equiv_pos_as_xyz
  1  'x, y, z'
loop_
 _atom_site_type_symbol
 _atom_site_label
 _atom_site_symmetry_multiplicity
 _atom_site_fract_x
 _atom_site_fract_y
 _atom_site_fract_z
 _atom_site_occupancy
  Cs  Cs0  1  0.881524  0.118476  0.750000  1
  Cs  Cs1  1  0.118476  0.881524  0.250000  1
  Pa  Pa2  1  0.500000  0.000000  0.500000  1
  Pa  Pa3  1  0.000000  0.500000  0.000000  1
  Cl  Cl4  1  0.459322  0.696579  0.607448  1
  Cl  Cl5  1  0.540678  0.303421  0.392552  1
  Cl  Cl6  1  0.303421  0.540678  0.892552  1
  Cl  Cl7  1  0.696579  0.459322  0.107448  1
  Cl  Cl8  1  0.369172  0.201406  0.662393  1
  Cl  Cl9  1  0.630828  0.798594  0.337607  1
  Cl  Cl10  1  0.798594  0.630828  0.837607  1
  Cl  Cl11  1  0.201406  0.369172  0.162393  1
  Cl  Cl12  1  0.798821  0.902503  0.039256  1
  Cl  Cl13  1  0.201179  0.097497  0.960744  1
  Cl  Cl14  1  0.097497  0.201179  0.460744  1
  Cl  Cl15  1  0.902503  0.798821  0.539256  1
