# generated using pymatgen
data_LiScCo8(P3W)2
_symmetry_space_group_name_H-M   'P 1'
_cell_length_a   3.59774500
_cell_length_b   10.29077000
_cell_length_c   11.78333900
_cell_angle_alpha   90.00000000
_cell_angle_beta   90.00000000
_cell_angle_gamma   90.00000000
_symmetry_Int_Tables_number   1
_chemical_formula_structural   LiScCo8(P3W)2
_chemical_formula_sum   'Li2 Sc2 Co16 P12 W4'
_cell_volume   436.26123286
_cell_formula_units_Z   2
loop_
 _symmetry_equiv_pos_site_id
 _symmetry_equiv_pos_as_xyz
  1  'x, y, z'
loop_
 _atom_site_type_symbol
 _atom_site_label
 _atom_site_symmetry_multiplicity
 _atom_site_fract_x
 _atom_site_fract_y
 _atom_site_fract_z
 _atom_site_occupancy
  Li  Li0  1  0.250000  0.579449  0.703685  1
  Li  Li1  1  0.250000  0.920551  0.203685  1
  Sc  Sc2  1  0.750000  0.417001  0.294427  1
  Sc  Sc3  1  0.750000  0.082999  0.794427  1
  Co  Co4  1  0.250000  0.404808  0.485328  1
  Co  Co5  1  0.250000  0.095192  0.985328  1
  Co  Co6  1  0.750000  0.590621  0.512867  1
  Co  Co7  1  0.750000  0.909379  0.012867  1
  Co  Co8  1  0.250000  0.222081  0.177578  1
  Co  Co9  1  0.250000  0.277920  0.677578  1
  Co  Co10  1  0.750000  0.781848  0.822605  1
  Co  Co11  1  0.750000  0.718152  0.322605  1
  Co  Co12  1  0.250000  0.888839  0.700770  1
  Co  Co13  1  0.250000  0.611161  0.200770  1
  Co  Co14  1  0.750000  0.113130  0.299540  1
  Co  Co15  1  0.750000  0.386870  0.799540  1
  Co  Co16  1  0.250000  0.466658  0.933939  1
  Co  Co17  1  0.250000  0.033342  0.433939  1
  Co  Co18  1  0.750000  0.536970  0.066324  1
  Co  Co19  1  0.750000  0.963030  0.566324  1
  P  P20  1  0.250000  0.420654  0.118470  1
  P  P21  1  0.250000  0.079346  0.618470  1
  P  P22  1  0.750000  0.581760  0.876910  1
  P  P23  1  0.750000  0.918240  0.376910  1
  P  P24  1  0.250000  0.265969  0.862718  1
  P  P25  1  0.250000  0.234031  0.362718  1
  P  P26  1  0.750000  0.741817  0.138531  1
  P  P27  1  0.750000  0.758183  0.638531  1
  P  P28  1  0.250000  0.590753  0.388911  1
  P  P29  1  0.250000  0.909247  0.888911  1
  P  P30  1  0.750000  0.411637  0.614200  1
  P  P31  1  0.750000  0.088363  0.114200  1
  W  W32  1  0.250000  0.709229  0.990202  1
  W  W33  1  0.250000  0.790771  0.490202  1
  W  W34  1  0.750000  0.290113  0.012995  1
  W  W35  1  0.750000  0.209887  0.512995  1
