# generated using pymatgen
data_LaLu3(Rh2O7)2
_symmetry_space_group_name_H-M   'P 1'
_cell_length_a   7.16188135
_cell_length_b   7.27279552
_cell_length_c   7.16188100
_cell_angle_alpha   60.50321199
_cell_angle_beta   59.99999700
_cell_angle_gamma   60.50321297
_symmetry_Int_Tables_number   1
_chemical_formula_structural   LaLu3(Rh2O7)2
_chemical_formula_sum   'La1 Lu3 Rh4 O14'
_cell_volume   265.76777435
_cell_formula_units_Z   1
loop_
 _symmetry_equiv_pos_site_id
 _symmetry_equiv_pos_as_xyz
  1  'x, y, z'
loop_
 _atom_site_type_symbol
 _atom_site_label
 _atom_site_symmetry_multiplicity
 _atom_site_fract_x
 _atom_site_fract_y
 _atom_site_fract_z
 _atom_site_occupancy
  La  La0  1  0.125000  0.625000  0.125000  1
  Lu  Lu1  1  0.125000  0.125000  0.125000  1
  Lu  Lu2  1  0.625000  0.125000  0.125000  1
  Lu  Lu3  1  0.125000  0.125000  0.625000  1
  Rh  Rh4  1  0.625000  0.625000  0.625000  1
  Rh  Rh5  1  0.625000  0.625000  0.125000  1
  Rh  Rh6  1  0.125000  0.625000  0.625000  1
  Rh  Rh7  1  0.625000  0.125000  0.625000  1
  O  O8  1  0.255796  0.232613  0.255796  1
  O  O9  1  0.287867  0.726682  0.287867  1
  O  O10  1  0.962354  0.964169  0.536739  1
  O  O11  1  0.536739  0.964169  0.536739  1
  O  O12  1  0.697583  0.726682  0.287867  1
  O  O13  1  0.962133  0.523318  0.552417  1
  O  O14  1  0.713261  0.285831  0.713261  1
  O  O15  1  0.287646  0.285831  0.713261  1
  O  O16  1  0.713261  0.285831  0.287646  1
  O  O17  1  0.287867  0.726682  0.697583  1
  O  O18  1  0.962133  0.523318  0.962133  1
  O  O19  1  0.552417  0.523318  0.962133  1
  O  O20  1  0.994204  0.017387  0.994204  1
  O  O21  1  0.536739  0.964169  0.962354  1
