# generated using pymatgen
data_Eu4Tc2MoRuO14
_symmetry_space_group_name_H-M   'P 1'
_cell_length_a   7.47551751
_cell_length_b   7.48766238
_cell_length_c   7.48766150
_cell_angle_alpha   59.78699352
_cell_angle_beta   59.72253845
_cell_angle_gamma   59.72254697
_symmetry_Int_Tables_number   1
_chemical_formula_structural   Eu4Tc2MoRuO14
_chemical_formula_sum   'Eu4 Tc2 Mo1 Ru1 O14'
_cell_volume   294.63647075
_cell_formula_units_Z   1
loop_
 _symmetry_equiv_pos_site_id
 _symmetry_equiv_pos_as_xyz
  1  'x, y, z'
loop_
 _atom_site_type_symbol
 _atom_site_label
 _atom_site_symmetry_multiplicity
 _atom_site_fract_x
 _atom_site_fract_y
 _atom_site_fract_z
 _atom_site_occupancy
  Eu  Eu0  1  0.625000  0.125000  0.125000  1
  Eu  Eu1  1  0.125000  0.625000  0.125000  1
  Eu  Eu2  1  0.125000  0.125000  0.625000  1
  Eu  Eu3  1  0.125000  0.125000  0.125000  1
  Tc  Tc4  1  0.625000  0.125000  0.625000  1
  Tc  Tc5  1  0.625000  0.625000  0.125000  1
  Mo  Mo6  1  0.625000  0.625000  0.625000  1
  Ru  Ru7  1  0.125000  0.625000  0.625000  1
  O  O8  1  0.249206  0.249755  0.249755  1
  O  O9  1  0.000794  0.000245  0.000245  1
  O  O10  1  0.702024  0.698592  0.299884  1
  O  O11  1  0.305976  0.303664  0.697091  1
  O  O12  1  0.702024  0.299884  0.698592  1
  O  O13  1  0.305976  0.697091  0.303664  1
  O  O14  1  0.300871  0.700749  0.700749  1
  O  O15  1  0.701443  0.300089  0.300089  1
  O  O16  1  0.547976  0.551408  0.950116  1
  O  O17  1  0.944024  0.946336  0.552909  1
  O  O18  1  0.547976  0.950116  0.551408  1
  O  O19  1  0.944024  0.552909  0.946336  1
  O  O20  1  0.949129  0.549251  0.549251  1
  O  O21  1  0.548557  0.949911  0.949911  1
