# generated using pymatgen
data_KBiF4
_symmetry_space_group_name_H-M   'P 1'
_cell_length_a   8.42628000
_cell_length_b   8.42627903
_cell_length_c   10.65231400
_cell_angle_alpha   90.00000000
_cell_angle_beta   90.00000000
_cell_angle_gamma   119.99999595
_symmetry_Int_Tables_number   1
_chemical_formula_structural   KBiF4
_chemical_formula_sum   'K6 Bi6 F24'
_cell_volume   655.00758936
_cell_formula_units_Z   6
loop_
 _symmetry_equiv_pos_site_id
 _symmetry_equiv_pos_as_xyz
  1  'x, y, z'
loop_
 _atom_site_type_symbol
 _atom_site_label
 _atom_site_symmetry_multiplicity
 _atom_site_fract_x
 _atom_site_fract_y
 _atom_site_fract_z
 _atom_site_occupancy
  K  K0  1  0.495085  0.323099  0.015671  1
  K  K1  1  0.676901  0.171986  0.349004  1
  K  K2  1  0.828014  0.504915  0.682337  1
  K  K3  1  0.324616  0.493602  0.713631  1
  K  K4  1  0.506398  0.831014  0.046964  1
  K  K5  1  0.168986  0.675384  0.380297  1
  Bi  Bi6  1  0.994544  0.357022  0.029548  1
  Bi  Bi7  1  0.642978  0.637521  0.362881  1
  Bi  Bi8  1  0.362479  0.005456  0.696215  1
  Bi  Bi9  1  0.177624  0.174413  0.358656  1
  Bi  Bi10  1  0.825587  0.003212  0.691990  1
  Bi  Bi11  1  0.996788  0.822376  0.025323  1
  F  F12  1  0.120759  0.056919  0.696450  1
  F  F13  1  0.936160  0.879241  0.363117  1
  F  F14  1  0.943081  0.063840  0.029784  1
  F  F15  1  0.825096  0.800852  0.841517  1
  F  F16  1  0.975757  0.174904  0.508184  1
  F  F17  1  0.199148  0.024243  0.174851  1
  F  F18  1  0.700929  0.193913  0.095485  1
  F  F19  1  0.492985  0.299071  0.762152  1
  F  F20  1  0.806087  0.507015  0.428818  1
  F  F21  1  0.184415  0.706249  0.636441  1
  F  F22  1  0.521833  0.815585  0.303108  1
  F  F23  1  0.293751  0.478167  0.969774  1
  F  F24  1  0.055557  0.322585  0.242426  1
  F  F25  1  0.677415  0.732973  0.575759  1
  F  F26  1  0.267027  0.944443  0.909093  1
  F  F27  1  0.472664  0.347300  0.268446  1
  F  F28  1  0.652700  0.125365  0.601780  1
  F  F29  1  0.874635  0.527336  0.935113  1
  F  F30  1  0.324588  0.056241  0.477501  1
  F  F31  1  0.943759  0.268347  0.810835  1
  F  F32  1  0.731653  0.675412  0.144168  1
  F  F33  1  0.345219  0.459637  0.459894  1
  F  F34  1  0.540363  0.885581  0.793228  1
  F  F35  1  0.114419  0.654781  0.126561  1
