# generated using pymatgen
data_Lu2Sc2Al15(GaIr2)3
_symmetry_space_group_name_H-M   'P 1'
_cell_length_a   7.48283329
_cell_length_b   7.48745454
_cell_length_c   9.40898300
_cell_angle_alpha   90.00000000
_cell_angle_beta   90.00000000
_cell_angle_gamma   119.39172392
_symmetry_Int_Tables_number   1
_chemical_formula_structural   Lu2Sc2Al15(GaIr2)3
_chemical_formula_sum   'Lu2 Sc2 Al15 Ga3 Ir6'
_cell_volume   459.30698010
_cell_formula_units_Z   1
loop_
 _symmetry_equiv_pos_site_id
 _symmetry_equiv_pos_as_xyz
  1  'x, y, z'
loop_
 _atom_site_type_symbol
 _atom_site_label
 _atom_site_symmetry_multiplicity
 _atom_site_fract_x
 _atom_site_fract_y
 _atom_site_fract_z
 _atom_site_occupancy
  Lu  Lu0  1  0.998143  0.676858  0.250000  1
  Lu  Lu1  1  0.671611  0.990647  0.250000  1
  Sc  Sc2  1  0.003669  0.324343  0.750000  1
  Sc  Sc3  1  0.323552  0.002150  0.750000  1
  Al  Al4  1  0.002174  0.335715  0.069919  1
  Al  Al5  1  0.002345  0.664444  0.919980  1
  Al  Al6  1  0.002345  0.664444  0.580020  1
  Al  Al7  1  0.336211  0.003705  0.429881  1
  Al  Al8  1  0.002174  0.335715  0.430081  1
  Al  Al9  1  0.664268  0.002785  0.579942  1
  Al  Al10  1  0.664268  0.002785  0.920058  1
  Al  Al11  1  0.336211  0.003705  0.070119  1
  Al  Al12  1  0.330633  0.330888  0.565844  1
  Al  Al13  1  0.665841  0.665510  0.449909  1
  Al  Al14  1  0.665841  0.665510  0.050091  1
  Al  Al15  1  0.330633  0.330888  0.934156  1
  Al  Al16  1  0.661445  0.442924  0.750000  1
  Al  Al17  1  0.551408  0.339315  0.250000  1
  Al  Al18  1  0.443233  0.661522  0.750000  1
  Ga  Ga19  1  0.133172  0.133523  0.250000  1
  Ga  Ga20  1  0.868888  0.868864  0.750000  1
  Ga  Ga21  1  0.339854  0.546561  0.250000  1
  Ir  Ir22  1  0.672577  0.329445  0.000108  1
  Ir  Ir23  1  0.328777  0.673952  0.998141  1
  Ir  Ir24  1  0.328777  0.673952  0.501859  1
  Ir  Ir25  1  0.672577  0.329445  0.499892  1
  Ir  Ir26  1  0.999686  0.000202  0.999702  1
  Ir  Ir27  1  0.999686  0.000202  0.500298  1
