# generated using pymatgen
data_Al7V12NiN4
_symmetry_space_group_name_H-M   'P 1'
_cell_length_a   6.60140988
_cell_length_b   6.60140877
_cell_length_c   6.60140897
_cell_angle_alpha   89.95262487
_cell_angle_beta   90.04738009
_cell_angle_gamma   90.04737870
_symmetry_Int_Tables_number   1
_chemical_formula_structural   Al7V12NiN4
_chemical_formula_sum   'Al7 V12 Ni1 N4'
_cell_volume   287.67989941
_cell_formula_units_Z   1
loop_
 _symmetry_equiv_pos_site_id
 _symmetry_equiv_pos_as_xyz
  1  'x, y, z'
loop_
 _atom_site_type_symbol
 _atom_site_label
 _atom_site_symmetry_multiplicity
 _atom_site_fract_x
 _atom_site_fract_y
 _atom_site_fract_z
 _atom_site_occupancy
  Al  Al0  1  0.319302  0.175429  0.820047  1
  Al  Al1  1  0.824571  0.320047  0.180698  1
  Al  Al2  1  0.679953  0.680698  0.675429  1
  Al  Al3  1  0.569819  0.430181  0.930181  1
  Al  Al4  1  0.416731  0.923944  0.555988  1
  Al  Al5  1  0.944012  0.583269  0.423944  1
  Al  Al6  1  0.076056  0.055988  0.083269  1
  V  V7  1  0.790668  0.958632  0.374219  1
  V  V8  1  0.710360  0.042067  0.877125  1
  V  V9  1  0.207458  0.459486  0.123325  1
  V  V10  1  0.293255  0.541413  0.629632  1
  V  V11  1  0.957933  0.377125  0.789640  1
  V  V12  1  0.041368  0.874219  0.709332  1
  V  V13  1  0.458587  0.129632  0.206745  1
  V  V14  1  0.540514  0.623325  0.292542  1
  V  V15  1  0.376675  0.792542  0.959486  1
  V  V16  1  0.870368  0.706745  0.041413  1
  V  V17  1  0.125781  0.209332  0.458632  1
  V  V18  1  0.622875  0.289640  0.542067  1
  Ni  Ni19  1  0.181233  0.818767  0.318767  1
  N  N20  1  0.875389  0.124611  0.624611  1
  N  N21  1  0.621935  0.876675  0.128163  1
  N  N22  1  0.123325  0.628163  0.878065  1
  N  N23  1  0.371837  0.378065  0.376675  1
