# generated using pymatgen
data_LaRhF7
_symmetry_space_group_name_H-M   'P 1'
_cell_length_a   5.76345200
_cell_length_b   9.32183761
_cell_length_c   12.43449366
_cell_angle_alpha   62.09676207
_cell_angle_beta   90.00000000
_cell_angle_gamma   90.00000000
_symmetry_Int_Tables_number   1
_chemical_formula_structural   LaRhF7
_chemical_formula_sum   'La4 Rh4 F28'
_cell_volume   590.38651708
_cell_formula_units_Z   4
loop_
 _symmetry_equiv_pos_site_id
 _symmetry_equiv_pos_as_xyz
  1  'x, y, z'
loop_
 _atom_site_type_symbol
 _atom_site_label
 _atom_site_symmetry_multiplicity
 _atom_site_fract_x
 _atom_site_fract_y
 _atom_site_fract_z
 _atom_site_occupancy
  La  La0  1  0.759952  0.809144  0.266127  1
  La  La1  1  0.259952  0.190856  0.233873  1
  La  La2  1  0.240048  0.190856  0.733873  1
  La  La3  1  0.740048  0.809144  0.766127  1
  Rh  Rh4  1  0.244188  0.725733  0.543859  1
  Rh  Rh5  1  0.744188  0.274267  0.956141  1
  Rh  Rh6  1  0.755812  0.274267  0.456141  1
  Rh  Rh7  1  0.255812  0.725733  0.043859  1
  F  F8  1  0.964033  0.714311  0.458582  1
  F  F9  1  0.464033  0.285689  0.041418  1
  F  F10  1  0.035967  0.285689  0.541418  1
  F  F11  1  0.535967  0.714311  0.958582  1
  F  F12  1  0.059877  0.708260  0.922529  1
  F  F13  1  0.559877  0.291740  0.577471  1
  F  F14  1  0.940123  0.291740  0.077471  1
  F  F15  1  0.440123  0.708260  0.422529  1
  F  F16  1  0.738470  0.508481  0.862141  1
  F  F17  1  0.238470  0.491519  0.637859  1
  F  F18  1  0.261530  0.491519  0.137859  1
  F  F19  1  0.761530  0.508481  0.362141  1
  F  F20  1  0.740680  0.040120  0.047455  1
  F  F21  1  0.240680  0.959880  0.452545  1
  F  F22  1  0.259320  0.959880  0.952545  1
  F  F23  1  0.759320  0.040120  0.547455  1
  F  F24  1  0.050145  0.742386  0.666842  1
  F  F25  1  0.550145  0.257614  0.833158  1
  F  F26  1  0.949855  0.257614  0.333158  1
  F  F27  1  0.449855  0.742386  0.166842  1
  F  F28  1  0.019828  0.267702  0.866900  1
  F  F29  1  0.519828  0.732298  0.633100  1
  F  F30  1  0.980172  0.732298  0.133100  1
  F  F31  1  0.480172  0.267702  0.366900  1
  F  F32  1  0.089597  0.969283  0.230908  1
  F  F33  1  0.589597  0.030717  0.269092  1
  F  F34  1  0.910403  0.030717  0.769092  1
  F  F35  1  0.410403  0.969283  0.730908  1
