# generated using pymatgen
data_PrY2Tm(Ir2O7)2
_symmetry_space_group_name_H-M   'P 1'
_cell_length_a   7.31172244
_cell_length_b   7.24964757
_cell_length_c   7.24964749
_cell_angle_alpha   60.06280842
_cell_angle_beta   60.33715758
_cell_angle_gamma   60.33715284
_symmetry_Int_Tables_number   1
_chemical_formula_structural   PrY2Tm(Ir2O7)2
_chemical_formula_sum   'Pr1 Y2 Tm1 Ir4 O14'
_cell_volume   273.23780957
_cell_formula_units_Z   1
loop_
 _symmetry_equiv_pos_site_id
 _symmetry_equiv_pos_as_xyz
  1  'x, y, z'
loop_
 _atom_site_type_symbol
 _atom_site_label
 _atom_site_symmetry_multiplicity
 _atom_site_fract_x
 _atom_site_fract_y
 _atom_site_fract_z
 _atom_site_occupancy
  Pr  Pr0  1  0.625000  0.125000  0.125000  1
  Y  Y1  1  0.125000  0.625000  0.125000  1
  Y  Y2  1  0.125000  0.125000  0.625000  1
  Tm  Tm3  1  0.125000  0.125000  0.125000  1
  Ir  Ir4  1  0.125000  0.625000  0.625000  1
  Ir  Ir5  1  0.625000  0.125000  0.625000  1
  Ir  Ir6  1  0.625000  0.625000  0.125000  1
  Ir  Ir7  1  0.625000  0.625000  0.625000  1
  O  O8  1  0.720172  0.701773  0.288730  1
  O  O9  1  0.288384  0.289129  0.714473  1
  O  O10  1  0.720172  0.288730  0.701773  1
  O  O11  1  0.288384  0.714473  0.289129  1
  O  O12  1  0.288507  0.710875  0.710875  1
  O  O13  1  0.723830  0.288499  0.288499  1
  O  O14  1  0.529828  0.548227  0.961270  1
  O  O15  1  0.961616  0.960871  0.535527  1
  O  O16  1  0.529828  0.961270  0.548227  1
  O  O17  1  0.961616  0.535527  0.960871  1
  O  O18  1  0.961493  0.539125  0.539125  1
  O  O19  1  0.526170  0.961501  0.961501  1
  O  O20  1  0.237640  0.252073  0.252073  1
  O  O21  1  0.012360  0.997927  0.997927  1
