# generated using pymatgen
data_ZrTiI6
_symmetry_space_group_name_H-M   'P 1'
_cell_length_a   7.94718200
_cell_length_b   7.94718157
_cell_length_c   6.55858800
_cell_angle_alpha   90.00000000
_cell_angle_beta   90.00000000
_cell_angle_gamma   120.00000180
_symmetry_Int_Tables_number   1
_chemical_formula_structural   ZrTiI6
_chemical_formula_sum   'Zr1 Ti1 I6'
_cell_volume   358.72964536
_cell_formula_units_Z   1
loop_
 _symmetry_equiv_pos_site_id
 _symmetry_equiv_pos_as_xyz
  1  'x, y, z'
loop_
 _atom_site_type_symbol
 _atom_site_label
 _atom_site_symmetry_multiplicity
 _atom_site_fract_x
 _atom_site_fract_y
 _atom_site_fract_z
 _atom_site_occupancy
  Zr  Zr0  1  0.000000  0.000000  0.000000  1
  Ti  Ti1  1  0.000000  0.000000  0.500000  1
  I  I2  1  0.295712  0.000000  0.257922  1
  I  I3  1  0.295712  0.295712  0.742078  1
  I  I4  1  0.000000  0.704288  0.742078  1
  I  I5  1  0.000000  0.295712  0.257922  1
  I  I6  1  0.704288  0.704288  0.257922  1
  I  I7  1  0.704288  0.000000  0.742078  1
