# generated using pymatgen
data_Tb2Ho2CdRu
_symmetry_space_group_name_H-M   'P 1'
_cell_length_a   9.62459738
_cell_length_b   9.62459766
_cell_length_c   9.62438200
_cell_angle_alpha   60.00074120
_cell_angle_beta   60.00074025
_cell_angle_gamma   59.99851643
_symmetry_Int_Tables_number   1
_chemical_formula_structural   Tb2Ho2CdRu
_chemical_formula_sum   'Tb8 Ho8 Cd4 Ru4'
_cell_volume   630.40986584
_cell_formula_units_Z   4
loop_
 _symmetry_equiv_pos_site_id
 _symmetry_equiv_pos_as_xyz
  1  'x, y, z'
loop_
 _atom_site_type_symbol
 _atom_site_label
 _atom_site_symmetry_multiplicity
 _atom_site_fract_x
 _atom_site_fract_y
 _atom_site_fract_z
 _atom_site_occupancy
  Tb  Tb0  1  0.189059  0.189059  0.810941  1
  Tb  Tb1  1  0.810941  0.810941  0.189059  1
  Tb  Tb2  1  0.938848  0.561152  0.561152  1
  Tb  Tb3  1  0.561152  0.938848  0.938848  1
  Tb  Tb4  1  0.561152  0.938848  0.561152  1
  Tb  Tb5  1  0.938848  0.561152  0.938848  1
  Tb  Tb6  1  0.561029  0.561029  0.938971  1
  Tb  Tb7  1  0.938971  0.938971  0.561029  1
  Ho  Ho8  1  0.346142  0.346142  0.345372  1
  Ho  Ho9  1  0.346142  0.346142  0.962343  1
  Ho  Ho10  1  0.345372  0.962343  0.346142  1
  Ho  Ho11  1  0.962343  0.345372  0.346142  1
  Ho  Ho12  1  0.810549  0.189451  0.189451  1
  Ho  Ho13  1  0.189451  0.810549  0.810549  1
  Ho  Ho14  1  0.189451  0.810549  0.189451  1
  Ho  Ho15  1  0.810549  0.189451  0.810549  1
  Cd  Cd16  1  0.579973  0.579973  0.580277  1
  Cd  Cd17  1  0.579973  0.579973  0.259775  1
  Cd  Cd18  1  0.580277  0.259775  0.579973  1
  Cd  Cd19  1  0.259775  0.580277  0.579973  1
  Ru  Ru20  1  0.139288  0.139288  0.139345  1
  Ru  Ru21  1  0.139288  0.139288  0.582078  1
  Ru  Ru22  1  0.139345  0.582078  0.139288  1
  Ru  Ru23  1  0.582078  0.139345  0.139288  1
