# generated using pymatgen
data_Tb4Al18PdPtRh4
_symmetry_space_group_name_H-M   'P 1'
_cell_length_a   7.58769413
_cell_length_b   7.58769245
_cell_length_c   9.47665410
_cell_angle_alpha   89.97175849
_cell_angle_beta   89.97187254
_cell_angle_gamma   119.50113540
_symmetry_Int_Tables_number   1
_chemical_formula_structural   Tb4Al18PdPtRh4
_chemical_formula_sum   'Tb4 Al18 Pd1 Pt1 Rh4'
_cell_volume   474.86073860
_cell_formula_units_Z   1
loop_
 _symmetry_equiv_pos_site_id
 _symmetry_equiv_pos_as_xyz
  1  'x, y, z'
loop_
 _atom_site_type_symbol
 _atom_site_label
 _atom_site_symmetry_multiplicity
 _atom_site_fract_x
 _atom_site_fract_y
 _atom_site_fract_z
 _atom_site_occupancy
  Tb  Tb0  1  0.994483  0.671172  0.250435  1
  Tb  Tb1  1  0.004261  0.327731  0.749818  1
  Tb  Tb2  1  0.672269  0.995739  0.250182  1
  Tb  Tb3  1  0.328828  0.005517  0.749566  1
  Al  Al4  1  0.130544  0.129944  0.253003  1
  Al  Al5  1  0.870056  0.869456  0.746996  1
  Al  Al6  1  0.004723  0.339141  0.078056  1
  Al  Al7  1  0.002347  0.664601  0.922220  1
  Al  Al8  1  0.000432  0.664699  0.574059  1
  Al  Al9  1  0.335301  0.999568  0.425941  1
  Al  Al10  1  0.000444  0.335160  0.425555  1
  Al  Al11  1  0.664840  0.999556  0.574446  1
  Al  Al12  1  0.660859  0.995277  0.921944  1
  Al  Al13  1  0.335399  0.997653  0.077780  1
  Al  Al14  1  0.332628  0.332778  0.549901  1
  Al  Al15  1  0.667222  0.667372  0.450099  1
  Al  Al16  1  0.662687  0.666025  0.053888  1
  Al  Al17  1  0.333975  0.337313  0.946112  1
  Al  Al18  1  0.340343  0.550536  0.250939  1
  Al  Al19  1  0.659981  0.452507  0.746441  1
  Al  Al20  1  0.547492  0.340019  0.253559  1
  Al  Al21  1  0.449464  0.659657  0.749060  1
  Pd  Pd22  1  0.999926  0.000074  0.000000  1
  Pt  Pt23  1  0.672408  0.327592  0.000000  1
  Rh  Rh24  1  0.328254  0.671745  0.000000  1
  Rh  Rh25  1  0.328319  0.671683  0.500000  1
  Rh  Rh26  1  0.672290  0.327710  0.500000  1
  Rh  Rh27  1  0.000226  0.999773  0.500000  1
