# generated using pymatgen
data_LuSc3Al17SiIr6
_symmetry_space_group_name_H-M   'P 1'
_cell_length_a   7.48568206
_cell_length_b   7.48040349
_cell_length_c   9.28786900
_cell_angle_alpha   90.00000000
_cell_angle_beta   90.00000000
_cell_angle_gamma   119.70295017
_symmetry_Int_Tables_number   1
_chemical_formula_structural   LuSc3Al17SiIr6
_chemical_formula_sum   'Lu1 Sc3 Al17 Si1 Ir6'
_cell_volume   451.74703304
_cell_formula_units_Z   1
loop_
 _symmetry_equiv_pos_site_id
 _symmetry_equiv_pos_as_xyz
  1  'x, y, z'
loop_
 _atom_site_type_symbol
 _atom_site_label
 _atom_site_symmetry_multiplicity
 _atom_site_fract_x
 _atom_site_fract_y
 _atom_site_fract_z
 _atom_site_occupancy
  Lu  Lu0  1  0.677394  0.994089  0.250000  1
  Sc  Sc1  1  0.994875  0.677802  0.250000  1
  Sc  Sc2  1  0.002310  0.329517  0.750000  1
  Sc  Sc3  1  0.329348  0.001900  0.750000  1
  Al  Al4  1  0.881584  0.880486  0.750000  1
  Al  Al5  1  0.000236  0.339570  0.077362  1
  Al  Al6  1  0.001937  0.665827  0.921534  1
  Al  Al7  1  0.001937  0.665827  0.578466  1
  Al  Al8  1  0.334769  0.998536  0.421913  1
  Al  Al9  1  0.000236  0.339570  0.422638  1
  Al  Al10  1  0.665461  0.001516  0.581354  1
  Al  Al11  1  0.665461  0.001516  0.918646  1
  Al  Al12  1  0.334769  0.998536  0.078087  1
  Al  Al13  1  0.328863  0.328914  0.563640  1
  Al  Al14  1  0.665096  0.663265  0.446387  1
  Al  Al15  1  0.665096  0.663265  0.053613  1
  Al  Al16  1  0.328863  0.328914  0.936360  1
  Al  Al17  1  0.335591  0.550213  0.250000  1
  Al  Al18  1  0.661145  0.447579  0.750000  1
  Al  Al19  1  0.553171  0.338728  0.250000  1
  Al  Al20  1  0.446996  0.659946  0.750000  1
  Si  Si21  1  0.131029  0.130565  0.250000  1
  Ir  Ir22  1  0.670187  0.325932  0.000003  1
  Ir  Ir23  1  0.327108  0.670865  0.000119  1
  Ir  Ir24  1  0.327108  0.670865  0.499881  1
  Ir  Ir25  1  0.670187  0.325932  0.499997  1
  Ir  Ir26  1  0.999623  0.000164  0.007398  1
  Ir  Ir27  1  0.999623  0.000164  0.492602  1
