# generated using pymatgen
data_YLu4Co19(Si5P)2
_symmetry_space_group_name_H-M   'P 1'
_cell_length_a   12.06353716
_cell_length_b   12.08414165
_cell_length_c   3.68203200
_cell_angle_alpha   90.00000000
_cell_angle_beta   90.00000000
_cell_angle_gamma   119.92562849
_symmetry_Int_Tables_number   1
_chemical_formula_structural   YLu4Co19(Si5P)2
_chemical_formula_sum   'Y1 Lu4 Co19 Si10 P2'
_cell_volume   465.19350632
_cell_formula_units_Z   1
loop_
 _symmetry_equiv_pos_site_id
 _symmetry_equiv_pos_as_xyz
  1  'x, y, z'
loop_
 _atom_site_type_symbol
 _atom_site_label
 _atom_site_symmetry_multiplicity
 _atom_site_fract_x
 _atom_site_fract_y
 _atom_site_fract_z
 _atom_site_occupancy
  Y  Y0  1  0.332734  0.666312  0.500000  1
  Lu  Lu1  1  0.666730  0.333993  0.500000  1
  Lu  Lu2  1  0.185245  0.999523  0.000000  1
  Lu  Lu3  1  0.001443  0.185942  0.000000  1
  Lu  Lu4  1  0.814528  0.814554  0.000000  1
  Co  Co5  1  0.196209  0.371028  0.500000  1
  Co  Co6  1  0.625169  0.821212  0.500000  1
  Co  Co7  1  0.175044  0.803959  0.500000  1
  Co  Co8  1  0.823494  0.627045  0.500000  1
  Co  Co9  1  0.803353  0.180388  0.500000  1
  Co  Co10  1  0.373424  0.196372  0.500000  1
  Co  Co11  1  0.558260  0.000098  0.500000  1
  Co  Co12  1  0.999960  0.558047  0.500000  1
  Co  Co13  1  0.442331  0.441459  0.500000  1
  Co  Co14  1  0.122949  0.477704  0.000000  1
  Co  Co15  1  0.521630  0.643792  0.000000  1
  Co  Co16  1  0.354301  0.876921  0.000000  1
  Co  Co17  1  0.645022  0.520635  0.000000  1
  Co  Co18  1  0.876524  0.356430  0.000000  1
  Co  Co19  1  0.478927  0.124105  0.000000  1
  Co  Co20  1  0.720362  0.001390  0.000000  1
  Co  Co21  1  0.998697  0.722745  0.000000  1
  Co  Co22  1  0.277678  0.276166  0.000000  1
  Co  Co23  1  0.004707  0.000191  0.500000  1
  Si  Si24  1  0.369509  0.999982  0.500000  1
  Si  Si25  1  0.000191  0.369491  0.500000  1
  Si  Si26  1  0.630685  0.630307  0.500000  1
  Si  Si27  1  0.318538  0.476721  0.000000  1
  Si  Si28  1  0.522615  0.840756  0.000000  1
  Si  Si29  1  0.158087  0.681159  0.000000  1
  Si  Si30  1  0.839459  0.521207  0.000000  1
  Si  Si31  1  0.681970  0.161823  0.000000  1
  Si  Si32  1  0.479431  0.318376  0.000000  1
  Si  Si33  1  0.820051  0.001010  0.500000  1
  P  P34  1  0.999023  0.818829  0.500000  1
  P  P35  1  0.181716  0.180328  0.500000  1
