# generated using pymatgen
data_Tb2DyBiO7
_symmetry_space_group_name_H-M   'P 1'
_cell_length_a   6.57896455
_cell_length_b   6.56153491
_cell_length_c   7.73431327
_cell_angle_alpha   106.89499084
_cell_angle_beta   89.73867267
_cell_angle_gamma   98.71676881
_symmetry_Int_Tables_number   1
_chemical_formula_structural   Tb2DyBiO7
_chemical_formula_sum   'Tb4 Dy2 Bi2 O14'
_cell_volume   315.50001661
_cell_formula_units_Z   2
loop_
 _symmetry_equiv_pos_site_id
 _symmetry_equiv_pos_as_xyz
  1  'x, y, z'
loop_
 _atom_site_type_symbol
 _atom_site_label
 _atom_site_symmetry_multiplicity
 _atom_site_fract_x
 _atom_site_fract_y
 _atom_site_fract_z
 _atom_site_occupancy
  Tb  Tb0  1  0.272490  0.537876  0.882719  1
  Tb  Tb1  1  0.727510  0.462124  0.117281  1
  Tb  Tb2  1  0.733275  0.475387  0.612550  1
  Tb  Tb3  1  0.266725  0.524613  0.387450  1
  Dy  Dy4  1  0.461922  0.005791  0.252060  1
  Dy  Dy5  1  0.538078  0.994209  0.747940  1
  Bi  Bi6  1  0.000000  0.000000  0.500000  1
  Bi  Bi7  1  0.000000  0.000000  0.000000  1
  O  O8  1  0.445606  0.649483  0.167687  1
  O  O9  1  0.554394  0.350517  0.832313  1
  O  O10  1  0.302266  0.922627  0.951334  1
  O  O11  1  0.697734  0.077373  0.048666  1
  O  O12  1  0.298751  0.924108  0.512899  1
  O  O13  1  0.701249  0.075892  0.487101  1
  O  O14  1  0.544984  0.362015  0.344781  1
  O  O15  1  0.455016  0.637985  0.655219  1
  O  O16  1  0.925621  0.667391  0.960669  1
  O  O17  1  0.074379  0.332609  0.039331  1
  O  O18  1  0.069899  0.349213  0.620287  1
  O  O19  1  0.930101  0.650787  0.379713  1
  O  O20  1  0.874140  0.901053  0.724634  1
  O  O21  1  0.125860  0.098947  0.275366  1
