# generated using pymatgen
data_La2SbN
_symmetry_space_group_name_H-M   'P 1'
_cell_length_a   4.80104400
_cell_length_b   4.80104400
_cell_length_c   9.45800200
_cell_angle_alpha   90.00000000
_cell_angle_beta   90.00000000
_cell_angle_gamma   90.00000000
_symmetry_Int_Tables_number   1
_chemical_formula_structural   La2SbN
_chemical_formula_sum   'La4 Sb2 N2'
_cell_volume   218.00716827
_cell_formula_units_Z   2
loop_
 _symmetry_equiv_pos_site_id
 _symmetry_equiv_pos_as_xyz
  1  'x, y, z'
loop_
 _atom_site_type_symbol
 _atom_site_label
 _atom_site_symmetry_multiplicity
 _atom_site_fract_x
 _atom_site_fract_y
 _atom_site_fract_z
 _atom_site_occupancy
  La  La0  1  0.000000  0.000000  0.000000  1
  La  La1  1  0.500000  0.500000  0.000000  1
  La  La2  1  0.000000  0.500000  0.672009  1
  La  La3  1  0.500000  0.000000  0.327991  1
  Sb  Sb4  1  0.000000  0.500000  0.300680  1
  Sb  Sb5  1  0.500000  0.000000  0.699320  1
  N  N6  1  0.000000  0.500000  0.911626  1
  N  N7  1  0.500000  0.000000  0.088374  1
