# generated using pymatgen
data_Tb8Tc3B24Os
_symmetry_space_group_name_H-M   'P 1'
_cell_length_a   3.69918800
_cell_length_b   9.18912999
_cell_length_c   11.58058205
_cell_angle_alpha   89.95929286
_cell_angle_beta   90.00000000
_cell_angle_gamma   90.00000000
_symmetry_Int_Tables_number   1
_chemical_formula_structural   Tb8Tc3B24Os
_chemical_formula_sum   'Tb8 Tc3 B24 Os1'
_cell_volume   393.65074446
_cell_formula_units_Z   1
loop_
 _symmetry_equiv_pos_site_id
 _symmetry_equiv_pos_as_xyz
  1  'x, y, z'
loop_
 _atom_site_type_symbol
 _atom_site_label
 _atom_site_symmetry_multiplicity
 _atom_site_fract_x
 _atom_site_fract_y
 _atom_site_fract_z
 _atom_site_occupancy
  Tb  Tb0  1  0.000000  0.324037  0.413710  1
  Tb  Tb1  1  0.000000  0.675328  0.584425  1
  Tb  Tb2  1  0.000000  0.823201  0.087309  1
  Tb  Tb3  1  0.000000  0.177551  0.914475  1
  Tb  Tb4  1  0.000000  0.942401  0.369801  1
  Tb  Tb5  1  0.000000  0.058209  0.630237  1
  Tb  Tb6  1  0.000000  0.442891  0.130553  1
  Tb  Tb7  1  0.000000  0.557112  0.869231  1
  Tc  Tc8  1  0.000000  0.638395  0.320691  1
  Tc  Tc9  1  0.000000  0.361691  0.679811  1
  Tc  Tc10  1  0.000000  0.137840  0.178229  1
  B  B11  1  0.500000  0.553477  0.432549  1
  B  B12  1  0.500000  0.446598  0.567115  1
  B  B13  1  0.500000  0.053360  0.067256  1
  B  B14  1  0.500000  0.945966  0.932570  1
  B  B15  1  0.500000  0.747902  0.418320  1
  B  B16  1  0.500000  0.251713  0.581569  1
  B  B17  1  0.500000  0.248508  0.081664  1
  B  B18  1  0.500000  0.751897  0.917996  1
  B  B19  1  0.500000  0.790945  0.265769  1
  B  B20  1  0.500000  0.209127  0.734812  1
  B  B21  1  0.500000  0.290942  0.234516  1
  B  B22  1  0.500000  0.709774  0.765535  1
  B  B23  1  0.500000  0.631273  0.186231  1
  B  B24  1  0.500000  0.368638  0.814380  1
  B  B25  1  0.500000  0.130828  0.313558  1
  B  B26  1  0.500000  0.868764  0.686310  1
  B  B27  1  0.500000  0.982792  0.211591  1
  B  B28  1  0.500000  0.016040  0.788421  1
  B  B29  1  0.500000  0.483189  0.288280  1
  B  B30  1  0.500000  0.516718  0.711510  1
  B  B31  1  0.500000  0.602255  0.028283  1
  B  B32  1  0.500000  0.398684  0.971583  1
  B  B33  1  0.500000  0.102135  0.471633  1
  B  B34  1  0.500000  0.897948  0.528796  1
  Os  Os35  1  0.000000  0.861872  0.821278  1
