# generated using pymatgen
data_Nd12Hg(RuBr4)3
_symmetry_space_group_name_H-M   'P 1'
_cell_length_a   10.61448574
_cell_length_b   10.61448739
_cell_length_c   10.36326500
_cell_angle_alpha   108.99247542
_cell_angle_beta   108.99247849
_cell_angle_gamma   109.94569010
_symmetry_Int_Tables_number   1
_chemical_formula_structural   Nd12Hg(RuBr4)3
_chemical_formula_sum   'Nd12 Hg1 Ru3 Br12'
_cell_volume   904.07533583
_cell_formula_units_Z   1
loop_
 _symmetry_equiv_pos_site_id
 _symmetry_equiv_pos_as_xyz
  1  'x, y, z'
loop_
 _atom_site_type_symbol
 _atom_site_label
 _atom_site_symmetry_multiplicity
 _atom_site_fract_x
 _atom_site_fract_y
 _atom_site_fract_z
 _atom_site_occupancy
  Nd  Nd0  1  0.254966  0.726900  0.225993  1
  Nd  Nd1  1  0.471934  0.726900  0.000907  1
  Nd  Nd2  1  0.234658  0.469314  0.484658  1
  Nd  Nd3  1  0.015881  0.031762  0.265881  1
  Nd  Nd4  1  0.234658  0.265342  0.750000  1
  Nd  Nd5  1  0.015881  0.484119  0.750000  1
  Nd  Nd6  1  0.471934  0.245034  0.471026  1
  Nd  Nd7  1  0.254966  0.028066  0.028974  1
  Nd  Nd8  1  0.773100  0.245034  0.274007  1
  Nd  Nd9  1  0.773100  0.028066  0.499093  1
  Nd  Nd10  1  0.468238  0.484119  0.234119  1
  Nd  Nd11  1  0.030686  0.265342  0.015342  1
  Hg  Hg12  1  0.500000  0.000000  0.250000  1
  Ru  Ru13  1  0.248471  0.496943  0.998471  1
  Ru  Ru14  1  0.003057  0.251529  0.501529  1
  Ru  Ru15  1  0.248471  0.251529  0.250000  1
  Br  Br16  1  0.248133  0.995909  0.501478  1
  Br  Br17  1  0.513619  0.506809  0.756809  1
  Br  Br18  1  0.248133  0.752224  0.746655  1
  Br  Br19  1  0.996927  0.748464  0.998464  1
  Br  Br20  1  0.993191  0.506809  0.250000  1
  Br  Br21  1  0.747776  0.995909  0.994429  1
  Br  Br22  1  0.751536  0.748464  0.250000  1
  Br  Br23  1  0.504091  0.752224  0.505571  1
  Br  Br24  1  0.504091  0.251867  0.998522  1
  Br  Br25  1  0.751536  0.503073  0.501536  1
  Br  Br26  1  0.747776  0.251867  0.753345  1
  Br  Br27  1  0.993191  0.986381  0.743191  1
