# generated using pymatgen
data_PrHoTa2Bi2O11
_symmetry_space_group_name_H-M   'P 1'
_cell_length_a   6.61495451
_cell_length_b   7.72871628
_cell_length_c   9.83838413
_cell_angle_alpha   101.32715683
_cell_angle_beta   90.06837030
_cell_angle_gamma   90.10136149
_symmetry_Int_Tables_number   1
_chemical_formula_structural   PrHoTa2Bi2O11
_chemical_formula_sum   'Pr2 Ho2 Ta4 Bi4 O22'
_cell_volume   493.18968452
_cell_formula_units_Z   2
loop_
 _symmetry_equiv_pos_site_id
 _symmetry_equiv_pos_as_xyz
  1  'x, y, z'
loop_
 _atom_site_type_symbol
 _atom_site_label
 _atom_site_symmetry_multiplicity
 _atom_site_fract_x
 _atom_site_fract_y
 _atom_site_fract_z
 _atom_site_occupancy
  Pr  Pr0  1  0.752026  0.368585  0.491519  1
  Pr  Pr1  1  0.247974  0.631415  0.508481  1
  Ho  Ho2  1  0.756650  0.872714  0.478219  1
  Ho  Ho3  1  0.243350  0.127286  0.521781  1
  Ta  Ta4  1  0.913649  0.701825  0.804521  1
  Ta  Ta5  1  0.086351  0.298175  0.195479  1
  Ta  Ta6  1  0.913483  0.201062  0.806665  1
  Ta  Ta7  1  0.086517  0.798938  0.193335  1
  Bi  Bi8  1  0.439624  0.954741  0.814825  1
  Bi  Bi9  1  0.560376  0.045259  0.185175  1
  Bi  Bi10  1  0.386384  0.456976  0.827719  1
  Bi  Bi11  1  0.613616  0.543024  0.172281  1
  O  O12  1  0.215909  0.728147  0.759809  1
  O  O13  1  0.784091  0.271853  0.240191  1
  O  O14  1  0.629301  0.660804  0.837119  1
  O  O15  1  0.370699  0.339196  0.162881  1
  O  O16  1  0.628882  0.255378  0.839239  1
  O  O17  1  0.371118  0.744622  0.160761  1
  O  O18  1  0.891641  0.132997  0.592733  1
  O  O19  1  0.108359  0.867003  0.407267  1
  O  O20  1  0.215248  0.148856  0.757249  1
  O  O21  1  0.784752  0.851144  0.242751  1
  O  O22  1  0.890701  0.663260  0.591212  1
  O  O23  1  0.109299  0.336740  0.408788  1
  O  O24  1  0.033524  0.556855  0.225966  1
  O  O25  1  0.966476  0.443145  0.774034  1
  O  O26  1  0.997421  0.747976  0.000239  1
  O  O27  1  0.002579  0.252024  0.999761  1
  O  O28  1  0.579260  0.602790  0.390258  1
  O  O29  1  0.420740  0.397210  0.609742  1
  O  O30  1  0.160065  0.048746  0.193285  1
  O  O31  1  0.839935  0.951254  0.806715  1
  O  O32  1  0.534669  0.097598  0.401622  1
  O  O33  1  0.465331  0.902402  0.598378  1
