# generated using pymatgen
data_Cs4Ta2FeCuTe8
_symmetry_space_group_name_H-M   'P 1'
_cell_length_a   15.84446040
_cell_length_b   14.11938773
_cell_length_c   8.40171493
_cell_angle_alpha   85.43113606
_cell_angle_beta   62.65950812
_cell_angle_gamma   31.90935930
_symmetry_Int_Tables_number   1
_chemical_formula_structural   Cs4Ta2FeCuTe8
_chemical_formula_sum   'Cs4 Ta2 Fe1 Cu1 Te8'
_cell_volume   662.46974562
_cell_formula_units_Z   1
loop_
 _symmetry_equiv_pos_site_id
 _symmetry_equiv_pos_as_xyz
  1  'x, y, z'
loop_
 _atom_site_type_symbol
 _atom_site_label
 _atom_site_symmetry_multiplicity
 _atom_site_fract_x
 _atom_site_fract_y
 _atom_site_fract_z
 _atom_site_occupancy
  Cs  Cs0  1  0.320630  0.320630  0.679370  1
  Cs  Cs1  1  0.679370  0.679370  0.320630  1
  Cs  Cs2  1  0.928981  0.928981  0.571019  1
  Cs  Cs3  1  0.571019  0.571019  0.928981  1
  Ta  Ta4  1  0.500000  0.500000  0.500000  1
  Ta  Ta5  1  0.750000  0.750000  0.750000  1
  Fe  Fe6  1  0.000000  0.000000  0.000000  1
  Cu  Cu7  1  0.250000  0.250000  0.250000  1
  Te  Te8  1  0.288138  0.602051  0.904547  1
  Te  Te9  1  0.205264  0.904547  0.602051  1
  Te  Te10  1  0.904547  0.205264  0.288138  1
  Te  Te11  1  0.602051  0.288138  0.205264  1
  Te  Te12  1  0.652491  0.957563  0.040589  1
  Te  Te13  1  0.349357  0.040589  0.957563  1
  Te  Te14  1  0.040589  0.349357  0.652491  1
  Te  Te15  1  0.957563  0.652491  0.349357  1
