# generated using pymatgen
data_Tb4Sm(Hg2Pd)2
_symmetry_space_group_name_H-M   'P 1'
_cell_length_a   7.97941200
_cell_length_b   18.33079300
_cell_length_c   3.68872000
_cell_angle_alpha   90.00000000
_cell_angle_beta   90.00000000
_cell_angle_gamma   90.00000000
_symmetry_Int_Tables_number   1
_chemical_formula_structural   Tb4Sm(Hg2Pd)2
_chemical_formula_sum   'Tb8 Sm2 Hg8 Pd4'
_cell_volume   539.54519989
_cell_formula_units_Z   2
loop_
 _symmetry_equiv_pos_site_id
 _symmetry_equiv_pos_as_xyz
  1  'x, y, z'
loop_
 _atom_site_type_symbol
 _atom_site_label
 _atom_site_symmetry_multiplicity
 _atom_site_fract_x
 _atom_site_fract_y
 _atom_site_fract_z
 _atom_site_occupancy
  Tb  Tb0  1  0.735690  0.284412  0.000000  1
  Tb  Tb1  1  0.264310  0.715588  0.000000  1
  Tb  Tb2  1  0.764310  0.784412  0.000000  1
  Tb  Tb3  1  0.235690  0.215588  0.000000  1
  Tb  Tb4  1  0.614732  0.085560  0.000000  1
  Tb  Tb5  1  0.385268  0.914440  0.000000  1
  Tb  Tb6  1  0.885268  0.585560  0.000000  1
  Tb  Tb7  1  0.114732  0.414440  0.000000  1
  Sm  Sm8  1  0.500000  0.500000  0.000000  1
  Sm  Sm9  1  0.000000  0.000000  0.000000  1
  Hg  Hg10  1  0.707259  0.934023  0.500000  1
  Hg  Hg11  1  0.292741  0.065977  0.500000  1
  Hg  Hg12  1  0.792741  0.434023  0.500000  1
  Hg  Hg13  1  0.207259  0.565977  0.500000  1
  Hg  Hg14  1  0.581763  0.649209  0.500000  1
  Hg  Hg15  1  0.418237  0.350791  0.500000  1
  Hg  Hg16  1  0.918237  0.149209  0.500000  1
  Hg  Hg17  1  0.081763  0.850791  0.500000  1
  Pd  Pd18  1  0.524625  0.196125  0.500000  1
  Pd  Pd19  1  0.475375  0.803875  0.500000  1
  Pd  Pd20  1  0.975375  0.696125  0.500000  1
  Pd  Pd21  1  0.024625  0.303875  0.500000  1
