# generated using pymatgen
data_K4ReSb2F14
_symmetry_space_group_name_H-M   'P 1'
_cell_length_a   6.80174839
_cell_length_b   7.55961967
_cell_length_c   7.83426910
_cell_angle_alpha   91.87052555
_cell_angle_beta   91.13962654
_cell_angle_gamma   115.14646900
_symmetry_Int_Tables_number   1
_chemical_formula_structural   K4ReSb2F14
_chemical_formula_sum   'K4 Re1 Sb2 F14'
_cell_volume   364.20109573
_cell_formula_units_Z   1
loop_
 _symmetry_equiv_pos_site_id
 _symmetry_equiv_pos_as_xyz
  1  'x, y, z'
loop_
 _atom_site_type_symbol
 _atom_site_label
 _atom_site_symmetry_multiplicity
 _atom_site_fract_x
 _atom_site_fract_y
 _atom_site_fract_z
 _atom_site_occupancy
  K  K0  1  0.283388  0.547821  0.141238  1
  K  K1  1  0.852675  0.735295  0.409226  1
  K  K2  1  0.716612  0.452179  0.858762  1
  K  K3  1  0.147325  0.264705  0.590774  1
  Re  Re4  1  0.000000  0.000000  0.000000  1
  Sb  Sb5  1  0.391980  0.810700  0.682745  1
  Sb  Sb6  1  0.608020  0.189300  0.317255  1
  F  F7  1  0.922535  0.377009  0.329784  1
  F  F8  1  0.279027  0.121236  0.880031  1
  F  F9  1  0.428476  0.660503  0.482940  1
  F  F10  1  0.720973  0.878764  0.119969  1
  F  F11  1  0.940101  0.229086  0.947038  1
  F  F12  1  0.275581  0.939039  0.492946  1
  F  F13  1  0.059899  0.770914  0.052962  1
  F  F14  1  0.856101  0.870476  0.777149  1
  F  F15  1  0.077465  0.622991  0.670216  1
  F  F16  1  0.143899  0.129524  0.222851  1
  F  F17  1  0.402345  0.575061  0.813317  1
  F  F18  1  0.597655  0.424939  0.186683  1
  F  F19  1  0.724419  0.060961  0.507054  1
  F  F20  1  0.571524  0.339497  0.517060  1
