# generated using pymatgen
data_Nd3SmY2NiBr10
_symmetry_space_group_name_H-M   'P 1'
_cell_length_a   7.44095624
_cell_length_b   9.45955411
_cell_length_c   9.48447871
_cell_angle_alpha   108.59150511
_cell_angle_beta   95.69636016
_cell_angle_gamma   105.55377881
_symmetry_Int_Tables_number   1
_chemical_formula_structural   Nd3SmY2NiBr10
_chemical_formula_sum   'Nd3 Sm1 Y2 Ni1 Br10'
_cell_volume   596.97732351
_cell_formula_units_Z   1
loop_
 _symmetry_equiv_pos_site_id
 _symmetry_equiv_pos_as_xyz
  1  'x, y, z'
loop_
 _atom_site_type_symbol
 _atom_site_label
 _atom_site_symmetry_multiplicity
 _atom_site_fract_x
 _atom_site_fract_y
 _atom_site_fract_z
 _atom_site_occupancy
  Nd  Nd0  1  0.872893  0.953919  0.246688  1
  Nd  Nd1  1  0.128483  0.044717  0.753476  1
  Nd  Nd2  1  0.027099  0.700772  0.902597  1
  Sm  Sm3  1  0.971609  0.294034  0.095301  1
  Y  Y4  1  0.647438  0.872179  0.829768  1
  Y  Y5  1  0.352993  0.129746  0.170876  1
  Ni  Ni6  1  0.000462  0.999091  0.000024  1
  Br  Br7  1  0.636808  0.555723  0.730345  1
  Br  Br8  1  0.354631  0.444975  0.268003  1
  Br  Br9  1  0.744103  0.916961  0.552798  1
  Br  Br10  1  0.257763  0.084227  0.447237  1
  Br  Br11  1  0.914559  0.631110  0.173571  1
  Br  Br12  1  0.084690  0.365445  0.829894  1
  Br  Br13  1  0.552240  0.175110  0.919445  1
  Br  Br14  1  0.450412  0.828781  0.082662  1
  Br  Br15  1  0.235777  0.748691  0.656116  1
  Br  Br16  1  0.768039  0.254519  0.341198  1
