# generated using pymatgen
data_Al2Ga3BO9
_symmetry_space_group_name_H-M   'P 1'
_cell_length_a   8.28910835
_cell_length_b   8.28910846
_cell_length_c   8.00820300
_cell_angle_alpha   90.00000000
_cell_angle_beta   90.00000000
_cell_angle_gamma   40.96096860
_symmetry_Int_Tables_number   1
_chemical_formula_structural   Al2Ga3BO9
_chemical_formula_sum   'Al4 Ga6 B2 O18'
_cell_volume   360.70574113
_cell_formula_units_Z   2
loop_
 _symmetry_equiv_pos_site_id
 _symmetry_equiv_pos_as_xyz
  1  'x, y, z'
loop_
 _atom_site_type_symbol
 _atom_site_label
 _atom_site_symmetry_multiplicity
 _atom_site_fract_x
 _atom_site_fract_y
 _atom_site_fract_z
 _atom_site_occupancy
  Al  Al0  1  0.363350  0.865312  0.330640  1
  Al  Al1  1  0.636650  0.134688  0.830640  1
  Al  Al2  1  0.865312  0.363350  0.330640  1
  Al  Al3  1  0.134688  0.636650  0.830640  1
  Ga  Ga4  1  0.295274  0.295274  0.165781  1
  Ga  Ga5  1  0.704726  0.704726  0.665782  1
  Ga  Ga6  1  0.255830  0.255830  0.530012  1
  Ga  Ga7  1  0.744170  0.744170  0.030013  1
  Ga  Ga8  1  0.447515  0.447515  0.514271  1
  Ga  Ga9  1  0.552486  0.552486  0.014272  1
  B  B10  1  0.013455  0.013455  0.056371  1
  B  B11  1  0.986546  0.986546  0.556371  1
  O  O12  1  0.349812  0.349812  0.375291  1
  O  O13  1  0.650188  0.650188  0.875290  1
  O  O14  1  0.451869  0.451869  0.898138  1
  O  O15  1  0.548131  0.548131  0.398139  1
  O  O16  1  0.440791  0.929624  0.527581  1
  O  O17  1  0.559209  0.070376  0.027580  1
  O  O18  1  0.929624  0.440791  0.527581  1
  O  O19  1  0.070376  0.559209  0.027580  1
  O  O20  1  0.250471  0.839156  0.124142  1
  O  O21  1  0.749528  0.160844  0.624141  1
  O  O22  1  0.839156  0.250471  0.124142  1
  O  O23  1  0.160844  0.749528  0.624141  1
  O  O24  1  0.185225  0.185225  0.261748  1
  O  O25  1  0.814774  0.814774  0.761749  1
  O  O26  1  0.044861  0.044861  0.427450  1
  O  O27  1  0.955138  0.955138  0.927449  1
  O  O28  1  0.331988  0.331988  0.711015  1
  O  O29  1  0.668012  0.668012  0.211014  1
