# generated using pymatgen
data_Li2Pr5In9
_symmetry_space_group_name_H-M   'P 1'
_cell_length_a   10.57048300
_cell_length_b   10.57048300
_cell_length_c   15.80720900
_cell_angle_alpha   90.00000000
_cell_angle_beta   90.00000000
_cell_angle_gamma   90.00000000
_symmetry_Int_Tables_number   1
_chemical_formula_structural   Li2Pr5In9
_chemical_formula_sum   'Li8 Pr20 In36'
_cell_volume   1766.22024990
_cell_formula_units_Z   4
loop_
 _symmetry_equiv_pos_site_id
 _symmetry_equiv_pos_as_xyz
  1  'x, y, z'
loop_
 _atom_site_type_symbol
 _atom_site_label
 _atom_site_symmetry_multiplicity
 _atom_site_fract_x
 _atom_site_fract_y
 _atom_site_fract_z
 _atom_site_occupancy
  Li  Li0  1  0.500000  0.500000  0.899829  1
  Li  Li1  1  0.000000  0.000000  0.408637  1
  Li  Li2  1  0.500000  0.500000  0.408637  1
  Li  Li3  1  0.000000  0.000000  0.591363  1
  Li  Li4  1  0.500000  0.500000  0.591363  1
  Li  Li5  1  0.000000  0.000000  0.899829  1
  Li  Li6  1  0.000000  0.000000  0.100171  1
  Li  Li7  1  0.500000  0.500000  0.100171  1
  Pr  Pr8  1  0.780391  0.280391  0.627135  1
  Pr  Pr9  1  0.783086  0.283086  0.127790  1
  Pr  Pr10  1  0.280391  0.219609  0.372865  1
  Pr  Pr11  1  0.716914  0.216914  0.872210  1
  Pr  Pr12  1  0.000000  0.500000  0.306935  1
  Pr  Pr13  1  0.783086  0.716914  0.127790  1
  Pr  Pr14  1  0.719609  0.780391  0.372865  1
  Pr  Pr15  1  0.500000  0.000000  0.166404  1
  Pr  Pr16  1  0.283086  0.783086  0.872210  1
  Pr  Pr17  1  0.719609  0.219609  0.372865  1
  Pr  Pr18  1  0.283086  0.216914  0.872210  1
  Pr  Pr19  1  0.780391  0.719609  0.627135  1
  Pr  Pr20  1  0.216914  0.283086  0.127790  1
  Pr  Pr21  1  0.219609  0.719609  0.627135  1
  Pr  Pr22  1  0.280391  0.780391  0.372865  1
  Pr  Pr23  1  0.716914  0.783086  0.872210  1
  Pr  Pr24  1  0.219609  0.280391  0.627135  1
  Pr  Pr25  1  0.216914  0.716914  0.127790  1
  Pr  Pr26  1  0.500000  0.000000  0.693065  1
  Pr  Pr27  1  0.000000  0.500000  0.833596  1
  In  In28  1  0.771784  0.500000  0.472699  1
  In  In29  1  0.303352  0.500000  0.268578  1
  In  In30  1  0.500000  0.000000  0.381963  1
  In  In31  1  0.000000  0.500000  0.093456  1
  In  In32  1  0.205435  0.000000  0.231286  1
  In  In33  1  0.500000  0.771784  0.527301  1
  In  In34  1  0.500000  0.250402  0.024514  1
  In  In35  1  0.000000  0.750402  0.975486  1
  In  In36  1  0.196648  0.000000  0.731422  1
  In  In37  1  0.500000  0.294565  0.231286  1
  In  In38  1  0.000000  0.794565  0.768714  1
  In  In39  1  0.000000  0.196648  0.268578  1
  In  In40  1  0.803352  0.000000  0.731422  1
  In  In41  1  0.000000  0.500000  0.618037  1
  In  In42  1  0.794565  0.000000  0.231286  1
  In  In43  1  0.500000  0.749598  0.024514  1
  In  In44  1  0.000000  0.728216  0.472699  1
  In  In45  1  0.000000  0.249598  0.975486  1
  In  In46  1  0.500000  0.303352  0.731422  1
  In  In47  1  0.500000  0.000000  0.906544  1
  In  In48  1  0.250402  0.500000  0.975486  1
  In  In49  1  0.294565  0.500000  0.768714  1
  In  In50  1  0.500000  0.228216  0.527301  1
  In  In51  1  0.000000  0.803352  0.268578  1
  In  In52  1  0.728216  0.000000  0.527301  1
  In  In53  1  0.271784  0.000000  0.527301  1
  In  In54  1  0.000000  0.205435  0.768714  1
  In  In55  1  0.705435  0.500000  0.768714  1
  In  In56  1  0.696648  0.500000  0.268578  1
  In  In57  1  0.500000  0.705435  0.231286  1
  In  In58  1  0.749598  0.500000  0.975486  1
  In  In59  1  0.750402  0.000000  0.024514  1
  In  In60  1  0.249598  0.000000  0.024514  1
  In  In61  1  0.500000  0.696648  0.731422  1
  In  In62  1  0.228216  0.500000  0.472699  1
  In  In63  1  0.000000  0.271784  0.472699  1
