# generated using pymatgen
data_NbTlCl6
_symmetry_space_group_name_H-M   'P 1'
_cell_length_a   7.47990950
_cell_length_b   7.47990953
_cell_length_c   7.47991000
_cell_angle_alpha   58.37081325
_cell_angle_beta   58.37081309
_cell_angle_gamma   58.37081908
_symmetry_Int_Tables_number   1
_chemical_formula_structural   NbTlCl6
_chemical_formula_sum   'Nb1 Tl1 Cl6'
_cell_volume   284.88323146
_cell_formula_units_Z   1
loop_
 _symmetry_equiv_pos_site_id
 _symmetry_equiv_pos_as_xyz
  1  'x, y, z'
loop_
 _atom_site_type_symbol
 _atom_site_label
 _atom_site_symmetry_multiplicity
 _atom_site_fract_x
 _atom_site_fract_y
 _atom_site_fract_z
 _atom_site_occupancy
  Nb  Nb0  1  0.998486  0.998486  0.998486  1
  Tl  Tl1  1  0.712834  0.712834  0.712834  1
  Cl  Cl2  1  0.229911  0.769070  0.769070  1
  Cl  Cl3  1  0.769070  0.769070  0.229911  1
  Cl  Cl4  1  0.769070  0.229911  0.769070  1
  Cl  Cl5  1  0.762987  0.225933  0.225933  1
  Cl  Cl6  1  0.225933  0.225933  0.762987  1
  Cl  Cl7  1  0.225933  0.762987  0.225933  1
