# generated using pymatgen
data_Dy5Mo3(P3Ir4)4
_symmetry_space_group_name_H-M   'P 1'
_cell_length_a   12.68078200
_cell_length_b   12.68078170
_cell_length_c   3.99065900
_cell_angle_alpha   90.00000000
_cell_angle_beta   90.00000000
_cell_angle_gamma   120.00000079
_symmetry_Int_Tables_number   1
_chemical_formula_structural   Dy5Mo3(P3Ir4)4
_chemical_formula_sum   'Dy5 Mo3 P12 Ir16'
_cell_volume   555.73443762
_cell_formula_units_Z   1
loop_
 _symmetry_equiv_pos_site_id
 _symmetry_equiv_pos_as_xyz
  1  'x, y, z'
loop_
 _atom_site_type_symbol
 _atom_site_label
 _atom_site_symmetry_multiplicity
 _atom_site_fract_x
 _atom_site_fract_y
 _atom_site_fract_z
 _atom_site_occupancy
  Dy  Dy0  1  0.333333  0.666667  0.500000  1
  Dy  Dy1  1  0.666667  0.333333  0.500000  1
  Dy  Dy2  1  0.000000  0.813018  0.000000  1
  Dy  Dy3  1  0.186982  0.186982  0.000000  1
  Dy  Dy4  1  0.813018  0.000000  0.000000  1
  Mo  Mo5  1  0.000000  0.453370  0.500000  1
  Mo  Mo6  1  0.546630  0.546630  0.500000  1
  Mo  Mo7  1  0.453370  0.000000  0.500000  1
  P  P8  1  0.000000  0.638787  0.500000  1
  P  P9  1  0.361213  0.361213  0.500000  1
  P  P10  1  0.638787  0.000000  0.500000  1
  P  P11  1  0.516174  0.684338  0.000000  1
  P  P12  1  0.315662  0.831836  0.000000  1
  P  P13  1  0.168164  0.483826  0.000000  1
  P  P14  1  0.483826  0.168164  0.000000  1
  P  P15  1  0.684338  0.516174  0.000000  1
  P  P16  1  0.831836  0.315662  0.000000  1
  P  P17  1  0.000000  0.176925  0.500000  1
  P  P18  1  0.823075  0.823075  0.500000  1
  P  P19  1  0.176925  0.000000  0.500000  1
  Ir  Ir20  1  0.509095  0.866629  0.000000  1
  Ir  Ir21  1  0.133371  0.642467  0.000000  1
  Ir  Ir22  1  0.357533  0.490905  0.000000  1
  Ir  Ir23  1  0.490905  0.357533  0.000000  1
  Ir  Ir24  1  0.866629  0.509095  0.000000  1
  Ir  Ir25  1  0.642467  0.133371  0.000000  1
  Ir  Ir26  1  0.000000  0.286526  0.000000  1
  Ir  Ir27  1  0.713474  0.713474  0.000000  1
  Ir  Ir28  1  0.286526  0.000000  0.000000  1
  Ir  Ir29  1  0.625777  0.804533  0.500000  1
  Ir  Ir30  1  0.195467  0.821244  0.500000  1
  Ir  Ir31  1  0.178756  0.374223  0.500000  1
  Ir  Ir32  1  0.374223  0.178756  0.500000  1
  Ir  Ir33  1  0.804533  0.625777  0.500000  1
  Ir  Ir34  1  0.821244  0.195467  0.500000  1
  Ir  Ir35  1  0.000000  0.000000  0.500000  1
