# generated using pymatgen
data_Ac3Mg3InPb2
_symmetry_space_group_name_H-M   'P 1'
_cell_length_a   8.08374900
_cell_length_b   8.08374789
_cell_length_c   4.96938300
_cell_angle_alpha   90.00000000
_cell_angle_beta   90.00000000
_cell_angle_gamma   120.00000045
_symmetry_Int_Tables_number   1
_chemical_formula_structural   Ac3Mg3InPb2
_chemical_formula_sum   'Ac3 Mg3 In1 Pb2'
_cell_volume   281.22807918
_cell_formula_units_Z   1
loop_
 _symmetry_equiv_pos_site_id
 _symmetry_equiv_pos_as_xyz
  1  'x, y, z'
loop_
 _atom_site_type_symbol
 _atom_site_label
 _atom_site_symmetry_multiplicity
 _atom_site_fract_x
 _atom_site_fract_y
 _atom_site_fract_z
 _atom_site_occupancy
  Ac  Ac0  1  0.416826  0.000000  0.000000  1
  Ac  Ac1  1  0.000000  0.416826  0.000000  1
  Ac  Ac2  1  0.583174  0.583174  0.000000  1
  Mg  Mg3  1  0.767950  0.000000  0.499999  1
  Mg  Mg4  1  0.232050  0.232049  0.499999  1
  Mg  Mg5  1  0.000000  0.767950  0.499999  1
  In  In6  1  0.000000  0.000000  0.000000  1
  Pb  Pb7  1  0.666666  0.333333  0.499999  1
  Pb  Pb8  1  0.333333  0.666667  0.499999  1
