# generated using pymatgen
data_TbSe23
_symmetry_space_group_name_H-M   'P 1'
_cell_length_a   5.62529708
_cell_length_b   10.34107068
_cell_length_c   16.05076500
_cell_angle_alpha   98.94882178
_cell_angle_beta   86.30808777
_cell_angle_gamma   94.29197785
_symmetry_Int_Tables_number   1
_chemical_formula_structural   TbSe23
_chemical_formula_sum   'Tb1 Se23'
_cell_volume   918.42705268
_cell_formula_units_Z   1
loop_
 _symmetry_equiv_pos_site_id
 _symmetry_equiv_pos_as_xyz
  1  'x, y, z'
loop_
 _atom_site_type_symbol
 _atom_site_label
 _atom_site_symmetry_multiplicity
 _atom_site_fract_x
 _atom_site_fract_y
 _atom_site_fract_z
 _atom_site_occupancy
  Tb  Tb0  1  0.464919  0.223456  0.339419  1
  Se  Se1  1  0.486500  0.805560  0.389684  1
  Se  Se2  1  0.926175  0.332048  0.149203  1
  Se  Se3  1  0.819685  0.216143  0.452422  1
  Se  Se4  1  0.283327  0.772211  0.519760  1
  Se  Se5  1  0.169845  0.274485  0.025515  1
  Se  Se6  1  0.808125  0.739807  0.029935  1
  Se  Se7  1  0.117479  0.409471  0.370604  1
  Se  Se8  1  0.704221  0.616585  0.351508  1
  Se  Se9  1  0.768329  0.132367  0.191259  1
  Se  Se10  1  0.320137  0.906921  0.160755  1
  Se  Se11  1  0.762180  0.618008  0.618380  1
  Se  Se12  1  0.266983  0.360604  0.591202  1
  Se  Se13  1  0.218346  0.874503  0.864099  1
  Se  Se14  1  0.746612  0.116753  0.856113  1
  Se  Se15  1  0.094230  0.704657  0.124033  1
  Se  Se16  1  0.563738  0.813917  0.625657  1
  Se  Se17  1  0.441199  0.161704  0.519809  1
  Se  Se18  1  0.990480  0.684012  0.893394  1
  Se  Se19  1  0.968637  0.312492  0.907595  1
  Se  Se20  1  0.423488  0.468376  0.269145  1
  Se  Se21  1  0.118249  0.008225  0.285978  1
  Se  Se22  1  0.523102  0.468856  0.692635  1
  Se  Se23  1  0.014013  0.978841  0.771897  1
