# generated using pymatgen
data_Rb3BiF8
_symmetry_space_group_name_H-M   'P 1'
_cell_length_a   8.96412200
_cell_length_b   8.96412081
_cell_length_c   6.78843100
_cell_angle_alpha   90.00000000
_cell_angle_beta   90.00000000
_cell_angle_gamma   120.00000439
_symmetry_Int_Tables_number   1
_chemical_formula_structural   Rb3BiF8
_chemical_formula_sum   'Rb6 Bi2 F16'
_cell_volume   472.40608163
_cell_formula_units_Z   2
loop_
 _symmetry_equiv_pos_site_id
 _symmetry_equiv_pos_as_xyz
  1  'x, y, z'
loop_
 _atom_site_type_symbol
 _atom_site_label
 _atom_site_symmetry_multiplicity
 _atom_site_fract_x
 _atom_site_fract_y
 _atom_site_fract_z
 _atom_site_occupancy
  Rb  Rb0  1  0.154909  0.309817  0.246056  1
  Rb  Rb1  1  0.845091  0.690183  0.746057  1
  Rb  Rb2  1  0.690183  0.845091  0.246056  1
  Rb  Rb3  1  0.154909  0.845091  0.246056  1
  Rb  Rb4  1  0.845091  0.154909  0.746057  1
  Rb  Rb5  1  0.309817  0.154909  0.746057  1
  Bi  Bi6  1  0.333333  0.666667  0.735766  1
  Bi  Bi7  1  0.666667  0.333333  0.235766  1
  F  F8  1  0.000000  0.000000  0.003420  1
  F  F9  1  0.000000  0.000000  0.503420  1
  F  F10  1  0.436779  0.563221  0.535616  1
  F  F11  1  0.563221  0.436779  0.035616  1
  F  F12  1  0.436779  0.873557  0.535616  1
  F  F13  1  0.126443  0.563221  0.535616  1
  F  F14  1  0.873557  0.436779  0.035616  1
  F  F15  1  0.563221  0.126443  0.035616  1
  F  F16  1  0.333333  0.666667  0.048585  1
  F  F17  1  0.666667  0.333333  0.548585  1
  F  F18  1  0.201906  0.798094  0.817455  1
  F  F19  1  0.798094  0.201906  0.317455  1
  F  F20  1  0.201906  0.403810  0.817455  1
  F  F21  1  0.596190  0.798094  0.817455  1
  F  F22  1  0.403810  0.201906  0.317455  1
  F  F23  1  0.798094  0.596190  0.317455  1
