# generated using pymatgen
data_Tb5TmAl24(Os3Rh)2
_symmetry_space_group_name_H-M   'P 1'
_cell_length_a   8.79197812
_cell_length_b   8.79197939
_cell_length_c   9.56628200
_cell_angle_alpha   90.00000000
_cell_angle_beta   90.00000000
_cell_angle_gamma   119.32421172
_symmetry_Int_Tables_number   1
_chemical_formula_structural   Tb5TmAl24(Os3Rh)2
_chemical_formula_sum   'Tb5 Tm1 Al24 Os6 Rh2'
_cell_volume   644.70996746
_cell_formula_units_Z   1
loop_
 _symmetry_equiv_pos_site_id
 _symmetry_equiv_pos_as_xyz
  1  'x, y, z'
loop_
 _atom_site_type_symbol
 _atom_site_label
 _atom_site_symmetry_multiplicity
 _atom_site_fract_x
 _atom_site_fract_y
 _atom_site_fract_z
 _atom_site_occupancy
  Tb  Tb0  1  0.184789  0.384706  0.250000  1
  Tb  Tb1  1  0.815085  0.614954  0.750000  1
  Tb  Tb2  1  0.615294  0.815211  0.250000  1
  Tb  Tb3  1  0.385046  0.184915  0.750000  1
  Tb  Tb4  1  0.193521  0.806479  0.250000  1
  Tm  Tm5  1  0.805100  0.194900  0.750000  1
  Al  Al6  1  0.332776  0.667224  0.021302  1
  Al  Al7  1  0.667531  0.332469  0.977813  1
  Al  Al8  1  0.667531  0.332469  0.522187  1
  Al  Al9  1  0.332776  0.667224  0.478698  1
  Al  Al10  1  0.162018  0.324397  0.577311  1
  Al  Al11  1  0.837322  0.675082  0.423327  1
  Al  Al12  1  0.675603  0.837982  0.577311  1
  Al  Al13  1  0.837322  0.675082  0.076673  1
  Al  Al14  1  0.324918  0.162678  0.423327  1
  Al  Al15  1  0.162018  0.324397  0.922689  1
  Al  Al16  1  0.164529  0.835471  0.575349  1
  Al  Al17  1  0.324918  0.162678  0.076673  1
  Al  Al18  1  0.835562  0.164438  0.425725  1
  Al  Al19  1  0.675603  0.837982  0.922689  1
  Al  Al20  1  0.835562  0.164438  0.074275  1
  Al  Al21  1  0.164529  0.835471  0.924651  1
  Al  Al22  1  0.560469  0.125386  0.250000  1
  Al  Al23  1  0.440700  0.875222  0.750000  1
  Al  Al24  1  0.874614  0.439531  0.250000  1
  Al  Al25  1  0.124778  0.559300  0.750000  1
  Al  Al26  1  0.559068  0.440932  0.250000  1
  Al  Al27  1  0.440855  0.559145  0.750000  1
  Al  Al28  1  0.998539  0.001461  0.250000  1
  Al  Al29  1  0.000629  0.999371  0.750000  1
  Os  Os30  1  0.500686  0.000283  0.999526  1
  Os  Os31  1  0.999717  0.499314  0.999526  1
  Os  Os32  1  0.500686  0.000283  0.500474  1
  Os  Os33  1  0.999717  0.499314  0.500474  1
  Os  Os34  1  0.000118  0.999882  0.999925  1
  Os  Os35  1  0.000118  0.999882  0.500075  1
  Rh  Rh36  1  0.499977  0.500023  0.000122  1
  Rh  Rh37  1  0.499977  0.500023  0.499878  1
