# generated using pymatgen
data_Ho2Lu8In8Pt3Rh
_symmetry_space_group_name_H-M   'P 1'
_cell_length_a   3.58741100
_cell_length_b   8.02480378
_cell_length_c   18.01178876
_cell_angle_alpha   90.05065380
_cell_angle_beta   90.00000000
_cell_angle_gamma   90.00000000
_symmetry_Int_Tables_number   1
_chemical_formula_structural   Ho2Lu8In8Pt3Rh
_chemical_formula_sum   'Ho2 Lu8 In8 Pt3 Rh1'
_cell_volume   518.52802397
_cell_formula_units_Z   1
loop_
 _symmetry_equiv_pos_site_id
 _symmetry_equiv_pos_as_xyz
  1  'x, y, z'
loop_
 _atom_site_type_symbol
 _atom_site_label
 _atom_site_symmetry_multiplicity
 _atom_site_fract_x
 _atom_site_fract_y
 _atom_site_fract_z
 _atom_site_occupancy
  Ho  Ho0  1  0.000000  0.000447  0.000195  1
  Ho  Ho1  1  0.000000  0.500429  0.499686  1
  Lu  Lu2  1  0.000000  0.115429  0.411557  1
  Lu  Lu3  1  0.000000  0.881997  0.586173  1
  Lu  Lu4  1  0.000000  0.382929  0.913646  1
  Lu  Lu5  1  0.000000  0.618405  0.087605  1
  Lu  Lu6  1  0.000000  0.241408  0.222410  1
  Lu  Lu7  1  0.000000  0.755683  0.778031  1
  Lu  Lu8  1  0.000000  0.255749  0.721474  1
  Lu  Lu9  1  0.000000  0.749044  0.278777  1
  In  In10  1  0.500000  0.422648  0.351704  1
  In  In11  1  0.500000  0.574288  0.648201  1
  In  In12  1  0.500000  0.074930  0.851648  1
  In  In13  1  0.500000  0.928996  0.149997  1
  In  In14  1  0.500000  0.294867  0.066522  1
  In  In15  1  0.500000  0.705856  0.933794  1
  In  In16  1  0.500000  0.204211  0.565557  1
  In  In17  1  0.500000  0.795276  0.431821  1
  Pt  Pt18  1  0.500000  0.974948  0.695844  1
  Pt  Pt19  1  0.500000  0.475511  0.804105  1
  Pt  Pt20  1  0.500000  0.523177  0.196426  1
  Rh  Rh21  1  0.500000  0.023771  0.304825  1
