# generated using pymatgen
data_Zr10AlBi4Sb
_symmetry_space_group_name_H-M   'P 1'
_cell_length_a   5.63941807
_cell_length_b   8.53985357
_cell_length_c   8.53985274
_cell_angle_alpha   96.25885884
_cell_angle_beta   109.27984494
_cell_angle_gamma   70.72014854
_symmetry_Int_Tables_number   1
_chemical_formula_structural   Zr10AlBi4Sb
_chemical_formula_sum   'Zr10 Al1 Bi4 Sb1'
_cell_volume   366.43997263
_cell_formula_units_Z   1
loop_
 _symmetry_equiv_pos_site_id
 _symmetry_equiv_pos_as_xyz
  1  'x, y, z'
loop_
 _atom_site_type_symbol
 _atom_site_label
 _atom_site_symmetry_multiplicity
 _atom_site_fract_x
 _atom_site_fract_y
 _atom_site_fract_z
 _atom_site_occupancy
  Zr  Zr0  1  0.418916  0.859386  0.710830  1
  Zr  Zr1  1  0.567473  0.140614  0.289170  1
  Zr  Zr2  1  0.932527  0.289170  0.140614  1
  Zr  Zr3  1  0.081084  0.710830  0.859386  1
  Zr  Zr4  1  0.708086  0.710830  0.140614  1
  Zr  Zr5  1  0.278303  0.289170  0.859386  1
  Zr  Zr6  1  0.791914  0.140614  0.710830  1
  Zr  Zr7  1  0.221697  0.859386  0.289170  1
  Zr  Zr8  1  0.250000  0.500000  0.500000  1
  Zr  Zr9  1  0.750000  0.500000  0.500000  1
  Al  Al10  1  0.250000  0.000000  0.000000  1
  Bi  Bi11  1  0.334896  0.500000  0.169792  1
  Bi  Bi12  1  0.665104  0.500000  0.830208  1
  Bi  Bi13  1  0.834896  0.830208  0.500000  1
  Bi  Bi14  1  0.165104  0.169792  0.500000  1
  Sb  Sb15  1  0.750000  0.000000  0.000000  1
