# generated using pymatgen
data_Sm2CoCu(Ni3B)2
_symmetry_space_group_name_H-M   'P 1'
_cell_length_a   5.03599045
_cell_length_b   5.04333698
_cell_length_c   6.94835884
_cell_angle_alpha   89.80376610
_cell_angle_beta   89.99523457
_cell_angle_gamma   119.71511888
_symmetry_Int_Tables_number   1
_chemical_formula_structural   Sm2CoCu(Ni3B)2
_chemical_formula_sum   'Sm2 Co1 Cu1 Ni6 B2'
_cell_volume   153.26813042
_cell_formula_units_Z   1
loop_
 _symmetry_equiv_pos_site_id
 _symmetry_equiv_pos_as_xyz
  1  'x, y, z'
loop_
 _atom_site_type_symbol
 _atom_site_label
 _atom_site_symmetry_multiplicity
 _atom_site_fract_x
 _atom_site_fract_y
 _atom_site_fract_z
 _atom_site_occupancy
  Sm  Sm0  1  0.999911  0.999924  0.003145  1
  Sm  Sm1  1  0.000033  0.000079  0.498951  1
  Co  Co2  1  0.501067  0.002159  0.297836  1
  Cu  Cu3  1  0.334344  0.668680  0.000055  1
  Ni  Ni4  1  0.664634  0.329487  0.000413  1
  Ni  Ni5  1  0.500873  0.499832  0.293290  1
  Ni  Ni6  1  0.999013  0.499905  0.293356  1
  Ni  Ni7  1  0.500589  0.001184  0.706306  1
  Ni  Ni8  1  0.500299  0.499181  0.705316  1
  Ni  Ni9  1  0.998834  0.499153  0.705291  1
  B  B10  1  0.335894  0.671802  0.497923  1
  B  B11  1  0.664305  0.328615  0.498118  1
