# generated using pymatgen
data_Tb5Y5(SnPb)4
_symmetry_space_group_name_H-M   'P 1'
_cell_length_a   8.20003900
_cell_length_b   8.24004822
_cell_length_c   15.68133400
_cell_angle_alpha   90.01334344
_cell_angle_beta   90.00000000
_cell_angle_gamma   90.00000000
_symmetry_Int_Tables_number   1
_chemical_formula_structural   Tb5Y5(SnPb)4
_chemical_formula_sum   'Tb10 Y10 Sn8 Pb8'
_cell_volume   1059.56758727
_cell_formula_units_Z   2
loop_
 _symmetry_equiv_pos_site_id
 _symmetry_equiv_pos_as_xyz
  1  'x, y, z'
loop_
 _atom_site_type_symbol
 _atom_site_label
 _atom_site_symmetry_multiplicity
 _atom_site_fract_x
 _atom_site_fract_y
 _atom_site_fract_z
 _atom_site_occupancy
  Tb  Tb0  1  0.389236  0.836687  0.620851  1
  Tb  Tb1  1  0.889236  0.663313  0.879149  1
  Tb  Tb2  1  0.551671  0.327538  0.891309  1
  Tb  Tb3  1  0.051671  0.172462  0.608691  1
  Tb  Tb4  1  0.448246  0.672334  0.391085  1
  Tb  Tb5  1  0.948246  0.827666  0.108915  1
  Tb  Tb6  1  0.448315  0.672269  0.108821  1
  Tb  Tb7  1  0.948315  0.827731  0.391179  1
  Tb  Tb8  1  0.551640  0.327706  0.608776  1
  Tb  Tb9  1  0.051640  0.172294  0.891224  1
  Y  Y10  1  0.388530  0.837164  0.878749  1
  Y  Y11  1  0.888530  0.662836  0.621251  1
  Y  Y12  1  0.611330  0.162693  0.378676  1
  Y  Y13  1  0.111330  0.337307  0.121324  1
  Y  Y14  1  0.611235  0.162879  0.121437  1
  Y  Y15  1  0.111235  0.337121  0.378563  1
  Y  Y16  1  0.219363  0.501497  0.750026  1
  Y  Y17  1  0.719363  0.998503  0.749974  1
  Y  Y18  1  0.780584  0.498394  0.250050  1
  Y  Y19  1  0.280584  0.001606  0.249950  1
  Sn  Sn20  1  0.584429  0.627182  0.750089  1
  Sn  Sn21  1  0.084429  0.872818  0.749911  1
  Sn  Sn22  1  0.415809  0.372531  0.250032  1
  Sn  Sn23  1  0.915809  0.127469  0.249968  1
  Sn  Sn24  1  0.356212  0.144384  0.749975  1
  Sn  Sn25  1  0.856212  0.355616  0.750025  1
  Sn  Sn26  1  0.643568  0.855504  0.249988  1
  Sn  Sn27  1  0.143568  0.644496  0.250012  1
  Pb  Pb28  1  0.271032  0.020900  0.042364  1
  Pb  Pb29  1  0.771032  0.479100  0.457636  1
  Pb  Pb30  1  0.729182  0.979285  0.542361  1
  Pb  Pb31  1  0.229182  0.520715  0.957639  1
  Pb  Pb32  1  0.728546  0.979376  0.957568  1
  Pb  Pb33  1  0.228546  0.520624  0.542432  1
  Pb  Pb34  1  0.271072  0.021205  0.457378  1
  Pb  Pb35  1  0.771072  0.478795  0.042622  1
