# generated using pymatgen
data_Dy4AlTc3Os4
_symmetry_space_group_name_H-M   'P 1'
_cell_length_a   5.35543883
_cell_length_b   5.45372814
_cell_length_c   8.74336100
_cell_angle_alpha   90.00000000
_cell_angle_beta   90.00000000
_cell_angle_gamma   120.60896173
_symmetry_Int_Tables_number   1
_chemical_formula_structural   Dy4AlTc3Os4
_chemical_formula_sum   'Dy4 Al1 Tc3 Os4'
_cell_volume   219.78587920
_cell_formula_units_Z   1
loop_
 _symmetry_equiv_pos_site_id
 _symmetry_equiv_pos_as_xyz
  1  'x, y, z'
loop_
 _atom_site_type_symbol
 _atom_site_label
 _atom_site_symmetry_multiplicity
 _atom_site_fract_x
 _atom_site_fract_y
 _atom_site_fract_z
 _atom_site_occupancy
  Dy  Dy0  1  0.336309  0.668155  0.438251  1
  Dy  Dy1  1  0.666918  0.333458  0.565180  1
  Dy  Dy2  1  0.666918  0.333458  0.934820  1
  Dy  Dy3  1  0.336309  0.668155  0.061749  1
  Al  Al4  1  0.340493  0.170246  0.250000  1
  Tc  Tc5  1  0.985754  0.992877  0.500550  1
  Tc  Tc6  1  0.985754  0.992877  0.999450  1
  Tc  Tc7  1  0.657144  0.828572  0.750000  1
  Os  Os8  1  0.838190  0.179487  0.250000  1
  Os  Os9  1  0.838190  0.658702  0.250000  1
  Os  Os10  1  0.174011  0.829435  0.750000  1
  Os  Os11  1  0.174011  0.344577  0.750000  1
