# generated using pymatgen
data_Er5Cd2(HgPd)2
_symmetry_space_group_name_H-M   'P 1'
_cell_length_a   3.62872300
_cell_length_b   7.88897800
_cell_length_c   18.21854900
_cell_angle_alpha   90.00000000
_cell_angle_beta   90.00000000
_cell_angle_gamma   90.00000000
_symmetry_Int_Tables_number   1
_chemical_formula_structural   Er5Cd2(HgPd)2
_chemical_formula_sum   'Er10 Cd4 Hg4 Pd4'
_cell_volume   521.54087032
_cell_formula_units_Z   2
loop_
 _symmetry_equiv_pos_site_id
 _symmetry_equiv_pos_as_xyz
  1  'x, y, z'
loop_
 _atom_site_type_symbol
 _atom_site_label
 _atom_site_symmetry_multiplicity
 _atom_site_fract_x
 _atom_site_fract_y
 _atom_site_fract_z
 _atom_site_occupancy
  Er  Er0  1  0.000000  0.500000  0.500000  1
  Er  Er1  1  0.000000  0.000000  0.000000  1
  Er  Er2  1  0.000000  0.740654  0.283761  1
  Er  Er3  1  0.000000  0.259346  0.716239  1
  Er  Er4  1  0.000000  0.759346  0.783761  1
  Er  Er5  1  0.000000  0.240654  0.216239  1
  Er  Er6  1  0.000000  0.610391  0.083724  1
  Er  Er7  1  0.000000  0.389609  0.916276  1
  Er  Er8  1  0.000000  0.889609  0.583724  1
  Er  Er9  1  0.000000  0.110391  0.416276  1
  Cd  Cd10  1  0.500000  0.580372  0.648710  1
  Cd  Cd11  1  0.500000  0.419628  0.351290  1
  Cd  Cd12  1  0.500000  0.919628  0.148710  1
  Cd  Cd13  1  0.500000  0.080372  0.851290  1
  Hg  Hg14  1  0.500000  0.716633  0.934018  1
  Hg  Hg15  1  0.500000  0.283367  0.065982  1
  Hg  Hg16  1  0.500000  0.783367  0.434018  1
  Hg  Hg17  1  0.500000  0.216633  0.565982  1
  Pd  Pd18  1  0.500000  0.529026  0.196639  1
  Pd  Pd19  1  0.500000  0.470974  0.803361  1
  Pd  Pd20  1  0.500000  0.970974  0.696639  1
  Pd  Pd21  1  0.500000  0.029026  0.303361  1
