# generated using pymatgen
data_Th14(ReRh)3
_symmetry_space_group_name_H-M   'P 1'
_cell_length_a   10.06133300
_cell_length_b   10.06133464
_cell_length_c   6.28504800
_cell_angle_alpha   90.00000000
_cell_angle_beta   90.00000000
_cell_angle_gamma   120.00000448
_symmetry_Int_Tables_number   1
_chemical_formula_structural   Th14(ReRh)3
_chemical_formula_sum   'Th14 Re3 Rh3'
_cell_volume   550.99838742
_cell_formula_units_Z   1
loop_
 _symmetry_equiv_pos_site_id
 _symmetry_equiv_pos_as_xyz
  1  'x, y, z'
loop_
 _atom_site_type_symbol
 _atom_site_label
 _atom_site_symmetry_multiplicity
 _atom_site_fract_x
 _atom_site_fract_y
 _atom_site_fract_z
 _atom_site_occupancy
  Th  Th0  1  0.666667  0.333333  0.568048  1
  Th  Th1  1  0.333333  0.666667  0.033890  1
  Th  Th2  1  0.875053  0.750107  0.754571  1
  Th  Th3  1  0.249893  0.124947  0.754571  1
  Th  Th4  1  0.875053  0.124947  0.754571  1
  Th  Th5  1  0.126991  0.253980  0.253478  1
  Th  Th6  1  0.746020  0.873009  0.253478  1
  Th  Th7  1  0.126991  0.873009  0.253478  1
  Th  Th8  1  0.459102  0.918205  0.544340  1
  Th  Th9  1  0.081795  0.540898  0.544340  1
  Th  Th10  1  0.459102  0.540898  0.544340  1
  Th  Th11  1  0.538417  0.076833  0.039993  1
  Th  Th12  1  0.923167  0.461583  0.039993  1
  Th  Th13  1  0.538417  0.461583  0.039993  1
  Re  Re14  1  0.184970  0.369940  0.800473  1
  Re  Re15  1  0.630060  0.815030  0.800473  1
  Re  Re16  1  0.184970  0.815030  0.800473  1
  Rh  Rh17  1  0.810719  0.621438  0.300666  1
  Rh  Rh18  1  0.378562  0.189281  0.300666  1
  Rh  Rh19  1  0.810719  0.189281  0.300666  1
