# generated using pymatgen
data_Y2Ho5(TmBi2)3
_symmetry_space_group_name_H-M   'P 1'
_cell_length_a   8.22528600
_cell_length_b   9.47719801
_cell_length_c   11.98424200
_cell_angle_alpha   89.99755151
_cell_angle_beta   90.00000000
_cell_angle_gamma   90.00000000
_symmetry_Int_Tables_number   1
_chemical_formula_structural   Y2Ho5(TmBi2)3
_chemical_formula_sum   'Y4 Ho10 Tm6 Bi12'
_cell_volume   934.20359026
_cell_formula_units_Z   2
loop_
 _symmetry_equiv_pos_site_id
 _symmetry_equiv_pos_as_xyz
  1  'x, y, z'
loop_
 _atom_site_type_symbol
 _atom_site_label
 _atom_site_symmetry_multiplicity
 _atom_site_fract_x
 _atom_site_fract_y
 _atom_site_fract_z
 _atom_site_occupancy
  Y  Y0  1  0.312439  0.249978  0.218252  1
  Y  Y1  1  0.812439  0.250022  0.281748  1
  Y  Y2  1  0.687490  0.750115  0.781814  1
  Y  Y3  1  0.187490  0.749885  0.718186  1
  Ho  Ho4  1  0.352535  0.749921  0.216561  1
  Ho  Ho5  1  0.852535  0.750079  0.283439  1
  Ho  Ho6  1  0.647191  0.250091  0.783390  1
  Ho  Ho7  1  0.147191  0.249909  0.716610  1
  Ho  Ho8  1  0.692440  0.565391  0.059139  1
  Ho  Ho9  1  0.192440  0.934609  0.440861  1
  Ho  Ho10  1  0.307549  0.065083  0.940768  1
  Ho  Ho11  1  0.807549  0.434917  0.559232  1
  Ho  Ho12  1  0.307689  0.434888  0.940848  1
  Ho  Ho13  1  0.807689  0.065112  0.559152  1
  Tm  Tm14  1  0.692485  0.934100  0.059150  1
  Tm  Tm15  1  0.192485  0.565900  0.440850  1
  Tm  Tm16  1  0.475734  0.250110  0.488702  1
  Tm  Tm17  1  0.975734  0.249890  0.011298  1
  Tm  Tm18  1  0.523759  0.749822  0.511175  1
  Tm  Tm19  1  0.023759  0.750178  0.988825  1
  Bi  Bi20  1  0.405573  0.750296  0.957996  1
  Bi  Bi21  1  0.905573  0.749704  0.542004  1
  Bi  Bi22  1  0.594946  0.249121  0.042280  1
  Bi  Bi23  1  0.094946  0.250879  0.457720  1
  Bi  Bi24  1  0.565250  0.995074  0.326155  1
  Bi  Bi25  1  0.065250  0.504926  0.173845  1
  Bi  Bi26  1  0.434956  0.495123  0.673711  1
  Bi  Bi27  1  0.934956  0.004877  0.826289  1
  Bi  Bi28  1  0.434910  0.004816  0.673832  1
  Bi  Bi29  1  0.934910  0.495184  0.826168  1
  Bi  Bi30  1  0.565049  0.504882  0.326279  1
  Bi  Bi31  1  0.065049  0.995118  0.173721  1
