# generated using pymatgen
data_Pr17Nd3(Si2Ir)4
_symmetry_space_group_name_H-M   'P 1'
_cell_length_a   7.99875404
_cell_length_b   8.95052619
_cell_length_c   12.45038230
_cell_angle_alpha   89.97719020
_cell_angle_beta   90.01077752
_cell_angle_gamma   89.99454418
_symmetry_Int_Tables_number   1
_chemical_formula_structural   Pr17Nd3(Si2Ir)4
_chemical_formula_sum   'Pr17 Nd3 Si8 Ir4'
_cell_volume   891.36084610
_cell_formula_units_Z   1
loop_
 _symmetry_equiv_pos_site_id
 _symmetry_equiv_pos_as_xyz
  1  'x, y, z'
loop_
 _atom_site_type_symbol
 _atom_site_label
 _atom_site_symmetry_multiplicity
 _atom_site_fract_x
 _atom_site_fract_y
 _atom_site_fract_z
 _atom_site_occupancy
  Pr  Pr0  1  0.673064  0.749697  0.717526  1
  Pr  Pr1  1  0.326698  0.250217  0.282431  1
  Pr  Pr2  1  0.173059  0.250386  0.782562  1
  Pr  Pr3  1  0.826998  0.749761  0.217302  1
  Pr  Pr4  1  0.150090  0.749493  0.795749  1
  Pr  Pr5  1  0.850081  0.250316  0.204108  1
  Pr  Pr6  1  0.650132  0.250268  0.704434  1
  Pr  Pr7  1  0.349727  0.749773  0.295653  1
  Pr  Pr8  1  0.539526  0.749631  0.999466  1
  Pr  Pr9  1  0.460502  0.250364  0.000496  1
  Pr  Pr10  1  0.039781  0.250247  0.500554  1
  Pr  Pr11  1  0.960770  0.749824  0.499574  1
  Pr  Pr12  1  0.181012  0.963984  0.075381  1
  Pr  Pr13  1  0.680552  0.464038  0.424747  1
  Pr  Pr14  1  0.819012  0.036001  0.924597  1
  Pr  Pr15  1  0.681009  0.035933  0.424553  1
  Pr  Pr16  1  0.319136  0.963988  0.575428  1
  Nd  Nd17  1  0.820056  0.464589  0.924638  1
  Nd  Nd18  1  0.179952  0.535481  0.075356  1
  Nd  Nd19  1  0.319731  0.535516  0.575476  1
  Si  Si20  1  0.943226  0.004907  0.671542  1
  Si  Si21  1  0.056763  0.995026  0.328477  1
  Si  Si22  1  0.443249  0.995072  0.828481  1
  Si  Si23  1  0.057126  0.505092  0.328286  1
  Si  Si24  1  0.556768  0.004971  0.171487  1
  Si  Si25  1  0.943606  0.495074  0.671633  1
  Si  Si26  1  0.556330  0.495087  0.171183  1
  Si  Si27  1  0.443507  0.504936  0.828422  1
  Ir  Ir28  1  0.926966  0.748599  0.985865  1
  Ir  Ir29  1  0.072968  0.251388  0.014170  1
  Ir  Ir30  1  0.425972  0.250828  0.514463  1
  Ir  Ir31  1  0.572629  0.749512  0.485961  1
