# generated using pymatgen
data_Dy2Er2ReB12Os
_symmetry_space_group_name_H-M   'P 1'
_cell_length_a   3.65521700
_cell_length_b   9.13504239
_cell_length_c   11.52411210
_cell_angle_alpha   90.12476089
_cell_angle_beta   90.00000000
_cell_angle_gamma   90.00000000
_symmetry_Int_Tables_number   1
_chemical_formula_structural   Dy2Er2ReB12Os
_chemical_formula_sum   'Dy4 Er4 Re2 B24 Os2'
_cell_volume   384.79567012
_cell_formula_units_Z   2
loop_
 _symmetry_equiv_pos_site_id
 _symmetry_equiv_pos_as_xyz
  1  'x, y, z'
loop_
 _atom_site_type_symbol
 _atom_site_label
 _atom_site_symmetry_multiplicity
 _atom_site_fract_x
 _atom_site_fract_y
 _atom_site_fract_z
 _atom_site_occupancy
  Dy  Dy0  1  0.000000  0.320713  0.412488  1
  Dy  Dy1  1  0.000000  0.679287  0.587512  1
  Dy  Dy2  1  0.000000  0.824400  0.084825  1
  Dy  Dy3  1  0.000000  0.175600  0.915175  1
  Er  Er4  1  0.000000  0.943517  0.370819  1
  Er  Er5  1  0.000000  0.056483  0.629181  1
  Er  Er6  1  0.000000  0.442710  0.128778  1
  Er  Er7  1  0.000000  0.557290  0.871222  1
  Re  Re8  1  0.000000  0.138624  0.179756  1
  Re  Re9  1  0.000000  0.861376  0.820244  1
  B  B10  1  0.500000  0.553901  0.432992  1
  B  B11  1  0.500000  0.446099  0.567008  1
  B  B12  1  0.500000  0.053264  0.066954  1
  B  B13  1  0.500000  0.946736  0.933046  1
  B  B14  1  0.500000  0.749126  0.418742  1
  B  B15  1  0.500000  0.250874  0.581258  1
  B  B16  1  0.500000  0.249221  0.081055  1
  B  B17  1  0.500000  0.750779  0.918945  1
  B  B18  1  0.500000  0.790981  0.265927  1
  B  B19  1  0.500000  0.209019  0.734073  1
  B  B20  1  0.500000  0.291991  0.234562  1
  B  B21  1  0.500000  0.708009  0.765438  1
  B  B22  1  0.500000  0.630722  0.185969  1
  B  B23  1  0.500000  0.369278  0.814031  1
  B  B24  1  0.500000  0.131169  0.314913  1
  B  B25  1  0.500000  0.868831  0.685087  1
  B  B26  1  0.500000  0.982612  0.212697  1
  B  B27  1  0.500000  0.017388  0.787303  1
  B  B28  1  0.500000  0.483015  0.287817  1
  B  B29  1  0.500000  0.516985  0.712183  1
  B  B30  1  0.500000  0.602559  0.028647  1
  B  B31  1  0.500000  0.397441  0.971353  1
  B  B32  1  0.500000  0.102985  0.471665  1
  B  B33  1  0.500000  0.897015  0.528335  1
  Os  Os34  1  0.000000  0.637707  0.321654  1
  Os  Os35  1  0.000000  0.362293  0.678346  1
