# generated using pymatgen
data_Ho3As2S
_symmetry_space_group_name_H-M   'P 1'
_cell_length_a   7.00237113
_cell_length_b   7.00237082
_cell_length_c   7.00237117
_cell_angle_alpha   146.50752423
_cell_angle_beta   132.01295412
_cell_angle_gamma   59.78429164
_symmetry_Int_Tables_number   1
_chemical_formula_structural   Ho3As2S
_chemical_formula_sum   'Ho3 As2 S1'
_cell_volume   139.50621533
_cell_formula_units_Z   1
loop_
 _symmetry_equiv_pos_site_id
 _symmetry_equiv_pos_as_xyz
  1  'x, y, z'
loop_
 _atom_site_type_symbol
 _atom_site_label
 _atom_site_symmetry_multiplicity
 _atom_site_fract_x
 _atom_site_fract_y
 _atom_site_fract_z
 _atom_site_occupancy
  Ho  Ho0  1  0.000000  0.000000  0.000000  1
  Ho  Ho1  1  0.666611  0.666611  0.000000  1
  Ho  Ho2  1  0.333389  0.333389  0.000000  1
  As  As3  1  0.166675  0.666675  0.500000  1
  As  As4  1  0.833325  0.333325  0.500000  1
  S  S5  1  0.500000  0.000000  0.500000  1
