# generated using pymatgen
data_Li2Nd3(MgPb2)2
_symmetry_space_group_name_H-M   'P 1'
_cell_length_a   4.80659820
_cell_length_b   7.63667309
_cell_length_c   8.93652596
_cell_angle_alpha   113.60688926
_cell_angle_beta   105.60059745
_cell_angle_gamma   89.99999636
_symmetry_Int_Tables_number   1
_chemical_formula_structural   Li2Nd3(MgPb2)2
_chemical_formula_sum   'Li2 Nd3 Mg2 Pb4'
_cell_volume   287.33989701
_cell_formula_units_Z   1
loop_
 _symmetry_equiv_pos_site_id
 _symmetry_equiv_pos_as_xyz
  1  'x, y, z'
loop_
 _atom_site_type_symbol
 _atom_site_label
 _atom_site_symmetry_multiplicity
 _atom_site_fract_x
 _atom_site_fract_y
 _atom_site_fract_z
 _atom_site_occupancy
  Li  Li0  1  0.325177  0.636075  0.650353  1
  Li  Li1  1  0.674823  0.363925  0.349647  1
  Nd  Nd2  1  0.000000  0.000000  0.000000  1
  Nd  Nd3  1  0.120587  0.611150  0.241175  1
  Nd  Nd4  1  0.879413  0.388850  0.758825  1
  Mg  Mg5  1  0.672397  0.982126  0.344796  1
  Mg  Mg6  1  0.327603  0.017874  0.655204  1
  Pb  Pb7  1  0.494978  0.703512  0.989956  1
  Pb  Pb8  1  0.505022  0.296488  0.010044  1
  Pb  Pb9  1  0.782865  0.762043  0.565730  1
  Pb  Pb10  1  0.217135  0.237957  0.434270  1
