# generated using pymatgen
data_Lu3Nb2Sn(B2Ru5)2
_symmetry_space_group_name_H-M   'P 1'
_cell_length_a   9.63297156
_cell_length_b   9.58107316
_cell_length_c   3.10756900
_cell_angle_alpha   90.00000000
_cell_angle_beta   90.00000000
_cell_angle_gamma   89.56910332
_symmetry_Int_Tables_number   1
_chemical_formula_structural   Lu3Nb2Sn(B2Ru5)2
_chemical_formula_sum   'Lu3 Nb2 Sn1 B4 Ru10'
_cell_volume   286.80250020
_cell_formula_units_Z   1
loop_
 _symmetry_equiv_pos_site_id
 _symmetry_equiv_pos_as_xyz
  1  'x, y, z'
loop_
 _atom_site_type_symbol
 _atom_site_label
 _atom_site_symmetry_multiplicity
 _atom_site_fract_x
 _atom_site_fract_y
 _atom_site_fract_z
 _atom_site_occupancy
  Lu  Lu0  1  0.172928  0.823369  0.000000  1
  Lu  Lu1  1  0.326097  0.323466  0.000000  1
  Lu  Lu2  1  0.673168  0.675586  0.000000  1
  Nb  Nb3  1  0.001786  0.504802  0.000000  1
  Nb  Nb4  1  0.830702  0.179399  0.000000  1
  Sn  Sn5  1  0.494678  0.998747  0.000000  1
  B  B6  1  0.624110  0.378487  0.000000  1
  B  B7  1  0.379664  0.616649  0.000000  1
  B  B8  1  0.117704  0.123523  0.000000  1
  B  B9  1  0.875896  0.879962  0.000000  1
  Ru  Ru10  1  0.503043  0.494805  0.500000  1
  Ru  Ru11  1  0.992554  0.007580  0.500000  1
  Ru  Ru12  1  0.591197  0.215326  0.500000  1
  Ru  Ru13  1  0.425424  0.775278  0.500000  1
  Ru  Ru14  1  0.061163  0.280818  0.500000  1
  Ru  Ru15  1  0.927210  0.721898  0.500000  1
  Ru  Ru16  1  0.272981  0.072184  0.500000  1
  Ru  Ru17  1  0.722945  0.941487  0.500000  1
  Ru  Ru18  1  0.220145  0.566846  0.500000  1
  Ru  Ru19  1  0.786605  0.419789  0.500000  1
