# generated using pymatgen
data_Tb4Sm4Sc12Ga15Si
_symmetry_space_group_name_H-M   'P 1'
_cell_length_a   7.33958403
_cell_length_b   7.56269085
_cell_length_c   14.55470906
_cell_angle_alpha   89.99584053
_cell_angle_beta   89.99022390
_cell_angle_gamma   90.12459320
_symmetry_Int_Tables_number   1
_chemical_formula_structural   Tb4Sm4Sc12Ga15Si
_chemical_formula_sum   'Tb4 Sm4 Sc12 Ga15 Si1'
_cell_volume   807.88638364
_cell_formula_units_Z   1
loop_
 _symmetry_equiv_pos_site_id
 _symmetry_equiv_pos_as_xyz
  1  'x, y, z'
loop_
 _atom_site_type_symbol
 _atom_site_label
 _atom_site_symmetry_multiplicity
 _atom_site_fract_x
 _atom_site_fract_y
 _atom_site_fract_z
 _atom_site_occupancy
  Tb  Tb0  1  0.012200  0.177125  0.095270  1
  Tb  Tb1  1  0.986354  0.819689  0.903171  1
  Tb  Tb2  1  0.488579  0.678343  0.902894  1
  Tb  Tb3  1  0.986403  0.820085  0.597528  1
  Sm  Sm4  1  0.511809  0.323025  0.094260  1
  Sm  Sm5  1  0.012277  0.175910  0.405265  1
  Sm  Sm6  1  0.512032  0.323218  0.404996  1
  Sm  Sm7  1  0.488497  0.677240  0.596490  1
  Sc  Sc8  1  0.158785  0.502293  0.750332  1
  Sc  Sc9  1  0.837621  0.498908  0.249676  1
  Sc  Sc10  1  0.337795  0.000762  0.249615  1
  Sc  Sc11  1  0.663675  0.995059  0.750251  1
  Sc  Sc12  1  0.331362  0.173198  0.623957  1
  Sc  Sc13  1  0.669738  0.827266  0.375951  1
  Sc  Sc14  1  0.169127  0.672933  0.375336  1
  Sc  Sc15  1  0.670336  0.827140  0.123357  1
  Sc  Sc16  1  0.829727  0.329776  0.624727  1
  Sc  Sc17  1  0.331198  0.173196  0.876317  1
  Sc  Sc18  1  0.829417  0.329678  0.876102  1
  Sc  Sc19  1  0.169192  0.672987  0.124172  1
  Ga  Ga20  1  0.031624  0.120436  0.750236  1
  Ga  Ga21  1  0.968000  0.880198  0.249427  1
  Ga  Ga22  1  0.467593  0.620858  0.249774  1
  Ga  Ga23  1  0.532104  0.385177  0.750609  1
  Ga  Ga24  1  0.284949  0.874689  0.750757  1
  Ga  Ga25  1  0.715691  0.125190  0.249279  1
  Ga  Ga26  1  0.214240  0.374017  0.249243  1
  Ga  Ga27  1  0.157807  0.464594  0.541434  1
  Ga  Ga28  1  0.842141  0.538686  0.460335  1
  Ga  Ga29  1  0.340633  0.961681  0.460761  1
  Ga  Ga30  1  0.841905  0.536407  0.039944  1
  Ga  Ga31  1  0.661635  0.036290  0.541627  1
  Ga  Ga32  1  0.159558  0.464834  0.958812  1
  Ga  Ga33  1  0.661626  0.034123  0.958233  1
  Ga  Ga34  1  0.339163  0.961794  0.039175  1
  Si  Si35  1  0.785205  0.623190  0.750688  1
