# generated using pymatgen
data_Ca4B16OsRu13
_symmetry_space_group_name_H-M   'P 1'
_cell_length_a   6.44347500
_cell_length_b   6.44347500
_cell_length_c   10.11122400
_cell_angle_alpha   90.00000000
_cell_angle_beta   90.00000000
_cell_angle_gamma   90.00000000
_symmetry_Int_Tables_number   1
_chemical_formula_structural   Ca4B16OsRu13
_chemical_formula_sum   'Ca4 B16 Os1 Ru13'
_cell_volume   419.80153995
_cell_formula_units_Z   1
loop_
 _symmetry_equiv_pos_site_id
 _symmetry_equiv_pos_as_xyz
  1  'x, y, z'
loop_
 _atom_site_type_symbol
 _atom_site_label
 _atom_site_symmetry_multiplicity
 _atom_site_fract_x
 _atom_site_fract_y
 _atom_site_fract_z
 _atom_site_occupancy
  Ca  Ca0  1  0.733248  0.887584  0.998913  1
  Ca  Ca1  1  0.112416  0.733248  0.501087  1
  Ca  Ca2  1  0.887584  0.266752  0.501087  1
  Ca  Ca3  1  0.266752  0.112416  0.998913  1
  B  B4  1  0.500000  0.000000  0.588489  1
  B  B5  1  0.500000  0.000000  0.411761  1
  B  B6  1  0.898851  0.272116  0.164901  1
  B  B7  1  0.101586  0.726639  0.833145  1
  B  B8  1  0.500000  0.500000  0.340712  1
  B  B9  1  0.500000  0.500000  0.840612  1
  B  B10  1  0.273361  0.101586  0.666855  1
  B  B11  1  0.101149  0.727884  0.164901  1
  B  B12  1  0.272116  0.101149  0.335099  1
  B  B13  1  0.898414  0.273361  0.833145  1
  B  B14  1  0.500000  0.500000  0.659388  1
  B  B15  1  0.500000  0.500000  0.159288  1
  B  B16  1  0.000000  0.500000  0.911511  1
  B  B17  1  0.726639  0.898414  0.666855  1
  B  B18  1  0.727884  0.898851  0.335099  1
  B  B19  1  0.000000  0.500000  0.088239  1
  Os  Os20  1  0.000000  0.000000  0.250000  1
  Ru  Ru21  1  0.204764  0.392994  0.755734  1
  Ru  Ru22  1  0.406134  0.288463  0.500055  1
  Ru  Ru23  1  0.393154  0.794926  0.255975  1
  Ru  Ru24  1  0.205074  0.393154  0.244025  1
  Ru  Ru25  1  0.593866  0.711537  0.500055  1
  Ru  Ru26  1  0.607006  0.204764  0.744266  1
  Ru  Ru27  1  0.288463  0.593866  0.999945  1
  Ru  Ru28  1  0.711537  0.406134  0.999945  1
  Ru  Ru29  1  0.794926  0.606846  0.244025  1
  Ru  Ru30  1  0.795236  0.607006  0.755734  1
  Ru  Ru31  1  0.392994  0.795236  0.744266  1
  Ru  Ru32  1  0.606846  0.205074  0.255975  1
  Ru  Ru33  1  0.000000  0.000000  0.750000  1
