# generated using pymatgen
data_LuSc3Al18ZnRh5
_symmetry_space_group_name_H-M   'P 1'
_cell_length_a   7.51349357
_cell_length_b   7.51156286
_cell_length_c   9.32552635
_cell_angle_alpha   90.05276559
_cell_angle_beta   90.02363415
_cell_angle_gamma   119.67616124
_symmetry_Int_Tables_number   1
_chemical_formula_structural   LuSc3Al18ZnRh5
_chemical_formula_sum   'Lu1 Sc3 Al18 Zn1 Rh5'
_cell_volume   457.28165174
_cell_formula_units_Z   1
loop_
 _symmetry_equiv_pos_site_id
 _symmetry_equiv_pos_as_xyz
  1  'x, y, z'
loop_
 _atom_site_type_symbol
 _atom_site_label
 _atom_site_symmetry_multiplicity
 _atom_site_fract_x
 _atom_site_fract_y
 _atom_site_fract_z
 _atom_site_occupancy
  Lu  Lu0  1  0.324232  0.004952  0.750158  1
  Sc  Sc1  1  0.995061  0.676092  0.249588  1
  Sc  Sc2  1  0.004722  0.323660  0.750257  1
  Sc  Sc3  1  0.676733  0.995641  0.249640  1
  Al  Al4  1  0.129769  0.130693  0.255293  1
  Al  Al5  1  0.866439  0.867577  0.744475  1
  Al  Al6  1  0.997371  0.343497  0.083080  1
  Al  Al7  1  0.999420  0.653487  0.919979  1
  Al  Al8  1  0.001051  0.662213  0.572477  1
  Al  Al9  1  0.335864  0.996156  0.421592  1
  Al  Al10  1  0.995991  0.335452  0.424442  1
  Al  Al11  1  0.666584  0.003350  0.572447  1
  Al  Al12  1  0.659066  0.001460  0.920807  1
  Al  Al13  1  0.344156  0.997794  0.085199  1
  Al  Al14  1  0.330779  0.332698  0.553823  1
  Al  Al15  1  0.669923  0.669989  0.441337  1
  Al  Al16  1  0.662375  0.662452  0.062825  1
  Al  Al17  1  0.338443  0.340660  0.941765  1
  Al  Al18  1  0.339234  0.556743  0.251425  1
  Al  Al19  1  0.661631  0.447039  0.748707  1
  Al  Al20  1  0.557006  0.340086  0.251447  1
  Al  Al21  1  0.444300  0.658744  0.748772  1
  Zn  Zn22  1  0.000780  0.999738  0.999784  1
  Rh  Rh23  1  0.671295  0.327681  0.000280  1
  Rh  Rh24  1  0.327906  0.672546  0.000319  1
  Rh  Rh25  1  0.328244  0.672233  0.500048  1
  Rh  Rh26  1  0.671058  0.327653  0.500040  1
  Rh  Rh27  1  0.000569  0.999715  0.499993  1
