# generated using pymatgen
data_CrCuPtS4
_symmetry_space_group_name_H-M   'P 1'
_cell_length_a   7.02987936
_cell_length_b   7.02987959
_cell_length_c   7.02988028
_cell_angle_alpha   120.98351681
_cell_angle_beta   118.87766942
_cell_angle_gamma   90.12991447
_symmetry_Int_Tables_number   1
_chemical_formula_structural   CrCuPtS4
_chemical_formula_sum   'Cr2 Cu2 Pt2 S8'
_cell_volume   245.81023962
_cell_formula_units_Z   2
loop_
 _symmetry_equiv_pos_site_id
 _symmetry_equiv_pos_as_xyz
  1  'x, y, z'
loop_
 _atom_site_type_symbol
 _atom_site_label
 _atom_site_symmetry_multiplicity
 _atom_site_fract_x
 _atom_site_fract_y
 _atom_site_fract_z
 _atom_site_occupancy
  Cr  Cr0  1  0.000000  0.000000  0.500000  1
  Cr  Cr1  1  0.000000  0.500000  0.000000  1
  Cu  Cu2  1  0.381030  0.631030  0.750000  1
  Cu  Cu3  1  0.618970  0.368970  0.250000  1
  Pt  Pt4  1  0.000000  0.000000  0.000000  1
  Pt  Pt5  1  0.500000  0.000000  0.500000  1
  S  S6  1  0.241093  0.757483  0.016390  1
  S  S7  1  0.241093  0.224703  0.483610  1
  S  S8  1  0.237852  0.756827  0.481024  1
  S  S9  1  0.775803  0.756827  0.018976  1
  S  S10  1  0.758907  0.242517  0.983610  1
  S  S11  1  0.758907  0.775297  0.516390  1
  S  S12  1  0.762148  0.243173  0.518976  1
  S  S13  1  0.224197  0.243173  0.981024  1
