# generated using pymatgen
data_Sm4TcBr4
_symmetry_space_group_name_H-M   'P 1'
_cell_length_a   9.24096757
_cell_length_b   9.24096650
_cell_length_c   6.68802485
_cell_angle_alpha   89.95384945
_cell_angle_beta   89.95384972
_cell_angle_gamma   89.40540576
_symmetry_Int_Tables_number   1
_chemical_formula_structural   Sm4TcBr4
_chemical_formula_sum   'Sm8 Tc2 Br8'
_cell_volume   571.09591651
_cell_formula_units_Z   2
loop_
 _symmetry_equiv_pos_site_id
 _symmetry_equiv_pos_as_xyz
  1  'x, y, z'
loop_
 _atom_site_type_symbol
 _atom_site_label
 _atom_site_symmetry_multiplicity
 _atom_site_fract_x
 _atom_site_fract_y
 _atom_site_fract_z
 _atom_site_occupancy
  Sm  Sm0  1  0.751857  0.098831  0.987516  1
  Sm  Sm1  1  0.098831  0.751857  0.487516  1
  Sm  Sm2  1  0.097468  0.247598  0.997562  1
  Sm  Sm3  1  0.247598  0.097468  0.497562  1
  Sm  Sm4  1  0.902532  0.752402  0.002438  1
  Sm  Sm5  1  0.901169  0.248143  0.512484  1
  Sm  Sm6  1  0.248143  0.901169  0.012484  1
  Sm  Sm7  1  0.752402  0.902532  0.502438  1
  Tc  Tc8  1  0.996134  0.003866  0.250000  1
  Tc  Tc9  1  0.003866  0.996134  0.750000  1
  Br  Br10  1  0.586263  0.181644  0.578887  1
  Br  Br11  1  0.814603  0.589865  0.418366  1
  Br  Br12  1  0.410135  0.185397  0.081634  1
  Br  Br13  1  0.185397  0.410135  0.581634  1
  Br  Br14  1  0.589865  0.814603  0.918366  1
  Br  Br15  1  0.413737  0.818356  0.421113  1
  Br  Br16  1  0.181644  0.586263  0.078887  1
  Br  Br17  1  0.818356  0.413737  0.921113  1
