# generated using pymatgen
data_CaZn(Se2O7)2
_symmetry_space_group_name_H-M   'P 1'
_cell_length_a   5.18012158
_cell_length_b   7.62850652
_cell_length_c   8.69412000
_cell_angle_alpha   92.22425787
_cell_angle_beta   93.11883284
_cell_angle_gamma   105.19916951
_symmetry_Int_Tables_number   1
_chemical_formula_structural   CaZn(Se2O7)2
_chemical_formula_sum   'Ca1 Zn1 Se4 O14'
_cell_volume   330.55065371
_cell_formula_units_Z   1
loop_
 _symmetry_equiv_pos_site_id
 _symmetry_equiv_pos_as_xyz
  1  'x, y, z'
loop_
 _atom_site_type_symbol
 _atom_site_label
 _atom_site_symmetry_multiplicity
 _atom_site_fract_x
 _atom_site_fract_y
 _atom_site_fract_z
 _atom_site_occupancy
  Ca  Ca0  1  0.500000  0.000000  0.500000  1
  Zn  Zn1  1  0.000000  0.500000  0.000000  1
  Se  Se2  1  0.550005  0.647711  0.784849  1
  Se  Se3  1  0.449995  0.352289  0.215151  1
  Se  Se4  1  0.139549  0.259956  0.704819  1
  Se  Se5  1  0.860451  0.740044  0.295181  1
  O  O6  1  0.811223  0.562242  0.804017  1
  O  O7  1  0.188777  0.437758  0.195983  1
  O  O8  1  0.389821  0.666573  0.940488  1
  O  O9  1  0.610179  0.333427  0.059512  1
  O  O10  1  0.625758  0.828736  0.684610  1
  O  O11  1  0.374242  0.171264  0.315390  1
  O  O12  1  0.309360  0.489023  0.649852  1
  O  O13  1  0.690640  0.510977  0.350148  1
  O  O14  1  0.912795  0.207862  0.559907  1
  O  O15  1  0.087205  0.792138  0.440093  1
  O  O16  1  0.362342  0.142594  0.705441  1
  O  O17  1  0.637658  0.857406  0.294559  1
  O  O18  1  0.033714  0.271769  0.879771  1
  O  O19  1  0.966286  0.728231  0.120229  1
