# generated using pymatgen
data_Ca4Tb4InHg7
_symmetry_space_group_name_H-M   'P 1'
_cell_length_a   7.55427600
_cell_length_b   7.52875510
_cell_length_c   7.50682900
_cell_angle_alpha   90.00126330
_cell_angle_beta   90.00042473
_cell_angle_gamma   89.84913403
_symmetry_Int_Tables_number   1
_chemical_formula_structural   Ca4Tb4InHg7
_chemical_formula_sum   'Ca4 Tb4 In1 Hg7'
_cell_volume   426.94411917
_cell_formula_units_Z   1
loop_
 _symmetry_equiv_pos_site_id
 _symmetry_equiv_pos_as_xyz
  1  'x, y, z'
loop_
 _atom_site_type_symbol
 _atom_site_label
 _atom_site_symmetry_multiplicity
 _atom_site_fract_x
 _atom_site_fract_y
 _atom_site_fract_z
 _atom_site_occupancy
  Ca  Ca0  1  0.746345  0.246673  0.997561  1
  Ca  Ca1  1  0.252534  0.753238  0.502451  1
  Ca  Ca2  1  0.747492  0.246774  0.502635  1
  Ca  Ca3  1  0.253669  0.753321  0.997347  1
  Tb  Tb4  1  0.253316  0.247040  0.996833  1
  Tb  Tb5  1  0.746687  0.752954  0.996823  1
  Tb  Tb6  1  0.748320  0.752814  0.503164  1
  Tb  Tb7  1  0.251683  0.247179  0.503171  1
  In  In8  1  0.000117  0.500182  0.248507  1
  Hg  Hg9  1  0.000199  0.999882  0.248726  1
  Hg  Hg10  1  0.500179  0.000104  0.251305  1
  Hg  Hg11  1  0.500178  0.499883  0.251290  1
  Hg  Hg12  1  0.499832  0.500101  0.748750  1
  Hg  Hg13  1  0.499828  0.999885  0.748751  1
  Hg  Hg14  1  0.999812  0.000095  0.751284  1
  Hg  Hg15  1  0.999808  0.499882  0.751403  1
