# generated using pymatgen
data_FeTcB2W
_symmetry_space_group_name_H-M   'P 1'
_cell_length_a   4.51666764
_cell_length_b   4.51666812
_cell_length_c   4.51666725
_cell_angle_alpha   139.42600955
_cell_angle_beta   119.28903914
_cell_angle_gamma   75.59453685
_symmetry_Int_Tables_number   1
_chemical_formula_structural   FeTcB2W
_chemical_formula_sum   'Fe1 Tc1 B2 W1'
_cell_volume   51.03039461
_cell_formula_units_Z   1
loop_
 _symmetry_equiv_pos_site_id
 _symmetry_equiv_pos_as_xyz
  1  'x, y, z'
loop_
 _atom_site_type_symbol
 _atom_site_label
 _atom_site_symmetry_multiplicity
 _atom_site_fract_x
 _atom_site_fract_y
 _atom_site_fract_z
 _atom_site_occupancy
  Fe  Fe0  1  0.002135  0.002135  0.000000  1
  Tc  Tc1  1  0.697513  0.197513  0.500000  1
  B  B2  1  0.706270  0.501401  0.204869  1
  B  B3  1  0.296532  0.501401  0.795131  1
  W  W4  1  0.297550  0.797550  0.500000  1
