# generated using pymatgen
data_Th2I5Cl3
_symmetry_space_group_name_H-M   'P 1'
_cell_length_a   7.90877200
_cell_length_b   8.65612459
_cell_length_c   13.50993032
_cell_angle_alpha   70.49328267
_cell_angle_beta   90.00000000
_cell_angle_gamma   90.00000000
_symmetry_Int_Tables_number   1
_chemical_formula_structural   Th2I5Cl3
_chemical_formula_sum   'Th4 I10 Cl6'
_cell_volume   871.79461364
_cell_formula_units_Z   2
loop_
 _symmetry_equiv_pos_site_id
 _symmetry_equiv_pos_as_xyz
  1  'x, y, z'
loop_
 _atom_site_type_symbol
 _atom_site_label
 _atom_site_symmetry_multiplicity
 _atom_site_fract_x
 _atom_site_fract_y
 _atom_site_fract_z
 _atom_site_occupancy
  Th  Th0  1  0.486547  0.013050  0.316598  1
  Th  Th1  1  0.986547  0.986950  0.183402  1
  Th  Th2  1  0.517250  0.003153  0.679303  1
  Th  Th3  1  0.017250  0.996847  0.820697  1
  I  I4  1  0.925935  0.743421  0.055000  1
  I  I5  1  0.425935  0.256579  0.445000  1
  I  I6  1  0.795169  0.717209  0.777999  1
  I  I7  1  0.295169  0.282791  0.722001  1
  I  I8  1  0.204333  0.287718  0.192831  1
  I  I9  1  0.704333  0.712282  0.307169  1
  I  I10  1  0.350571  0.789005  0.903777  1
  I  I11  1  0.850571  0.210995  0.596223  1
  I  I12  1  0.657668  0.194829  0.089363  1
  I  I13  1  0.157668  0.805171  0.410637  1
  Cl  Cl14  1  0.817377  0.097053  0.339188  1
  Cl  Cl15  1  0.317377  0.902947  0.160812  1
  Cl  Cl16  1  0.188148  0.919981  0.653832  1
  Cl  Cl17  1  0.688148  0.080019  0.846168  1
  Cl  Cl18  1  0.057001  0.162758  0.964405  1
  Cl  Cl19  1  0.557001  0.837242  0.535595  1
