# generated using pymatgen
data_Ho2Mn2FeRe14C3
_symmetry_space_group_name_H-M   'P 1'
_cell_length_a   6.93621246
_cell_length_b   6.93516368
_cell_length_c   6.93621300
_cell_angle_alpha   82.39523558
_cell_angle_beta   82.37559060
_cell_angle_gamma   82.39523263
_symmetry_Int_Tables_number   1
_chemical_formula_structural   Ho2Mn2FeRe14C3
_chemical_formula_sum   'Ho2 Mn2 Fe1 Re14 C3'
_cell_volume   325.55456010
_cell_formula_units_Z   1
loop_
 _symmetry_equiv_pos_site_id
 _symmetry_equiv_pos_as_xyz
  1  'x, y, z'
loop_
 _atom_site_type_symbol
 _atom_site_label
 _atom_site_symmetry_multiplicity
 _atom_site_fract_x
 _atom_site_fract_y
 _atom_site_fract_z
 _atom_site_occupancy
  Ho  Ho0  1  0.648649  0.648464  0.648649  1
  Ho  Ho1  1  0.351351  0.351536  0.351351  1
  Mn  Mn2  1  0.000000  0.000000  0.500000  1
  Mn  Mn3  1  0.500000  0.000000  0.000000  1
  Fe  Fe4  1  0.000000  0.500000  0.000000  1
  Re  Re5  1  0.722280  0.278329  0.000243  1
  Re  Re6  1  0.999757  0.721671  0.277720  1
  Re  Re7  1  0.278343  0.000000  0.721657  1
  Re  Re8  1  0.000243  0.278329  0.722280  1
  Re  Re9  1  0.721657  0.000000  0.278343  1
  Re  Re10  1  0.277720  0.721671  0.999757  1
  Re  Re11  1  0.346600  0.859533  0.346600  1
  Re  Re12  1  0.346590  0.347014  0.860108  1
  Re  Re13  1  0.860108  0.347014  0.346590  1
  Re  Re14  1  0.653400  0.140467  0.653400  1
  Re  Re15  1  0.653410  0.652986  0.139892  1
  Re  Re16  1  0.139892  0.652986  0.653410  1
  Re  Re17  1  0.898574  0.897795  0.898574  1
  Re  Re18  1  0.101426  0.102205  0.101426  1
  C  C19  1  0.500000  0.500000  0.000000  1
  C  C20  1  0.000000  0.500000  0.500000  1
  C  C21  1  0.500000  0.000000  0.500000  1
