# generated using pymatgen
data_Pr2Os6Pb2O19
_symmetry_space_group_name_H-M   'P 1'
_cell_length_a   8.03430697
_cell_length_b   8.03430743
_cell_length_c   7.92500656
_cell_angle_alpha   109.47919042
_cell_angle_beta   109.48815244
_cell_angle_gamma   109.99868723
_symmetry_Int_Tables_number   1
_chemical_formula_structural   Pr2Os6Pb2O19
_chemical_formula_sum   'Pr2 Os6 Pb2 O19'
_cell_volume   391.08355990
_cell_formula_units_Z   1
loop_
 _symmetry_equiv_pos_site_id
 _symmetry_equiv_pos_as_xyz
  1  'x, y, z'
loop_
 _atom_site_type_symbol
 _atom_site_label
 _atom_site_symmetry_multiplicity
 _atom_site_fract_x
 _atom_site_fract_y
 _atom_site_fract_z
 _atom_site_occupancy
  Pr  Pr0  1  0.309520  0.004545  0.004719  1
  Pr  Pr1  1  0.999825  0.304801  0.995281  1
  Os  Os2  1  0.636543  0.502207  0.140139  1
  Os  Os3  1  0.497459  0.862202  0.360602  1
  Os  Os4  1  0.861681  0.361681  0.500000  1
  Os  Os5  1  0.135585  0.635584  0.500000  1
  Os  Os6  1  0.501601  0.136857  0.639398  1
  Os  Os7  1  0.362069  0.496403  0.859861  1
  Pb  Pb8  1  0.999495  0.003767  0.302963  1
  Pb  Pb9  1  0.700802  0.696531  0.697037  1
  O  O10  1  0.017543  0.017543  0.000000  1
  O  O11  1  0.326293  0.326293  0.000000  1
  O  O12  1  0.670083  0.670083  0.000000  1
  O  O13  1  0.341102  0.710040  0.056250  1
  O  O14  1  0.934160  0.649493  0.290600  1
  O  O15  1  0.631546  0.351374  0.290745  1
  O  O16  1  0.330669  0.000672  0.325787  1
  O  O17  1  0.988871  0.327088  0.316970  1
  O  O18  1  0.700005  0.063599  0.338608  1
  O  O19  1  0.645650  0.716322  0.359333  1
  O  O20  1  0.276662  0.632134  0.339595  1
  O  O21  1  0.292541  0.937069  0.660405  1
  O  O22  1  0.356989  0.286317  0.640667  1
  O  O23  1  0.724988  0.361394  0.661390  1
  O  O24  1  0.674886  0.004883  0.674212  1
  O  O25  1  0.010118  0.671901  0.683031  1
  O  O26  1  0.060628  0.340800  0.709253  1
  O  O27  1  0.358893  0.643561  0.709400  1
  O  O28  1  0.653789  0.284851  0.943749  1
