# generated using pymatgen
data_Hf(Nb3P2)2
_symmetry_space_group_name_H-M   'P 1'
_cell_length_a   7.73798076
_cell_length_b   7.73798052
_cell_length_c   14.00496495
_cell_angle_alpha   76.28569237
_cell_angle_beta   76.28569208
_cell_angle_gamma   26.06102741
_symmetry_Int_Tables_number   1
_chemical_formula_structural   Hf(Nb3P2)2
_chemical_formula_sum   'Hf2 Nb12 P8'
_cell_volume   357.33123414
_cell_formula_units_Z   2
loop_
 _symmetry_equiv_pos_site_id
 _symmetry_equiv_pos_as_xyz
  1  'x, y, z'
loop_
 _atom_site_type_symbol
 _atom_site_label
 _atom_site_symmetry_multiplicity
 _atom_site_fract_x
 _atom_site_fract_y
 _atom_site_fract_z
 _atom_site_occupancy
  Hf  Hf0  1  0.659767  0.659767  0.031517  1
  Hf  Hf1  1  0.340233  0.340233  0.968483  1
  Nb  Nb2  1  0.996990  0.996990  0.663544  1
  Nb  Nb3  1  0.003010  0.003010  0.336456  1
  Nb  Nb4  1  0.825074  0.825074  0.539729  1
  Nb  Nb5  1  0.174926  0.174926  0.460271  1
  Nb  Nb6  1  0.208842  0.208842  0.204334  1
  Nb  Nb7  1  0.791158  0.791158  0.795666  1
  Nb  Nb8  1  0.196011  0.196011  0.686449  1
  Nb  Nb9  1  0.803989  0.803989  0.313551  1
  Nb  Nb10  1  0.430767  0.430767  0.174281  1
  Nb  Nb11  1  0.569233  0.569233  0.825719  1
  Nb  Nb12  1  0.500000  0.500000  0.500000  1
  Nb  Nb13  1  0.000000  0.000000  0.000000  1
  P  P14  1  0.061035  0.061035  0.154032  1
  P  P15  1  0.938965  0.938965  0.845968  1
  P  P16  1  0.370371  0.370371  0.662570  1
  P  P17  1  0.629629  0.629629  0.337430  1
  P  P18  1  0.374276  0.374276  0.398784  1
  P  P19  1  0.625724  0.625724  0.601216  1
  P  P20  1  0.175243  0.175243  0.886144  1
  P  P21  1  0.824757  0.824757  0.113856  1
