# generated using pymatgen
data_Nd6YIrBr12
_symmetry_space_group_name_H-M   'P 1'
_cell_length_a   9.58175643
_cell_length_b   9.58175595
_cell_length_c   9.58175501
_cell_angle_alpha   107.23391673
_cell_angle_beta   107.23390555
_cell_angle_gamma   107.23390045
_symmetry_Int_Tables_number   1
_chemical_formula_structural   Nd6YIrBr12
_chemical_formula_sum   'Nd6 Y1 Ir1 Br12'
_cell_volume   727.89849298
_cell_formula_units_Z   1
loop_
 _symmetry_equiv_pos_site_id
 _symmetry_equiv_pos_as_xyz
  1  'x, y, z'
loop_
 _atom_site_type_symbol
 _atom_site_label
 _atom_site_symmetry_multiplicity
 _atom_site_fract_x
 _atom_site_fract_y
 _atom_site_fract_z
 _atom_site_occupancy
  Nd  Nd0  1  0.103612  0.314440  0.025500  1
  Nd  Nd1  1  0.314440  0.025501  0.103611  1
  Nd  Nd2  1  0.025501  0.103611  0.314441  1
  Nd  Nd3  1  0.974500  0.896389  0.685560  1
  Nd  Nd4  1  0.685560  0.974500  0.896389  1
  Nd  Nd5  1  0.896388  0.685560  0.974500  1
  Y  Y6  1  0.500000  0.500000  0.500000  1
  Ir  Ir7  1  0.000000  0.000000  0.000000  1
  Br  Br8  1  0.223337  0.684588  0.073880  1
  Br  Br9  1  0.467015  0.391192  0.178667  1
  Br  Br10  1  0.684589  0.073880  0.223337  1
  Br  Br11  1  0.926121  0.776663  0.315412  1
  Br  Br12  1  0.178667  0.467015  0.391192  1
  Br  Br13  1  0.391192  0.178667  0.467015  1
  Br  Br14  1  0.608808  0.821333  0.532986  1
  Br  Br15  1  0.821334  0.532985  0.608808  1
  Br  Br16  1  0.073880  0.223337  0.684589  1
  Br  Br17  1  0.315412  0.926121  0.776663  1
  Br  Br18  1  0.532985  0.608808  0.821334  1
  Br  Br19  1  0.776663  0.315412  0.926120  1
