# generated using pymatgen
data_AcNi11B6Ru
_symmetry_space_group_name_H-M   'P 1'
_cell_length_a   6.06719969
_cell_length_b   6.15719056
_cell_length_c   6.15719327
_cell_angle_alpha   104.32113520
_cell_angle_beta   104.37355838
_cell_angle_gamma   104.37354553
_symmetry_Int_Tables_number   1
_chemical_formula_structural   AcNi11B6Ru
_chemical_formula_sum   'Ac1 Ni11 B6 Ru1'
_cell_volume   203.80295240
_cell_formula_units_Z   1
loop_
 _symmetry_equiv_pos_site_id
 _symmetry_equiv_pos_as_xyz
  1  'x, y, z'
loop_
 _atom_site_type_symbol
 _atom_site_label
 _atom_site_symmetry_multiplicity
 _atom_site_fract_x
 _atom_site_fract_y
 _atom_site_fract_z
 _atom_site_occupancy
  Ac  Ac0  1  0.000000  0.001399  0.998601  1
  Ni  Ni1  1  0.458727  0.456249  0.192756  1
  Ni  Ni2  1  0.186217  0.461324  0.459609  1
  Ni  Ni3  1  0.541273  0.807244  0.543751  1
  Ni  Ni4  1  0.813783  0.540391  0.538676  1
  Ni  Ni5  1  0.537860  0.534291  0.806921  1
  Ni  Ni6  1  0.128692  0.491959  0.863063  1
  Ni  Ni7  1  0.871308  0.136937  0.508041  1
  Ni  Ni8  1  0.500000  0.136872  0.863128  1
  Ni  Ni9  1  0.864916  0.501151  0.132011  1
  Ni  Ni10  1  0.135084  0.867989  0.498849  1
  Ni  Ni11  1  0.462140  0.193079  0.465709  1
  B  B12  1  0.771662  0.769977  0.346845  1
  B  B13  1  0.344491  0.767370  0.764300  1
  B  B14  1  0.767912  0.346666  0.767312  1
  B  B15  1  0.655509  0.235700  0.232630  1
  B  B16  1  0.232088  0.232688  0.653334  1
  B  B17  1  0.228338  0.653155  0.230023  1
  Ru  Ru18  1  0.500000  0.865561  0.134439  1
