# generated using pymatgen
data_LaYZr2(NiAs)4
_symmetry_space_group_name_H-M   'P 1'
_cell_length_a   4.04101400
_cell_length_b   4.04101246
_cell_length_c   15.21140700
_cell_angle_alpha   90.00000000
_cell_angle_beta   90.00000000
_cell_angle_gamma   120.00001263
_symmetry_Int_Tables_number   1
_chemical_formula_structural   LaYZr2(NiAs)4
_chemical_formula_sum   'La1 Y1 Zr2 Ni4 As4'
_cell_volume   215.11986038
_cell_formula_units_Z   1
loop_
 _symmetry_equiv_pos_site_id
 _symmetry_equiv_pos_as_xyz
  1  'x, y, z'
loop_
 _atom_site_type_symbol
 _atom_site_label
 _atom_site_symmetry_multiplicity
 _atom_site_fract_x
 _atom_site_fract_y
 _atom_site_fract_z
 _atom_site_occupancy
  La  La0  1  0.000000  0.000000  0.500000  1
  Y  Y1  1  0.000000  0.000000  0.000000  1
  Zr  Zr2  1  0.000000  0.000000  0.245152  1
  Zr  Zr3  1  0.000000  0.000000  0.754848  1
  Ni  Ni4  1  0.333333  0.666667  0.151081  1
  Ni  Ni5  1  0.666667  0.333333  0.848919  1
  Ni  Ni6  1  0.666667  0.333333  0.665161  1
  Ni  Ni7  1  0.333333  0.666667  0.334839  1
  As  As8  1  0.333333  0.666667  0.631740  1
  As  As9  1  0.666667  0.333333  0.368260  1
  As  As10  1  0.666667  0.333333  0.120033  1
  As  As11  1  0.333333  0.666667  0.879967  1
