# generated using pymatgen
data_YLu5(Si3Ru)8
_symmetry_space_group_name_H-M   'P 1'
_cell_length_a   10.09218294
_cell_length_b   10.09218298
_cell_length_c   8.08733156
_cell_angle_alpha   90.01709031
_cell_angle_beta   90.01708804
_cell_angle_gamma   132.75423434
_symmetry_Int_Tables_number   1
_chemical_formula_structural   YLu5(Si3Ru)8
_chemical_formula_sum   'Y1 Lu5 Si24 Ru8'
_cell_volume   604.82889174
_cell_formula_units_Z   1
loop_
 _symmetry_equiv_pos_site_id
 _symmetry_equiv_pos_as_xyz
  1  'x, y, z'
loop_
 _atom_site_type_symbol
 _atom_site_label
 _atom_site_symmetry_multiplicity
 _atom_site_fract_x
 _atom_site_fract_y
 _atom_site_fract_z
 _atom_site_occupancy
  Y  Y0  1  0.500000  0.500000  0.500000  1
  Lu  Lu1  1  0.000000  0.000000  0.000000  1
  Lu  Lu2  1  0.002859  0.502785  0.249792  1
  Lu  Lu3  1  0.497215  0.997141  0.750208  1
  Lu  Lu4  1  0.997141  0.497215  0.750208  1
  Lu  Lu5  1  0.502785  0.002859  0.249792  1
  Si  Si6  1  0.295014  0.704986  0.000000  1
  Si  Si7  1  0.795440  0.204560  0.500000  1
  Si  Si8  1  0.704986  0.295014  0.000000  1
  Si  Si9  1  0.204560  0.795440  0.500000  1
  Si  Si10  1  0.832909  0.832909  0.333085  1
  Si  Si11  1  0.167091  0.167091  0.666915  1
  Si  Si12  1  0.667064  0.667064  0.833306  1
  Si  Si13  1  0.332936  0.332936  0.166694  1
  Si  Si14  1  0.622566  0.387590  0.228267  1
  Si  Si15  1  0.612410  0.377434  0.771733  1
  Si  Si16  1  0.111494  0.876970  0.728998  1
  Si  Si17  1  0.123030  0.888506  0.271002  1
  Si  Si18  1  0.377434  0.612410  0.771733  1
  Si  Si19  1  0.387590  0.622566  0.228267  1
  Si  Si20  1  0.888506  0.123030  0.271002  1
  Si  Si21  1  0.876970  0.111494  0.728998  1
  Si  Si22  1  0.845948  0.611885  0.005866  1
  Si  Si23  1  0.388115  0.154052  0.994134  1
  Si  Si24  1  0.888413  0.654175  0.505828  1
  Si  Si25  1  0.345825  0.111587  0.494172  1
  Si  Si26  1  0.154052  0.388115  0.994134  1
  Si  Si27  1  0.611885  0.845948  0.005866  1
  Si  Si28  1  0.111587  0.345825  0.494172  1
  Si  Si29  1  0.654175  0.888413  0.505828  1
  Ru  Ru30  1  0.170115  0.829885  0.000000  1
  Ru  Ru31  1  0.671037  0.328963  0.500000  1
  Ru  Ru32  1  0.829885  0.170115  0.000000  1
  Ru  Ru33  1  0.328963  0.671037  0.500000  1
  Ru  Ru34  1  0.628583  0.628583  0.126388  1
  Ru  Ru35  1  0.371417  0.371417  0.873612  1
  Ru  Ru36  1  0.873893  0.873893  0.629547  1
  Ru  Ru37  1  0.126107  0.126107  0.370453  1
