# generated using pymatgen
data_TmZr3(Al8Pt3)3
_symmetry_space_group_name_H-M   'P 1'
_cell_length_a   7.48200048
_cell_length_b   7.48317107
_cell_length_c   12.99190300
_cell_angle_alpha   84.44786275
_cell_angle_beta   101.01841763
_cell_angle_gamma   119.92821599
_symmetry_Int_Tables_number   1
_chemical_formula_structural   TmZr3(Al8Pt3)3
_chemical_formula_sum   'Tm1 Zr3 Al24 Pt9'
_cell_volume   618.78435947
_cell_formula_units_Z   1
loop_
 _symmetry_equiv_pos_site_id
 _symmetry_equiv_pos_as_xyz
  1  'x, y, z'
loop_
 _atom_site_type_symbol
 _atom_site_label
 _atom_site_symmetry_multiplicity
 _atom_site_fract_x
 _atom_site_fract_y
 _atom_site_fract_z
 _atom_site_occupancy
  Tm  Tm0  1  0.938262  0.331915  0.808718  1
  Zr  Zr1  1  0.731777  0.998918  0.189089  1
  Zr  Zr2  1  0.268309  0.000446  0.811426  1
  Zr  Zr3  1  0.060981  0.668146  0.189132  1
  Al  Al4  1  0.811951  0.868901  0.815363  1
  Al  Al5  1  0.187380  0.125118  0.184929  1
  Al  Al6  1  0.984458  0.668623  0.943774  1
  Al  Al7  1  0.016826  0.333620  0.060650  1
  Al  Al8  1  0.398232  0.669327  0.816299  1
  Al  Al9  1  0.607606  0.335689  0.183469  1
  Al  Al10  1  0.885583  0.666952  0.673278  1
  Al  Al11  1  0.113436  0.334839  0.323601  1
  Al  Al12  1  0.597867  0.452954  0.815935  1
  Al  Al13  1  0.397716  0.548122  0.184479  1
  Al  Al14  1  0.229886  0.337417  0.671538  1
  Al  Al15  1  0.770427  0.662179  0.325279  1
  Al  Al16  1  0.852886  0.333355  0.559919  1
  Al  Al17  1  0.187079  0.999806  0.561139  1
  Al  Al18  1  0.812894  0.000336  0.438953  1
  Al  Al19  1  0.353222  0.995890  0.059320  1
  Al  Al20  1  0.645552  0.001243  0.943671  1
  Al  Al21  1  0.554977  0.994041  0.673307  1
  Al  Al22  1  0.442200  0.004580  0.323381  1
  Al  Al23  1  0.521528  0.667453  0.563521  1
  Al  Al24  1  0.478159  0.332586  0.436582  1
  Al  Al25  1  0.687502  0.670384  0.051836  1
  Al  Al26  1  0.316445  0.330299  0.951761  1
  Al  Al27  1  0.146861  0.666750  0.438854  1
  Pt  Pt28  1  0.328014  0.670704  0.000614  1
  Pt  Pt29  1  0.545813  0.324293  0.637496  1
  Pt  Pt30  1  0.454451  0.676486  0.362514  1
  Pt  Pt31  1  0.888285  0.008925  0.638957  1
  Pt  Pt32  1  0.110896  0.990619  0.361030  1
  Pt  Pt33  1  0.672742  0.328771  0.000197  1
  Pt  Pt34  1  0.203259  0.666338  0.638834  1
  Pt  Pt35  1  0.796869  0.333400  0.360666  1
  Pt  Pt36  1  0.999673  0.000575  0.000488  1
