# generated using pymatgen
data_Rb4Bi3PPt4
_symmetry_space_group_name_H-M   'P 1'
_cell_length_a   7.26368528
_cell_length_b   7.26368636
_cell_length_c   7.26368591
_cell_angle_alpha   90.79618001
_cell_angle_beta   90.79618065
_cell_angle_gamma   90.79618528
_symmetry_Int_Tables_number   1
_chemical_formula_structural   Rb4Bi3PPt4
_chemical_formula_sum   'Rb4 Bi3 P1 Pt4'
_cell_volume   383.12824638
_cell_formula_units_Z   1
loop_
 _symmetry_equiv_pos_site_id
 _symmetry_equiv_pos_as_xyz
  1  'x, y, z'
loop_
 _atom_site_type_symbol
 _atom_site_label
 _atom_site_symmetry_multiplicity
 _atom_site_fract_x
 _atom_site_fract_y
 _atom_site_fract_z
 _atom_site_occupancy
  Rb  Rb0  1  0.605944  0.389297  0.880499  1
  Rb  Rb1  1  0.389297  0.880499  0.605944  1
  Rb  Rb2  1  0.115414  0.115414  0.115414  1
  Rb  Rb3  1  0.880499  0.605944  0.389297  1
  Bi  Bi4  1  0.584571  0.909077  0.099345  1
  Bi  Bi5  1  0.099345  0.584571  0.909077  1
  Bi  Bi6  1  0.909077  0.099345  0.584571  1
  P  P7  1  0.400347  0.400347  0.400347  1
  Pt  Pt8  1  0.187862  0.358769  0.618525  1
  Pt  Pt9  1  0.618525  0.187862  0.358769  1
  Pt  Pt10  1  0.850349  0.850349  0.850349  1
  Pt  Pt11  1  0.358769  0.618525  0.187862  1
