# generated using pymatgen
data_LuCu4Ag
_symmetry_space_group_name_H-M   'P 1'
_cell_length_a   5.01538677
_cell_length_b   5.01538683
_cell_length_c   5.01538600
_cell_angle_alpha   59.99999225
_cell_angle_beta   59.99999190
_cell_angle_gamma   59.99999876
_symmetry_Int_Tables_number   1
_chemical_formula_structural   LuCu4Ag
_chemical_formula_sum   'Lu1 Cu4 Ag1'
_cell_volume   89.20684387
_cell_formula_units_Z   1
loop_
 _symmetry_equiv_pos_site_id
 _symmetry_equiv_pos_as_xyz
  1  'x, y, z'
loop_
 _atom_site_type_symbol
 _atom_site_label
 _atom_site_symmetry_multiplicity
 _atom_site_fract_x
 _atom_site_fract_y
 _atom_site_fract_z
 _atom_site_occupancy
  Lu  Lu0  1  0.000000  0.000000  0.000000  1
  Cu  Cu1  1  0.624321  0.624321  0.127036  1
  Cu  Cu2  1  0.624321  0.127036  0.624321  1
  Cu  Cu3  1  0.127036  0.624321  0.624321  1
  Cu  Cu4  1  0.624321  0.624321  0.624321  1
  Ag  Ag5  1  0.250000  0.250000  0.250000  1
