# generated using pymatgen
data_Er5Bi2Pd
_symmetry_space_group_name_H-M   'P 1'
_cell_length_a   8.00460200
_cell_length_b   9.04069100
_cell_length_c   12.26110100
_cell_angle_alpha   90.00000000
_cell_angle_beta   90.00000000
_cell_angle_gamma   90.00000000
_symmetry_Int_Tables_number   1
_chemical_formula_structural   Er5Bi2Pd
_chemical_formula_sum   'Er20 Bi8 Pd4'
_cell_volume   887.30072998
_cell_formula_units_Z   4
loop_
 _symmetry_equiv_pos_site_id
 _symmetry_equiv_pos_as_xyz
  1  'x, y, z'
loop_
 _atom_site_type_symbol
 _atom_site_label
 _atom_site_symmetry_multiplicity
 _atom_site_fract_x
 _atom_site_fract_y
 _atom_site_fract_z
 _atom_site_occupancy
  Er  Er0  1  0.165944  0.750000  0.212728  1
  Er  Er1  1  0.334056  0.750000  0.712728  1
  Er  Er2  1  0.834056  0.250000  0.787272  1
  Er  Er3  1  0.665944  0.250000  0.287272  1
  Er  Er4  1  0.458614  0.750000  0.000266  1
  Er  Er5  1  0.041386  0.750000  0.500266  1
  Er  Er6  1  0.541386  0.250000  0.999734  1
  Er  Er7  1  0.958614  0.250000  0.499734  1
  Er  Er8  1  0.630424  0.750000  0.302783  1
  Er  Er9  1  0.869576  0.750000  0.802783  1
  Er  Er10  1  0.369576  0.250000  0.697217  1
  Er  Er11  1  0.130424  0.250000  0.197217  1
  Er  Er12  1  0.821361  0.550619  0.066853  1
  Er  Er13  1  0.678639  0.949381  0.566853  1
  Er  Er14  1  0.178639  0.050619  0.933147  1
  Er  Er15  1  0.321361  0.449381  0.433147  1
  Er  Er16  1  0.178639  0.449381  0.933147  1
  Er  Er17  1  0.321361  0.050619  0.433147  1
  Er  Er18  1  0.821361  0.949381  0.066853  1
  Er  Er19  1  0.678639  0.550619  0.566853  1
  Bi  Bi20  1  0.932076  0.508456  0.326715  1
  Bi  Bi21  1  0.567924  0.991544  0.826715  1
  Bi  Bi22  1  0.067924  0.008456  0.673285  1
  Bi  Bi23  1  0.432076  0.491544  0.173285  1
  Bi  Bi24  1  0.067924  0.491544  0.673285  1
  Bi  Bi25  1  0.432076  0.008456  0.173285  1
  Bi  Bi26  1  0.932076  0.991544  0.326715  1
  Bi  Bi27  1  0.567924  0.508456  0.826715  1
  Pd  Pd28  1  0.413289  0.750000  0.485969  1
  Pd  Pd29  1  0.086711  0.750000  0.985969  1
  Pd  Pd30  1  0.586711  0.250000  0.514031  1
  Pd  Pd31  1  0.913289  0.250000  0.014031  1
