# generated using pymatgen
data_HoEr3UP12Ru19
_symmetry_space_group_name_H-M   'P 1'
_cell_length_a   12.55177100
_cell_length_b   12.55151805
_cell_length_c   3.95499700
_cell_angle_alpha   90.00000000
_cell_angle_beta   90.00000000
_cell_angle_gamma   120.22643919
_symmetry_Int_Tables_number   1
_chemical_formula_structural   HoEr3UP12Ru19
_chemical_formula_sum   'Ho1 Er3 U1 P12 Ru19'
_cell_volume   538.37213192
_cell_formula_units_Z   1
loop_
 _symmetry_equiv_pos_site_id
 _symmetry_equiv_pos_as_xyz
  1  'x, y, z'
loop_
 _atom_site_type_symbol
 _atom_site_label
 _atom_site_symmetry_multiplicity
 _atom_site_fract_x
 _atom_site_fract_y
 _atom_site_fract_z
 _atom_site_occupancy
  Ho  Ho0  1  0.333298  0.665439  0.000000  1
  Er  Er1  1  0.811469  0.999075  0.500000  1
  Er  Er2  1  0.999070  0.811469  0.500000  1
  Er  Er3  1  0.665425  0.333277  0.000000  1
  U  U4  1  0.178452  0.178453  0.500000  1
  P  P5  1  0.818084  0.818075  0.000000  1
  P  P6  1  0.182423  0.994529  0.000000  1
  P  P7  1  0.994509  0.182416  0.000000  1
  P  P8  1  0.171734  0.478996  0.500000  1
  P  P9  1  0.522725  0.694388  0.500000  1
  P  P10  1  0.307855  0.828673  0.500000  1
  P  P11  1  0.694355  0.522596  0.500000  1
  P  P12  1  0.828576  0.307882  0.500000  1
  P  P13  1  0.479137  0.171850  0.500000  1
  P  P14  1  0.373907  0.373928  0.000000  1
  P  P15  1  0.627015  0.000203  0.000000  1
  P  P16  1  0.000238  0.627035  0.000000  1
  Ru  Ru17  1  0.555429  0.555442  0.000000  1
  Ru  Ru18  1  0.446156  0.003693  0.000000  1
  Ru  Ru19  1  0.003713  0.446164  0.000000  1
  Ru  Ru20  1  0.718961  0.718945  0.500000  1
  Ru  Ru21  1  0.282932  0.001537  0.500000  1
  Ru  Ru22  1  0.001500  0.282914  0.500000  1
  Ru  Ru23  1  0.184019  0.369228  0.000000  1
  Ru  Ru24  1  0.623109  0.807818  0.000000  1
  Ru  Ru25  1  0.193320  0.815013  0.000000  1
  Ru  Ru26  1  0.807764  0.622986  0.000000  1
  Ru  Ru27  1  0.814955  0.193370  0.000000  1
  Ru  Ru28  1  0.369306  0.184078  0.000000  1
  Ru  Ru29  1  0.365015  0.491504  0.500000  1
  Ru  Ru30  1  0.509312  0.875707  0.500000  1
  Ru  Ru31  1  0.127617  0.635024  0.500000  1
  Ru  Ru32  1  0.875527  0.509131  0.500000  1
  Ru  Ru33  1  0.635043  0.127812  0.500000  1
  Ru  Ru34  1  0.491695  0.364995  0.500000  1
  Ru  Ru35  1  0.006359  0.006359  0.000000  1
