# generated using pymatgen
data_Ca6Re2N7
_symmetry_space_group_name_H-M   'P 1'
_cell_length_a   6.16032127
_cell_length_b   6.16032050
_cell_length_c   6.16031794
_cell_angle_alpha   94.43130379
_cell_angle_beta   94.43128920
_cell_angle_gamma   94.43130561
_symmetry_Int_Tables_number   1
_chemical_formula_structural   Ca6Re2N7
_chemical_formula_sum   'Ca6 Re2 N7'
_cell_volume   231.56962529
_cell_formula_units_Z   1
loop_
 _symmetry_equiv_pos_site_id
 _symmetry_equiv_pos_as_xyz
  1  'x, y, z'
loop_
 _atom_site_type_symbol
 _atom_site_label
 _atom_site_symmetry_multiplicity
 _atom_site_fract_x
 _atom_site_fract_y
 _atom_site_fract_z
 _atom_site_occupancy
  Ca  Ca0  1  0.668321  0.111618  0.809335  1
  Ca  Ca1  1  0.111618  0.809335  0.668321  1
  Ca  Ca2  1  0.809335  0.668321  0.111618  1
  Ca  Ca3  1  0.331679  0.888382  0.190665  1
  Ca  Ca4  1  0.888382  0.190665  0.331679  1
  Ca  Ca5  1  0.190665  0.331679  0.888382  1
  Re  Re6  1  0.625041  0.625041  0.625041  1
  Re  Re7  1  0.374959  0.374959  0.374959  1
  N  N8  1  0.000000  0.000000  0.000000  1
  N  N9  1  0.733820  0.854850  0.470863  1
  N  N10  1  0.854850  0.470863  0.733820  1
  N  N11  1  0.470863  0.733820  0.854850  1
  N  N12  1  0.266180  0.145150  0.529137  1
  N  N13  1  0.145150  0.529137  0.266180  1
  N  N14  1  0.529137  0.266180  0.145150  1
