# generated using pymatgen
data_Nd8Gd12Si13Sn3
_symmetry_space_group_name_H-M   'P 1'
_cell_length_a   7.98361631
_cell_length_b   7.99681579
_cell_length_c   14.78002800
_cell_angle_alpha   89.88296968
_cell_angle_beta   90.13846681
_cell_angle_gamma   90.24861569
_symmetry_Int_Tables_number   1
_chemical_formula_structural   Nd8Gd12Si13Sn3
_chemical_formula_sum   'Nd8 Gd12 Si13 Sn3'
_cell_volume   943.59526409
_cell_formula_units_Z   1
loop_
 _symmetry_equiv_pos_site_id
 _symmetry_equiv_pos_as_xyz
  1  'x, y, z'
loop_
 _atom_site_type_symbol
 _atom_site_label
 _atom_site_symmetry_multiplicity
 _atom_site_fract_x
 _atom_site_fract_y
 _atom_site_fract_z
 _atom_site_occupancy
  Nd  Nd0  1  0.638322  0.990596  0.453472  1
  Nd  Nd1  1  0.354009  0.005933  0.955119  1
  Nd  Nd2  1  0.991058  0.640097  0.547580  1
  Nd  Nd3  1  0.488878  0.851727  0.210624  1
  Nd  Nd4  1  0.509585  0.148336  0.716285  1
  Nd  Nd5  1  0.861757  0.497153  0.793194  1
  Nd  Nd6  1  0.146135  0.508826  0.285820  1
  Nd  Nd7  1  0.010457  0.365933  0.041996  1
  Gd  Gd8  1  0.488563  0.366144  0.123409  1
  Gd  Gd9  1  0.977976  0.148760  0.636646  1
  Gd  Gd10  1  0.861242  0.010340  0.869998  1
  Gd  Gd11  1  0.148329  0.976922  0.363698  1
  Gd  Gd12  1  0.508766  0.636157  0.627498  1
  Gd  Gd13  1  0.358353  0.494914  0.875843  1
  Gd  Gd14  1  0.636418  0.509590  0.373305  1
  Gd  Gd15  1  0.020251  0.851141  0.129426  1
  Gd  Gd16  1  0.327999  0.326984  0.500508  1
  Gd  Gd17  1  0.179997  0.816099  0.756688  1
  Gd  Gd18  1  0.818857  0.182625  0.249019  1
  Gd  Gd19  1  0.685380  0.672304  0.997171  1
  Si  Si20  1  0.438678  0.204338  0.308562  1
  Si  Si21  1  0.563327  0.794057  0.810477  1
  Si  Si22  1  0.205434  0.438372  0.690632  1
  Si  Si23  1  0.792180  0.563277  0.189333  1
  Si  Si24  1  0.064928  0.708808  0.941377  1
  Si  Si25  1  0.791734  0.846163  0.691941  1
  Si  Si26  1  0.205803  0.155961  0.187839  1
  Si  Si27  1  0.843875  0.793477  0.307026  1
  Si  Si28  1  0.348853  0.695295  0.434293  1
  Si  Si29  1  0.648094  0.300262  0.930461  1
  Si  Si30  1  0.694333  0.348292  0.566258  1
  Si  Si31  1  0.295810  0.652440  0.058653  1
  Si  Si32  1  0.153833  0.207514  0.812213  1
  Sn  Sn33  1  0.287159  0.944828  0.564396  1
  Sn  Sn34  1  0.708532  0.057988  0.060921  1
  Sn  Sn35  1  0.945093  0.288347  0.438319  1
