# generated using pymatgen
data_Dy10AgIr3Os2
_symmetry_space_group_name_H-M   'P 1'
_cell_length_a   10.98088917
_cell_length_b   10.93662400
_cell_length_c   6.45785276
_cell_angle_alpha   90.00000000
_cell_angle_beta   89.64033281
_cell_angle_gamma   90.00000000
_symmetry_Int_Tables_number   1
_chemical_formula_structural   Dy10AgIr3Os2
_chemical_formula_sum   'Dy20 Ag2 Ir6 Os4'
_cell_volume   775.53315946
_cell_formula_units_Z   2
loop_
 _symmetry_equiv_pos_site_id
 _symmetry_equiv_pos_as_xyz
  1  'x, y, z'
loop_
 _atom_site_type_symbol
 _atom_site_label
 _atom_site_symmetry_multiplicity
 _atom_site_fract_x
 _atom_site_fract_y
 _atom_site_fract_z
 _atom_site_occupancy
  Dy  Dy0  1  0.294219  0.086276  0.375259  1
  Dy  Dy1  1  0.294219  0.913724  0.875259  1
  Dy  Dy2  1  0.695102  0.091935  0.863340  1
  Dy  Dy3  1  0.695102  0.908065  0.363340  1
  Dy  Dy4  1  0.574677  0.791508  0.878834  1
  Dy  Dy5  1  0.574677  0.208492  0.378834  1
  Dy  Dy6  1  0.409384  0.793037  0.378197  1
  Dy  Dy7  1  0.409384  0.206963  0.878197  1
  Dy  Dy8  1  0.207651  0.412589  0.619701  1
  Dy  Dy9  1  0.207651  0.587411  0.119701  1
  Dy  Dy10  1  0.792800  0.423429  0.121020  1
  Dy  Dy11  1  0.792800  0.576571  0.621020  1
  Dy  Dy12  1  0.919743  0.703140  0.140644  1
  Dy  Dy13  1  0.919743  0.296860  0.640644  1
  Dy  Dy14  1  0.095521  0.700970  0.621204  1
  Dy  Dy15  1  0.095521  0.299030  0.121204  1
  Dy  Dy16  1  0.011378  0.998065  0.501255  1
  Dy  Dy17  1  0.011378  0.001935  0.001255  1
  Dy  Dy18  1  0.499487  0.498382  0.000564  1
  Dy  Dy19  1  0.499487  0.501618  0.500564  1
  Ag  Ag20  1  0.843455  0.156104  0.251745  1
  Ag  Ag21  1  0.843455  0.843896  0.751745  1
  Ir  Ir22  1  0.153300  0.152667  0.750095  1
  Ir  Ir23  1  0.153300  0.847333  0.250095  1
  Ir  Ir24  1  0.653717  0.348432  0.747237  1
  Ir  Ir25  1  0.653717  0.651568  0.247237  1
  Ir  Ir26  1  0.348855  0.347724  0.251445  1
  Ir  Ir27  1  0.348855  0.652276  0.751445  1
  Os  Os28  1  0.500139  0.000419  0.123057  1
  Os  Os29  1  0.500139  0.999581  0.623057  1
  Os  Os30  1  0.000571  0.501204  0.876404  1
  Os  Os31  1  0.000571  0.498796  0.376404  1
