# generated using pymatgen
data_Yb2YGa3Ge2Pt
_symmetry_space_group_name_H-M   'P 1'
_cell_length_a   6.97352000
_cell_length_b   7.00136465
_cell_length_c   4.27241500
_cell_angle_alpha   90.00000000
_cell_angle_beta   90.00000000
_cell_angle_gamma   119.86851837
_symmetry_Int_Tables_number   1
_chemical_formula_structural   Yb2YGa3Ge2Pt
_chemical_formula_sum   'Yb2 Y1 Ga3 Ge2 Pt1'
_cell_volume   180.88921873
_cell_formula_units_Z   1
loop_
 _symmetry_equiv_pos_site_id
 _symmetry_equiv_pos_as_xyz
  1  'x, y, z'
loop_
 _atom_site_type_symbol
 _atom_site_label
 _atom_site_symmetry_multiplicity
 _atom_site_fract_x
 _atom_site_fract_y
 _atom_site_fract_z
 _atom_site_occupancy
  Yb  Yb0  1  0.000030  0.418255  0.000000  1
  Yb  Yb1  1  0.581775  0.581745  0.000000  1
  Y  Y2  1  0.419025  0.000000  0.000000  1
  Ga  Ga3  1  0.764677  0.000000  0.500000  1
  Ga  Ga4  1  0.235890  0.236718  0.500000  1
  Ga  Ga5  1  0.999173  0.763282  0.500000  1
  Ge  Ge6  1  0.663638  0.330147  0.500000  1
  Ge  Ge7  1  0.333491  0.669853  0.500000  1
  Pt  Pt8  1  0.002297  0.000000  0.000000  1
