# generated using pymatgen
data_Y2Tm4TcRh
_symmetry_space_group_name_H-M   'P 1'
_cell_length_a   6.27544449
_cell_length_b   7.35133159
_cell_length_c   9.06850000
_cell_angle_alpha   90.00000000
_cell_angle_beta   90.00000000
_cell_angle_gamma   89.95382270
_symmetry_Int_Tables_number   1
_chemical_formula_structural   Y2Tm4TcRh
_chemical_formula_sum   'Y4 Tm8 Tc2 Rh2'
_cell_volume   418.35582621
_cell_formula_units_Z   2
loop_
 _symmetry_equiv_pos_site_id
 _symmetry_equiv_pos_as_xyz
  1  'x, y, z'
loop_
 _atom_site_type_symbol
 _atom_site_label
 _atom_site_symmetry_multiplicity
 _atom_site_fract_x
 _atom_site_fract_y
 _atom_site_fract_z
 _atom_site_occupancy
  Y  Y0  1  0.633134  0.039295  0.250000  1
  Y  Y1  1  0.366866  0.960705  0.750000  1
  Y  Y2  1  0.125049  0.461240  0.750000  1
  Y  Y3  1  0.874951  0.538760  0.250000  1
  Tm  Tm4  1  0.171268  0.179174  0.065473  1
  Tm  Tm5  1  0.828732  0.820826  0.934527  1
  Tm  Tm6  1  0.663068  0.326719  0.938278  1
  Tm  Tm7  1  0.828732  0.820826  0.565473  1
  Tm  Tm8  1  0.336932  0.673281  0.061722  1
  Tm  Tm9  1  0.171268  0.179174  0.434527  1
  Tm  Tm10  1  0.336932  0.673281  0.438278  1
  Tm  Tm11  1  0.663068  0.326719  0.561722  1
  Tc  Tc12  1  0.458894  0.383545  0.250000  1
  Tc  Tc13  1  0.541106  0.616455  0.750000  1
  Rh  Rh14  1  0.950082  0.112860  0.750000  1
  Rh  Rh15  1  0.049918  0.887140  0.250000  1
