# generated using pymatgen
data_Nd11Cd9Pt4
_symmetry_space_group_name_H-M   'P 1'
_cell_length_a   13.52864997
_cell_length_b   13.52865021
_cell_length_c   3.82673100
_cell_angle_alpha   90.00000000
_cell_angle_beta   90.00000000
_cell_angle_gamma   112.19688098
_symmetry_Int_Tables_number   1
_chemical_formula_structural   Nd11Cd9Pt4
_chemical_formula_sum   'Nd11 Cd9 Pt4'
_cell_volume   648.48031415
_cell_formula_units_Z   1
loop_
 _symmetry_equiv_pos_site_id
 _symmetry_equiv_pos_as_xyz
  1  'x, y, z'
loop_
 _atom_site_type_symbol
 _atom_site_label
 _atom_site_symmetry_multiplicity
 _atom_site_fract_x
 _atom_site_fract_y
 _atom_site_fract_z
 _atom_site_occupancy
  Nd  Nd0  1  0.075902  0.417584  0.000000  1
  Nd  Nd1  1  0.924098  0.582416  0.000000  1
  Nd  Nd2  1  0.417584  0.075902  0.000000  1
  Nd  Nd3  1  0.582416  0.924098  0.000000  1
  Nd  Nd4  1  0.627480  0.372520  0.000000  1
  Nd  Nd5  1  0.372520  0.627480  0.000000  1
  Nd  Nd6  1  0.837773  0.162227  0.000000  1
  Nd  Nd7  1  0.162227  0.837773  0.000000  1
  Nd  Nd8  1  0.000000  0.000000  0.000000  1
  Nd  Nd9  1  0.309566  0.309566  0.000000  1
  Nd  Nd10  1  0.690434  0.690434  0.000000  1
  Cd  Cd11  1  0.839759  0.363863  0.500000  1
  Cd  Cd12  1  0.160241  0.636137  0.500000  1
  Cd  Cd13  1  0.363863  0.839759  0.500000  1
  Cd  Cd14  1  0.636137  0.160241  0.500000  1
  Cd  Cd15  1  0.073022  0.214792  0.500000  1
  Cd  Cd16  1  0.926978  0.785208  0.500000  1
  Cd  Cd17  1  0.214792  0.073022  0.500000  1
  Cd  Cd18  1  0.785208  0.926978  0.500000  1
  Cd  Cd19  1  0.500000  0.500000  0.500000  1
  Pt  Pt20  1  0.249238  0.451124  0.500000  1
  Pt  Pt21  1  0.750762  0.548876  0.500000  1
  Pt  Pt22  1  0.451124  0.249238  0.500000  1
  Pt  Pt23  1  0.548876  0.750762  0.500000  1
