# generated using pymatgen
data_Cs5K(Al2Sb3)2
_symmetry_space_group_name_H-M   'P 1'
_cell_length_a   6.69627000
_cell_length_b   8.60721262
_cell_length_c   11.79783093
_cell_angle_alpha   70.99140026
_cell_angle_beta   90.00000000
_cell_angle_gamma   90.00000000
_symmetry_Int_Tables_number   1
_chemical_formula_structural   Cs5K(Al2Sb3)2
_chemical_formula_sum   'Cs5 K1 Al4 Sb6'
_cell_volume   642.90273159
_cell_formula_units_Z   1
loop_
 _symmetry_equiv_pos_site_id
 _symmetry_equiv_pos_as_xyz
  1  'x, y, z'
loop_
 _atom_site_type_symbol
 _atom_site_label
 _atom_site_symmetry_multiplicity
 _atom_site_fract_x
 _atom_site_fract_y
 _atom_site_fract_z
 _atom_site_occupancy
  Cs  Cs0  1  0.750000  0.146117  0.913439  1
  Cs  Cs1  1  0.750000  0.466690  0.151890  1
  Cs  Cs2  1  0.250000  0.536434  0.849030  1
  Cs  Cs3  1  0.750000  0.568147  0.571431  1
  Cs  Cs4  1  0.250000  0.862191  0.086451  1
  K  K5  1  0.250000  0.402726  0.435733  1
  Al  Al6  1  0.999197  0.028283  0.348950  1
  Al  Al7  1  0.499280  0.971832  0.649561  1
  Al  Al8  1  0.500803  0.028283  0.348950  1
  Al  Al9  1  0.000720  0.971832  0.649561  1
  Sb  Sb10  1  0.250000  0.814905  0.523618  1
  Sb  Sb11  1  0.750000  0.181012  0.473730  1
  Sb  Sb12  1  0.250000  0.245604  0.194045  1
  Sb  Sb13  1  0.750000  0.765821  0.812633  1
  Sb  Sb14  1  0.250000  0.151785  0.737375  1
  Sb  Sb15  1  0.750000  0.858337  0.253601  1
