# generated using pymatgen
data_Ho8Ti11Si16Pt
_symmetry_space_group_name_H-M   'P 1'
_cell_length_a   7.02967290
_cell_length_b   7.02967290
_cell_length_c   12.83665925
_cell_angle_alpha   90.14342750
_cell_angle_beta   89.85657250
_cell_angle_gamma   89.75249177
_symmetry_Int_Tables_number   1
_chemical_formula_structural   Ho8Ti11Si16Pt
_chemical_formula_sum   'Ho8 Ti11 Si16 Pt1'
_cell_volume   634.33030769
_cell_formula_units_Z   1
loop_
 _symmetry_equiv_pos_site_id
 _symmetry_equiv_pos_as_xyz
  1  'x, y, z'
loop_
 _atom_site_type_symbol
 _atom_site_label
 _atom_site_symmetry_multiplicity
 _atom_site_fract_x
 _atom_site_fract_y
 _atom_site_fract_z
 _atom_site_occupancy
  Ho  Ho0  1  0.340486  0.003772  0.466965  1
  Ho  Ho1  1  0.497027  0.841180  0.717930  1
  Ho  Ho2  1  0.501231  0.158488  0.214843  1
  Ho  Ho3  1  0.841180  0.497027  0.282070  1
  Ho  Ho4  1  0.158488  0.501231  0.785157  1
  Ho  Ho5  1  0.657269  0.998376  0.968256  1
  Ho  Ho6  1  0.003772  0.340486  0.533035  1
  Ho  Ho7  1  0.998376  0.657269  0.031744  1
  Ti  Ti8  1  0.175462  0.827145  0.248730  1
  Ti  Ti9  1  0.827145  0.175462  0.751270  1
  Ti  Ti10  1  0.673189  0.673189  0.500000  1
  Ti  Ti11  1  0.149222  0.004325  0.876572  1
  Ti  Ti12  1  0.494187  0.654115  0.124502  1
  Ti  Ti13  1  0.507160  0.350203  0.626989  1
  Ti  Ti14  1  0.654115  0.494187  0.875498  1
  Ti  Ti15  1  0.350203  0.507160  0.373011  1
  Ti  Ti16  1  0.849558  0.993662  0.374930  1
  Ti  Ti17  1  0.004325  0.149222  0.123428  1
  Ti  Ti18  1  0.993662  0.849558  0.625070  1
  Si  Si19  1  0.202228  0.132679  0.685076  1
  Si  Si20  1  0.372466  0.708657  0.932666  1
  Si  Si21  1  0.631362  0.294954  0.433452  1
  Si  Si22  1  0.708657  0.372466  0.067334  1
  Si  Si23  1  0.294954  0.631362  0.566548  1
  Si  Si24  1  0.796774  0.868484  0.183629  1
  Si  Si25  1  0.132679  0.202228  0.314924  1
  Si  Si26  1  0.868484  0.796774  0.816371  1
  Si  Si27  1  0.286466  0.945684  0.064555  1
  Si  Si28  1  0.547157  0.791891  0.315226  1
  Si  Si29  1  0.450736  0.209031  0.814954  1
  Si  Si30  1  0.791891  0.547157  0.684774  1
  Si  Si31  1  0.209031  0.450736  0.185046  1
  Si  Si32  1  0.708355  0.047715  0.565468  1
  Si  Si33  1  0.945684  0.286466  0.935445  1
  Si  Si34  1  0.047715  0.708355  0.434532  1
  Pt  Pt35  1  0.329304  0.329304  0.000000  1
