# generated using pymatgen
data_Ca(Re2P)2
_symmetry_space_group_name_H-M   'P 1'
_cell_length_a   7.19457048
_cell_length_b   7.19457081
_cell_length_c   4.04241100
_cell_angle_alpha   90.00000000
_cell_angle_beta   90.00000000
_cell_angle_gamma   146.95480838
_symmetry_Int_Tables_number   1
_chemical_formula_structural   Ca(Re2P)2
_chemical_formula_sum   'Ca1 Re4 P2'
_cell_volume   114.10009738
_cell_formula_units_Z   1
loop_
 _symmetry_equiv_pos_site_id
 _symmetry_equiv_pos_as_xyz
  1  'x, y, z'
loop_
 _atom_site_type_symbol
 _atom_site_label
 _atom_site_symmetry_multiplicity
 _atom_site_fract_x
 _atom_site_fract_y
 _atom_site_fract_z
 _atom_site_occupancy
  Ca  Ca0  1  0.000000  0.000000  0.000000  1
  Re  Re1  1  0.693705  0.306295  0.000000  1
  Re  Re2  1  0.306295  0.693705  0.000000  1
  Re  Re3  1  0.817181  0.182818  0.500000  1
  Re  Re4  1  0.182818  0.817181  0.500000  1
  P  P5  1  0.586114  0.413885  0.500000  1
  P  P6  1  0.413885  0.586114  0.500000  1
