# generated using pymatgen
data_Sc3TlS5
_symmetry_space_group_name_H-M   'P 1'
_cell_length_a   10.42194523
_cell_length_b   10.42194584
_cell_length_c   12.84076900
_cell_angle_alpha   57.83559389
_cell_angle_beta   57.83559178
_cell_angle_gamma   20.55019928
_symmetry_Int_Tables_number   1
_chemical_formula_structural   Sc3TlS5
_chemical_formula_sum   'Sc6 Tl2 S10'
_cell_volume   411.74555376
_cell_formula_units_Z   2
loop_
 _symmetry_equiv_pos_site_id
 _symmetry_equiv_pos_as_xyz
  1  'x, y, z'
loop_
 _atom_site_type_symbol
 _atom_site_label
 _atom_site_symmetry_multiplicity
 _atom_site_fract_x
 _atom_site_fract_y
 _atom_site_fract_z
 _atom_site_occupancy
  Sc  Sc0  1  0.030431  0.030431  0.216512  1
  Sc  Sc1  1  0.165979  0.165979  0.610493  1
  Sc  Sc2  1  0.500000  0.500000  0.000000  1
  Sc  Sc3  1  0.969569  0.969569  0.783488  1
  Sc  Sc4  1  0.834021  0.834021  0.389507  1
  Sc  Sc5  1  0.500000  0.500000  0.500000  1
  Tl  Tl6  1  0.740949  0.740949  0.184011  1
  Tl  Tl7  1  0.259051  0.259051  0.815989  1
  S  S8  1  0.602610  0.602610  0.065006  1
  S  S9  1  0.570125  0.570125  0.618660  1
  S  S10  1  0.927135  0.927135  0.154796  1
  S  S11  1  0.429875  0.429875  0.381340  1
  S  S12  1  0.087452  0.087452  0.347771  1
  S  S13  1  0.072865  0.072865  0.845204  1
  S  S14  1  0.745735  0.745735  0.622305  1
  S  S15  1  0.397390  0.397390  0.934994  1
  S  S16  1  0.254265  0.254265  0.377695  1
  S  S17  1  0.912548  0.912548  0.652229  1
