# generated using pymatgen
data_Pr2Sc3Ge4
_symmetry_space_group_name_H-M   'P 1'
_cell_length_a   7.39949100
_cell_length_b   7.65742900
_cell_length_c   14.35344800
_cell_angle_alpha   90.00000000
_cell_angle_beta   90.00000000
_cell_angle_gamma   90.00000000
_symmetry_Int_Tables_number   1
_chemical_formula_structural   Pr2Sc3Ge4
_chemical_formula_sum   'Pr8 Sc12 Ge16'
_cell_volume   813.28182189
_cell_formula_units_Z   4
loop_
 _symmetry_equiv_pos_site_id
 _symmetry_equiv_pos_as_xyz
  1  'x, y, z'
loop_
 _atom_site_type_symbol
 _atom_site_label
 _atom_site_symmetry_multiplicity
 _atom_site_fract_x
 _atom_site_fract_y
 _atom_site_fract_z
 _atom_site_occupancy
  Pr  Pr0  1  0.006641  0.172046  0.402106  1
  Pr  Pr1  1  0.506641  0.327954  0.402106  1
  Pr  Pr2  1  0.493359  0.672046  0.902106  1
  Pr  Pr3  1  0.493359  0.672046  0.597894  1
  Pr  Pr4  1  0.993359  0.827954  0.597894  1
  Pr  Pr5  1  0.993359  0.827954  0.902106  1
  Pr  Pr6  1  0.506641  0.327954  0.097894  1
  Pr  Pr7  1  0.006641  0.172046  0.097894  1
  Sc  Sc8  1  0.330269  0.169750  0.625223  1
  Sc  Sc9  1  0.669731  0.830250  0.374777  1
  Sc  Sc10  1  0.659958  0.002625  0.750000  1
  Sc  Sc11  1  0.169731  0.669750  0.374777  1
  Sc  Sc12  1  0.830269  0.330250  0.874777  1
  Sc  Sc13  1  0.830269  0.330250  0.625223  1
  Sc  Sc14  1  0.840042  0.502625  0.250000  1
  Sc  Sc15  1  0.340042  0.997375  0.250000  1
  Sc  Sc16  1  0.330269  0.169750  0.874777  1
  Sc  Sc17  1  0.169731  0.669750  0.125223  1
  Sc  Sc18  1  0.669731  0.830250  0.125223  1
  Sc  Sc19  1  0.159958  0.497375  0.750000  1
  Ge  Ge20  1  0.298894  0.870947  0.750000  1
  Ge  Ge21  1  0.471662  0.634835  0.250000  1
  Ge  Ge22  1  0.028338  0.134835  0.750000  1
  Ge  Ge23  1  0.528338  0.365165  0.750000  1
  Ge  Ge24  1  0.161992  0.459801  0.542182  1
  Ge  Ge25  1  0.971662  0.865165  0.250000  1
  Ge  Ge26  1  0.701106  0.129053  0.250000  1
  Ge  Ge27  1  0.838008  0.540199  0.042182  1
  Ge  Ge28  1  0.338008  0.959801  0.042182  1
  Ge  Ge29  1  0.161992  0.459801  0.957818  1
  Ge  Ge30  1  0.661992  0.040199  0.542182  1
  Ge  Ge31  1  0.338008  0.959801  0.457818  1
  Ge  Ge32  1  0.838008  0.540199  0.457818  1
  Ge  Ge33  1  0.798894  0.629053  0.750000  1
  Ge  Ge34  1  0.201106  0.370947  0.250000  1
  Ge  Ge35  1  0.661992  0.040199  0.957818  1
