# generated using pymatgen
data_Nd4Co5Ni3(PRu)12
_symmetry_space_group_name_H-M   'P 1'
_cell_length_a   3.82982600
_cell_length_b   10.73888841
_cell_length_c   12.22658752
_cell_angle_alpha   89.77592534
_cell_angle_beta   90.00000000
_cell_angle_gamma   90.00000000
_symmetry_Int_Tables_number   1
_chemical_formula_structural   Nd4Co5Ni3(PRu)12
_chemical_formula_sum   'Nd4 Co5 Ni3 P12 Ru12'
_cell_volume   502.85215105
_cell_formula_units_Z   1
loop_
 _symmetry_equiv_pos_site_id
 _symmetry_equiv_pos_as_xyz
  1  'x, y, z'
loop_
 _atom_site_type_symbol
 _atom_site_label
 _atom_site_symmetry_multiplicity
 _atom_site_fract_x
 _atom_site_fract_y
 _atom_site_fract_z
 _atom_site_occupancy
  Nd  Nd0  1  0.250000  0.584298  0.707549  1
  Nd  Nd1  1  0.250000  0.914065  0.206640  1
  Nd  Nd2  1  0.750000  0.413988  0.293346  1
  Nd  Nd3  1  0.750000  0.086899  0.792707  1
  Co  Co4  1  0.750000  0.387053  0.804998  1
  Co  Co5  1  0.250000  0.463965  0.934143  1
  Co  Co6  1  0.250000  0.036827  0.432539  1
  Co  Co7  1  0.750000  0.537627  0.066919  1
  Co  Co8  1  0.750000  0.962275  0.566967  1
  Ni  Ni9  1  0.250000  0.887568  0.696802  1
  Ni  Ni10  1  0.250000  0.612084  0.196719  1
  Ni  Ni11  1  0.750000  0.112035  0.303129  1
  P  P12  1  0.250000  0.422174  0.107957  1
  P  P13  1  0.250000  0.077509  0.607196  1
  P  P14  1  0.750000  0.574211  0.890725  1
  P  P15  1  0.750000  0.921915  0.392280  1
  P  P16  1  0.250000  0.276429  0.871312  1
  P  P17  1  0.250000  0.227438  0.374340  1
  P  P18  1  0.750000  0.727308  0.125478  1
  P  P19  1  0.750000  0.772015  0.626388  1
  P  P20  1  0.250000  0.603363  0.392258  1
  P  P21  1  0.250000  0.896454  0.891500  1
  P  P22  1  0.750000  0.395795  0.612205  1
  P  P23  1  0.750000  0.104393  0.107547  1
  Ru  Ru24  1  0.250000  0.707728  0.988189  1
  Ru  Ru25  1  0.250000  0.793204  0.486569  1
  Ru  Ru26  1  0.750000  0.294508  0.013324  1
  Ru  Ru27  1  0.750000  0.206583  0.513291  1
  Ru  Ru28  1  0.250000  0.405045  0.487437  1
  Ru  Ru29  1  0.250000  0.096555  0.986485  1
  Ru  Ru30  1  0.750000  0.594613  0.512382  1
  Ru  Ru31  1  0.750000  0.905894  0.011767  1
  Ru  Ru32  1  0.250000  0.221696  0.180548  1
  Ru  Ru33  1  0.250000  0.277476  0.679491  1
  Ru  Ru34  1  0.750000  0.777388  0.819821  1
  Ru  Ru35  1  0.750000  0.721621  0.319049  1
