# generated using pymatgen
data_La5Pr3BePd24
_symmetry_space_group_name_H-M   'P 1'
_cell_length_a   8.52978032
_cell_length_b   8.52978103
_cell_length_c   8.52930700
_cell_angle_alpha   90.01575842
_cell_angle_beta   89.98424158
_cell_angle_gamma   89.95438148
_symmetry_Int_Tables_number   1
_chemical_formula_structural   La5Pr3BePd24
_chemical_formula_sum   'La5 Pr3 Be1 Pd24'
_cell_volume   620.56789641
_cell_formula_units_Z   1
loop_
 _symmetry_equiv_pos_site_id
 _symmetry_equiv_pos_as_xyz
  1  'x, y, z'
loop_
 _atom_site_type_symbol
 _atom_site_label
 _atom_site_symmetry_multiplicity
 _atom_site_fract_x
 _atom_site_fract_y
 _atom_site_fract_z
 _atom_site_occupancy
  La  La0  1  0.251506  0.251590  0.251549  1
  La  La1  1  0.748447  0.748531  0.748409  1
  La  La2  1  0.748410  0.748494  0.251549  1
  La  La3  1  0.748740  0.251260  0.748827  1
  La  La4  1  0.251469  0.251553  0.748409  1
  Pr  Pr5  1  0.250742  0.749258  0.250621  1
  Pr  Pr6  1  0.250533  0.749467  0.749532  1
  Pr  Pr7  1  0.749427  0.250573  0.250377  1
  Be  Be8  1  0.000265  0.999735  0.000164  1
  Pd  Pd9  1  0.256131  0.500444  0.999822  1
  Pd  Pd10  1  0.743972  0.499563  0.000097  1
  Pd  Pd11  1  0.999538  0.256005  0.499908  1
  Pd  Pd12  1  0.500437  0.256028  0.000097  1
  Pd  Pd13  1  0.000456  0.743890  0.500210  1
  Pd  Pd14  1  0.499556  0.743869  0.999822  1
  Pd  Pd15  1  0.500141  0.000127  0.256098  1
  Pd  Pd16  1  0.256110  0.999544  0.500210  1
  Pd  Pd17  1  0.499855  0.999863  0.743988  1
  Pd  Pd18  1  0.743995  0.000462  0.499908  1
  Pd  Pd19  1  0.999873  0.499859  0.256098  1
  Pd  Pd20  1  0.000137  0.500145  0.743988  1
  Pd  Pd21  1  0.252195  0.500731  0.500207  1
  Pd  Pd22  1  0.747813  0.499305  0.499819  1
  Pd  Pd23  1  0.500695  0.252187  0.499819  1
  Pd  Pd24  1  0.499269  0.747805  0.500207  1
  Pd  Pd25  1  0.500173  0.499827  0.252162  1
  Pd  Pd26  1  0.499770  0.500230  0.747874  1
  Pd  Pd27  1  0.271561  0.999810  0.999974  1
  Pd  Pd28  1  0.728573  0.000072  0.000070  1
  Pd  Pd29  1  0.999928  0.271427  0.000070  1
  Pd  Pd30  1  0.000190  0.728439  0.999974  1
  Pd  Pd31  1  0.999991  0.000009  0.271584  1
  Pd  Pd32  1  0.000098  0.999902  0.728560  1
