# generated using pymatgen
data_LuZn3(SnRh3)2
_symmetry_space_group_name_H-M   'P 1'
_cell_length_a   4.48263000
_cell_length_b   6.26493700
_cell_length_c   13.46605400
_cell_angle_alpha   90.00000000
_cell_angle_beta   89.99956990
_cell_angle_gamma   90.00000000
_symmetry_Int_Tables_number   1
_chemical_formula_structural   LuZn3(SnRh3)2
_chemical_formula_sum   'Lu2 Zn6 Sn4 Rh12'
_cell_volume   378.17250743
_cell_formula_units_Z   2
loop_
 _symmetry_equiv_pos_site_id
 _symmetry_equiv_pos_as_xyz
  1  'x, y, z'
loop_
 _atom_site_type_symbol
 _atom_site_label
 _atom_site_symmetry_multiplicity
 _atom_site_fract_x
 _atom_site_fract_y
 _atom_site_fract_z
 _atom_site_occupancy
  Lu  Lu0  1  0.000585  0.500000  0.999082  1
  Lu  Lu1  1  0.500531  0.000000  0.167453  1
  Zn  Zn2  1  0.000332  0.000000  0.008122  1
  Zn  Zn3  1  0.500315  0.500000  0.158595  1
  Zn  Zn4  1  0.999872  0.000000  0.330733  1
  Zn  Zn5  1  0.499846  0.500000  0.502461  1
  Zn  Zn6  1  0.999878  0.000000  0.664184  1
  Zn  Zn7  1  0.499963  0.500000  0.835913  1
  Sn  Sn8  1  0.000490  0.500000  0.336341  1
  Sn  Sn9  1  0.499813  0.000000  0.499254  1
  Sn  Sn10  1  0.000106  0.500000  0.667117  1
  Sn  Sn11  1  0.500584  0.000000  0.830351  1
  Rh  Rh12  1  0.500348  0.241009  0.993805  1
  Rh  Rh13  1  0.500348  0.758991  0.993805  1
  Rh  Rh14  1  0.000269  0.259038  0.172878  1
  Rh  Rh15  1  0.000269  0.740961  0.172878  1
  Rh  Rh16  1  0.499543  0.255130  0.339168  1
  Rh  Rh17  1  0.499543  0.744869  0.339168  1
  Rh  Rh18  1  0.999468  0.249447  0.501679  1
  Rh  Rh19  1  0.999468  0.750552  0.501679  1
  Rh  Rh20  1  0.499461  0.250499  0.665088  1
  Rh  Rh21  1  0.499461  0.749500  0.665088  1
  Rh  Rh22  1  0.999755  0.244762  0.827578  1
  Rh  Rh23  1  0.999755  0.755237  0.827578  1
