# generated using pymatgen
data_Ca3La13Cd4(CoOs)2
_symmetry_space_group_name_H-M   'P 1'
_cell_length_a   10.01415068
_cell_length_b   9.99983800
_cell_length_c   10.01415238
_cell_angle_alpha   60.35045746
_cell_angle_beta   60.87134764
_cell_angle_gamma   60.35045799
_symmetry_Int_Tables_number   1
_chemical_formula_structural   Ca3La13Cd4(CoOs)2
_chemical_formula_sum   'Ca3 La13 Cd4 Co2 Os2'
_cell_volume   717.45645195
_cell_formula_units_Z   1
loop_
 _symmetry_equiv_pos_site_id
 _symmetry_equiv_pos_as_xyz
  1  'x, y, z'
loop_
 _atom_site_type_symbol
 _atom_site_label
 _atom_site_symmetry_multiplicity
 _atom_site_fract_x
 _atom_site_fract_y
 _atom_site_fract_z
 _atom_site_occupancy
  Ca  Ca0  1  0.935437  0.939275  0.562449  1
  Ca  Ca1  1  0.563384  0.936928  0.563384  1
  Ca  Ca2  1  0.562449  0.939275  0.935437  1
  La  La3  1  0.683824  0.694318  0.308551  1
  La  La4  1  0.159074  0.150955  0.537422  1
  La  La5  1  0.308551  0.694318  0.683824  1
  La  La6  1  0.158368  0.151125  0.158368  1
  La  La7  1  0.537422  0.150955  0.159074  1
  La  La8  1  0.308374  0.691657  0.308374  1
  La  La9  1  0.313790  0.310892  0.683340  1
  La  La10  1  0.690041  0.306020  0.690041  1
  La  La11  1  0.935223  0.559132  0.556760  1
  La  La12  1  0.556760  0.559132  0.935223  1
  La  La13  1  0.158775  0.533807  0.158775  1
  La  La14  1  0.683340  0.310892  0.313790  1
  La  La15  1  0.943154  0.558766  0.943154  1
  Cd  Cd16  1  0.235671  0.921425  0.922220  1
  Cd  Cd17  1  0.920761  0.922450  0.920761  1
  Cd  Cd18  1  0.922220  0.921425  0.235671  1
  Cd  Cd19  1  0.921500  0.237227  0.921500  1
  Co  Co20  1  0.363092  0.913845  0.363092  1
  Co  Co21  1  0.364310  0.358859  0.364310  1
  Os  Os22  1  0.914038  0.368661  0.360440  1
  Os  Os23  1  0.360440  0.368661  0.914038  1
