# generated using pymatgen
data_As(OF3)2
_symmetry_space_group_name_H-M   'P 1'
_cell_length_a   5.71391655
_cell_length_b   5.61015093
_cell_length_c   5.67118010
_cell_angle_alpha   112.00363094
_cell_angle_beta   91.83522277
_cell_angle_gamma   123.43563452
_symmetry_Int_Tables_number   1
_chemical_formula_structural   As(OF3)2
_chemical_formula_sum   'As1 O2 F6'
_cell_volume   133.81108319
_cell_formula_units_Z   1
loop_
 _symmetry_equiv_pos_site_id
 _symmetry_equiv_pos_as_xyz
  1  'x, y, z'
loop_
 _atom_site_type_symbol
 _atom_site_label
 _atom_site_symmetry_multiplicity
 _atom_site_fract_x
 _atom_site_fract_y
 _atom_site_fract_z
 _atom_site_occupancy
  As  As0  1  0.994201  0.015450  0.890438  1
  O  O1  1  0.469517  0.131130  0.378845  1
  O  O2  1  0.509675  0.956278  0.401474  1
  F  F3  1  0.363518  0.194318  0.897668  1
  F  F4  1  0.890032  0.665632  0.594601  1
  F  F5  1  0.028133  0.841702  0.089013  1
  F  F6  1  0.961532  0.184480  0.692402  1
  F  F7  1  0.102434  0.359500  0.187739  1
  F  F8  1  0.623246  0.823365  0.879872  1
