# generated using pymatgen
data_Er12Co2Ni2SnRu
_symmetry_space_group_name_H-M   'P 1'
_cell_length_a   8.21760624
_cell_length_b   8.21760542
_cell_length_c   8.21760739
_cell_angle_alpha   111.12529572
_cell_angle_beta   109.85463983
_cell_angle_gamma   107.45497919
_symmetry_Int_Tables_number   1
_chemical_formula_structural   Er12Co2Ni2SnRu
_chemical_formula_sum   'Er12 Co2 Ni2 Sn1 Ru1'
_cell_volume   426.73362730
_cell_formula_units_Z   1
loop_
 _symmetry_equiv_pos_site_id
 _symmetry_equiv_pos_as_xyz
  1  'x, y, z'
loop_
 _atom_site_type_symbol
 _atom_site_label
 _atom_site_symmetry_multiplicity
 _atom_site_fract_x
 _atom_site_fract_y
 _atom_site_fract_z
 _atom_site_occupancy
  Er  Er0  1  0.316848  0.124318  0.807469  1
  Er  Er1  1  0.683152  0.490622  0.807469  1
  Er  Er2  1  0.410083  0.719136  0.690947  1
  Er  Er3  1  0.589917  0.280864  0.309053  1
  Er  Er4  1  0.971811  0.280864  0.690947  1
  Er  Er5  1  0.028189  0.719136  0.309053  1
  Er  Er6  1  0.316848  0.509378  0.192531  1
  Er  Er7  1  0.683152  0.875682  0.192531  1
  Er  Er8  1  0.181306  0.786945  0.968251  1
  Er  Er9  1  0.818694  0.786945  0.605640  1
  Er  Er10  1  0.181306  0.213055  0.394360  1
  Er  Er11  1  0.818694  0.213055  0.031749  1
  Co  Co12  1  0.885585  0.885585  0.000000  1
  Co  Co13  1  0.114415  0.114415  0.000000  1
  Ni  Ni14  1  0.638810  0.500000  0.138810  1
  Ni  Ni15  1  0.361190  0.500000  0.861190  1
  Sn  Sn16  1  0.500000  0.000000  0.500000  1
  Ru  Ru17  1  0.000000  0.500000  0.500000  1
