# generated using pymatgen
data_Nd16Mg3In(OsPt)2
_symmetry_space_group_name_H-M   'P 1'
_cell_length_a   10.03728702
_cell_length_b   10.03728662
_cell_length_c   10.09951066
_cell_angle_alpha   59.66500038
_cell_angle_beta   59.66500058
_cell_angle_gamma   59.58599609
_symmetry_Int_Tables_number   1
_chemical_formula_structural   Nd16Mg3In(OsPt)2
_chemical_formula_sum   'Nd16 Mg3 In1 Os2 Pt2'
_cell_volume   713.57041750
_cell_formula_units_Z   1
loop_
 _symmetry_equiv_pos_site_id
 _symmetry_equiv_pos_as_xyz
  1  'x, y, z'
loop_
 _atom_site_type_symbol
 _atom_site_label
 _atom_site_symmetry_multiplicity
 _atom_site_fract_x
 _atom_site_fract_y
 _atom_site_fract_z
 _atom_site_occupancy
  Nd  Nd0  1  0.346378  0.346378  0.350803  1
  Nd  Nd1  1  0.348788  0.348788  0.952832  1
  Nd  Nd2  1  0.344693  0.958832  0.350362  1
  Nd  Nd3  1  0.958832  0.344693  0.350362  1
  Nd  Nd4  1  0.817684  0.187048  0.187092  1
  Nd  Nd5  1  0.187569  0.814217  0.802510  1
  Nd  Nd6  1  0.187048  0.817684  0.187092  1
  Nd  Nd7  1  0.814217  0.187569  0.802510  1
  Nd  Nd8  1  0.187059  0.187059  0.812880  1
  Nd  Nd9  1  0.805217  0.805217  0.194042  1
  Nd  Nd10  1  0.939855  0.556993  0.565858  1
  Nd  Nd11  1  0.555687  0.938496  0.940135  1
  Nd  Nd12  1  0.556993  0.939855  0.565858  1
  Nd  Nd13  1  0.938496  0.555687  0.940135  1
  Nd  Nd14  1  0.562253  0.562253  0.939054  1
  Nd  Nd15  1  0.938794  0.938794  0.557425  1
  Mg  Mg16  1  0.576879  0.576879  0.266378  1
  Mg  Mg17  1  0.578266  0.264745  0.577763  1
  Mg  Mg18  1  0.264745  0.578266  0.577763  1
  In  In19  1  0.581602  0.581602  0.581994  1
  Os  Os20  1  0.143097  0.143097  0.139935  1
  Os  Os21  1  0.145384  0.145384  0.575897  1
  Pt  Pt22  1  0.144696  0.575768  0.140663  1
  Pt  Pt23  1  0.575768  0.144696  0.140663  1
