# generated using pymatgen
data_Y2Pa(GaCo)3
_symmetry_space_group_name_H-M   'P 1'
_cell_length_a   7.20510600
_cell_length_b   7.05524909
_cell_length_c   3.63385700
_cell_angle_alpha   90.00000000
_cell_angle_beta   90.00000000
_cell_angle_gamma   120.70515262
_symmetry_Int_Tables_number   1
_chemical_formula_structural   Y2Pa(GaCo)3
_chemical_formula_sum   'Y2 Pa1 Ga3 Co3'
_cell_volume   158.82585767
_cell_formula_units_Z   1
loop_
 _symmetry_equiv_pos_site_id
 _symmetry_equiv_pos_as_xyz
  1  'x, y, z'
loop_
 _atom_site_type_symbol
 _atom_site_label
 _atom_site_symmetry_multiplicity
 _atom_site_fract_x
 _atom_site_fract_y
 _atom_site_fract_z
 _atom_site_occupancy
  Y  Y0  1  0.412555  0.410321  0.499999  1
  Y  Y1  1  0.002234  0.589678  0.499999  1
  Pa  Pa2  1  0.574751  0.000000  0.499999  1
  Ga  Ga3  1  0.231992  0.000000  0.000000  1
  Ga  Ga4  1  0.003879  0.251548  0.000000  1
  Ga  Ga5  1  0.752331  0.748451  0.000000  1
  Co  Co6  1  0.661658  0.286999  0.000000  1
  Co  Co7  1  0.374660  0.713001  0.000000  1
  Co  Co8  1  0.985940  0.000000  0.499999  1
