# generated using pymatgen
data_Dy12Al3Si5Rh8
_symmetry_space_group_name_H-M   'P 1'
_cell_length_a   5.56851600
_cell_length_b   7.90356849
_cell_length_c   13.22605200
_cell_angle_alpha   90.23148838
_cell_angle_beta   90.00000000
_cell_angle_gamma   90.00000000
_symmetry_Int_Tables_number   1
_chemical_formula_structural   Dy12Al3Si5Rh8
_chemical_formula_sum   'Dy12 Al3 Si5 Rh8'
_cell_volume   582.08897575
_cell_formula_units_Z   1
loop_
 _symmetry_equiv_pos_site_id
 _symmetry_equiv_pos_as_xyz
  1  'x, y, z'
loop_
 _atom_site_type_symbol
 _atom_site_label
 _atom_site_symmetry_multiplicity
 _atom_site_fract_x
 _atom_site_fract_y
 _atom_site_fract_z
 _atom_site_occupancy
  Dy  Dy0  1  0.143734  0.603602  0.103725  1
  Dy  Dy1  1  0.143734  0.896398  0.896275  1
  Dy  Dy2  1  0.859474  0.106754  0.397803  1
  Dy  Dy3  1  0.859474  0.393246  0.602197  1
  Dy  Dy4  1  0.857019  0.397507  0.896295  1
  Dy  Dy5  1  0.857019  0.102493  0.103705  1
  Dy  Dy6  1  0.142365  0.897186  0.603156  1
  Dy  Dy7  1  0.142365  0.602814  0.396844  1
  Dy  Dy8  1  0.368082  0.246096  0.251736  1
  Dy  Dy9  1  0.368082  0.253904  0.748264  1
  Dy  Dy10  1  0.632825  0.745460  0.251240  1
  Dy  Dy11  1  0.632825  0.754540  0.748760  1
  Al  Al12  1  0.375051  0.250000  0.000000  1
  Al  Al13  1  0.622240  0.750000  0.500000  1
  Al  Al14  1  0.624999  0.750000  0.000000  1
  Si  Si15  1  0.862418  0.392321  0.250534  1
  Si  Si16  1  0.862418  0.107679  0.749466  1
  Si  Si17  1  0.139588  0.891264  0.252176  1
  Si  Si18  1  0.139588  0.608736  0.747824  1
  Si  Si19  1  0.380320  0.250000  0.500000  1
  Rh  Rh20  1  0.640465  0.469987  0.094450  1
  Rh  Rh21  1  0.640465  0.030013  0.905550  1
  Rh  Rh22  1  0.360724  0.977566  0.407532  1
  Rh  Rh23  1  0.360724  0.522434  0.592468  1
  Rh  Rh24  1  0.357061  0.529260  0.905587  1
  Rh  Rh25  1  0.357061  0.970740  0.094413  1
  Rh  Rh26  1  0.634938  0.033974  0.593036  1
  Rh  Rh27  1  0.634938  0.466026  0.406964  1
