# generated using pymatgen
data_Ca12As3PN4
_symmetry_space_group_name_H-M   'P 1'
_cell_length_a   6.71761801
_cell_length_b   6.72032502
_cell_length_c   9.53753800
_cell_angle_alpha   90.00000000
_cell_angle_beta   90.00000000
_cell_angle_gamma   90.00775144
_symmetry_Int_Tables_number   1
_chemical_formula_structural   Ca12As3PN4
_chemical_formula_sum   'Ca12 As3 P1 N4'
_cell_volume   430.56810890
_cell_formula_units_Z   1
loop_
 _symmetry_equiv_pos_site_id
 _symmetry_equiv_pos_as_xyz
  1  'x, y, z'
loop_
 _atom_site_type_symbol
 _atom_site_label
 _atom_site_symmetry_multiplicity
 _atom_site_fract_x
 _atom_site_fract_y
 _atom_site_fract_z
 _atom_site_occupancy
  Ca  Ca0  1  0.039303  0.493455  0.250000  1
  Ca  Ca1  1  0.461522  0.993908  0.250000  1
  Ca  Ca2  1  0.546424  0.006048  0.750000  1
  Ca  Ca3  1  0.961434  0.510795  0.750000  1
  Ca  Ca4  1  0.715313  0.284507  0.020490  1
  Ca  Ca5  1  0.784780  0.784644  0.482222  1
  Ca  Ca6  1  0.213047  0.212958  0.975368  1
  Ca  Ca7  1  0.282800  0.717255  0.521133  1
  Ca  Ca8  1  0.282800  0.717255  0.978867  1
  Ca  Ca9  1  0.213047  0.212958  0.524632  1
  Ca  Ca10  1  0.784780  0.784644  0.017778  1
  Ca  Ca11  1  0.715313  0.284507  0.479510  1
  As  As12  1  0.498071  0.482808  0.750000  1
  As  As13  1  0.502771  0.517777  0.250000  1
  As  As14  1  0.997642  0.017191  0.250000  1
  P  P15  1  0.000980  0.979826  0.750000  1
  N  N16  1  0.499935  0.000167  0.501275  1
  N  N17  1  0.000054  0.499565  0.998884  1
  N  N18  1  0.000054  0.499565  0.501116  1
  N  N19  1  0.499935  0.000167  0.998725  1
