# generated using pymatgen
data_Li3AcAu2
_symmetry_space_group_name_H-M   'P 1'
_cell_length_a   4.51358400
_cell_length_b   4.51358328
_cell_length_c   7.31069400
_cell_angle_alpha   90.00000000
_cell_angle_beta   90.00000000
_cell_angle_gamma   120.00001992
_symmetry_Int_Tables_number   1
_chemical_formula_structural   Li3AcAu2
_chemical_formula_sum   'Li3 Ac1 Au2'
_cell_volume   128.98290092
_cell_formula_units_Z   1
loop_
 _symmetry_equiv_pos_site_id
 _symmetry_equiv_pos_as_xyz
  1  'x, y, z'
loop_
 _atom_site_type_symbol
 _atom_site_label
 _atom_site_symmetry_multiplicity
 _atom_site_fract_x
 _atom_site_fract_y
 _atom_site_fract_z
 _atom_site_occupancy
  Li  Li0  1  0.000000  0.000000  0.500000  1
  Li  Li1  1  0.666667  0.333333  0.361297  1
  Li  Li2  1  0.333333  0.666667  0.638703  1
  Ac  Ac3  1  0.000000  0.000000  0.000000  1
  Au  Au4  1  0.333333  0.666667  0.275797  1
  Au  Au5  1  0.666667  0.333333  0.724203  1
