# generated using pymatgen
data_Pr7Nd(CuSn4)4
_symmetry_space_group_name_H-M   'P 1'
_cell_length_a   4.51110800
_cell_length_b   9.07085721
_cell_length_c   17.78793343
_cell_angle_alpha   90.02498980
_cell_angle_beta   90.00000000
_cell_angle_gamma   90.00000000
_symmetry_Int_Tables_number   1
_chemical_formula_structural   Pr7Nd(CuSn4)4
_chemical_formula_sum   'Pr7 Nd1 Cu4 Sn16'
_cell_volume   727.87534570
_cell_formula_units_Z   1
loop_
 _symmetry_equiv_pos_site_id
 _symmetry_equiv_pos_as_xyz
  1  'x, y, z'
loop_
 _atom_site_type_symbol
 _atom_site_label
 _atom_site_symmetry_multiplicity
 _atom_site_fract_x
 _atom_site_fract_y
 _atom_site_fract_z
 _atom_site_occupancy
  Pr  Pr0  1  0.250000  0.610131  0.646805  1
  Pr  Pr1  1  0.250000  0.366803  0.147007  1
  Pr  Pr2  1  0.250000  0.889769  0.147387  1
  Pr  Pr3  1  0.750000  0.110100  0.852988  1
  Pr  Pr4  1  0.750000  0.633216  0.853140  1
  Pr  Pr5  1  0.250000  0.133208  0.646595  1
  Pr  Pr6  1  0.750000  0.866584  0.353162  1
  Nd  Nd7  1  0.750000  0.389742  0.353095  1
  Cu  Cu8  1  0.750000  0.359555  0.569695  1
  Cu  Cu9  1  0.250000  0.640448  0.429974  1
  Cu  Cu10  1  0.750000  0.141320  0.069997  1
  Cu  Cu11  1  0.250000  0.859338  0.930103  1
  Sn  Sn12  1  0.250000  0.609489  0.006823  1
  Sn  Sn13  1  0.750000  0.867839  0.009142  1
  Sn  Sn14  1  0.750000  0.627230  0.178400  1
  Sn  Sn15  1  0.250000  0.128461  0.321974  1
  Sn  Sn16  1  0.750000  0.390725  0.993247  1
  Sn  Sn17  1  0.750000  0.372016  0.713987  1
  Sn  Sn18  1  0.750000  0.632044  0.508767  1
  Sn  Sn19  1  0.250000  0.872128  0.785898  1
  Sn  Sn20  1  0.750000  0.109637  0.493081  1
  Sn  Sn21  1  0.250000  0.372502  0.821812  1
  Sn  Sn22  1  0.750000  0.128412  0.214234  1
  Sn  Sn23  1  0.250000  0.367443  0.490659  1
  Sn  Sn24  1  0.250000  0.626716  0.286293  1
  Sn  Sn25  1  0.750000  0.872382  0.678266  1
  Sn  Sn26  1  0.250000  0.890669  0.506376  1
  Sn  Sn27  1  0.250000  0.132092  0.991093  1
