# generated using pymatgen
data_Dy13Tm7Sn16
_symmetry_space_group_name_H-M   'P 1'
_cell_length_a   7.99202670
_cell_length_b   8.15813278
_cell_length_c   15.38376519
_cell_angle_alpha   90.01660012
_cell_angle_beta   89.99285431
_cell_angle_gamma   90.04732134
_symmetry_Int_Tables_number   1
_chemical_formula_structural   Dy13Tm7Sn16
_chemical_formula_sum   'Dy13 Tm7 Sn16'
_cell_volume   1003.02132903
_cell_formula_units_Z   1
loop_
 _symmetry_equiv_pos_site_id
 _symmetry_equiv_pos_as_xyz
  1  'x, y, z'
loop_
 _atom_site_type_symbol
 _atom_site_label
 _atom_site_symmetry_multiplicity
 _atom_site_fract_x
 _atom_site_fract_y
 _atom_site_fract_z
 _atom_site_occupancy
  Dy  Dy0  1  0.132365  0.335968  0.121824  1
  Dy  Dy1  1  0.632109  0.164143  0.122179  1
  Dy  Dy2  1  0.131958  0.335920  0.378025  1
  Dy  Dy3  1  0.368044  0.835927  0.622130  1
  Dy  Dy4  1  0.868136  0.664004  0.877926  1
  Dy  Dy5  1  0.521152  0.320157  0.902403  1
  Dy  Dy6  1  0.021390  0.179913  0.597654  1
  Dy  Dy7  1  0.478739  0.680052  0.402496  1
  Dy  Dy8  1  0.978635  0.820217  0.097627  1
  Dy  Dy9  1  0.478799  0.679782  0.097304  1
  Dy  Dy10  1  0.978539  0.820355  0.402752  1
  Dy  Dy11  1  0.521449  0.320346  0.597405  1
  Dy  Dy12  1  0.021316  0.179445  0.902195  1
  Tm  Tm13  1  0.367577  0.836260  0.877518  1
  Tm  Tm14  1  0.867435  0.663817  0.622163  1
  Tm  Tm15  1  0.632392  0.163712  0.378050  1
  Tm  Tm16  1  0.198444  0.503309  0.750100  1
  Tm  Tm17  1  0.698453  0.996696  0.749799  1
  Tm  Tm18  1  0.801238  0.496970  0.250401  1
  Tm  Tm19  1  0.301811  0.002868  0.250082  1
  Sn  Sn20  1  0.292496  0.034096  0.041419  1
  Sn  Sn21  1  0.791781  0.464730  0.458410  1
  Sn  Sn22  1  0.708255  0.964634  0.541746  1
  Sn  Sn23  1  0.208566  0.536152  0.957576  1
  Sn  Sn24  1  0.706211  0.964840  0.957554  1
  Sn  Sn25  1  0.206219  0.535103  0.542462  1
  Sn  Sn26  1  0.293746  0.035118  0.457633  1
  Sn  Sn27  1  0.792300  0.465281  0.042234  1
  Sn  Sn28  1  0.564952  0.619727  0.749959  1
  Sn  Sn29  1  0.064890  0.880281  0.749944  1
  Sn  Sn30  1  0.435625  0.380538  0.250393  1
  Sn  Sn31  1  0.934608  0.118889  0.250347  1
  Sn  Sn32  1  0.329863  0.147257  0.750206  1
  Sn  Sn33  1  0.829889  0.352886  0.749796  1
  Sn  Sn34  1  0.670266  0.852910  0.250222  1
  Sn  Sn35  1  0.170351  0.647700  0.250066  1
