# generated using pymatgen
data_Sr5Pr3(Si3Pd)4
_symmetry_space_group_name_H-M   'P 1'
_cell_length_a   8.40855100
_cell_length_b   8.41458886
_cell_length_c   8.73252000
_cell_angle_alpha   90.00000000
_cell_angle_beta   90.00000000
_cell_angle_gamma   119.97627836
_symmetry_Int_Tables_number   1
_chemical_formula_structural   Sr5Pr3(Si3Pd)4
_chemical_formula_sum   'Sr5 Pr3 Si12 Pd4'
_cell_volume   535.21471644
_cell_formula_units_Z   1
loop_
 _symmetry_equiv_pos_site_id
 _symmetry_equiv_pos_as_xyz
  1  'x, y, z'
loop_
 _atom_site_type_symbol
 _atom_site_label
 _atom_site_symmetry_multiplicity
 _atom_site_fract_x
 _atom_site_fract_y
 _atom_site_fract_z
 _atom_site_occupancy
  Sr  Sr0  1  0.499290  0.500493  0.750000  1
  Sr  Sr1  1  0.500727  0.499477  0.250000  1
  Sr  Sr2  1  0.001203  0.500493  0.750000  1
  Sr  Sr3  1  0.998750  0.499477  0.250000  1
  Sr  Sr4  1  0.499418  0.998835  0.750000  1
  Pr  Pr5  1  0.500542  0.001084  0.250000  1
  Pr  Pr6  1  0.000021  0.000041  0.750000  1
  Pr  Pr7  1  0.999976  0.999952  0.250000  1
  Si  Si8  1  0.836547  0.162813  0.003569  1
  Si  Si9  1  0.163384  0.837201  0.003523  1
  Si  Si10  1  0.326266  0.162813  0.003569  1
  Si  Si11  1  0.163384  0.837201  0.496477  1
  Si  Si12  1  0.673817  0.837201  0.003523  1
  Si  Si13  1  0.836547  0.162813  0.496431  1
  Si  Si14  1  0.836524  0.673048  0.001190  1
  Si  Si15  1  0.673817  0.837201  0.496477  1
  Si  Si16  1  0.163443  0.326887  0.001456  1
  Si  Si17  1  0.326266  0.162813  0.496431  1
  Si  Si18  1  0.163443  0.326887  0.498544  1
  Si  Si19  1  0.836524  0.673048  0.498810  1
  Pd  Pd20  1  0.665696  0.331390  0.002595  1
  Pd  Pd21  1  0.334359  0.668719  0.006255  1
  Pd  Pd22  1  0.334359  0.668719  0.493745  1
  Pd  Pd23  1  0.665696  0.331390  0.497405  1
