# generated using pymatgen
data_HoCdGaNi3
_symmetry_space_group_name_H-M   'P 1'
_cell_length_a   5.12297929
_cell_length_b   5.12297948
_cell_length_c   4.97785950
_cell_angle_alpha   59.03084377
_cell_angle_beta   59.03083874
_cell_angle_gamma   59.99999447
_symmetry_Int_Tables_number   1
_chemical_formula_structural   HoCdGaNi3
_chemical_formula_sum   'Ho1 Cd1 Ga1 Ni3'
_cell_volume   91.00245656
_cell_formula_units_Z   1
loop_
 _symmetry_equiv_pos_site_id
 _symmetry_equiv_pos_as_xyz
  1  'x, y, z'
loop_
 _atom_site_type_symbol
 _atom_site_label
 _atom_site_symmetry_multiplicity
 _atom_site_fract_x
 _atom_site_fract_y
 _atom_site_fract_z
 _atom_site_occupancy
  Ho  Ho0  1  0.246946  0.246946  0.259161  1
  Cd  Cd1  1  0.997558  0.997558  0.007326  1
  Ga  Ga2  1  0.627285  0.627285  0.118146  1
  Ni  Ni3  1  0.626783  0.124646  0.621789  1
  Ni  Ni4  1  0.124646  0.626783  0.621789  1
  Ni  Ni5  1  0.626783  0.626783  0.621789  1
