# generated using pymatgen
data_YbDyRe2Si2C
_symmetry_space_group_name_H-M   'P 1'
_cell_length_a   3.95687264
_cell_length_b   5.82059175
_cell_length_c   6.04295988
_cell_angle_alpha   72.77087704
_cell_angle_beta   70.88924885
_cell_angle_gamma   70.12904175
_symmetry_Int_Tables_number   1
_chemical_formula_structural   YbDyRe2Si2C
_chemical_formula_sum   'Yb1 Dy1 Re2 Si2 C1'
_cell_volume   120.96997007
_cell_formula_units_Z   1
loop_
 _symmetry_equiv_pos_site_id
 _symmetry_equiv_pos_as_xyz
  1  'x, y, z'
loop_
 _atom_site_type_symbol
 _atom_site_label
 _atom_site_symmetry_multiplicity
 _atom_site_fract_x
 _atom_site_fract_y
 _atom_site_fract_z
 _atom_site_occupancy
  Yb  Yb0  1  0.426566  0.847620  0.299249  1
  Dy  Dy1  1  0.574392  0.149259  0.701956  1
  Re  Re2  1  0.794018  0.325358  0.086606  1
  Re  Re3  1  0.206322  0.673955  0.913400  1
  Si  Si4  1  0.859728  0.599191  0.681354  1
  Si  Si5  1  0.138444  0.402434  0.320679  1
  C  C6  1  0.000531  0.002183  0.996756  1
