# generated using pymatgen
data_Tb6Co13P12Ru5
_symmetry_space_group_name_H-M   'P 1'
_cell_length_a   3.78025600
_cell_length_b   10.61477969
_cell_length_c   12.40283996
_cell_angle_alpha   90.32879485
_cell_angle_beta   90.00000000
_cell_angle_gamma   90.00000000
_symmetry_Int_Tables_number   1
_chemical_formula_structural   Tb6Co13P12Ru5
_chemical_formula_sum   'Tb6 Co13 P12 Ru5'
_cell_volume   497.67541216
_cell_formula_units_Z   1
loop_
 _symmetry_equiv_pos_site_id
 _symmetry_equiv_pos_as_xyz
  1  'x, y, z'
loop_
 _atom_site_type_symbol
 _atom_site_label
 _atom_site_symmetry_multiplicity
 _atom_site_fract_x
 _atom_site_fract_y
 _atom_site_fract_z
 _atom_site_occupancy
  Tb  Tb0  1  0.000000  0.502668  0.526508  1
  Tb  Tb1  1  0.500000  0.995251  0.477536  1
  Tb  Tb2  1  0.500000  0.818501  0.202754  1
  Tb  Tb3  1  0.500000  0.183399  0.201205  1
  Tb  Tb4  1  0.000000  0.682738  0.795898  1
  Tb  Tb5  1  0.000000  0.316654  0.798736  1
  Co  Co6  1  0.000000  0.500449  0.985686  1
  Co  Co7  1  0.500000  0.999520  0.013721  1
  Co  Co8  1  0.000000  0.798302  0.574240  1
  Co  Co9  1  0.500000  0.877844  0.712267  1
  Co  Co10  1  0.500000  0.116933  0.715720  1
  Co  Co11  1  0.000000  0.621678  0.285684  1
  Co  Co12  1  0.000000  0.381992  0.283988  1
  Co  Co13  1  0.500000  0.332936  0.990225  1
  Co  Co14  1  0.500000  0.667900  0.990229  1
  Co  Co15  1  0.000000  0.166761  0.008912  1
  Co  Co16  1  0.000000  0.832416  0.009200  1
  Co  Co17  1  0.500000  0.499877  0.705351  1
  Co  Co18  1  0.000000  0.001162  0.294524  1
  P  P19  1  0.500000  0.311718  0.621887  1
  P  P20  1  0.500000  0.690190  0.620543  1
  P  P21  1  0.000000  0.187714  0.378554  1
  P  P22  1  0.000000  0.815460  0.381655  1
  P  P23  1  0.500000  0.500223  0.883171  1
  P  P24  1  0.000000  0.000212  0.116445  1
  P  P25  1  0.500000  0.846153  0.895233  1
  P  P26  1  0.500000  0.152169  0.895730  1
  P  P27  1  0.000000  0.653592  0.104264  1
  P  P28  1  0.000000  0.347521  0.103335  1
  P  P29  1  0.500000  0.500388  0.342699  1
  P  P30  1  0.000000  0.996365  0.655432  1
  Ru  Ru31  1  0.500000  0.298686  0.426668  1
  Ru  Ru32  1  0.500000  0.703793  0.429732  1
  Ru  Ru33  1  0.000000  0.200225  0.573775  1
  Ru  Ru34  1  0.500000  0.501356  0.155232  1
  Ru  Ru35  1  0.000000  0.997254  0.843259  1
