# generated using pymatgen
data_LaTb11Co4CuSn
_symmetry_space_group_name_H-M   'P 1'
_cell_length_a   8.44387570
_cell_length_b   8.32643458
_cell_length_c   8.32643428
_cell_angle_alpha   111.58502823
_cell_angle_beta   109.12384640
_cell_angle_gamma   107.20043993
_symmetry_Int_Tables_number   1
_chemical_formula_structural   LaTb11Co4CuSn
_chemical_formula_sum   'La1 Tb11 Co4 Cu1 Sn1'
_cell_volume   452.92938344
_cell_formula_units_Z   1
loop_
 _symmetry_equiv_pos_site_id
 _symmetry_equiv_pos_as_xyz
  1  'x, y, z'
loop_
 _atom_site_type_symbol
 _atom_site_label
 _atom_site_symmetry_multiplicity
 _atom_site_fract_x
 _atom_site_fract_y
 _atom_site_fract_z
 _atom_site_occupancy
  La  La0  1  0.409896  0.209778  0.200118  1
  Tb  Tb1  1  0.581285  0.780310  0.800975  1
  Tb  Tb2  1  0.025511  0.223033  0.802478  1
  Tb  Tb3  1  0.971242  0.775469  0.195774  1
  Tb  Tb4  1  0.182146  0.290566  0.472868  1
  Tb  Tb5  1  0.820212  0.713361  0.534404  1
  Tb  Tb6  1  0.182146  0.709278  0.891580  1
  Tb  Tb7  1  0.820212  0.285809  0.106852  1
  Tb  Tb8  1  0.321804  0.639877  0.309756  1
  Tb  Tb9  1  0.684107  0.368573  0.695161  1
  Tb  Tb10  1  0.321804  0.012048  0.681927  1
  Tb  Tb11  1  0.684107  0.988946  0.315534  1
  Co  Co12  1  0.350950  0.004097  0.346853  1
  Co  Co13  1  0.652110  0.003380  0.648730  1
  Co  Co14  1  0.108549  0.615045  0.493504  1
  Co  Co15  1  0.902517  0.388335  0.514182  1
  Cu  Cu16  1  0.982274  0.991381  0.990893  1
  Sn  Sn17  1  0.499127  0.500715  0.998412  1
