# generated using pymatgen
data_AuS2NO10
_symmetry_space_group_name_H-M   'P 1'
_cell_length_a   4.85771101
_cell_length_b   5.92257714
_cell_length_c   8.14721533
_cell_angle_alpha   103.61130584
_cell_angle_beta   104.63630781
_cell_angle_gamma   89.68198916
_symmetry_Int_Tables_number   1
_chemical_formula_structural   AuS2NO10
_chemical_formula_sum   'Au1 S2 N1 O10'
_cell_volume   220.05833273
_cell_formula_units_Z   1
loop_
 _symmetry_equiv_pos_site_id
 _symmetry_equiv_pos_as_xyz
  1  'x, y, z'
loop_
 _atom_site_type_symbol
 _atom_site_label
 _atom_site_symmetry_multiplicity
 _atom_site_fract_x
 _atom_site_fract_y
 _atom_site_fract_z
 _atom_site_occupancy
  Au  Au0  1  0.000000  0.000000  0.000000  1
  S  S1  1  0.388538  0.087272  0.768644  1
  S  S2  1  0.611462  0.912728  0.231356  1
  N  N3  1  0.500000  0.500000  0.500000  1
  O  O4  1  0.717262  0.518198  0.598060  1
  O  O5  1  0.282738  0.481802  0.401940  1
  O  O6  1  0.300710  0.182667  0.941956  1
  O  O7  1  0.699290  0.817333  0.058044  1
  O  O8  1  0.716299  0.140275  0.824949  1
  O  O9  1  0.283701  0.859725  0.175051  1
  O  O10  1  0.310450  0.840217  0.703951  1
  O  O11  1  0.689550  0.159783  0.296049  1
  O  O12  1  0.286049  0.233420  0.648661  1
  O  O13  1  0.713951  0.766580  0.351339  1
