# generated using pymatgen
data_Zr4SiP3Ir4
_symmetry_space_group_name_H-M   'P 1'
_cell_length_a   3.88126600
_cell_length_b   6.57218366
_cell_length_c   7.44235935
_cell_angle_alpha   90.25965232
_cell_angle_beta   90.00000000
_cell_angle_gamma   90.00000000
_symmetry_Int_Tables_number   1
_chemical_formula_structural   Zr4SiP3Ir4
_chemical_formula_sum   'Zr4 Si1 P3 Ir4'
_cell_volume   189.84067755
_cell_formula_units_Z   1
loop_
 _symmetry_equiv_pos_site_id
 _symmetry_equiv_pos_as_xyz
  1  'x, y, z'
loop_
 _atom_site_type_symbol
 _atom_site_label
 _atom_site_symmetry_multiplicity
 _atom_site_fract_x
 _atom_site_fract_y
 _atom_site_fract_z
 _atom_site_occupancy
  Zr  Zr0  1  0.250000  0.021496  0.325478  1
  Zr  Zr1  1  0.250000  0.526385  0.177846  1
  Zr  Zr2  1  0.750000  0.977112  0.676974  1
  Zr  Zr3  1  0.750000  0.477471  0.820133  1
  Si  Si4  1  0.750000  0.229821  0.120502  1
  P  P5  1  0.250000  0.264881  0.622249  1
  P  P6  1  0.250000  0.768997  0.878848  1
  P  P7  1  0.750000  0.734170  0.378118  1
  Ir  Ir8  1  0.250000  0.144899  0.936634  1
  Ir  Ir9  1  0.250000  0.645947  0.564554  1
  Ir  Ir10  1  0.750000  0.853333  0.062279  1
  Ir  Ir11  1  0.750000  0.355489  0.436386  1
