# generated using pymatgen
data_LiDy(CuO2)4
_symmetry_space_group_name_H-M   'P 1'
_cell_length_a   6.16863814
_cell_length_b   6.16863724
_cell_length_c   6.16863731
_cell_angle_alpha   125.66002751
_cell_angle_beta   125.66002327
_cell_angle_gamma   80.44762904
_symmetry_Int_Tables_number   1
_chemical_formula_structural   LiDy(CuO2)4
_chemical_formula_sum   'Li1 Dy1 Cu4 O8'
_cell_volume   149.48071609
_cell_formula_units_Z   1
loop_
 _symmetry_equiv_pos_site_id
 _symmetry_equiv_pos_as_xyz
  1  'x, y, z'
loop_
 _atom_site_type_symbol
 _atom_site_label
 _atom_site_symmetry_multiplicity
 _atom_site_fract_x
 _atom_site_fract_y
 _atom_site_fract_z
 _atom_site_occupancy
  Li  Li0  1  0.000000  0.000000  0.000000  1
  Dy  Dy1  1  0.750000  0.250000  0.500000  1
  Cu  Cu2  1  0.876685  0.619509  0.248173  1
  Cu  Cu3  1  0.371336  0.628513  0.751827  1
  Cu  Cu4  1  0.371487  0.123315  0.742823  1
  Cu  Cu5  1  0.380491  0.628664  0.257177  1
  O  O6  1  0.408837  0.838851  0.144814  1
  O  O7  1  0.694037  0.264024  0.855186  1
  O  O8  1  0.345978  0.416848  0.364547  1
  O  O9  1  0.052301  0.981431  0.635453  1
  O  O10  1  0.018569  0.654022  0.070870  1
  O  O11  1  0.583152  0.947699  0.929130  1
  O  O12  1  0.161149  0.305963  0.569986  1
  O  O13  1  0.735976  0.591163  0.430014  1
