# generated using pymatgen
data_Ce2Y4MnI10
_symmetry_space_group_name_H-M   'P 1'
_cell_length_a   7.77020037
_cell_length_b   9.80179290
_cell_length_c   9.73771300
_cell_angle_alpha   106.91845887
_cell_angle_beta   96.45157967
_cell_angle_gamma   105.24260254
_symmetry_Int_Tables_number   1
_chemical_formula_structural   Ce2Y4MnI10
_chemical_formula_sum   'Ce2 Y4 Mn1 I10'
_cell_volume   670.09946537
_cell_formula_units_Z   1
loop_
 _symmetry_equiv_pos_site_id
 _symmetry_equiv_pos_as_xyz
  1  'x, y, z'
loop_
 _atom_site_type_symbol
 _atom_site_label
 _atom_site_symmetry_multiplicity
 _atom_site_fract_x
 _atom_site_fract_y
 _atom_site_fract_z
 _atom_site_occupancy
  Ce  Ce0  1  0.896630  0.962159  0.208595  1
  Ce  Ce1  1  0.103370  0.037841  0.791405  1
  Y  Y2  1  0.029177  0.708074  0.911350  1
  Y  Y3  1  0.970823  0.291926  0.088650  1
  Y  Y4  1  0.642753  0.870490  0.829874  1
  Y  Y5  1  0.357247  0.129510  0.170126  1
  Mn  Mn6  1  0.000000  0.000000  0.000000  1
  I  I7  1  0.646233  0.546523  0.726408  1
  I  I8  1  0.353767  0.453477  0.273592  1
  I  I9  1  0.737766  0.912317  0.545303  1
  I  I10  1  0.262234  0.087683  0.454697  1
  I  I11  1  0.084314  0.371727  0.821914  1
  I  I12  1  0.915686  0.628273  0.178086  1
  I  I13  1  0.455663  0.816115  0.091182  1
  I  I14  1  0.544337  0.183885  0.908818  1
  I  I15  1  0.215778  0.737359  0.654409  1
  I  I16  1  0.784222  0.262641  0.345591  1
