# generated using pymatgen
data_CsAl3Te5
_symmetry_space_group_name_H-M   'P 1'
_cell_length_a   14.65059800
_cell_length_b   8.27942843
_cell_length_c   12.05124141
_cell_angle_alpha   77.15003786
_cell_angle_beta   90.00000000
_cell_angle_gamma   90.00000000
_symmetry_Int_Tables_number   1
_chemical_formula_structural   CsAl3Te5
_chemical_formula_sum   'Cs4 Al12 Te20'
_cell_volume   1425.18885754
_cell_formula_units_Z   4
loop_
 _symmetry_equiv_pos_site_id
 _symmetry_equiv_pos_as_xyz
  1  'x, y, z'
loop_
 _atom_site_type_symbol
 _atom_site_label
 _atom_site_symmetry_multiplicity
 _atom_site_fract_x
 _atom_site_fract_y
 _atom_site_fract_z
 _atom_site_occupancy
  Cs  Cs0  1  0.615285  0.835589  0.394262  1
  Cs  Cs1  1  0.115285  0.164411  0.105738  1
  Cs  Cs2  1  0.384715  0.164411  0.605738  1
  Cs  Cs3  1  0.884715  0.835589  0.894262  1
  Al  Al4  1  0.923921  0.795090  0.401131  1
  Al  Al5  1  0.576079  0.795090  0.901131  1
  Al  Al6  1  0.423921  0.204910  0.098869  1
  Al  Al7  1  0.399739  0.563103  0.806692  1
  Al  Al8  1  0.100261  0.563103  0.306692  1
  Al  Al9  1  0.336300  0.709851  0.124751  1
  Al  Al10  1  0.600261  0.436897  0.193308  1
  Al  Al11  1  0.076079  0.204910  0.598869  1
  Al  Al12  1  0.663700  0.290149  0.875249  1
  Al  Al13  1  0.899739  0.436897  0.693308  1
  Al  Al14  1  0.163700  0.709851  0.624751  1
  Al  Al15  1  0.836300  0.290149  0.375249  1
  Te  Te16  1  0.831342  0.718781  0.589675  1
  Te  Te17  1  0.106796  0.817095  0.410257  1
  Te  Te18  1  0.668658  0.718781  0.089675  1
  Te  Te19  1  0.393204  0.817095  0.910257  1
  Te  Te20  1  0.331342  0.281219  0.910325  1
  Te  Te21  1  0.661547  0.344677  0.402765  1
  Te  Te22  1  0.581740  0.572467  0.765561  1
  Te  Te23  1  0.606796  0.182905  0.089743  1
  Te  Te24  1  0.893204  0.182905  0.589743  1
  Te  Te25  1  0.636083  0.061537  0.758102  1
  Te  Te26  1  0.363917  0.938463  0.241898  1
  Te  Te27  1  0.168658  0.281219  0.410325  1
  Te  Te28  1  0.081740  0.427533  0.734439  1
  Te  Te29  1  0.918260  0.572467  0.265561  1
  Te  Te30  1  0.863917  0.061537  0.258102  1
  Te  Te31  1  0.136083  0.938463  0.741898  1
  Te  Te32  1  0.838453  0.344677  0.902765  1
  Te  Te33  1  0.338453  0.655323  0.597235  1
  Te  Te34  1  0.418260  0.427533  0.234439  1
  Te  Te35  1  0.161547  0.655323  0.097235  1
