# generated using pymatgen
data_Dy3Er7InSb5
_symmetry_space_group_name_H-M   'P 1'
_cell_length_a   8.93488093
_cell_length_b   8.90132387
_cell_length_c   6.33440500
_cell_angle_alpha   90.00000000
_cell_angle_beta   90.00000000
_cell_angle_gamma   119.88910828
_symmetry_Int_Tables_number   1
_chemical_formula_structural   Dy3Er7InSb5
_chemical_formula_sum   'Dy3 Er7 In1 Sb5'
_cell_volume   436.78129965
_cell_formula_units_Z   1
loop_
 _symmetry_equiv_pos_site_id
 _symmetry_equiv_pos_as_xyz
  1  'x, y, z'
loop_
 _atom_site_type_symbol
 _atom_site_label
 _atom_site_symmetry_multiplicity
 _atom_site_fract_x
 _atom_site_fract_y
 _atom_site_fract_z
 _atom_site_occupancy
  Dy  Dy0  1  0.004532  0.759871  0.750000  1
  Dy  Dy1  1  0.997742  0.243699  0.250000  1
  Dy  Dy2  1  0.753170  0.755311  0.250000  1
  Er  Er3  1  0.756113  0.000246  0.750000  1
  Er  Er4  1  0.246356  0.242202  0.750000  1
  Er  Er5  1  0.242815  0.999497  0.250000  1
  Er  Er6  1  0.333433  0.668693  0.499066  1
  Er  Er7  1  0.665083  0.331268  0.001419  1
  Er  Er8  1  0.665083  0.331268  0.498581  1
  Er  Er9  1  0.333433  0.668693  0.000934  1
  In  In10  1  0.395739  0.000127  0.750000  1
  Sb  Sb11  1  0.388520  0.388883  0.250000  1
  Sb  Sb12  1  0.998684  0.609829  0.250000  1
  Sb  Sb13  1  0.000750  0.389678  0.750000  1
  Sb  Sb14  1  0.611207  0.611006  0.750000  1
  Sb  Sb15  1  0.607338  0.999731  0.250000  1
