# generated using pymatgen
data_Pr3Dy7(SiPb)4
_symmetry_space_group_name_H-M   'P 1'
_cell_length_a   9.23759043
_cell_length_b   8.28385360
_cell_length_c   8.10528169
_cell_angle_alpha   89.70847879
_cell_angle_beta   89.63773195
_cell_angle_gamma   127.38323828
_symmetry_Int_Tables_number   1
_chemical_formula_structural   Pr3Dy7(SiPb)4
_chemical_formula_sum   'Pr3 Dy7 Si4 Pb4'
_cell_volume   492.79634481
_cell_formula_units_Z   1
loop_
 _symmetry_equiv_pos_site_id
 _symmetry_equiv_pos_as_xyz
  1  'x, y, z'
loop_
 _atom_site_type_symbol
 _atom_site_label
 _atom_site_symmetry_multiplicity
 _atom_site_fract_x
 _atom_site_fract_y
 _atom_site_fract_z
 _atom_site_occupancy
  Pr  Pr0  1  0.071414  0.351228  0.320427  1
  Pr  Pr1  1  0.927657  0.648284  0.680201  1
  Pr  Pr2  1  0.433768  0.150759  0.824717  1
  Dy  Dy3  1  0.750380  0.519205  0.163786  1
  Dy  Dy4  1  0.566827  0.839451  0.173760  1
  Dy  Dy5  1  0.251487  0.485335  0.836328  1
  Dy  Dy6  1  0.755076  0.979053  0.664314  1
  Dy  Dy7  1  0.244424  0.022319  0.335785  1
  Dy  Dy8  1  0.998811  0.000770  0.000588  1
  Dy  Dy9  1  0.499805  0.500795  0.499004  1
  Si  Si10  1  0.367954  0.377441  0.130248  1
  Si  Si11  1  0.634133  0.628421  0.872365  1
  Si  Si12  1  0.142526  0.136715  0.637058  1
  Si  Si13  1  0.854937  0.866776  0.359600  1
  Pb  Pb14  1  0.830652  0.252751  0.960945  1
  Pb  Pb15  1  0.167185  0.739716  0.046645  1
  Pb  Pb16  1  0.661049  0.231973  0.455783  1
  Pb  Pb17  1  0.341916  0.769007  0.538445  1
