# generated using pymatgen
data_Nd3Th5(ZnRh)8
_symmetry_space_group_name_H-M   'P 1'
_cell_length_a   3.94578400
_cell_length_b   7.54206368
_cell_length_c   16.56565002
_cell_angle_alpha   90.38986078
_cell_angle_beta   90.00000000
_cell_angle_gamma   90.00000000
_symmetry_Int_Tables_number   1
_chemical_formula_structural   Nd3Th5(ZnRh)8
_chemical_formula_sum   'Nd3 Th5 Zn8 Rh8'
_cell_volume   492.97163422
_cell_formula_units_Z   1
loop_
 _symmetry_equiv_pos_site_id
 _symmetry_equiv_pos_as_xyz
  1  'x, y, z'
loop_
 _atom_site_type_symbol
 _atom_site_label
 _atom_site_symmetry_multiplicity
 _atom_site_fract_x
 _atom_site_fract_y
 _atom_site_fract_z
 _atom_site_occupancy
  Nd  Nd0  1  0.750000  0.445842  0.214971  1
  Nd  Nd1  1  0.250000  0.052871  0.713975  1
  Nd  Nd2  1  0.250000  0.552752  0.785526  1
  Th  Th3  1  0.250000  0.173386  0.938369  1
  Th  Th4  1  0.250000  0.673399  0.561554  1
  Th  Th5  1  0.750000  0.326901  0.439200  1
  Th  Th6  1  0.750000  0.946279  0.284208  1
  Th  Th7  1  0.750000  0.829375  0.060206  1
  Zn  Zn8  1  0.750000  0.006974  0.560931  1
  Zn  Zn9  1  0.250000  0.616735  0.345490  1
  Zn  Zn10  1  0.750000  0.380041  0.654641  1
  Zn  Zn11  1  0.250000  0.496408  0.061923  1
  Zn  Zn12  1  0.750000  0.506564  0.938794  1
  Zn  Zn13  1  0.250000  0.992741  0.441438  1
  Zn  Zn14  1  0.250000  0.123512  0.152006  1
  Zn  Zn15  1  0.750000  0.880213  0.845236  1
  Rh  Rh16  1  0.750000  0.742317  0.438509  1
  Rh  Rh17  1  0.250000  0.232873  0.319269  1
  Rh  Rh18  1  0.750000  0.246772  0.820615  1
  Rh  Rh19  1  0.750000  0.747939  0.678663  1
  Rh  Rh20  1  0.250000  0.261196  0.559165  1
  Rh  Rh21  1  0.250000  0.762270  0.185412  1
  Rh  Rh22  1  0.750000  0.242813  0.058658  1
  Rh  Rh23  1  0.250000  0.759827  0.941241  1
