# generated using pymatgen
data_Sr9YbSi5Pb
_symmetry_space_group_name_H-M   'P 1'
_cell_length_a   9.86223354
_cell_length_b   9.86223353
_cell_length_c   9.86223291
_cell_angle_alpha   131.54836078
_cell_angle_beta   131.54835763
_cell_angle_gamma   70.94328375
_symmetry_Int_Tables_number   1
_chemical_formula_structural   Sr9YbSi5Pb
_chemical_formula_sum   'Sr9 Yb1 Si5 Pb1'
_cell_volume   526.13861723
_cell_formula_units_Z   1
loop_
 _symmetry_equiv_pos_site_id
 _symmetry_equiv_pos_as_xyz
  1  'x, y, z'
loop_
 _atom_site_type_symbol
 _atom_site_label
 _atom_site_symmetry_multiplicity
 _atom_site_fract_x
 _atom_site_fract_y
 _atom_site_fract_z
 _atom_site_occupancy
  Sr  Sr0  1  0.551394  0.035579  0.860169  1
  Sr  Sr1  1  0.175409  0.691224  0.139831  1
  Sr  Sr2  1  0.035579  0.175409  0.484186  1
  Sr  Sr3  1  0.691224  0.551394  0.515814  1
  Sr  Sr4  1  0.469134  0.943831  0.139562  1
  Sr  Sr5  1  0.804268  0.329571  0.860438  1
  Sr  Sr6  1  0.943831  0.804268  0.474697  1
  Sr  Sr7  1  0.329571  0.469134  0.525303  1
  Sr  Sr8  1  0.012682  0.012682  0.000000  1
  Yb  Yb9  1  0.487308  0.487308  0.000000  1
  Si  Si10  1  0.751394  0.751394  0.000000  1
  Si  Si11  1  0.887419  0.393674  0.281864  1
  Si  Si12  1  0.111811  0.605555  0.718136  1
  Si  Si13  1  0.393674  0.111811  0.506255  1
  Si  Si14  1  0.605555  0.887419  0.493745  1
  Pb  Pb15  1  0.249748  0.249748  0.000000  1
