# generated using pymatgen
data_K4PaVTe6
_symmetry_space_group_name_H-M   'P 1'
_cell_length_a   14.37047500
_cell_length_b   6.90041216
_cell_length_c   9.68630800
_cell_angle_alpha   71.94357964
_cell_angle_beta   90.00000000
_cell_angle_gamma   90.00000000
_symmetry_Int_Tables_number   1
_chemical_formula_structural   K4PaVTe6
_chemical_formula_sum   'K8 Pa2 V2 Te12'
_cell_volume   913.21191101
_cell_formula_units_Z   2
loop_
 _symmetry_equiv_pos_site_id
 _symmetry_equiv_pos_as_xyz
  1  'x, y, z'
loop_
 _atom_site_type_symbol
 _atom_site_label
 _atom_site_symmetry_multiplicity
 _atom_site_fract_x
 _atom_site_fract_y
 _atom_site_fract_z
 _atom_site_occupancy
  K  K0  1  0.957105  0.674345  0.651702  1
  K  K1  1  0.457105  0.825655  0.348298  1
  K  K2  1  0.043682  0.326198  0.348263  1
  K  K3  1  0.543682  0.173802  0.651737  1
  K  K4  1  0.866521  0.081790  0.906445  1
  K  K5  1  0.366521  0.418210  0.093555  1
  K  K6  1  0.133428  0.924370  0.095762  1
  K  K7  1  0.633428  0.575630  0.904238  1
  Pa  Pa8  1  0.749009  0.656105  0.295677  1
  Pa  Pa9  1  0.249009  0.843895  0.704323  1
  V  V10  1  0.252446  0.343127  0.702932  1
  V  V11  1  0.752446  0.156873  0.297068  1
  Te  Te12  1  0.913738  0.932135  0.279881  1
  Te  Te13  1  0.413738  0.567865  0.720119  1
  Te  Te14  1  0.085831  0.108401  0.722789  1
  Te  Te15  1  0.585831  0.391599  0.277211  1
  Te  Te16  1  0.816795  0.282499  0.526842  1
  Te  Te17  1  0.316795  0.217501  0.473158  1
  Te  Te18  1  0.181475  0.677584  0.472583  1
  Te  Te19  1  0.681475  0.822416  0.527417  1
  Te  Te20  1  0.845933  0.485367  0.081778  1
  Te  Te21  1  0.345933  0.014633  0.918222  1
  Te  Te22  1  0.154037  0.482300  0.914350  1
  Te  Te23  1  0.654037  0.017700  0.085650  1
