# generated using pymatgen
data_Ho12CdCo4Pd
_symmetry_space_group_name_H-M   'P 1'
_cell_length_a   8.28485560
_cell_length_b   8.28485493
_cell_length_c   8.28485634
_cell_angle_alpha   110.93455210
_cell_angle_beta   110.33647969
_cell_angle_gamma   107.16749061
_symmetry_Int_Tables_number   1
_chemical_formula_structural   Ho12CdCo4Pd
_chemical_formula_sum   'Ho12 Cd1 Co4 Pd1'
_cell_volume   437.21629114
_cell_formula_units_Z   1
loop_
 _symmetry_equiv_pos_site_id
 _symmetry_equiv_pos_as_xyz
  1  'x, y, z'
loop_
 _atom_site_type_symbol
 _atom_site_label
 _atom_site_symmetry_multiplicity
 _atom_site_fract_x
 _atom_site_fract_y
 _atom_site_fract_z
 _atom_site_occupancy
  Ho  Ho0  1  0.314729  0.619210  0.304481  1
  Ho  Ho1  1  0.685271  0.380790  0.695519  1
  Ho  Ho2  1  0.314729  0.010247  0.695519  1
  Ho  Ho3  1  0.685271  0.989753  0.304481  1
  Ho  Ho4  1  0.187178  0.294172  0.481350  1
  Ho  Ho5  1  0.812822  0.705828  0.518650  1
  Ho  Ho6  1  0.187178  0.705828  0.893006  1
  Ho  Ho7  1  0.812822  0.294172  0.106994  1
  Ho  Ho8  1  0.413405  0.214577  0.198828  1
  Ho  Ho9  1  0.586595  0.785423  0.801172  1
  Ho  Ho10  1  0.015750  0.214577  0.801172  1
  Ho  Ho11  1  0.984250  0.785423  0.198828  1
  Cd  Cd12  1  0.500000  0.500000  0.000000  1
  Co  Co13  1  0.112615  0.612615  0.500000  1
  Co  Co14  1  0.887385  0.387385  0.500000  1
  Co  Co15  1  0.379404  0.000000  0.379404  1
  Co  Co16  1  0.620596  0.000000  0.620596  1
  Pd  Pd17  1  0.000000  0.000000  0.000000  1
