# generated using pymatgen
data_Sr3Al10PtO20
_symmetry_space_group_name_H-M   'P 1'
_cell_length_a   9.58231827
_cell_length_b   9.58231798
_cell_length_c   5.07378572
_cell_angle_alpha   74.74781208
_cell_angle_beta   74.74781513
_cell_angle_gamma   72.85125756
_symmetry_Int_Tables_number   1
_chemical_formula_structural   Sr3Al10PtO20
_chemical_formula_sum   'Sr3 Al10 Pt1 O20'
_cell_volume   420.70268034
_cell_formula_units_Z   1
loop_
 _symmetry_equiv_pos_site_id
 _symmetry_equiv_pos_as_xyz
  1  'x, y, z'
loop_
 _atom_site_type_symbol
 _atom_site_label
 _atom_site_symmetry_multiplicity
 _atom_site_fract_x
 _atom_site_fract_y
 _atom_site_fract_z
 _atom_site_occupancy
  Sr  Sr0  1  0.000000  0.000000  0.000000  1
  Sr  Sr1  1  0.273001  0.273001  0.709170  1
  Sr  Sr2  1  0.726999  0.726999  0.290830  1
  Al  Al3  1  0.854125  0.420731  0.831833  1
  Al  Al4  1  0.579269  0.145875  0.168167  1
  Al  Al5  1  0.145875  0.579269  0.168167  1
  Al  Al6  1  0.420731  0.854125  0.831833  1
  Al  Al7  1  0.364815  0.635185  0.500000  1
  Al  Al8  1  0.635185  0.364815  0.500000  1
  Al  Al9  1  0.992769  0.718345  0.658003  1
  Al  Al10  1  0.281655  0.007231  0.341997  1
  Al  Al11  1  0.007231  0.281655  0.341997  1
  Al  Al12  1  0.718345  0.992769  0.658003  1
  Pt  Pt13  1  0.500000  0.500000  0.000000  1
  O  O14  1  0.553020  0.300911  0.882104  1
  O  O15  1  0.699089  0.446980  0.117896  1
  O  O16  1  0.446980  0.699089  0.117896  1
  O  O17  1  0.300911  0.553020  0.882104  1
  O  O18  1  0.715114  0.005759  0.003135  1
  O  O19  1  0.994241  0.284886  0.996865  1
  O  O20  1  0.284886  0.994241  0.996865  1
  O  O21  1  0.005759  0.715114  0.003135  1
  O  O22  1  0.433003  0.433003  0.414777  1
  O  O23  1  0.566997  0.566997  0.585223  1
  O  O24  1  0.899658  0.899658  0.511538  1
  O  O25  1  0.100342  0.100342  0.488462  1
  O  O26  1  0.882093  0.598653  0.673099  1
  O  O27  1  0.401347  0.117907  0.326901  1
  O  O28  1  0.117907  0.401347  0.326901  1
  O  O29  1  0.598653  0.882093  0.673099  1
  O  O30  1  0.169691  0.662455  0.429870  1
  O  O31  1  0.337545  0.830309  0.570130  1
  O  O32  1  0.830309  0.337545  0.570130  1
  O  O33  1  0.662455  0.169691  0.429870  1
