# generated using pymatgen
data_Pr12Al(SnI4)3
_symmetry_space_group_name_H-M   'P 1'
_cell_length_a   11.11119905
_cell_length_b   11.11119897
_cell_length_c   11.11119886
_cell_angle_alpha   109.33806654
_cell_angle_beta   109.33806277
_cell_angle_gamma   109.33806309
_symmetry_Int_Tables_number   1
_chemical_formula_structural   Pr12Al(SnI4)3
_chemical_formula_sum   'Pr12 Al1 Sn3 I12'
_cell_volume   1061.16672155
_cell_formula_units_Z   1
loop_
 _symmetry_equiv_pos_site_id
 _symmetry_equiv_pos_as_xyz
  1  'x, y, z'
loop_
 _atom_site_type_symbol
 _atom_site_label
 _atom_site_symmetry_multiplicity
 _atom_site_fract_x
 _atom_site_fract_y
 _atom_site_fract_z
 _atom_site_occupancy
  Pr  Pr0  1  0.474427  0.480899  0.241742  1
  Pr  Pr1  1  0.750000  0.240594  0.259406  1
  Pr  Pr2  1  0.750000  0.009876  0.490124  1
  Pr  Pr3  1  0.241742  0.474427  0.480899  1
  Pr  Pr4  1  0.259406  0.750000  0.240594  1
  Pr  Pr5  1  0.025573  0.258258  0.019101  1
  Pr  Pr6  1  0.019101  0.025573  0.258258  1
  Pr  Pr7  1  0.490124  0.750000  0.009876  1
  Pr  Pr8  1  0.480899  0.241742  0.474427  1
  Pr  Pr9  1  0.009876  0.490124  0.750000  1
  Pr  Pr10  1  0.258258  0.019101  0.025573  1
  Pr  Pr11  1  0.240594  0.259406  0.750000  1
  Al  Al12  1  0.250000  0.250000  0.250000  1
  Sn  Sn13  1  0.500196  0.999804  0.250000  1
  Sn  Sn14  1  0.999804  0.250000  0.500196  1
  Sn  Sn15  1  0.250000  0.500196  0.999804  1
  I  I16  1  0.250000  0.754819  0.745181  1
  I  I17  1  0.510795  0.505480  0.755717  1
  I  I18  1  0.989205  0.744283  0.994520  1
  I  I19  1  0.745181  0.250000  0.754819  1
  I  I20  1  0.994520  0.989205  0.744283  1
  I  I21  1  0.250000  0.994181  0.505819  1
  I  I22  1  0.755717  0.510795  0.505480  1
  I  I23  1  0.505819  0.250000  0.994181  1
  I  I24  1  0.754819  0.745181  0.250000  1
  I  I25  1  0.744283  0.994520  0.989205  1
  I  I26  1  0.994181  0.505819  0.250000  1
  I  I27  1  0.505480  0.755717  0.510795  1
