# generated using pymatgen
data_Er2Si14Ir5Pt
_symmetry_space_group_name_H-M   'P 1'
_cell_length_a   8.02329240
_cell_length_b   8.02329271
_cell_length_c   8.03448334
_cell_angle_alpha   57.01371767
_cell_angle_beta   57.01371665
_cell_angle_gamma   56.88657236
_symmetry_Int_Tables_number   1
_chemical_formula_structural   Er2Si14Ir5Pt
_chemical_formula_sum   'Er2 Si14 Ir5 Pt1'
_cell_volume   340.17505693
_cell_formula_units_Z   1
loop_
 _symmetry_equiv_pos_site_id
 _symmetry_equiv_pos_as_xyz
  1  'x, y, z'
loop_
 _atom_site_type_symbol
 _atom_site_label
 _atom_site_symmetry_multiplicity
 _atom_site_fract_x
 _atom_site_fract_y
 _atom_site_fract_z
 _atom_site_occupancy
  Er  Er0  1  0.998878  0.999536  0.002467  1
  Er  Er1  1  0.500464  0.501122  0.497533  1
  Si  Si2  1  0.746273  0.753727  0.750000  1
  Si  Si3  1  0.250597  0.249403  0.250000  1
  Si  Si4  1  0.851878  0.066564  0.671761  1
  Si  Si5  1  0.672276  0.852104  0.065244  1
  Si  Si6  1  0.063151  0.676575  0.853297  1
  Si  Si7  1  0.647896  0.827724  0.434756  1
  Si  Si8  1  0.433436  0.648122  0.828239  1
  Si  Si9  1  0.823425  0.436849  0.646703  1
  Si  Si10  1  0.176839  0.564842  0.344326  1
  Si  Si11  1  0.569615  0.350887  0.169748  1
  Si  Si12  1  0.354300  0.170092  0.564880  1
  Si  Si13  1  0.935158  0.323161  0.155674  1
  Si  Si14  1  0.329908  0.145700  0.935120  1
  Si  Si15  1  0.149113  0.930385  0.330252  1
  Ir  Ir16  1  0.249368  0.929711  0.571170  1
  Ir  Ir17  1  0.570289  0.250632  0.928830  1
  Ir  Ir18  1  0.928530  0.571470  0.250000  1
  Ir  Ir19  1  0.430917  0.750388  0.068708  1
  Ir  Ir20  1  0.749612  0.069083  0.431292  1
  Pt  Pt21  1  0.068080  0.431920  0.750000  1
