# generated using pymatgen
data_Ti4GaSn3Mo
_symmetry_space_group_name_H-M   'P 1'
_cell_length_a   8.24078400
_cell_length_b   8.24078202
_cell_length_c   5.52242500
_cell_angle_alpha   90.00000000
_cell_angle_beta   90.00000000
_cell_angle_gamma   120.00000796
_symmetry_Int_Tables_number   1
_chemical_formula_structural   Ti4GaSn3Mo
_chemical_formula_sum   'Ti8 Ga2 Sn6 Mo2'
_cell_volume   324.78605986
_cell_formula_units_Z   2
loop_
 _symmetry_equiv_pos_site_id
 _symmetry_equiv_pos_as_xyz
  1  'x, y, z'
loop_
 _atom_site_type_symbol
 _atom_site_label
 _atom_site_symmetry_multiplicity
 _atom_site_fract_x
 _atom_site_fract_y
 _atom_site_fract_z
 _atom_site_occupancy
  Ti  Ti0  1  0.730947  0.730947  0.744895  1
  Ti  Ti1  1  0.269053  0.000000  0.744895  1
  Ti  Ti2  1  0.000000  0.269053  0.744895  1
  Ti  Ti3  1  0.269053  0.269053  0.255105  1
  Ti  Ti4  1  0.730947  0.000000  0.255105  1
  Ti  Ti5  1  0.000000  0.730947  0.255105  1
  Ti  Ti6  1  0.333333  0.666667  0.500000  1
  Ti  Ti7  1  0.666667  0.333333  0.500000  1
  Ga  Ga8  1  0.000000  0.000000  0.000000  1
  Ga  Ga9  1  0.000000  0.000000  0.500000  1
  Sn  Sn10  1  0.388106  0.388106  0.754722  1
  Sn  Sn11  1  0.611894  0.000000  0.754722  1
  Sn  Sn12  1  0.000000  0.611894  0.754722  1
  Sn  Sn13  1  0.611894  0.611894  0.245278  1
  Sn  Sn14  1  0.388106  0.000000  0.245278  1
  Sn  Sn15  1  0.000000  0.388106  0.245278  1
  Mo  Mo16  1  0.666667  0.333333  0.000000  1
  Mo  Mo17  1  0.333333  0.666667  0.000000  1
