# generated using pymatgen
data_Ho2Zn2PdRu
_symmetry_space_group_name_H-M   'P 1'
_cell_length_a   4.01758700
_cell_length_b   7.04759059
_cell_length_c   8.17299437
_cell_angle_alpha   89.79807161
_cell_angle_beta   90.00000000
_cell_angle_gamma   90.00000000
_symmetry_Int_Tables_number   1
_chemical_formula_structural   Ho2Zn2PdRu
_chemical_formula_sum   'Ho4 Zn4 Pd2 Ru2'
_cell_volume   231.41124521
_cell_formula_units_Z   2
loop_
 _symmetry_equiv_pos_site_id
 _symmetry_equiv_pos_as_xyz
  1  'x, y, z'
loop_
 _atom_site_type_symbol
 _atom_site_label
 _atom_site_symmetry_multiplicity
 _atom_site_fract_x
 _atom_site_fract_y
 _atom_site_fract_z
 _atom_site_occupancy
  Ho  Ho0  1  0.250000  0.534958  0.175972  1
  Ho  Ho1  1  0.750000  0.465042  0.824028  1
  Ho  Ho2  1  0.250000  0.047972  0.306260  1
  Ho  Ho3  1  0.750000  0.952028  0.693740  1
  Zn  Zn4  1  0.250000  0.135607  0.939034  1
  Zn  Zn5  1  0.750000  0.864393  0.060966  1
  Zn  Zn6  1  0.250000  0.635985  0.569763  1
  Zn  Zn7  1  0.750000  0.364015  0.430237  1
  Pd  Pd8  1  0.750000  0.745479  0.378953  1
  Pd  Pd9  1  0.250000  0.254521  0.621047  1
  Ru  Ru10  1  0.750000  0.244974  0.124401  1
  Ru  Ru11  1  0.250000  0.755026  0.875599  1
