# generated using pymatgen
data_Yb2CuSi2Pd3
_symmetry_space_group_name_H-M   'P 1'
_cell_length_a   5.59367039
_cell_length_b   6.83100223
_cell_length_c   7.30980600
_cell_angle_alpha   90.00000000
_cell_angle_beta   90.00000000
_cell_angle_gamma   89.21177777
_symmetry_Int_Tables_number   1
_chemical_formula_structural   Yb2CuSi2Pd3
_chemical_formula_sum   'Yb4 Cu2 Si4 Pd6'
_cell_volume   279.28399751
_cell_formula_units_Z   2
loop_
 _symmetry_equiv_pos_site_id
 _symmetry_equiv_pos_as_xyz
  1  'x, y, z'
loop_
 _atom_site_type_symbol
 _atom_site_label
 _atom_site_symmetry_multiplicity
 _atom_site_fract_x
 _atom_site_fract_y
 _atom_site_fract_z
 _atom_site_occupancy
  Yb  Yb0  1  0.357181  0.749743  0.024074  1
  Yb  Yb1  1  0.142819  0.750257  0.524074  1
  Yb  Yb2  1  0.640585  0.244017  0.976141  1
  Yb  Yb3  1  0.859415  0.255983  0.476141  1
  Cu  Cu4  1  0.902064  0.552130  0.166509  1
  Cu  Cu5  1  0.597936  0.947870  0.666509  1
  Si  Si6  1  0.642707  0.741684  0.372731  1
  Si  Si7  1  0.857293  0.758316  0.872731  1
  Si  Si8  1  0.363147  0.249016  0.627175  1
  Si  Si9  1  0.136853  0.250984  0.127175  1
  Pd  Pd10  1  0.094155  0.054762  0.825783  1
  Pd  Pd11  1  0.405845  0.445238  0.325783  1
  Pd  Pd12  1  0.094196  0.453864  0.831244  1
  Pd  Pd13  1  0.405804  0.046136  0.331244  1
  Pd  Pd14  1  0.906725  0.935862  0.176343  1
  Pd  Pd15  1  0.593275  0.564138  0.676343  1
