# generated using pymatgen
data_MgSc6NiBr12
_symmetry_space_group_name_H-M   'P 1'
_cell_length_a   8.71136594
_cell_length_b   8.71136636
_cell_length_c   8.71136516
_cell_angle_alpha   107.27849246
_cell_angle_beta   107.27849472
_cell_angle_gamma   107.27849557
_symmetry_Int_Tables_number   1
_chemical_formula_structural   MgSc6NiBr12
_chemical_formula_sum   'Mg1 Sc6 Ni1 Br12'
_cell_volume   546.32318490
_cell_formula_units_Z   1
loop_
 _symmetry_equiv_pos_site_id
 _symmetry_equiv_pos_as_xyz
  1  'x, y, z'
loop_
 _atom_site_type_symbol
 _atom_site_label
 _atom_site_symmetry_multiplicity
 _atom_site_fract_x
 _atom_site_fract_y
 _atom_site_fract_z
 _atom_site_occupancy
  Mg  Mg0  1  0.500000  0.500000  0.500000  1
  Sc  Sc1  1  0.100875  0.029130  0.306518  1
  Sc  Sc2  1  0.029130  0.306518  0.100875  1
  Sc  Sc3  1  0.306518  0.100875  0.029130  1
  Sc  Sc4  1  0.899124  0.970870  0.693482  1
  Sc  Sc5  1  0.970870  0.693482  0.899124  1
  Sc  Sc6  1  0.693482  0.899124  0.970870  1
  Ni  Ni7  1  0.000000  0.000000  0.000000  1
  Br  Br8  1  0.073716  0.683718  0.220438  1
  Br  Br9  1  0.683718  0.220438  0.073716  1
  Br  Br10  1  0.220438  0.073716  0.683718  1
  Br  Br11  1  0.926284  0.316282  0.779562  1
  Br  Br12  1  0.316282  0.779562  0.926284  1
  Br  Br13  1  0.779562  0.926284  0.316282  1
  Br  Br14  1  0.458433  0.160960  0.384377  1
  Br  Br15  1  0.160960  0.384377  0.458433  1
  Br  Br16  1  0.384377  0.458433  0.160960  1
  Br  Br17  1  0.541567  0.839040  0.615623  1
  Br  Br18  1  0.839040  0.615623  0.541567  1
  Br  Br19  1  0.615623  0.541567  0.839040  1
