# generated using pymatgen
data_La9Nd7Cd3HgIr4
_symmetry_space_group_name_H-M   'P 1'
_cell_length_a   10.04965164
_cell_length_b   10.04965128
_cell_length_c   10.06959339
_cell_angle_alpha   59.99868396
_cell_angle_beta   59.99868417
_cell_angle_gamma   60.32868678
_symmetry_Int_Tables_number   1
_chemical_formula_structural   La9Nd7Cd3HgIr4
_chemical_formula_sum   'La9 Nd7 Cd3 Hg1 Ir4'
_cell_volume   720.87084634
_cell_formula_units_Z   1
loop_
 _symmetry_equiv_pos_site_id
 _symmetry_equiv_pos_as_xyz
  1  'x, y, z'
loop_
 _atom_site_type_symbol
 _atom_site_label
 _atom_site_symmetry_multiplicity
 _atom_site_fract_x
 _atom_site_fract_y
 _atom_site_fract_z
 _atom_site_occupancy
  La  La0  1  0.346864  0.346864  0.347390  1
  La  La1  1  0.348356  0.348356  0.954824  1
  La  La2  1  0.349919  0.957243  0.346304  1
  La  La3  1  0.957243  0.349919  0.346304  1
  La  La4  1  0.808731  0.188744  0.191593  1
  La  La5  1  0.189074  0.807124  0.809887  1
  La  La6  1  0.188744  0.808731  0.191593  1
  La  La7  1  0.807124  0.189074  0.809887  1
  La  La8  1  0.190442  0.190442  0.809401  1
  Nd  Nd9  1  0.804842  0.804842  0.194237  1
  Nd  Nd10  1  0.935737  0.564400  0.563815  1
  Nd  Nd11  1  0.563690  0.935405  0.936574  1
  Nd  Nd12  1  0.564400  0.935737  0.563815  1
  Nd  Nd13  1  0.935405  0.563690  0.936574  1
  Nd  Nd14  1  0.562808  0.562808  0.937849  1
  Nd  Nd15  1  0.937289  0.937289  0.562392  1
  Cd  Cd16  1  0.581247  0.581247  0.257898  1
  Cd  Cd17  1  0.581035  0.257485  0.580170  1
  Cd  Cd18  1  0.257485  0.581035  0.580170  1
  Hg  Hg19  1  0.584000  0.584000  0.581225  1
  Ir  Ir20  1  0.140920  0.140920  0.141134  1
  Ir  Ir21  1  0.141080  0.141080  0.577976  1
  Ir  Ir22  1  0.145921  0.577644  0.139492  1
  Ir  Ir23  1  0.577644  0.145921  0.139492  1
