# generated using pymatgen
data_Tb7DyTc3B24Ru
_symmetry_space_group_name_H-M   'P 1'
_cell_length_a   3.69474800
_cell_length_b   9.18396156
_cell_length_c   11.57766608
_cell_angle_alpha   89.92417160
_cell_angle_beta   90.00000000
_cell_angle_gamma   90.00000000
_symmetry_Int_Tables_number   1
_chemical_formula_structural   Tb7DyTc3B24Ru
_chemical_formula_sum   'Tb7 Dy1 Tc3 B24 Ru1'
_cell_volume   392.85792601
_cell_formula_units_Z   1
loop_
 _symmetry_equiv_pos_site_id
 _symmetry_equiv_pos_as_xyz
  1  'x, y, z'
loop_
 _atom_site_type_symbol
 _atom_site_label
 _atom_site_symmetry_multiplicity
 _atom_site_fract_x
 _atom_site_fract_y
 _atom_site_fract_z
 _atom_site_occupancy
  Tb  Tb0  1  0.000000  0.323957  0.413912  1
  Tb  Tb1  1  0.000000  0.674944  0.584034  1
  Tb  Tb2  1  0.000000  0.823323  0.087200  1
  Tb  Tb3  1  0.000000  0.177652  0.914648  1
  Tb  Tb4  1  0.000000  0.942569  0.370038  1
  Tb  Tb5  1  0.000000  0.057695  0.630866  1
  Tb  Tb6  1  0.000000  0.443024  0.130129  1
  Dy  Dy7  1  0.000000  0.557975  0.868989  1
  Tc  Tc8  1  0.000000  0.638048  0.320684  1
  Tc  Tc9  1  0.000000  0.362074  0.679905  1
  Tc  Tc10  1  0.000000  0.137742  0.178267  1
  B  B11  1  0.500000  0.553195  0.432573  1
  B  B12  1  0.500000  0.446520  0.566996  1
  B  B13  1  0.500000  0.053250  0.067081  1
  B  B14  1  0.500000  0.945922  0.932592  1
  B  B15  1  0.500000  0.747937  0.418444  1
  B  B16  1  0.500000  0.251449  0.581623  1
  B  B17  1  0.500000  0.248568  0.081507  1
  B  B18  1  0.500000  0.751868  0.918170  1
  B  B19  1  0.500000  0.791184  0.265598  1
  B  B20  1  0.500000  0.209038  0.735140  1
  B  B21  1  0.500000  0.291110  0.234487  1
  B  B22  1  0.500000  0.709602  0.765451  1
  B  B23  1  0.500000  0.631311  0.185890  1
  B  B24  1  0.500000  0.369099  0.814683  1
  B  B25  1  0.500000  0.130729  0.313731  1
  B  B26  1  0.500000  0.868641  0.686174  1
  B  B27  1  0.500000  0.982496  0.211718  1
  B  B28  1  0.500000  0.016093  0.788563  1
  B  B29  1  0.500000  0.482887  0.288035  1
  B  B30  1  0.500000  0.517133  0.711617  1
  B  B31  1  0.500000  0.602638  0.027995  1
  B  B32  1  0.500000  0.399120  0.971263  1
  B  B33  1  0.500000  0.102024  0.471941  1
  B  B34  1  0.500000  0.897576  0.528917  1
  Ru  Ru35  1  0.000000  0.861606  0.821139  1
