# generated using pymatgen
data_Y3MnGa4Co7
_symmetry_space_group_name_H-M   'P 1'
_cell_length_a   7.08725526
_cell_length_b   8.55362979
_cell_length_c   8.55471500
_cell_angle_alpha   120.01387005
_cell_angle_beta   90.01550576
_cell_angle_gamma   89.98222973
_symmetry_Int_Tables_number   1
_chemical_formula_structural   Y3MnGa4Co7
_chemical_formula_sum   'Y6 Mn2 Ga8 Co14'
_cell_volume   449.05957535
_cell_formula_units_Z   2
loop_
 _symmetry_equiv_pos_site_id
 _symmetry_equiv_pos_as_xyz
  1  'x, y, z'
loop_
 _atom_site_type_symbol
 _atom_site_label
 _atom_site_symmetry_multiplicity
 _atom_site_fract_x
 _atom_site_fract_y
 _atom_site_fract_z
 _atom_site_occupancy
  Y  Y0  1  0.001021  0.525805  0.051477  1
  Y  Y1  1  0.001027  0.525667  0.474269  1
  Y  Y2  1  0.001079  0.948586  0.474239  1
  Y  Y3  1  0.500989  0.051480  0.525745  1
  Y  Y4  1  0.500975  0.474294  0.525810  1
  Y  Y5  1  0.500962  0.474276  0.948502  1
  Mn  Mn6  1  0.220164  0.999958  0.999986  1
  Mn  Mn7  1  0.720260  0.999985  0.000037  1
  Ga  Ga8  1  0.294242  0.342067  0.170965  1
  Ga  Ga9  1  0.294221  0.828973  0.170958  1
  Ga  Ga10  1  0.675768  0.666635  0.333362  1
  Ga  Ga11  1  0.794404  0.170965  0.342003  1
  Ga  Ga12  1  0.294289  0.828985  0.657952  1
  Ga  Ga13  1  0.175523  0.333354  0.666642  1
  Ga  Ga14  1  0.794270  0.171031  0.829044  1
  Ga  Ga15  1  0.794303  0.657959  0.829056  1
  Co  Co16  1  0.972293  0.202767  0.101392  1
  Co  Co17  1  0.972298  0.898648  0.101369  1
  Co  Co18  1  0.664125  0.329987  0.165015  1
  Co  Co19  1  0.664008  0.834996  0.165062  1
  Co  Co20  1  0.472156  0.101479  0.202890  1
  Co  Co21  1  0.164056  0.165048  0.329999  1
  Co  Co22  1  0.329246  0.666727  0.333313  1
  Co  Co23  1  0.828978  0.333312  0.666687  1
  Co  Co24  1  0.664121  0.834986  0.670016  1
  Co  Co25  1  0.972208  0.898526  0.797133  1
  Co  Co26  1  0.163994  0.164962  0.834959  1
  Co  Co27  1  0.164037  0.669980  0.834953  1
  Co  Co28  1  0.472145  0.101365  0.898594  1
  Co  Co29  1  0.472238  0.797196  0.898569  1
