# generated using pymatgen
data_Hf4Fe(SiIr)6
_symmetry_space_group_name_H-M   'P 1'
_cell_length_a   6.95395807
_cell_length_b   6.95395736
_cell_length_c   6.95395752
_cell_angle_alpha   109.56875579
_cell_angle_beta   109.42246187
_cell_angle_gamma   109.42247757
_symmetry_Int_Tables_number   1
_chemical_formula_structural   Hf4Fe(SiIr)6
_chemical_formula_sum   'Hf4 Fe1 Si6 Ir6'
_cell_volume   258.86500676
_cell_formula_units_Z   1
loop_
 _symmetry_equiv_pos_site_id
 _symmetry_equiv_pos_as_xyz
  1  'x, y, z'
loop_
 _atom_site_type_symbol
 _atom_site_label
 _atom_site_symmetry_multiplicity
 _atom_site_fract_x
 _atom_site_fract_y
 _atom_site_fract_z
 _atom_site_occupancy
  Hf  Hf0  1  0.500000  0.503646  0.496354  1
  Hf  Hf1  1  0.992707  0.996354  0.496354  1
  Hf  Hf2  1  0.007293  0.503646  0.003646  1
  Hf  Hf3  1  0.500000  0.996354  0.003646  1
  Fe  Fe4  1  0.500000  0.750000  0.250000  1
  Si  Si5  1  0.000000  0.317320  0.317320  1
  Si  Si6  1  0.321419  0.994789  0.316209  1
  Si  Si7  1  0.321419  0.326630  0.005211  1
  Si  Si8  1  0.000000  0.682680  0.682680  1
  Si  Si9  1  0.678581  0.994789  0.673370  1
  Si  Si10  1  0.678581  0.683791  0.005211  1
  Ir  Ir11  1  0.250787  0.503165  0.753951  1
  Ir  Ir12  1  0.749213  0.246049  0.496835  1
  Ir  Ir13  1  0.749213  0.503165  0.252378  1
  Ir  Ir14  1  0.500000  0.250000  0.750000  1
  Ir  Ir15  1  0.250787  0.747622  0.496835  1
  Ir  Ir16  1  0.000000  0.000000  0.000000  1
