# generated using pymatgen
data_Dy4Tm3Co6Sn22Hg
_symmetry_space_group_name_H-M   'P 1'
_cell_length_a   9.64952856
_cell_length_b   9.65083788
_cell_length_c   10.00601906
_cell_angle_alpha   89.94771976
_cell_angle_beta   90.03335854
_cell_angle_gamma   119.97553831
_symmetry_Int_Tables_number   1
_chemical_formula_structural   Dy4Tm3Co6Sn22Hg
_chemical_formula_sum   'Dy4 Tm3 Co6 Sn22 Hg1'
_cell_volume   807.17905762
_cell_formula_units_Z   1
loop_
 _symmetry_equiv_pos_site_id
 _symmetry_equiv_pos_as_xyz
  1  'x, y, z'
loop_
 _atom_site_type_symbol
 _atom_site_label
 _atom_site_symmetry_multiplicity
 _atom_site_fract_x
 _atom_site_fract_y
 _atom_site_fract_z
 _atom_site_occupancy
  Dy  Dy0  1  0.999740  0.999556  0.000340  1
  Dy  Dy1  1  0.521201  0.041834  0.693339  1
  Dy  Dy2  1  0.041542  0.520762  0.306395  1
  Dy  Dy3  1  0.958272  0.478906  0.693310  1
  Tm  Tm4  1  0.479746  0.519704  0.305970  1
  Tm  Tm5  1  0.520143  0.479926  0.693669  1
  Tm  Tm6  1  0.479820  0.960188  0.305987  1
  Co  Co7  1  0.830998  0.167497  0.197206  1
  Co  Co8  1  0.168103  0.831941  0.802907  1
  Co  Co9  1  0.830989  0.663527  0.197446  1
  Co  Co10  1  0.169252  0.336941  0.802790  1
  Co  Co11  1  0.337282  0.168663  0.197562  1
  Co  Co12  1  0.663056  0.830760  0.802511  1
  Sn  Sn13  1  0.346526  0.000166  0.000070  1
  Sn  Sn14  1  0.653394  0.999660  0.999909  1
  Sn  Sn15  1  0.000025  0.346344  0.000032  1
  Sn  Sn16  1  0.999828  0.653419  0.000026  1
  Sn  Sn17  1  0.653307  0.653419  0.999936  1
  Sn  Sn18  1  0.346578  0.346386  0.000097  1
  Sn  Sn19  1  0.333373  0.666419  0.818811  1
  Sn  Sn20  1  0.666347  0.333012  0.181509  1
  Sn  Sn21  1  0.781634  0.216645  0.453120  1
  Sn  Sn22  1  0.218343  0.782944  0.545946  1
  Sn  Sn23  1  0.780943  0.564732  0.453803  1
  Sn  Sn24  1  0.218975  0.434981  0.546211  1
  Sn  Sn25  1  0.435322  0.218242  0.453553  1
  Sn  Sn26  1  0.564447  0.781269  0.545466  1
  Sn  Sn27  1  0.335812  0.667944  0.121509  1
  Sn  Sn28  1  0.665367  0.334718  0.879839  1
  Sn  Sn29  1  0.117484  0.883480  0.270090  1
  Sn  Sn30  1  0.883445  0.116503  0.730237  1
  Sn  Sn31  1  0.117332  0.233977  0.269953  1
  Sn  Sn32  1  0.882499  0.765703  0.730094  1
  Sn  Sn33  1  0.764641  0.882449  0.270106  1
  Sn  Sn34  1  0.234346  0.117535  0.730300  1
  Hg  Hg35  1  0.999889  0.999849  0.499949  1
