# generated using pymatgen
data_Zn14CuB6Rh17
_symmetry_space_group_name_H-M   'P 1'
_cell_length_a   2.88452900
_cell_length_b   11.28559700
_cell_length_c   14.90605400
_cell_angle_alpha   90.00000000
_cell_angle_beta   90.00000000
_cell_angle_gamma   90.00000000
_symmetry_Int_Tables_number   1
_chemical_formula_structural   Zn14CuB6Rh17
_chemical_formula_sum   'Zn14 Cu1 B6 Rh17'
_cell_volume   485.24619394
_cell_formula_units_Z   1
loop_
 _symmetry_equiv_pos_site_id
 _symmetry_equiv_pos_as_xyz
  1  'x, y, z'
loop_
 _atom_site_type_symbol
 _atom_site_label
 _atom_site_symmetry_multiplicity
 _atom_site_fract_x
 _atom_site_fract_y
 _atom_site_fract_z
 _atom_site_occupancy
  Zn  Zn0  1  0.500000  0.500000  0.348084  1
  Zn  Zn1  1  0.500000  0.000000  0.651598  1
  Zn  Zn2  1  0.500000  0.386448  0.001543  1
  Zn  Zn3  1  0.500000  0.112985  0.997688  1
  Zn  Zn4  1  0.500000  0.613552  0.001543  1
  Zn  Zn5  1  0.500000  0.887015  0.997688  1
  Zn  Zn6  1  0.500000  0.371835  0.770897  1
  Zn  Zn7  1  0.500000  0.128815  0.230867  1
  Zn  Zn8  1  0.500000  0.628165  0.770897  1
  Zn  Zn9  1  0.500000  0.871185  0.230867  1
  Zn  Zn10  1  0.500000  0.297486  0.602503  1
  Zn  Zn11  1  0.500000  0.202864  0.397714  1
  Zn  Zn12  1  0.500000  0.702514  0.602503  1
  Zn  Zn13  1  0.500000  0.797136  0.397714  1
  Cu  Cu14  1  0.000000  0.000000  0.122011  1
  B  B15  1  0.500000  0.500000  0.530636  1
  B  B16  1  0.500000  0.000000  0.469228  1
  B  B17  1  0.500000  0.142331  0.821773  1
  B  B18  1  0.500000  0.356340  0.177648  1
  B  B19  1  0.500000  0.857669  0.821773  1
  B  B20  1  0.500000  0.643660  0.177648  1
  Rh  Rh21  1  0.000000  0.247347  0.894215  1
  Rh  Rh22  1  0.000000  0.246757  0.105459  1
  Rh  Rh23  1  0.000000  0.752653  0.894215  1
  Rh  Rh24  1  0.000000  0.753243  0.105459  1
  Rh  Rh25  1  0.000000  0.500000  0.643189  1
  Rh  Rh26  1  0.000000  0.000000  0.355115  1
  Rh  Rh27  1  0.000000  0.173878  0.717774  1
  Rh  Rh28  1  0.000000  0.326491  0.281687  1
  Rh  Rh29  1  0.000000  0.826122  0.717774  1
  Rh  Rh30  1  0.000000  0.673509  0.281687  1
  Rh  Rh31  1  0.000000  0.500000  0.137778  1
  Rh  Rh32  1  0.000000  0.000000  0.863527  1
  Rh  Rh33  1  0.000000  0.121737  0.528966  1
  Rh  Rh34  1  0.000000  0.378093  0.470339  1
  Rh  Rh35  1  0.000000  0.878263  0.528966  1
  Rh  Rh36  1  0.000000  0.621907  0.470339  1
  Rh  Rh37  1  0.000000  0.500000  0.880683  1
