# generated using pymatgen
data_Yb2Pd3Pt
_symmetry_space_group_name_H-M   'P 1'
_cell_length_a   5.41227412
_cell_length_b   5.41227444
_cell_length_c   5.41227444
_cell_angle_alpha   60.00544441
_cell_angle_beta   60.00543824
_cell_angle_gamma   60.00544294
_symmetry_Int_Tables_number   1
_chemical_formula_structural   Yb2Pd3Pt
_chemical_formula_sum   'Yb2 Pd3 Pt1'
_cell_volume   112.11868252
_cell_formula_units_Z   1
loop_
 _symmetry_equiv_pos_site_id
 _symmetry_equiv_pos_as_xyz
  1  'x, y, z'
loop_
 _atom_site_type_symbol
 _atom_site_label
 _atom_site_symmetry_multiplicity
 _atom_site_fract_x
 _atom_site_fract_y
 _atom_site_fract_z
 _atom_site_occupancy
  Yb  Yb0  1  0.373261  0.373261  0.373261  1
  Yb  Yb1  1  0.626739  0.626739  0.626739  1
  Pd  Pd2  1  0.500000  0.000000  0.000000  1
  Pd  Pd3  1  0.000000  0.500000  0.000000  1
  Pd  Pd4  1  0.000000  0.000000  0.500001  1
  Pt  Pt5  1  0.000000  0.000000  0.000000  1
