# generated using pymatgen
data_Li4Fe3Sn5O16
_symmetry_space_group_name_H-M   'P 1'
_cell_length_a   6.17769389
_cell_length_b   6.17751837
_cell_length_c   9.88691124
_cell_angle_alpha   89.82363517
_cell_angle_beta   89.82276138
_cell_angle_gamma   59.99593099
_symmetry_Int_Tables_number   1
_chemical_formula_structural   Li4Fe3Sn5O16
_chemical_formula_sum   'Li4 Fe3 Sn5 O16'
_cell_volume   326.74664128
_cell_formula_units_Z   1
loop_
 _symmetry_equiv_pos_site_id
 _symmetry_equiv_pos_as_xyz
  1  'x, y, z'
loop_
 _atom_site_type_symbol
 _atom_site_label
 _atom_site_symmetry_multiplicity
 _atom_site_fract_x
 _atom_site_fract_y
 _atom_site_fract_z
 _atom_site_occupancy
  Li  Li0  1  0.666241  0.666239  0.103069  1
  Li  Li1  1  0.986753  0.986734  0.011177  1
  Li  Li2  1  0.992755  0.992773  0.505318  1
  Li  Li3  1  0.329217  0.329207  0.596506  1
  Fe  Fe4  1  0.831189  0.831175  0.786892  1
  Fe  Fe5  1  0.661074  0.172459  0.286390  1
  Fe  Fe6  1  0.172458  0.661081  0.286392  1
  Sn  Sn7  1  0.671751  0.671765  0.508162  1
  Sn  Sn8  1  0.341951  0.341946  0.013087  1
  Sn  Sn9  1  0.339957  0.832513  0.785702  1
  Sn  Sn10  1  0.832513  0.339954  0.785706  1
  Sn  Sn11  1  0.170607  0.170611  0.285631  1
  O  O12  1  0.324736  0.834977  0.402262  1
  O  O13  1  0.515092  0.515058  0.655389  1
  O  O14  1  0.661067  0.661084  0.901224  1
  O  O15  1  0.004837  0.004830  0.686972  1
  O  O16  1  0.998801  0.998812  0.193573  1
  O  O17  1  0.834978  0.324741  0.402263  1
  O  O18  1  0.509065  0.967357  0.653110  1
  O  O19  1  0.967344  0.509114  0.653129  1
  O  O20  1  0.164200  0.164217  0.907515  1
  O  O21  1  0.837979  0.837986  0.398534  1
  O  O22  1  0.037459  0.487017  0.157741  1
  O  O23  1  0.487012  0.037453  0.157739  1
  O  O24  1  0.336012  0.336015  0.394386  1
  O  O25  1  0.167997  0.675475  0.905284  1
  O  O26  1  0.483348  0.483343  0.164075  1
  O  O27  1  0.675493  0.167950  0.905283  1
