# generated using pymatgen
data_LuZnCuP2
_symmetry_space_group_name_H-M   'P 1'
_cell_length_a   3.93877600
_cell_length_b   3.93877593
_cell_length_c   6.45642600
_cell_angle_alpha   90.00000000
_cell_angle_beta   90.00000000
_cell_angle_gamma   120.00000055
_symmetry_Int_Tables_number   1
_chemical_formula_structural   LuZnCuP2
_chemical_formula_sum   'Lu1 Zn1 Cu1 P2'
_cell_volume   86.74518264
_cell_formula_units_Z   1
loop_
 _symmetry_equiv_pos_site_id
 _symmetry_equiv_pos_as_xyz
  1  'x, y, z'
loop_
 _atom_site_type_symbol
 _atom_site_label
 _atom_site_symmetry_multiplicity
 _atom_site_fract_x
 _atom_site_fract_y
 _atom_site_fract_z
 _atom_site_occupancy
  Lu  Lu0  1  0.000000  0.000000  0.983382  1
  Zn  Zn1  1  0.666667  0.333333  0.376061  1
  Cu  Cu2  1  0.333333  0.666667  0.642606  1
  P  P3  1  0.333333  0.666667  0.247863  1
  P  P4  1  0.666667  0.333333  0.750089  1
