# generated using pymatgen
data_Ta6Mn5Al6Pt
_symmetry_space_group_name_H-M   'P 1'
_cell_length_a   8.74529600
_cell_length_b   8.73894673
_cell_length_c   8.10427600
_cell_angle_alpha   90.00000000
_cell_angle_beta   90.00000000
_cell_angle_gamma   120.45307946
_symmetry_Int_Tables_number   1
_chemical_formula_structural   Ta6Mn5Al6Pt
_chemical_formula_sum   'Ta12 Mn10 Al12 Pt2'
_cell_volume   533.92163091
_cell_formula_units_Z   2
loop_
 _symmetry_equiv_pos_site_id
 _symmetry_equiv_pos_as_xyz
  1  'x, y, z'
loop_
 _atom_site_type_symbol
 _atom_site_label
 _atom_site_symmetry_multiplicity
 _atom_site_fract_x
 _atom_site_fract_y
 _atom_site_fract_z
 _atom_site_occupancy
  Ta  Ta0  1  0.344764  0.006937  0.060265  1
  Ta  Ta1  1  0.655236  0.993063  0.939735  1
  Ta  Ta2  1  0.003484  0.340060  0.066338  1
  Ta  Ta3  1  0.655236  0.993063  0.560265  1
  Ta  Ta4  1  0.003484  0.340060  0.433662  1
  Ta  Ta5  1  0.996516  0.659940  0.933662  1
  Ta  Ta6  1  0.344764  0.006937  0.439735  1
  Ta  Ta7  1  0.996516  0.659940  0.566338  1
  Ta  Ta8  1  0.658632  0.658745  0.060107  1
  Ta  Ta9  1  0.341368  0.341255  0.939893  1
  Ta  Ta10  1  0.341368  0.341255  0.560107  1
  Ta  Ta11  1  0.658632  0.658745  0.439893  1
  Mn  Mn12  1  0.174289  0.506835  0.750000  1
  Mn  Mn13  1  0.825711  0.493165  0.250000  1
  Mn  Mn14  1  0.493738  0.656420  0.750000  1
  Mn  Mn15  1  0.498399  0.161121  0.750000  1
  Mn  Mn16  1  0.506262  0.343580  0.250000  1
  Mn  Mn17  1  0.501601  0.838879  0.250000  1
  Mn  Mn18  1  0.340490  0.834974  0.750000  1
  Mn  Mn19  1  0.656239  0.496346  0.750000  1
  Mn  Mn20  1  0.659510  0.165026  0.250000  1
  Mn  Mn21  1  0.343761  0.503654  0.250000  1
  Al  Al22  1  0.840325  0.338746  0.750000  1
  Al  Al23  1  0.159675  0.661254  0.250000  1
  Al  Al24  1  0.337977  0.667405  0.499787  1
  Al  Al25  1  0.662023  0.332595  0.500213  1
  Al  Al26  1  0.662023  0.332595  0.999787  1
  Al  Al27  1  0.337977  0.667405  0.000213  1
  Al  Al28  1  0.179696  0.996162  0.750000  1
  Al  Al29  1  0.820304  0.003838  0.250000  1
  Al  Al30  1  0.011020  0.181677  0.750000  1
  Al  Al31  1  0.988980  0.818323  0.250000  1
  Al  Al32  1  0.817545  0.819256  0.750000  1
  Al  Al33  1  0.182455  0.180744  0.250000  1
  Pt  Pt34  1  0.000000  0.000000  0.500000  1
  Pt  Pt35  1  0.000000  0.000000  0.000000  1
