# generated using pymatgen
data_Ho3ZnCoSn3Ir
_symmetry_space_group_name_H-M   'P 1'
_cell_length_a   7.48162600
_cell_length_b   7.48162398
_cell_length_c   3.90626000
_cell_angle_alpha   90.00000000
_cell_angle_beta   90.00000000
_cell_angle_gamma   119.99999124
_symmetry_Int_Tables_number   1
_chemical_formula_structural   Ho3ZnCoSn3Ir
_chemical_formula_sum   'Ho3 Zn1 Co1 Sn3 Ir1'
_cell_volume   189.35801313
_cell_formula_units_Z   1
loop_
 _symmetry_equiv_pos_site_id
 _symmetry_equiv_pos_as_xyz
  1  'x, y, z'
loop_
 _atom_site_type_symbol
 _atom_site_label
 _atom_site_symmetry_multiplicity
 _atom_site_fract_x
 _atom_site_fract_y
 _atom_site_fract_z
 _atom_site_occupancy
  Ho  Ho0  1  0.391230  0.409476  0.500000  1
  Ho  Ho1  1  0.590524  0.981755  0.500000  1
  Ho  Ho2  1  0.018245  0.608770  0.500000  1
  Zn  Zn3  1  0.666667  0.333333  0.000000  1
  Co  Co4  1  0.000000  0.000000  0.500000  1
  Sn  Sn5  1  0.752124  0.748988  0.000000  1
  Sn  Sn6  1  0.251012  0.003137  0.000000  1
  Sn  Sn7  1  0.996863  0.247876  0.000000  1
  Ir  Ir8  1  0.333333  0.666667  0.000000  1
