# generated using pymatgen
data_KCo3IrSe8
_symmetry_space_group_name_H-M   'P 1'
_cell_length_a   3.71543201
_cell_length_b   8.26693797
_cell_length_c   9.13447977
_cell_angle_alpha   81.39254216
_cell_angle_beta   78.26566257
_cell_angle_gamma   77.01380527
_symmetry_Int_Tables_number   1
_chemical_formula_structural   KCo3IrSe8
_chemical_formula_sum   'K1 Co3 Ir1 Se8'
_cell_volume   266.08449158
_cell_formula_units_Z   1
loop_
 _symmetry_equiv_pos_site_id
 _symmetry_equiv_pos_as_xyz
  1  'x, y, z'
loop_
 _atom_site_type_symbol
 _atom_site_label
 _atom_site_symmetry_multiplicity
 _atom_site_fract_x
 _atom_site_fract_y
 _atom_site_fract_z
 _atom_site_occupancy
  K  K0  1  0.500018  0.000123  0.999840  1
  Co  Co1  1  0.835806  0.505653  0.822733  1
  Co  Co2  1  0.159557  0.505596  0.175291  1
  Co  Co3  1  0.367585  0.798595  0.466234  1
  Ir  Ir4  1  0.636172  0.193771  0.533886  1
  Se  Se5  1  0.449244  0.334350  0.767164  1
  Se  Se6  1  0.545003  0.671683  0.238310  1
  Se  Se7  1  0.893130  0.639688  0.574052  1
  Se  Se8  1  0.105877  0.366261  0.421985  1
  Se  Se9  1  0.215870  0.649975  0.918283  1
  Se  Se10  1  0.779602  0.359768  0.081030  1
  Se  Se11  1  0.836615  0.970965  0.355805  1
  Se  Se12  1  0.175521  0.003572  0.645385  1
