# generated using pymatgen
data_Pr13Th3(CdIr)4
_symmetry_space_group_name_H-M   'P 1'
_cell_length_a   10.05821144
_cell_length_b   10.05903866
_cell_length_c   10.05904000
_cell_angle_alpha   60.00000218
_cell_angle_beta   59.99728156
_cell_angle_gamma   59.99728162
_symmetry_Int_Tables_number   1
_chemical_formula_structural   Pr13Th3(CdIr)4
_chemical_formula_sum   'Pr13 Th3 Cd4 Ir4'
_cell_volume   719.61620916
_cell_formula_units_Z   1
loop_
 _symmetry_equiv_pos_site_id
 _symmetry_equiv_pos_as_xyz
  1  'x, y, z'
loop_
 _atom_site_type_symbol
 _atom_site_label
 _atom_site_symmetry_multiplicity
 _atom_site_fract_x
 _atom_site_fract_y
 _atom_site_fract_z
 _atom_site_occupancy
  Pr  Pr0  1  0.955275  0.348241  0.348241  1
  Pr  Pr1  1  0.808870  0.191600  0.191600  1
  Pr  Pr2  1  0.191569  0.808794  0.808794  1
  Pr  Pr3  1  0.191569  0.808794  0.190844  1
  Pr  Pr4  1  0.808870  0.191600  0.807929  1
  Pr  Pr5  1  0.191569  0.190844  0.808794  1
  Pr  Pr6  1  0.808870  0.807929  0.191600  1
  Pr  Pr7  1  0.937744  0.563112  0.563112  1
  Pr  Pr8  1  0.562231  0.937506  0.937506  1
  Pr  Pr9  1  0.562231  0.937506  0.562757  1
  Pr  Pr10  1  0.937744  0.563112  0.936031  1
  Pr  Pr11  1  0.562231  0.562757  0.937506  1
  Pr  Pr12  1  0.937744  0.936031  0.563112  1
  Th  Th13  1  0.343356  0.344971  0.344971  1
  Th  Th14  1  0.343356  0.344971  0.966700  1
  Th  Th15  1  0.343356  0.966700  0.344971  1
  Cd  Cd16  1  0.578456  0.579773  0.579773  1
  Cd  Cd17  1  0.578456  0.579773  0.261998  1
  Cd  Cd18  1  0.578456  0.261998  0.579773  1
  Cd  Cd19  1  0.260500  0.579833  0.579833  1
  Ir  Ir20  1  0.151373  0.140671  0.140671  1
  Ir  Ir21  1  0.151373  0.140671  0.567284  1
  Ir  Ir22  1  0.151373  0.567284  0.140671  1
  Ir  Ir23  1  0.563424  0.145525  0.145525  1
