# generated using pymatgen
data_ErTm7Mn2(B12Os)2
_symmetry_space_group_name_H-M   'P 1'
_cell_length_a   3.57454600
_cell_length_b   9.06022193
_cell_length_c   11.43286930
_cell_angle_alpha   90.04032209
_cell_angle_beta   90.00000000
_cell_angle_gamma   90.00000000
_symmetry_Int_Tables_number   1
_chemical_formula_structural   ErTm7Mn2(B12Os)2
_chemical_formula_sum   'Er1 Tm7 Mn2 B24 Os2'
_cell_volume   370.26687175
_cell_formula_units_Z   1
loop_
 _symmetry_equiv_pos_site_id
 _symmetry_equiv_pos_as_xyz
  1  'x, y, z'
loop_
 _atom_site_type_symbol
 _atom_site_label
 _atom_site_symmetry_multiplicity
 _atom_site_fract_x
 _atom_site_fract_y
 _atom_site_fract_z
 _atom_site_occupancy
  Er  Er0  1  0.000000  0.326411  0.415976  1
  Tm  Tm1  1  0.000000  0.673604  0.583962  1
  Tm  Tm2  1  0.000000  0.820109  0.087702  1
  Tm  Tm3  1  0.000000  0.179902  0.912304  1
  Tm  Tm4  1  0.000000  0.939686  0.371392  1
  Tm  Tm5  1  0.000000  0.060187  0.628665  1
  Tm  Tm6  1  0.000000  0.445935  0.131143  1
  Tm  Tm7  1  0.000000  0.554077  0.868803  1
  Mn  Mn8  1  0.000000  0.638243  0.320282  1
  Mn  Mn9  1  0.000000  0.361928  0.679765  1
  B  B10  1  0.500000  0.554002  0.432694  1
  B  B11  1  0.500000  0.446401  0.567494  1
  B  B12  1  0.500000  0.053225  0.066556  1
  B  B13  1  0.500000  0.946776  0.933444  1
  B  B14  1  0.500000  0.746329  0.418394  1
  B  B15  1  0.500000  0.253608  0.581873  1
  B  B16  1  0.500000  0.249698  0.080733  1
  B  B17  1  0.500000  0.750297  0.919252  1
  B  B18  1  0.500000  0.789851  0.266140  1
  B  B19  1  0.500000  0.210120  0.733901  1
  B  B20  1  0.500000  0.292462  0.235299  1
  B  B21  1  0.500000  0.707431  0.764483  1
  B  B22  1  0.500000  0.631330  0.186564  1
  B  B23  1  0.500000  0.368665  0.813455  1
  B  B24  1  0.500000  0.130833  0.315195  1
  B  B25  1  0.500000  0.868965  0.684678  1
  B  B26  1  0.500000  0.981021  0.212731  1
  B  B27  1  0.500000  0.018974  0.787264  1
  B  B28  1  0.500000  0.485031  0.288745  1
  B  B29  1  0.500000  0.515309  0.711129  1
  B  B30  1  0.500000  0.603337  0.028622  1
  B  B31  1  0.500000  0.396658  0.971369  1
  B  B32  1  0.500000  0.103797  0.471354  1
  B  B33  1  0.500000  0.895892  0.528721  1
  Os  Os34  1  0.000000  0.137821  0.178800  1
  Os  Os35  1  0.000000  0.862082  0.821117  1
