# generated using pymatgen
data_CaHo3Al15(SiIr2)3
_symmetry_space_group_name_H-M   'P 1'
_cell_length_a   7.53222084
_cell_length_b   7.52411773
_cell_length_c   9.34153009
_cell_angle_alpha   89.99270215
_cell_angle_beta   89.90402279
_cell_angle_gamma   119.78310963
_symmetry_Int_Tables_number   1
_chemical_formula_structural   CaHo3Al15(SiIr2)3
_chemical_formula_sum   'Ca1 Ho3 Al15 Si3 Ir6'
_cell_volume   459.48508879
_cell_formula_units_Z   1
loop_
 _symmetry_equiv_pos_site_id
 _symmetry_equiv_pos_as_xyz
  1  'x, y, z'
loop_
 _atom_site_type_symbol
 _atom_site_label
 _atom_site_symmetry_multiplicity
 _atom_site_fract_x
 _atom_site_fract_y
 _atom_site_fract_z
 _atom_site_occupancy
  Ca  Ca0  1  0.993801  0.668525  0.248137  1
  Ho  Ho1  1  0.004767  0.325212  0.754034  1
  Ho  Ho2  1  0.680003  0.001264  0.247233  1
  Ho  Ho3  1  0.324574  0.004500  0.749991  1
  Al  Al4  1  0.997927  0.668619  0.922579  1
  Al  Al5  1  0.998772  0.664124  0.575242  1
  Al  Al6  1  0.335514  0.999317  0.423955  1
  Al  Al7  1  0.002175  0.337281  0.428403  1
  Al  Al8  1  0.663379  0.999061  0.576744  1
  Al  Al9  1  0.659463  0.994085  0.921213  1
  Al  Al10  1  0.334618  0.999357  0.075895  1
  Al  Al11  1  0.336161  0.335731  0.558838  1
  Al  Al12  1  0.665391  0.665348  0.441518  1
  Al  Al13  1  0.664567  0.664882  0.059358  1
  Al  Al14  1  0.339169  0.335696  0.941363  1
  Al  Al15  1  0.335279  0.547206  0.250083  1
  Al  Al16  1  0.665475  0.450927  0.750443  1
  Al  Al17  1  0.545857  0.334621  0.250157  1
  Al  Al18  1  0.450275  0.663058  0.749582  1
  Si  Si19  1  0.132921  0.129306  0.250700  1
  Si  Si20  1  0.871520  0.872647  0.749908  1
  Si  Si21  1  0.000970  0.337900  0.072654  1
  Ir  Ir22  1  0.677703  0.327071  0.000784  1
  Ir  Ir23  1  0.321162  0.663941  0.999192  1
  Ir  Ir24  1  0.328879  0.671329  0.500399  1
  Ir  Ir25  1  0.670903  0.327349  0.500101  1
  Ir  Ir26  1  0.999147  0.009618  0.001094  1
  Ir  Ir27  1  0.999628  0.002026  0.500397  1
