# generated using pymatgen
data_TbPa2Ni3Sb4
_symmetry_space_group_name_H-M   'P 1'
_cell_length_a   8.17240678
_cell_length_b   8.17248799
_cell_length_c   8.17240719
_cell_angle_alpha   109.55532289
_cell_angle_beta   109.30407456
_cell_angle_gamma   109.55532874
_symmetry_Int_Tables_number   1
_chemical_formula_structural   TbPa2Ni3Sb4
_chemical_formula_sum   'Tb2 Pa4 Ni6 Sb8'
_cell_volume   420.16955586
_cell_formula_units_Z   2
loop_
 _symmetry_equiv_pos_site_id
 _symmetry_equiv_pos_as_xyz
  1  'x, y, z'
loop_
 _atom_site_type_symbol
 _atom_site_label
 _atom_site_symmetry_multiplicity
 _atom_site_fract_x
 _atom_site_fract_y
 _atom_site_fract_z
 _atom_site_occupancy
  Tb  Tb0  1  0.874997  0.249998  0.125001  1
  Tb  Tb1  1  0.625001  0.749998  0.374997  1
  Pa  Pa2  1  0.250002  0.126602  0.876602  1
  Pa  Pa3  1  0.749999  0.373400  0.623398  1
  Pa  Pa4  1  0.123398  0.873400  0.249999  1
  Pa  Pa5  1  0.376602  0.626602  0.750002  1
  Ni  Ni6  1  0.375000  0.250001  0.625001  1
  Ni  Ni7  1  0.125001  0.750001  0.875000  1
  Ni  Ni8  1  0.250001  0.628237  0.378237  1
  Ni  Ni9  1  0.750001  0.871762  0.121761  1
  Ni  Ni10  1  0.621761  0.371762  0.250001  1
  Ni  Ni11  1  0.878237  0.128237  0.750001  1
  Sb  Sb12  1  0.664013  0.500767  0.002051  1
  Sb  Sb13  1  0.501285  0.999237  0.663244  1
  Sb  Sb14  1  0.998712  0.661959  0.497949  1
  Sb  Sb15  1  0.835989  0.838038  0.836756  1
  Sb  Sb16  1  0.502051  0.000767  0.164013  1
  Sb  Sb17  1  0.163244  0.499237  0.001285  1
  Sb  Sb18  1  0.997949  0.161959  0.498712  1
  Sb  Sb19  1  0.336756  0.338038  0.335989  1
