# generated using pymatgen
data_Ho10ZnSn6Ge
_symmetry_space_group_name_H-M   'P 1'
_cell_length_a   9.13797800
_cell_length_b   9.13797706
_cell_length_c   6.55565000
_cell_angle_alpha   90.00000000
_cell_angle_beta   90.00000000
_cell_angle_gamma   120.00000341
_symmetry_Int_Tables_number   1
_chemical_formula_structural   Ho10ZnSn6Ge
_chemical_formula_sum   'Ho10 Zn1 Sn6 Ge1'
_cell_volume   474.07444715
_cell_formula_units_Z   1
loop_
 _symmetry_equiv_pos_site_id
 _symmetry_equiv_pos_as_xyz
  1  'x, y, z'
loop_
 _atom_site_type_symbol
 _atom_site_label
 _atom_site_symmetry_multiplicity
 _atom_site_fract_x
 _atom_site_fract_y
 _atom_site_fract_z
 _atom_site_occupancy
  Ho  Ho0  1  0.666667  0.333333  0.000000  1
  Ho  Ho1  1  0.333333  0.666667  0.000000  1
  Ho  Ho2  1  0.333333  0.666667  0.500000  1
  Ho  Ho3  1  0.666667  0.333333  0.500000  1
  Ho  Ho4  1  0.740213  0.740213  0.761925  1
  Ho  Ho5  1  0.259787  0.000000  0.761925  1
  Ho  Ho6  1  0.000000  0.259787  0.761925  1
  Ho  Ho7  1  0.259787  0.259787  0.238075  1
  Ho  Ho8  1  0.740213  0.000000  0.238075  1
  Ho  Ho9  1  0.000000  0.740213  0.238075  1
  Zn  Zn10  1  0.000000  0.000000  0.500000  1
  Sn  Sn11  1  0.388260  0.388260  0.750251  1
  Sn  Sn12  1  0.611740  0.000000  0.750251  1
  Sn  Sn13  1  0.000000  0.611740  0.750251  1
  Sn  Sn14  1  0.611740  0.611740  0.249749  1
  Sn  Sn15  1  0.388260  0.000000  0.249749  1
  Sn  Sn16  1  0.000000  0.388260  0.249749  1
  Ge  Ge17  1  0.000000  0.000000  0.000000  1
