# generated using pymatgen
data_Ce5(Hg2Pt)2
_symmetry_space_group_name_H-M   'P 1'
_cell_length_a   3.69459900
_cell_length_b   8.14283200
_cell_length_c   18.58684800
_cell_angle_alpha   90.00000000
_cell_angle_beta   90.00000000
_cell_angle_gamma   90.00000000
_symmetry_Int_Tables_number   1
_chemical_formula_structural   Ce5(Hg2Pt)2
_chemical_formula_sum   'Ce10 Hg8 Pt4'
_cell_volume   559.17600941
_cell_formula_units_Z   2
loop_
 _symmetry_equiv_pos_site_id
 _symmetry_equiv_pos_as_xyz
  1  'x, y, z'
loop_
 _atom_site_type_symbol
 _atom_site_label
 _atom_site_symmetry_multiplicity
 _atom_site_fract_x
 _atom_site_fract_y
 _atom_site_fract_z
 _atom_site_occupancy
  Ce  Ce0  1  0.000000  0.129329  0.421248  1
  Ce  Ce1  1  0.000000  0.870671  0.578752  1
  Ce  Ce2  1  0.000000  0.370671  0.921248  1
  Ce  Ce3  1  0.000000  0.629329  0.078752  1
  Ce  Ce4  1  0.000000  0.243538  0.219465  1
  Ce  Ce5  1  0.000000  0.756462  0.780535  1
  Ce  Ce6  1  0.000000  0.256462  0.719465  1
  Ce  Ce7  1  0.000000  0.743538  0.280535  1
  Ce  Ce8  1  0.000000  0.000000  0.000000  1
  Ce  Ce9  1  0.000000  0.500000  0.500000  1
  Hg  Hg10  1  0.500000  0.428628  0.351647  1
  Hg  Hg11  1  0.500000  0.571372  0.648353  1
  Hg  Hg12  1  0.500000  0.071372  0.851647  1
  Hg  Hg13  1  0.500000  0.928628  0.148353  1
  Hg  Hg14  1  0.500000  0.291107  0.069009  1
  Hg  Hg15  1  0.500000  0.708893  0.930991  1
  Hg  Hg16  1  0.500000  0.208893  0.569009  1
  Hg  Hg17  1  0.500000  0.791107  0.430991  1
  Pt  Pt18  1  0.500000  0.031202  0.304969  1
  Pt  Pt19  1  0.500000  0.968798  0.695031  1
  Pt  Pt20  1  0.500000  0.468798  0.804969  1
  Pt  Pt21  1  0.500000  0.531202  0.195031  1
