# generated using pymatgen
data_La4Sn8IrRh3
_symmetry_space_group_name_H-M   'P 1'
_cell_length_a   8.90820873
_cell_length_b   8.90820940
_cell_length_c   9.76629340
_cell_angle_alpha   90.09262532
_cell_angle_beta   89.90737564
_cell_angle_gamma   149.31178860
_symmetry_Int_Tables_number   1
_chemical_formula_structural   La4Sn8IrRh3
_chemical_formula_sum   'La4 Sn8 Ir1 Rh3'
_cell_volume   395.54116367
_cell_formula_units_Z   1
loop_
 _symmetry_equiv_pos_site_id
 _symmetry_equiv_pos_as_xyz
  1  'x, y, z'
loop_
 _atom_site_type_symbol
 _atom_site_label
 _atom_site_symmetry_multiplicity
 _atom_site_fract_x
 _atom_site_fract_y
 _atom_site_fract_z
 _atom_site_occupancy
  La  La0  1  0.500618  0.499382  0.499847  1
  La  La1  1  0.499941  0.500059  0.000231  1
  La  La2  1  0.296449  0.703551  0.250043  1
  La  La3  1  0.703259  0.296741  0.749481  1
  Sn  Sn4  1  0.907990  0.092010  0.750055  1
  Sn  Sn5  1  0.925722  0.074278  0.249706  1
  Sn  Sn6  1  0.091423  0.908577  0.249582  1
  Sn  Sn7  1  0.074130  0.925870  0.750323  1
  Sn  Sn8  1  0.697965  0.302035  0.409999  1
  Sn  Sn9  1  0.302600  0.697400  0.590026  1
  Sn  Sn10  1  0.302620  0.697380  0.909795  1
  Sn  Sn11  1  0.697413  0.302587  0.090043  1
  Ir  Ir12  1  0.146649  0.853351  0.505323  1
  Rh  Rh13  1  0.853225  0.146775  0.004493  1
  Rh  Rh14  1  0.146819  0.853181  0.995270  1
  Rh  Rh15  1  0.853179  0.146821  0.495782  1
