# generated using pymatgen
data_Y2TiIr3
_symmetry_space_group_name_H-M   'P 1'
_cell_length_a   5.20350926
_cell_length_b   5.62240715
_cell_length_c   5.62240800
_cell_angle_alpha   59.99999498
_cell_angle_beta   57.29923470
_cell_angle_gamma   57.29923962
_symmetry_Int_Tables_number   1
_chemical_formula_structural   Y2TiIr3
_chemical_formula_sum   'Y2 Ti1 Ir3'
_cell_volume   111.33572011
_cell_formula_units_Z   1
loop_
 _symmetry_equiv_pos_site_id
 _symmetry_equiv_pos_as_xyz
  1  'x, y, z'
loop_
 _atom_site_type_symbol
 _atom_site_label
 _atom_site_symmetry_multiplicity
 _atom_site_fract_x
 _atom_site_fract_y
 _atom_site_fract_z
 _atom_site_occupancy
  Y  Y0  1  0.505227  0.498258  0.498258  1
  Y  Y1  1  0.744773  0.751742  0.751742  1
  Ti  Ti2  1  0.625000  0.125000  0.125000  1
  Ir  Ir3  1  0.125000  0.125000  0.125000  1
  Ir  Ir4  1  0.125000  0.125000  0.625000  1
  Ir  Ir5  1  0.125000  0.625000  0.125000  1
