# generated using pymatgen
data_Dy5Co16Si5P7W3
_symmetry_space_group_name_H-M   'P 1'
_cell_length_a   12.18289681
_cell_length_b   12.20307038
_cell_length_c   3.71780400
_cell_angle_alpha   90.00000000
_cell_angle_beta   90.00000000
_cell_angle_gamma   120.00770069
_symmetry_Int_Tables_number   1
_chemical_formula_structural   Dy5Co16Si5P7W3
_chemical_formula_sum   'Dy5 Co16 Si5 P7 W3'
_cell_volume   478.63350717
_cell_formula_units_Z   1
loop_
 _symmetry_equiv_pos_site_id
 _symmetry_equiv_pos_as_xyz
  1  'x, y, z'
loop_
 _atom_site_type_symbol
 _atom_site_label
 _atom_site_symmetry_multiplicity
 _atom_site_fract_x
 _atom_site_fract_y
 _atom_site_fract_z
 _atom_site_occupancy
  Dy  Dy0  1  0.666913  0.333783  0.000000  1
  Dy  Dy1  1  0.330937  0.664038  0.000000  1
  Dy  Dy2  1  0.184397  0.183650  0.500000  1
  Dy  Dy3  1  0.815916  0.000176  0.500000  1
  Dy  Dy4  1  0.000104  0.814947  0.500000  1
  Co  Co5  1  0.824565  0.195614  0.000000  1
  Co  Co6  1  0.805135  0.628263  0.000000  1
  Co  Co7  1  0.371217  0.176785  0.000000  1
  Co  Co8  1  0.194396  0.821635  0.000000  1
  Co  Co9  1  0.628414  0.805602  0.000000  1
  Co  Co10  1  0.176698  0.373924  0.000000  1
  Co  Co11  1  0.646234  0.122265  0.500000  1
  Co  Co12  1  0.879183  0.523920  0.500000  1
  Co  Co13  1  0.474842  0.354524  0.500000  1
  Co  Co14  1  0.124245  0.642203  0.500000  1
  Co  Co15  1  0.524019  0.878316  0.500000  1
  Co  Co16  1  0.350654  0.477153  0.500000  1
  Co  Co17  1  0.722668  0.722613  0.500000  1
  Co  Co18  1  0.276925  0.999488  0.500000  1
  Co  Co19  1  0.003433  0.280835  0.500000  1
  Co  Co20  1  0.000005  0.000390  0.000000  1
  Si  Si21  1  0.834150  0.313852  0.500000  1
  Si  Si22  1  0.686295  0.520470  0.500000  1
  Si  Si23  1  0.479596  0.166362  0.500000  1
  Si  Si24  1  0.313919  0.833800  0.500000  1
  Si  Si25  1  0.520378  0.686910  0.500000  1
  P  P26  1  0.360126  0.360185  0.000000  1
  P  P27  1  0.639552  0.000084  0.000000  1
  P  P28  1  0.999592  0.639013  0.000000  1
  P  P29  1  0.165602  0.479023  0.500000  1
  P  P30  1  0.820094  0.819985  0.000000  1
  P  P31  1  0.179504  0.999197  0.000000  1
  P  P32  1  0.000424  0.179867  0.000000  1
  W  W33  1  0.556689  0.557428  0.000000  1
  W  W34  1  0.442136  0.000076  0.000000  1
  W  W35  1  0.001042  0.443623  0.000000  1
