# generated using pymatgen
data_TbY5Al20(SiOs2)4
_symmetry_space_group_name_H-M   'P 1'
_cell_length_a   8.70479200
_cell_length_b   8.70479149
_cell_length_c   9.64831800
_cell_angle_alpha   90.00000000
_cell_angle_beta   90.00000000
_cell_angle_gamma   119.99999432
_symmetry_Int_Tables_number   1
_chemical_formula_structural   TbY5Al20(SiOs2)4
_chemical_formula_sum   'Tb1 Y5 Al20 Si4 Os8'
_cell_volume   633.13895725
_cell_formula_units_Z   1
loop_
 _symmetry_equiv_pos_site_id
 _symmetry_equiv_pos_as_xyz
  1  'x, y, z'
loop_
 _atom_site_type_symbol
 _atom_site_label
 _atom_site_symmetry_multiplicity
 _atom_site_fract_x
 _atom_site_fract_y
 _atom_site_fract_z
 _atom_site_occupancy
  Tb  Tb0  1  0.804784  0.195216  0.750000  1
  Y  Y1  1  0.195216  0.390432  0.250000  1
  Y  Y2  1  0.804784  0.609568  0.750000  1
  Y  Y3  1  0.609568  0.804784  0.250000  1
  Y  Y4  1  0.390432  0.195216  0.750000  1
  Y  Y5  1  0.195216  0.804784  0.250000  1
  Al  Al6  1  0.164894  0.329787  0.576819  1
  Al  Al7  1  0.835106  0.670213  0.423181  1
  Al  Al8  1  0.670213  0.835106  0.576819  1
  Al  Al9  1  0.835106  0.670213  0.076819  1
  Al  Al10  1  0.329787  0.164894  0.423181  1
  Al  Al11  1  0.164894  0.329787  0.923181  1
  Al  Al12  1  0.164894  0.835106  0.576819  1
  Al  Al13  1  0.329787  0.164894  0.076819  1
  Al  Al14  1  0.835106  0.164894  0.423181  1
  Al  Al15  1  0.670213  0.835106  0.923181  1
  Al  Al16  1  0.835106  0.164894  0.076819  1
  Al  Al17  1  0.164894  0.835106  0.923181  1
  Al  Al18  1  0.563837  0.127675  0.250000  1
  Al  Al19  1  0.436163  0.872325  0.750000  1
  Al  Al20  1  0.872325  0.436163  0.250000  1
  Al  Al21  1  0.127675  0.563837  0.750000  1
  Al  Al22  1  0.563837  0.436163  0.250000  1
  Al  Al23  1  0.436163  0.563837  0.750000  1
  Al  Al24  1  0.000000  0.000000  0.250000  1
  Al  Al25  1  0.000000  0.000000  0.750000  1
  Si  Si26  1  0.333333  0.666667  0.037231  1
  Si  Si27  1  0.666667  0.333333  0.962769  1
  Si  Si28  1  0.666667  0.333333  0.537231  1
  Si  Si29  1  0.333333  0.666667  0.462769  1
  Os  Os30  1  0.500000  0.000000  0.000000  1
  Os  Os31  1  0.000000  0.500000  0.000000  1
  Os  Os32  1  0.500000  0.000000  0.500000  1
  Os  Os33  1  0.500000  0.500000  0.000000  1
  Os  Os34  1  0.000000  0.500000  0.500000  1
  Os  Os35  1  0.500000  0.500000  0.500000  1
  Os  Os36  1  0.000000  0.000000  0.000000  1
  Os  Os37  1  0.000000  0.000000  0.500000  1
