# generated using pymatgen
data_Nd6Dy10MgCd3Ir4
_symmetry_space_group_name_H-M   'P 1'
_cell_length_a   9.77361789
_cell_length_b   9.77361832
_cell_length_c   9.77361770
_cell_angle_alpha   59.94486865
_cell_angle_beta   59.94486821
_cell_angle_gamma   59.94486831
_symmetry_Int_Tables_number   1
_chemical_formula_structural   Nd6Dy10MgCd3Ir4
_chemical_formula_sum   'Nd6 Dy10 Mg1 Cd3 Ir4'
_cell_volume   659.33737849
_cell_formula_units_Z   1
loop_
 _symmetry_equiv_pos_site_id
 _symmetry_equiv_pos_as_xyz
  1  'x, y, z'
loop_
 _atom_site_type_symbol
 _atom_site_label
 _atom_site_symmetry_multiplicity
 _atom_site_fract_x
 _atom_site_fract_y
 _atom_site_fract_z
 _atom_site_occupancy
  Nd  Nd0  1  0.940843  0.560020  0.560020  1
  Nd  Nd1  1  0.558866  0.940941  0.940941  1
  Nd  Nd2  1  0.560020  0.940843  0.560020  1
  Nd  Nd3  1  0.940941  0.558866  0.940941  1
  Nd  Nd4  1  0.560020  0.560020  0.940843  1
  Nd  Nd5  1  0.940941  0.940941  0.558866  1
  Dy  Dy6  1  0.347274  0.347274  0.347274  1
  Dy  Dy7  1  0.347205  0.347205  0.958920  1
  Dy  Dy8  1  0.347205  0.958920  0.347205  1
  Dy  Dy9  1  0.958920  0.347205  0.347205  1
  Dy  Dy10  1  0.811441  0.187930  0.187930  1
  Dy  Dy11  1  0.185674  0.813323  0.813323  1
  Dy  Dy12  1  0.187930  0.811441  0.187930  1
  Dy  Dy13  1  0.813323  0.185674  0.813323  1
  Dy  Dy14  1  0.187930  0.187930  0.811441  1
  Dy  Dy15  1  0.813323  0.813323  0.185674  1
  Mg  Mg16  1  0.576101  0.576101  0.576101  1
  Cd  Cd17  1  0.579952  0.579952  0.260681  1
  Cd  Cd18  1  0.579952  0.260681  0.579952  1
  Cd  Cd19  1  0.260681  0.579952  0.579952  1
  Ir  Ir20  1  0.141254  0.141254  0.141254  1
  Ir  Ir21  1  0.142089  0.142089  0.576026  1
  Ir  Ir22  1  0.142089  0.576026  0.142089  1
  Ir  Ir23  1  0.576026  0.142089  0.142089  1
