# generated using pymatgen
data_Tb2CuSi2Ru
_symmetry_space_group_name_H-M   'P 1'
_cell_length_a   4.24999100
_cell_length_b   7.01714187
_cell_length_c   7.33359171
_cell_angle_alpha   91.57654018
_cell_angle_beta   90.00000000
_cell_angle_gamma   90.00000000
_symmetry_Int_Tables_number   1
_chemical_formula_structural   Tb2CuSi2Ru
_chemical_formula_sum   'Tb4 Cu2 Si4 Ru2'
_cell_volume   218.62537503
_cell_formula_units_Z   2
loop_
 _symmetry_equiv_pos_site_id
 _symmetry_equiv_pos_as_xyz
  1  'x, y, z'
loop_
 _atom_site_type_symbol
 _atom_site_label
 _atom_site_symmetry_multiplicity
 _atom_site_fract_x
 _atom_site_fract_y
 _atom_site_fract_z
 _atom_site_occupancy
  Tb  Tb0  1  0.250000  0.990080  0.797892  1
  Tb  Tb1  1  0.750000  0.009920  0.202108  1
  Tb  Tb2  1  0.250000  0.489799  0.685643  1
  Tb  Tb3  1  0.750000  0.510201  0.314357  1
  Cu  Cu4  1  0.750000  0.836050  0.573016  1
  Cu  Cu5  1  0.250000  0.163950  0.426984  1
  Si  Si6  1  0.250000  0.301472  0.089167  1
  Si  Si7  1  0.750000  0.698528  0.910833  1
  Si  Si8  1  0.250000  0.798867  0.387351  1
  Si  Si9  1  0.750000  0.201133  0.612649  1
  Ru  Ru10  1  0.750000  0.348638  0.934143  1
  Ru  Ru11  1  0.250000  0.651362  0.065857  1
