# generated using pymatgen
data_Nd6IrPd5Au2
_symmetry_space_group_name_H-M   'P 1'
_cell_length_a   8.26083436
_cell_length_b   8.16496641
_cell_length_c   8.21478246
_cell_angle_alpha   114.27289204
_cell_angle_beta   114.75147266
_cell_angle_gamma   114.29088931
_symmetry_Int_Tables_number   1
_chemical_formula_structural   Nd6IrPd5Au2
_chemical_formula_sum   'Nd6 Ir1 Pd5 Au2'
_cell_volume   325.39589806
_cell_formula_units_Z   1
loop_
 _symmetry_equiv_pos_site_id
 _symmetry_equiv_pos_as_xyz
  1  'x, y, z'
loop_
 _atom_site_type_symbol
 _atom_site_label
 _atom_site_symmetry_multiplicity
 _atom_site_fract_x
 _atom_site_fract_y
 _atom_site_fract_z
 _atom_site_occupancy
  Nd  Nd0  1  0.973886  0.598802  0.725224  1
  Nd  Nd1  1  0.727819  0.982475  0.605320  1
  Nd  Nd2  1  0.605474  0.721128  0.976751  1
  Nd  Nd3  1  0.027181  0.390205  0.271350  1
  Nd  Nd4  1  0.277867  0.030476  0.391218  1
  Nd  Nd5  1  0.380557  0.270659  0.027518  1
  Ir  Ir6  1  0.989818  0.990108  0.991362  1
  Pd  Pd7  1  0.503674  0.505389  0.505452  1
  Pd  Pd8  1  0.779152  0.440276  0.937249  1
  Pd  Pd9  1  0.062441  0.226315  0.560447  1
  Pd  Pd10  1  0.562535  0.059897  0.225030  1
  Pd  Pd11  1  0.228049  0.564743  0.067085  1
  Au  Au12  1  0.935673  0.773577  0.435307  1
  Au  Au13  1  0.445874  0.945950  0.780685  1
