# generated using pymatgen
data_Ta4Mn2Al4VCu
_symmetry_space_group_name_H-M   'P 1'
_cell_length_a   4.92938829
_cell_length_b   4.92835754
_cell_length_c   8.24782900
_cell_angle_alpha   90.00000000
_cell_angle_beta   90.00000000
_cell_angle_gamma   61.29071038
_symmetry_Int_Tables_number   1
_chemical_formula_structural   Ta4Mn2Al4VCu
_chemical_formula_sum   'Ta4 Mn2 Al4 V1 Cu1'
_cell_volume   175.73905824
_cell_formula_units_Z   1
loop_
 _symmetry_equiv_pos_site_id
 _symmetry_equiv_pos_as_xyz
  1  'x, y, z'
loop_
 _atom_site_type_symbol
 _atom_site_label
 _atom_site_symmetry_multiplicity
 _atom_site_fract_x
 _atom_site_fract_y
 _atom_site_fract_z
 _atom_site_occupancy
  Ta  Ta0  1  0.334751  0.334824  0.553175  1
  Ta  Ta1  1  0.663403  0.663442  0.431089  1
  Ta  Ta2  1  0.663403  0.663442  0.068911  1
  Ta  Ta3  1  0.334751  0.334824  0.946825  1
  Mn  Mn4  1  0.168499  0.654994  0.250000  1
  Mn  Mn5  1  0.654819  0.168528  0.250000  1
  Al  Al6  1  0.991413  0.991169  0.494692  1
  Al  Al7  1  0.991413  0.991169  0.005308  1
  Al  Al8  1  0.835123  0.349619  0.750000  1
  Al  Al9  1  0.349616  0.835123  0.750000  1
  V  V10  1  0.175594  0.175653  0.250000  1
  Cu  Cu11  1  0.837215  0.837214  0.750000  1
