# generated using pymatgen
data_Er12TcOs2Pt
_symmetry_space_group_name_H-M   'P 1'
_cell_length_a   6.32733823
_cell_length_b   7.30193788
_cell_length_c   9.00366400
_cell_angle_alpha   90.00000000
_cell_angle_beta   90.00000000
_cell_angle_gamma   90.24321137
_symmetry_Int_Tables_number   1
_chemical_formula_structural   Er12TcOs2Pt
_chemical_formula_sum   'Er12 Tc1 Os2 Pt1'
_cell_volume   415.98201223
_cell_formula_units_Z   1
loop_
 _symmetry_equiv_pos_site_id
 _symmetry_equiv_pos_as_xyz
  1  'x, y, z'
loop_
 _atom_site_type_symbol
 _atom_site_label
 _atom_site_symmetry_multiplicity
 _atom_site_fract_x
 _atom_site_fract_y
 _atom_site_fract_z
 _atom_site_occupancy
  Er  Er0  1  0.335204  0.671918  0.059629  1
  Er  Er1  1  0.170890  0.181329  0.440525  1
  Er  Er2  1  0.669670  0.323499  0.562306  1
  Er  Er3  1  0.825120  0.823732  0.933543  1
  Er  Er4  1  0.669670  0.323499  0.937694  1
  Er  Er5  1  0.825120  0.823732  0.566457  1
  Er  Er6  1  0.335204  0.671918  0.440371  1
  Er  Er7  1  0.170890  0.181329  0.059475  1
  Er  Er8  1  0.873498  0.533867  0.250000  1
  Er  Er9  1  0.624338  0.039552  0.250000  1
  Er  Er10  1  0.125862  0.463042  0.750000  1
  Er  Er11  1  0.370862  0.961406  0.750000  1
  Tc  Tc12  1  0.965005  0.114144  0.750000  1
  Os  Os13  1  0.461843  0.384777  0.250000  1
  Os  Os14  1  0.533909  0.616100  0.750000  1
  Pt  Pt15  1  0.042917  0.886156  0.250000  1
