# generated using pymatgen
data_Th2Co4SiGeP2
_symmetry_space_group_name_H-M   'P 1'
_cell_length_a   4.01205700
_cell_length_b   4.01205700
_cell_length_c   9.54957000
_cell_angle_alpha   90.00000000
_cell_angle_beta   90.00000000
_cell_angle_gamma   90.00000000
_symmetry_Int_Tables_number   1
_chemical_formula_structural   Th2Co4SiGeP2
_chemical_formula_sum   'Th2 Co4 Si1 Ge1 P2'
_cell_volume   153.71562156
_cell_formula_units_Z   1
loop_
 _symmetry_equiv_pos_site_id
 _symmetry_equiv_pos_as_xyz
  1  'x, y, z'
loop_
 _atom_site_type_symbol
 _atom_site_label
 _atom_site_symmetry_multiplicity
 _atom_site_fract_x
 _atom_site_fract_y
 _atom_site_fract_z
 _atom_site_occupancy
  Th  Th0  1  0.000000  0.500000  0.243037  1
  Th  Th1  1  0.500000  0.000000  0.756963  1
  Co  Co2  1  0.000000  0.000000  0.000000  1
  Co  Co3  1  0.500000  0.500000  0.000000  1
  Co  Co4  1  0.000000  0.500000  0.634123  1
  Co  Co5  1  0.500000  0.000000  0.365877  1
  Si  Si6  1  0.500000  0.500000  0.500000  1
  Ge  Ge7  1  0.000000  0.000000  0.500000  1
  P  P8  1  0.000000  0.500000  0.872948  1
  P  P9  1  0.500000  0.000000  0.127052  1
