# generated using pymatgen
data_Na3Yb3GaP4
_symmetry_space_group_name_H-M   'P 1'
_cell_length_a   9.15090800
_cell_length_b   9.15090768
_cell_length_c   6.97855500
_cell_angle_alpha   90.00000000
_cell_angle_beta   90.00000000
_cell_angle_gamma   119.99999394
_symmetry_Int_Tables_number   1
_chemical_formula_structural   Na3Yb3GaP4
_chemical_formula_sum   'Na6 Yb6 Ga2 P8'
_cell_volume   506.08623695
_cell_formula_units_Z   2
loop_
 _symmetry_equiv_pos_site_id
 _symmetry_equiv_pos_as_xyz
  1  'x, y, z'
loop_
 _atom_site_type_symbol
 _atom_site_label
 _atom_site_symmetry_multiplicity
 _atom_site_fract_x
 _atom_site_fract_y
 _atom_site_fract_z
 _atom_site_occupancy
  Na  Na0  1  0.135947  0.864053  0.171273  1
  Na  Na1  1  0.271892  0.135947  0.671273  1
  Na  Na2  1  0.864053  0.728108  0.671273  1
  Na  Na3  1  0.135947  0.271892  0.171273  1
  Na  Na4  1  0.728108  0.864053  0.171273  1
  Na  Na5  1  0.864053  0.135947  0.671273  1
  Yb  Yb6  1  0.952824  0.476412  0.000380  1
  Yb  Yb7  1  0.523588  0.047176  0.000380  1
  Yb  Yb8  1  0.476412  0.952824  0.500380  1
  Yb  Yb9  1  0.047176  0.523588  0.500380  1
  Yb  Yb10  1  0.523588  0.476412  0.000380  1
  Yb  Yb11  1  0.476412  0.523588  0.500380  1
  Ga  Ga12  1  0.666667  0.333333  0.377848  1
  Ga  Ga13  1  0.333333  0.666667  0.877848  1
  P  P14  1  0.333333  0.666667  0.230867  1
  P  P15  1  0.809331  0.190669  0.271442  1
  P  P16  1  0.618662  0.809331  0.771442  1
  P  P17  1  0.190669  0.381338  0.771442  1
  P  P18  1  0.809331  0.618662  0.271442  1
  P  P19  1  0.666667  0.333333  0.730867  1
  P  P20  1  0.381338  0.190669  0.271442  1
  P  P21  1  0.190669  0.809331  0.771442  1
