# generated using pymatgen
data_Ba(Ge3N4)2
_symmetry_space_group_name_H-M   'P 1'
_cell_length_a   5.15826958
_cell_length_b   6.97383327
_cell_length_c   6.97383234
_cell_angle_alpha   89.97936270
_cell_angle_beta   111.70514821
_cell_angle_gamma   111.70514579
_symmetry_Int_Tables_number   1
_chemical_formula_structural   Ba(Ge3N4)2
_chemical_formula_sum   'Ba1 Ge6 N8'
_cell_volume   213.83546546
_cell_formula_units_Z   1
loop_
 _symmetry_equiv_pos_site_id
 _symmetry_equiv_pos_as_xyz
  1  'x, y, z'
loop_
 _atom_site_type_symbol
 _atom_site_label
 _atom_site_symmetry_multiplicity
 _atom_site_fract_x
 _atom_site_fract_y
 _atom_site_fract_z
 _atom_site_occupancy
  Ba  Ba0  1  0.166433  0.500000  0.500000  1
  Ge  Ge1  1  0.350188  0.362896  0.044670  1
  Ge  Ge2  1  0.637211  0.874356  0.125645  1
  Ge  Ge3  1  0.350188  0.044670  0.362896  1
  Ge  Ge4  1  0.942623  0.955331  0.637105  1
  Ge  Ge5  1  0.637211  0.125645  0.874356  1
  Ge  Ge6  1  0.942623  0.637105  0.955331  1
  N  N7  1  0.603878  0.620940  0.008080  1
  N  N8  1  0.296030  0.810001  0.189999  1
  N  N9  1  0.523643  0.299246  0.299246  1
  N  N10  1  0.974858  0.991919  0.379060  1
  N  N11  1  0.603878  0.008080  0.620940  1
  N  N12  1  0.925152  0.700755  0.700755  1
  N  N13  1  0.296030  0.189999  0.810001  1
  N  N14  1  0.974858  0.379060  0.991919  1
