# generated using pymatgen
data_Ho8Zn3Si12Ag
_symmetry_space_group_name_H-M   'P 1'
_cell_length_a   8.14103300
_cell_length_b   8.14103241
_cell_length_c   7.97369300
_cell_angle_alpha   90.00000000
_cell_angle_beta   90.00000000
_cell_angle_gamma   119.99999833
_symmetry_Int_Tables_number   1
_chemical_formula_structural   Ho8Zn3Si12Ag
_chemical_formula_sum   'Ho8 Zn3 Si12 Ag1'
_cell_volume   457.66652551
_cell_formula_units_Z   1
loop_
 _symmetry_equiv_pos_site_id
 _symmetry_equiv_pos_as_xyz
  1  'x, y, z'
loop_
 _atom_site_type_symbol
 _atom_site_label
 _atom_site_symmetry_multiplicity
 _atom_site_fract_x
 _atom_site_fract_y
 _atom_site_fract_z
 _atom_site_occupancy
  Ho  Ho0  1  0.502627  0.005251  0.248006  1
  Ho  Ho1  1  0.500461  0.000922  0.752001  1
  Ho  Ho2  1  0.994749  0.497373  0.248006  1
  Ho  Ho3  1  0.999078  0.499539  0.752001  1
  Ho  Ho4  1  0.502627  0.497373  0.248006  1
  Ho  Ho5  1  0.500461  0.499539  0.752001  1
  Ho  Ho6  1  0.000000  0.000000  0.249283  1
  Ho  Ho7  1  0.000000  0.000000  0.750612  1
  Zn  Zn8  1  0.333333  0.666667  0.006650  1
  Zn  Zn9  1  0.666667  0.333333  0.993822  1
  Zn  Zn10  1  0.666667  0.333333  0.502394  1
  Si  Si11  1  0.166075  0.332149  0.998646  1
  Si  Si12  1  0.832974  0.665950  0.001292  1
  Si  Si13  1  0.667851  0.833925  0.998646  1
  Si  Si14  1  0.833419  0.666839  0.501479  1
  Si  Si15  1  0.334050  0.167026  0.001292  1
  Si  Si16  1  0.163363  0.326725  0.498448  1
  Si  Si17  1  0.166075  0.833925  0.998646  1
  Si  Si18  1  0.333161  0.166581  0.501479  1
  Si  Si19  1  0.832974  0.167026  0.001292  1
  Si  Si20  1  0.673275  0.836637  0.498448  1
  Si  Si21  1  0.833419  0.166581  0.501479  1
  Si  Si22  1  0.163363  0.836637  0.498448  1
  Ag  Ag23  1  0.333333  0.666667  0.497621  1
