# generated using pymatgen
data_LaAl2ZnCu2
_symmetry_space_group_name_H-M   'P 1'
_cell_length_a   5.39394494
_cell_length_b   5.39394455
_cell_length_c   4.17913600
_cell_angle_alpha   90.00000000
_cell_angle_beta   90.00000000
_cell_angle_gamma   120.13154174
_symmetry_Int_Tables_number   1
_chemical_formula_structural   LaAl2ZnCu2
_chemical_formula_sum   'La1 Al2 Zn1 Cu2'
_cell_volume   105.16057137
_cell_formula_units_Z   1
loop_
 _symmetry_equiv_pos_site_id
 _symmetry_equiv_pos_as_xyz
  1  'x, y, z'
loop_
 _atom_site_type_symbol
 _atom_site_label
 _atom_site_symmetry_multiplicity
 _atom_site_fract_x
 _atom_site_fract_y
 _atom_site_fract_z
 _atom_site_occupancy
  La  La0  1  0.000000  0.000000  0.000000  1
  Al  Al1  1  0.500000  0.000000  0.500000  1
  Al  Al2  1  0.000000  0.500000  0.500000  1
  Zn  Zn3  1  0.500000  0.500000  0.500000  1
  Cu  Cu4  1  0.667166  0.332834  0.000000  1
  Cu  Cu5  1  0.332834  0.667166  0.000000  1
