# generated using pymatgen
data_Nb3Si3Os2W
_symmetry_space_group_name_H-M   'P 1'
_cell_length_a   7.54692351
_cell_length_b   7.54692382
_cell_length_c   7.54692426
_cell_angle_alpha   126.97697315
_cell_angle_beta   124.07385425
_cell_angle_gamma   80.69121399
_symmetry_Int_Tables_number   1
_chemical_formula_structural   Nb3Si3Os2W
_chemical_formula_sum   'Nb6 Si6 Os4 W2'
_cell_volume   274.28186450
_cell_formula_units_Z   2
loop_
 _symmetry_equiv_pos_site_id
 _symmetry_equiv_pos_as_xyz
  1  'x, y, z'
loop_
 _atom_site_type_symbol
 _atom_site_label
 _atom_site_symmetry_multiplicity
 _atom_site_fract_x
 _atom_site_fract_y
 _atom_site_fract_z
 _atom_site_occupancy
  Nb  Nb0  1  0.558340  0.092722  0.034382  1
  Nb  Nb1  1  0.441660  0.476042  0.534382  1
  Nb  Nb2  1  0.960303  0.490693  0.030389  1
  Nb  Nb3  1  0.039697  0.070086  0.530389  1
  Nb  Nb4  1  0.752790  0.921272  0.668483  1
  Nb  Nb5  1  0.247210  0.915693  0.168483  1
  Si  Si6  1  0.780423  0.552802  0.272380  1
  Si  Si7  1  0.219577  0.491958  0.772380  1
  Si  Si8  1  0.334429  0.818255  0.492337  1
  Si  Si9  1  0.665571  0.157906  0.483824  1
  Si  Si10  1  0.825919  0.818255  0.983824  1
  Si  Si11  1  0.174081  0.157906  0.992337  1
  Os  Os12  1  0.162952  0.747018  0.656046  1
  Os  Os13  1  0.837048  0.493096  0.584067  1
  Os  Os14  1  0.590972  0.747018  0.084067  1
  Os  Os15  1  0.409028  0.493096  0.156046  1
  W  W16  1  0.500000  0.249191  0.749191  1
  W  W17  1  0.000000  0.249191  0.249191  1
