# generated using pymatgen
data_Gd5InOs2
_symmetry_space_group_name_H-M   'P 1'
_cell_length_a   8.89302436
_cell_length_b   8.89302463
_cell_length_c   8.88323128
_cell_angle_alpha   127.89735416
_cell_angle_beta   127.89735253
_cell_angle_gamma   76.85836958
_symmetry_Int_Tables_number   1
_chemical_formula_structural   Gd5InOs2
_chemical_formula_sum   'Gd10 In2 Os4'
_cell_volume   424.59737934
_cell_formula_units_Z   2
loop_
 _symmetry_equiv_pos_site_id
 _symmetry_equiv_pos_as_xyz
  1  'x, y, z'
loop_
 _atom_site_type_symbol
 _atom_site_label
 _atom_site_symmetry_multiplicity
 _atom_site_fract_x
 _atom_site_fract_y
 _atom_site_fract_z
 _atom_site_occupancy
  Gd  Gd0  1  0.000000  0.000000  0.000000  1
  Gd  Gd1  1  0.500000  0.500000  0.000000  1
  Gd  Gd2  1  0.792805  0.292805  0.825703  1
  Gd  Gd3  1  0.207195  0.707195  0.174297  1
  Gd  Gd4  1  0.467132  0.967132  0.174348  1
  Gd  Gd5  1  0.293666  0.467699  0.499988  1
  Gd  Gd6  1  0.032301  0.206334  0.500012  1
  Gd  Gd7  1  0.532868  0.032868  0.825652  1
  Gd  Gd8  1  0.706334  0.532301  0.500012  1
  Gd  Gd9  1  0.967699  0.793666  0.499988  1
  In  In10  1  0.250013  0.249987  0.000000  1
  In  In11  1  0.749987  0.750013  0.000000  1
  Os  Os12  1  0.135870  0.635870  0.771744  1
  Os  Os13  1  0.864130  0.364130  0.228256  1
  Os  Os14  1  0.637847  0.862153  0.500000  1
  Os  Os15  1  0.362153  0.137847  0.500000  1
