# generated using pymatgen
data_PrScCoO5
_symmetry_space_group_name_H-M   'P 1'
_cell_length_a   5.90076700
_cell_length_b   7.66575200
_cell_length_c   8.82780700
_cell_angle_alpha   90.00000000
_cell_angle_beta   90.00000000
_cell_angle_gamma   90.00000000
_symmetry_Int_Tables_number   1
_chemical_formula_structural   PrScCoO5
_chemical_formula_sum   'Pr4 Sc4 Co4 O20'
_cell_volume   399.31540133
_cell_formula_units_Z   4
loop_
 _symmetry_equiv_pos_site_id
 _symmetry_equiv_pos_as_xyz
  1  'x, y, z'
loop_
 _atom_site_type_symbol
 _atom_site_label
 _atom_site_symmetry_multiplicity
 _atom_site_fract_x
 _atom_site_fract_y
 _atom_site_fract_z
 _atom_site_occupancy
  Pr  Pr0  1  0.000000  0.362238  0.670847  1
  Pr  Pr1  1  0.000000  0.637762  0.329153  1
  Pr  Pr2  1  0.000000  0.862238  0.829153  1
  Pr  Pr3  1  0.000000  0.137762  0.170847  1
  Sc  Sc4  1  0.500000  0.116859  0.854057  1
  Sc  Sc5  1  0.500000  0.883141  0.145943  1
  Sc  Sc6  1  0.500000  0.616859  0.645943  1
  Sc  Sc7  1  0.500000  0.383141  0.354057  1
  Co  Co8  1  0.249553  0.500000  0.000000  1
  Co  Co9  1  0.750447  0.000000  0.500000  1
  Co  Co10  1  0.750447  0.500000  0.000000  1
  Co  Co11  1  0.249553  0.000000  0.500000  1
  O  O12  1  0.242801  0.903220  0.303605  1
  O  O13  1  0.242801  0.096780  0.696395  1
  O  O14  1  0.757199  0.403220  0.196395  1
  O  O15  1  0.757199  0.596780  0.803605  1
  O  O16  1  0.757199  0.096780  0.696395  1
  O  O17  1  0.757199  0.903220  0.303605  1
  O  O18  1  0.242801  0.596780  0.803605  1
  O  O19  1  0.242801  0.403220  0.196395  1
  O  O20  1  0.500000  0.358387  0.937117  1
  O  O21  1  0.500000  0.641613  0.062883  1
  O  O22  1  0.500000  0.858387  0.562883  1
  O  O23  1  0.500000  0.141613  0.437117  1
  O  O24  1  0.266977  0.000000  0.000000  1
  O  O25  1  0.733023  0.500000  0.500000  1
  O  O26  1  0.733023  0.000000  0.000000  1
  O  O27  1  0.266977  0.500000  0.500000  1
  O  O28  1  0.000000  0.149988  0.447951  1
  O  O29  1  0.000000  0.850012  0.552049  1
  O  O30  1  0.000000  0.649988  0.052049  1
  O  O31  1  0.000000  0.350012  0.947951  1
