# generated using pymatgen
data_Ho2TmCd3Ga2Au
_symmetry_space_group_name_H-M   'P 1'
_cell_length_a   7.33669705
_cell_length_b   7.33776647
_cell_length_c   4.32544500
_cell_angle_alpha   90.00000000
_cell_angle_beta   90.00000000
_cell_angle_gamma   120.00483695
_symmetry_Int_Tables_number   1
_chemical_formula_structural   Ho2TmCd3Ga2Au
_chemical_formula_sum   'Ho2 Tm1 Cd3 Ga2 Au1'
_cell_volume   201.65301901
_cell_formula_units_Z   1
loop_
 _symmetry_equiv_pos_site_id
 _symmetry_equiv_pos_as_xyz
  1  'x, y, z'
loop_
 _atom_site_type_symbol
 _atom_site_label
 _atom_site_symmetry_multiplicity
 _atom_site_fract_x
 _atom_site_fract_y
 _atom_site_fract_z
 _atom_site_occupancy
  Ho  Ho0  1  0.415052  0.415230  0.500000  1
  Ho  Ho1  1  0.584948  0.000178  0.500000  1
  Tm  Tm2  1  0.000000  0.585327  0.500000  1
  Cd  Cd3  1  0.744891  0.744652  0.000000  1
  Cd  Cd4  1  0.255109  0.999762  0.000000  1
  Cd  Cd5  1  0.000000  0.255723  0.000000  1
  Ga  Ga6  1  0.667626  0.334000  0.000000  1
  Ga  Ga7  1  0.332374  0.666375  0.000000  1
  Au  Au8  1  0.000000  0.998753  0.500000  1
