# generated using pymatgen
data_Sr2Li6CaTaMoO11
_symmetry_space_group_name_H-M   'P 1'
_cell_length_a   5.76103800
_cell_length_b   8.40776100
_cell_length_c   10.56303800
_cell_angle_alpha   90.00000000
_cell_angle_beta   90.00000000
_cell_angle_gamma   90.00000000
_symmetry_Int_Tables_number   1
_chemical_formula_structural   Sr2Li6CaTaMoO11
_chemical_formula_sum   'Sr4 Li12 Ca2 Ta2 Mo2 O22'
_cell_volume   511.64642022
_cell_formula_units_Z   2
loop_
 _symmetry_equiv_pos_site_id
 _symmetry_equiv_pos_as_xyz
  1  'x, y, z'
loop_
 _atom_site_type_symbol
 _atom_site_label
 _atom_site_symmetry_multiplicity
 _atom_site_fract_x
 _atom_site_fract_y
 _atom_site_fract_z
 _atom_site_occupancy
  Sr  Sr0  1  0.500000  0.264192  0.500000  1
  Sr  Sr1  1  0.500000  0.735808  0.500000  1
  Sr  Sr2  1  0.500000  0.735808  0.000000  1
  Sr  Sr3  1  0.500000  0.264192  0.000000  1
  Li  Li4  1  0.775694  0.310797  0.750000  1
  Li  Li5  1  0.224306  0.689203  0.250000  1
  Li  Li6  1  0.775694  0.689203  0.750000  1
  Li  Li7  1  0.224306  0.310797  0.250000  1
  Li  Li8  1  0.000000  0.356380  0.500000  1
  Li  Li9  1  0.000000  0.643620  0.500000  1
  Li  Li10  1  0.000000  0.643620  0.000000  1
  Li  Li11  1  0.000000  0.356380  0.000000  1
  Li  Li12  1  0.154926  0.144510  0.750000  1
  Li  Li13  1  0.845074  0.855490  0.250000  1
  Li  Li14  1  0.154926  0.855490  0.750000  1
  Li  Li15  1  0.845074  0.144510  0.250000  1
  Ca  Ca16  1  0.620377  0.000000  0.750000  1
  Ca  Ca17  1  0.379623  0.000000  0.250000  1
  Ta  Ta18  1  0.000000  0.000000  0.500000  1
  Ta  Ta19  1  0.000000  0.000000  0.000000  1
  Mo  Mo20  1  0.252797  0.500000  0.750000  1
  Mo  Mo21  1  0.747203  0.500000  0.250000  1
  O  O22  1  0.247649  0.500000  0.556745  1
  O  O23  1  0.752351  0.500000  0.443255  1
  O  O24  1  0.247649  0.500000  0.943255  1
  O  O25  1  0.752351  0.500000  0.056745  1
  O  O26  1  0.288584  0.000000  0.609648  1
  O  O27  1  0.711416  0.000000  0.390352  1
  O  O28  1  0.288584  0.000000  0.890352  1
  O  O29  1  0.711416  0.000000  0.109648  1
  O  O30  1  0.135397  0.170390  0.113047  1
  O  O31  1  0.864603  0.829610  0.886953  1
  O  O32  1  0.135397  0.829610  0.386953  1
  O  O33  1  0.864603  0.170390  0.886953  1
  O  O34  1  0.864603  0.170390  0.613047  1
  O  O35  1  0.135397  0.829610  0.113047  1
  O  O36  1  0.864603  0.829610  0.613047  1
  O  O37  1  0.135397  0.170390  0.386953  1
  O  O38  1  0.432130  0.304244  0.750000  1
  O  O39  1  0.567870  0.695756  0.250000  1
  O  O40  1  0.432130  0.695756  0.750000  1
  O  O41  1  0.567870  0.304244  0.250000  1
  O  O42  1  0.935482  0.500000  0.750000  1
  O  O43  1  0.064518  0.500000  0.250000  1
