# generated using pymatgen
data_Lu3Sc7(CuPb3)2
_symmetry_space_group_name_H-M   'P 1'
_cell_length_a   8.82478400
_cell_length_b   8.82478426
_cell_length_c   6.31778500
_cell_angle_alpha   90.00000000
_cell_angle_beta   90.00000000
_cell_angle_gamma   119.99999154
_symmetry_Int_Tables_number   1
_chemical_formula_structural   Lu3Sc7(CuPb3)2
_chemical_formula_sum   'Lu3 Sc7 Cu2 Pb6'
_cell_volume   426.09230588
_cell_formula_units_Z   1
loop_
 _symmetry_equiv_pos_site_id
 _symmetry_equiv_pos_as_xyz
  1  'x, y, z'
loop_
 _atom_site_type_symbol
 _atom_site_label
 _atom_site_symmetry_multiplicity
 _atom_site_fract_x
 _atom_site_fract_y
 _atom_site_fract_z
 _atom_site_occupancy
  Lu  Lu0  1  0.759809  0.759809  0.250000  1
  Lu  Lu1  1  0.240191  0.000000  0.250000  1
  Lu  Lu2  1  0.000000  0.240191  0.250000  1
  Sc  Sc3  1  0.666667  0.333333  0.502278  1
  Sc  Sc4  1  0.333333  0.666667  0.502278  1
  Sc  Sc5  1  0.333333  0.666667  0.997722  1
  Sc  Sc6  1  0.666667  0.333333  0.997722  1
  Sc  Sc7  1  0.270038  0.270038  0.750000  1
  Sc  Sc8  1  0.729962  0.000000  0.750000  1
  Sc  Sc9  1  0.000000  0.729962  0.750000  1
  Cu  Cu10  1  0.000000  0.000000  0.551762  1
  Cu  Cu11  1  0.000000  0.000000  0.948238  1
  Pb  Pb12  1  0.398416  0.398416  0.250000  1
  Pb  Pb13  1  0.601584  0.000000  0.250000  1
  Pb  Pb14  1  0.000000  0.601584  0.250000  1
  Pb  Pb15  1  0.618848  0.618848  0.750000  1
  Pb  Pb16  1  0.381152  0.000000  0.750000  1
  Pb  Pb17  1  0.000000  0.381152  0.750000  1
