# generated using pymatgen
data_PrDyYTe4
_symmetry_space_group_name_H-M   'P 1'
_cell_length_a   4.40075700
_cell_length_b   7.56714980
_cell_length_c   7.71933800
_cell_angle_alpha   71.75591113
_cell_angle_beta   90.00000000
_cell_angle_gamma   90.00000000
_symmetry_Int_Tables_number   1
_chemical_formula_structural   PrDyYTe4
_chemical_formula_sum   'Pr1 Dy1 Y1 Te4'
_cell_volume   244.14092620
_cell_formula_units_Z   1
loop_
 _symmetry_equiv_pos_site_id
 _symmetry_equiv_pos_as_xyz
  1  'x, y, z'
loop_
 _atom_site_type_symbol
 _atom_site_label
 _atom_site_symmetry_multiplicity
 _atom_site_fract_x
 _atom_site_fract_y
 _atom_site_fract_z
 _atom_site_occupancy
  Pr  Pr0  1  0.000000  0.500000  0.500000  1
  Dy  Dy1  1  0.000000  0.000000  0.000000  1
  Y  Y2  1  0.500000  0.500000  0.000000  1
  Te  Te3  1  0.500000  0.762878  0.245359  1
  Te  Te4  1  0.000000  0.250207  0.240644  1
  Te  Te5  1  0.500000  0.237122  0.754641  1
  Te  Te6  1  0.000000  0.749793  0.759356  1
