# generated using pymatgen
data_YEr2ThMgCo
_symmetry_space_group_name_H-M   'P 1'
_cell_length_a   9.60451563
_cell_length_b   9.60208186
_cell_length_c   9.60208331
_cell_angle_alpha   60.01676612
_cell_angle_beta   59.99162267
_cell_angle_gamma   59.99162303
_symmetry_Int_Tables_number   1
_chemical_formula_structural   YEr2ThMgCo
_chemical_formula_sum   'Y4 Er8 Th4 Mg4 Co4'
_cell_volume   626.16865899
_cell_formula_units_Z   4
loop_
 _symmetry_equiv_pos_site_id
 _symmetry_equiv_pos_as_xyz
  1  'x, y, z'
loop_
 _atom_site_type_symbol
 _atom_site_label
 _atom_site_symmetry_multiplicity
 _atom_site_fract_x
 _atom_site_fract_y
 _atom_site_fract_z
 _atom_site_occupancy
  Y  Y0  1  0.564466  0.935534  0.564466  1
  Y  Y1  1  0.935534  0.564466  0.935534  1
  Y  Y2  1  0.564466  0.564466  0.935534  1
  Y  Y3  1  0.935534  0.935534  0.564466  1
  Er  Er4  1  0.814429  0.185571  0.185571  1
  Er  Er5  1  0.185571  0.814429  0.814429  1
  Er  Er6  1  0.185648  0.814352  0.185648  1
  Er  Er7  1  0.814352  0.185648  0.814352  1
  Er  Er8  1  0.185648  0.185648  0.814352  1
  Er  Er9  1  0.814352  0.814352  0.185648  1
  Er  Er10  1  0.937201  0.562799  0.562799  1
  Er  Er11  1  0.562799  0.937201  0.937201  1
  Th  Th12  1  0.344215  0.344714  0.344714  1
  Th  Th13  1  0.344714  0.344215  0.966358  1
  Th  Th14  1  0.344714  0.966358  0.344215  1
  Th  Th15  1  0.966358  0.344714  0.344714  1
  Mg  Mg16  1  0.580973  0.579325  0.579325  1
  Mg  Mg17  1  0.579325  0.580973  0.260375  1
  Mg  Mg18  1  0.579325  0.260375  0.580973  1
  Mg  Mg19  1  0.260375  0.579325  0.579325  1
  Co  Co20  1  0.145622  0.144289  0.144289  1
  Co  Co21  1  0.144289  0.145622  0.565799  1
  Co  Co22  1  0.144289  0.565799  0.145622  1
  Co  Co23  1  0.565799  0.144289  0.144289  1
