# generated using pymatgen
data_Y15Ho(ErSn4)4
_symmetry_space_group_name_H-M   'P 1'
_cell_length_a   8.03619001
_cell_length_b   8.18937698
_cell_length_c   15.49406400
_cell_angle_alpha   90.00731119
_cell_angle_beta   90.00285189
_cell_angle_gamma   90.02699157
_symmetry_Int_Tables_number   1
_chemical_formula_structural   Y15Ho(ErSn4)4
_chemical_formula_sum   'Y15 Ho1 Er4 Sn16'
_cell_volume   1019.68575716
_cell_formula_units_Z   1
loop_
 _symmetry_equiv_pos_site_id
 _symmetry_equiv_pos_as_xyz
  1  'x, y, z'
loop_
 _atom_site_type_symbol
 _atom_site_label
 _atom_site_symmetry_multiplicity
 _atom_site_fract_x
 _atom_site_fract_y
 _atom_site_fract_z
 _atom_site_occupancy
  Y  Y0  1  0.867587  0.663884  0.621996  1
  Y  Y1  1  0.632229  0.163842  0.378184  1
  Y  Y2  1  0.132537  0.336120  0.121408  1
  Y  Y3  1  0.632311  0.163989  0.121850  1
  Y  Y4  1  0.132353  0.336164  0.378223  1
  Y  Y5  1  0.367904  0.836063  0.621997  1
  Y  Y6  1  0.867946  0.663804  0.878318  1
  Y  Y7  1  0.520041  0.319508  0.902279  1
  Y  Y8  1  0.019985  0.180235  0.597887  1
  Y  Y9  1  0.479947  0.680342  0.402397  1
  Y  Y10  1  0.979954  0.819535  0.097694  1
  Y  Y11  1  0.479802  0.680408  0.097359  1
  Y  Y12  1  0.980065  0.819638  0.402344  1
  Y  Y13  1  0.520055  0.319744  0.597941  1
  Y  Y14  1  0.020217  0.180112  0.902161  1
  Ho  Ho15  1  0.367218  0.836711  0.877671  1
  Er  Er16  1  0.198634  0.502763  0.750246  1
  Er  Er17  1  0.698343  0.997195  0.750182  1
  Er  Er18  1  0.801596  0.497455  0.249980  1
  Er  Er19  1  0.301532  0.002372  0.249825  1
  Sn  Sn20  1  0.292982  0.035555  0.041776  1
  Sn  Sn21  1  0.793213  0.463973  0.457742  1
  Sn  Sn22  1  0.707072  0.963998  0.541890  1
  Sn  Sn23  1  0.207719  0.537009  0.957934  1
  Sn  Sn24  1  0.706098  0.963874  0.958002  1
  Sn  Sn25  1  0.206941  0.535955  0.542015  1
  Sn  Sn26  1  0.293009  0.036162  0.457764  1
  Sn  Sn27  1  0.793095  0.463995  0.042404  1
  Sn  Sn28  1  0.564300  0.618663  0.750412  1
  Sn  Sn29  1  0.064580  0.881362  0.750177  1
  Sn  Sn30  1  0.435230  0.381453  0.249940  1
  Sn  Sn31  1  0.935475  0.118639  0.249874  1
  Sn  Sn32  1  0.329741  0.147566  0.750164  1
  Sn  Sn33  1  0.829718  0.352168  0.750068  1
  Sn  Sn34  1  0.670256  0.852277  0.249947  1
  Sn  Sn35  1  0.170316  0.647467  0.249949  1
