# generated using pymatgen
data_TbYb2Ho(NiB4)4
_symmetry_space_group_name_H-M   'P 1'
_cell_length_a   6.81921665
_cell_length_b   6.81921642
_cell_length_c   6.81921712
_cell_angle_alpha   112.84472804
_cell_angle_beta   112.84473143
_cell_angle_gamma   102.91643632
_symmetry_Int_Tables_number   1
_chemical_formula_structural   TbYb2Ho(NiB4)4
_chemical_formula_sum   'Tb1 Yb2 Ho1 Ni4 B16'
_cell_volume   241.74940486
_cell_formula_units_Z   1
loop_
 _symmetry_equiv_pos_site_id
 _symmetry_equiv_pos_as_xyz
  1  'x, y, z'
loop_
 _atom_site_type_symbol
 _atom_site_label
 _atom_site_symmetry_multiplicity
 _atom_site_fract_x
 _atom_site_fract_y
 _atom_site_fract_z
 _atom_site_occupancy
  Tb  Tb0  1  0.750000  0.250000  0.500000  1
  Yb  Yb1  1  0.795604  0.795604  0.000000  1
  Yb  Yb2  1  0.204396  0.204396  0.000000  1
  Ho  Ho3  1  0.250000  0.750000  0.500000  1
  Ni  Ni4  1  0.273401  0.500086  0.773314  1
  Ni  Ni5  1  0.726772  0.500086  0.226686  1
  Ni  Ni6  1  0.499914  0.726599  0.226686  1
  Ni  Ni7  1  0.499914  0.273228  0.773314  1
  B  B8  1  0.276227  0.112196  0.388483  1
  B  B9  1  0.723713  0.887744  0.611517  1
  B  B10  1  0.276227  0.887744  0.164032  1
  B  B11  1  0.723713  0.112196  0.835968  1
  B  B12  1  0.112256  0.723773  0.835968  1
  B  B13  1  0.887804  0.276287  0.164032  1
  B  B14  1  0.112256  0.276287  0.388483  1
  B  B15  1  0.887804  0.723773  0.611517  1
  B  B16  1  0.113203  0.113051  0.530151  1
  B  B17  1  0.582900  0.583052  0.469849  1
  B  B18  1  0.113203  0.583052  0.000152  1
  B  B19  1  0.582900  0.113051  0.999848  1
  B  B20  1  0.886949  0.886797  0.469849  1
  B  B21  1  0.416948  0.417100  0.530151  1
  B  B22  1  0.886949  0.417100  0.000152  1
  B  B23  1  0.416948  0.886797  0.999848  1
