# generated using pymatgen
data_Yb3HoVOs7
_symmetry_space_group_name_H-M   'P 1'
_cell_length_a   5.37037000
_cell_length_b   5.37037013
_cell_length_c   8.50622500
_cell_angle_alpha   90.00000000
_cell_angle_beta   90.00000000
_cell_angle_gamma   119.99999919
_symmetry_Int_Tables_number   1
_chemical_formula_structural   Yb3HoVOs7
_chemical_formula_sum   'Yb3 Ho1 V1 Os7'
_cell_volume   212.45938906
_cell_formula_units_Z   1
loop_
 _symmetry_equiv_pos_site_id
 _symmetry_equiv_pos_as_xyz
  1  'x, y, z'
loop_
 _atom_site_type_symbol
 _atom_site_label
 _atom_site_symmetry_multiplicity
 _atom_site_fract_x
 _atom_site_fract_y
 _atom_site_fract_z
 _atom_site_occupancy
  Yb  Yb0  1  0.666667  0.333333  0.573727  1
  Yb  Yb1  1  0.666667  0.333333  0.935236  1
  Yb  Yb2  1  0.333333  0.666667  0.059352  1
  Ho  Ho3  1  0.333333  0.666667  0.428194  1
  V  V4  1  0.000000  0.000000  0.498989  1
  Os  Os5  1  0.000000  0.000000  0.002487  1
  Os  Os6  1  0.828256  0.171744  0.254892  1
  Os  Os7  1  0.828256  0.656513  0.254892  1
  Os  Os8  1  0.343487  0.171744  0.254892  1
  Os  Os9  1  0.171072  0.828928  0.745780  1
  Os  Os10  1  0.171072  0.342144  0.745780  1
  Os  Os11  1  0.657856  0.828928  0.745780  1
