# generated using pymatgen
data_UPa3(Co3Sn)4
_symmetry_space_group_name_H-M   'P 1'
_cell_length_a   5.22398000
_cell_length_b   7.23235106
_cell_length_c   8.27840539
_cell_angle_alpha   89.40692105
_cell_angle_beta   90.00000000
_cell_angle_gamma   90.00000000
_symmetry_Int_Tables_number   1
_chemical_formula_structural   UPa3(Co3Sn)4
_chemical_formula_sum   'U1 Pa3 Co12 Sn4'
_cell_volume   312.75511929
_cell_formula_units_Z   1
loop_
 _symmetry_equiv_pos_site_id
 _symmetry_equiv_pos_as_xyz
  1  'x, y, z'
loop_
 _atom_site_type_symbol
 _atom_site_label
 _atom_site_symmetry_multiplicity
 _atom_site_fract_x
 _atom_site_fract_y
 _atom_site_fract_z
 _atom_site_occupancy
  U  U0  1  0.250000  0.616101  0.332022  1
  Pa  Pa1  1  0.750000  0.884800  0.831804  1
  Pa  Pa2  1  0.750000  0.385909  0.666636  1
  Pa  Pa3  1  0.250000  0.116012  0.167415  1
  Co  Co4  1  0.750000  0.560111  0.408532  1
  Co  Co5  1  0.750000  0.049948  0.085231  1
  Co  Co6  1  0.250000  0.451732  0.577635  1
  Co  Co7  1  0.250000  0.939923  0.915797  1
  Co  Co8  1  0.997818  0.256404  0.382989  1
  Co  Co9  1  0.500021  0.746478  0.126689  1
  Co  Co10  1  0.498027  0.747629  0.615113  1
  Co  Co11  1  0.003811  0.246446  0.882407  1
  Co  Co12  1  0.001973  0.747629  0.615113  1
  Co  Co13  1  0.496189  0.246446  0.882407  1
  Co  Co14  1  0.502182  0.256404  0.382989  1
  Co  Co15  1  0.999979  0.746478  0.126689  1
  Sn  Sn16  1  0.750000  0.930744  0.385429  1
  Sn  Sn17  1  0.750000  0.422624  0.115415  1
  Sn  Sn18  1  0.250000  0.075221  0.617968  1
  Sn  Sn19  1  0.250000  0.572962  0.881719  1
