# generated using pymatgen
data_K4Li2YInAs4
_symmetry_space_group_name_H-M   'P 1'
_cell_length_a   6.62391400
_cell_length_b   10.28820102
_cell_length_c   10.28820117
_cell_angle_alpha   79.46597117
_cell_angle_beta   90.00000000
_cell_angle_gamma   90.00000000
_symmetry_Int_Tables_number   1
_chemical_formula_structural   K4Li2YInAs4
_chemical_formula_sum   'K8 Li4 Y2 In2 As8'
_cell_volume   689.30560899
_cell_formula_units_Z   2
loop_
 _symmetry_equiv_pos_site_id
 _symmetry_equiv_pos_as_xyz
  1  'x, y, z'
loop_
 _atom_site_type_symbol
 _atom_site_label
 _atom_site_symmetry_multiplicity
 _atom_site_fract_x
 _atom_site_fract_y
 _atom_site_fract_z
 _atom_site_occupancy
  K  K0  1  0.250000  0.569001  0.069002  1
  K  K1  1  0.278159  0.178002  0.172839  1
  K  K2  1  0.778159  0.321998  0.327161  1
  K  K3  1  0.750000  0.930998  0.430999  1
  K  K4  1  0.250000  0.074341  0.574340  1
  K  K5  1  0.221840  0.672839  0.678002  1
  K  K6  1  0.721841  0.827161  0.821998  1
  K  K7  1  0.750000  0.425660  0.925659  1
  Li  Li8  1  0.500001  0.883420  0.116580  1
  Li  Li9  1  0.000000  0.616580  0.383420  1
  Li  Li10  1  0.000000  0.378083  0.621917  1
  Li  Li11  1  0.500001  0.121917  0.878083  1
  Y  Y12  1  0.000000  0.872537  0.127463  1
  Y  Y13  1  0.500001  0.627463  0.372537  1
  In  In14  1  0.500001  0.368210  0.631790  1
  In  In15  1  0.000000  0.131790  0.868210  1
  As  As16  1  0.761877  0.101772  0.094402  1
  As  As17  1  0.750000  0.649694  0.149695  1
  As  As18  1  0.250000  0.850305  0.350306  1
  As  As19  1  0.261876  0.398227  0.405597  1
  As  As20  1  0.738123  0.594402  0.601772  1
  As  As21  1  0.750000  0.151166  0.651165  1
  As  As22  1  0.250000  0.348835  0.848834  1
  As  As23  1  0.238124  0.905597  0.898227  1
