# generated using pymatgen
data_RbY(TeO4)2
_symmetry_space_group_name_H-M   'P 1'
_cell_length_a   7.66495787
_cell_length_b   7.66495745
_cell_length_c   7.36975573
_cell_angle_alpha   63.27526700
_cell_angle_beta   63.27527106
_cell_angle_gamma   90.42806268
_symmetry_Int_Tables_number   1
_chemical_formula_structural   RbY(TeO4)2
_chemical_formula_sum   'Rb2 Y2 Te4 O16'
_cell_volume   333.27284413
_cell_formula_units_Z   2
loop_
 _symmetry_equiv_pos_site_id
 _symmetry_equiv_pos_as_xyz
  1  'x, y, z'
loop_
 _atom_site_type_symbol
 _atom_site_label
 _atom_site_symmetry_multiplicity
 _atom_site_fract_x
 _atom_site_fract_y
 _atom_site_fract_z
 _atom_site_occupancy
  Rb  Rb0  1  0.202116  0.797884  0.750000  1
  Rb  Rb1  1  0.797884  0.202116  0.250000  1
  Y  Y2  1  0.788003  0.211997  0.750000  1
  Y  Y3  1  0.211997  0.788003  0.250000  1
  Te  Te4  1  0.702175  0.682346  0.800421  1
  Te  Te5  1  0.297825  0.317654  0.199579  1
  Te  Te6  1  0.317654  0.297825  0.699579  1
  Te  Te7  1  0.682346  0.702175  0.300421  1
  O  O8  1  0.613627  0.756192  0.563635  1
  O  O9  1  0.386373  0.243808  0.436365  1
  O  O10  1  0.243808  0.386373  0.936365  1
  O  O11  1  0.756192  0.613627  0.063635  1
  O  O12  1  0.379465  0.060363  0.864874  1
  O  O13  1  0.620535  0.939637  0.135126  1
  O  O14  1  0.939637  0.620535  0.635126  1
  O  O15  1  0.060363  0.379465  0.364874  1
  O  O16  1  0.589210  0.370550  0.966373  1
  O  O17  1  0.410790  0.629450  0.033627  1
  O  O18  1  0.629450  0.410790  0.533627  1
  O  O19  1  0.370550  0.589210  0.466373  1
  O  O20  1  0.786398  0.958287  0.683742  1
  O  O21  1  0.213602  0.041713  0.316258  1
  O  O22  1  0.041713  0.213602  0.816258  1
  O  O23  1  0.958287  0.786398  0.183742  1
