# generated using pymatgen
data_Ho2Lu4Co17TcP12
_symmetry_space_group_name_H-M   'P 1'
_cell_length_a   3.67138100
_cell_length_b   10.47652500
_cell_length_c   12.13694600
_cell_angle_alpha   90.00000000
_cell_angle_beta   90.00000000
_cell_angle_gamma   90.00000000
_symmetry_Int_Tables_number   1
_chemical_formula_structural   Ho2Lu4Co17TcP12
_chemical_formula_sum   'Ho2 Lu4 Co17 Tc1 P12'
_cell_volume   466.82717509
_cell_formula_units_Z   1
loop_
 _symmetry_equiv_pos_site_id
 _symmetry_equiv_pos_as_xyz
  1  'x, y, z'
loop_
 _atom_site_type_symbol
 _atom_site_label
 _atom_site_symmetry_multiplicity
 _atom_site_fract_x
 _atom_site_fract_y
 _atom_site_fract_z
 _atom_site_occupancy
  Ho  Ho0  1  0.000000  0.500000  0.525211  1
  Ho  Ho1  1  0.500000  0.000000  0.476696  1
  Lu  Lu2  1  0.500000  0.818055  0.206906  1
  Lu  Lu3  1  0.500000  0.181945  0.206906  1
  Lu  Lu4  1  0.000000  0.682269  0.794960  1
  Lu  Lu5  1  0.000000  0.317731  0.794960  1
  Co  Co6  1  0.000000  0.000000  0.838893  1
  Co  Co7  1  0.500000  0.500000  0.703283  1
  Co  Co8  1  0.000000  0.000000  0.296118  1
  Co  Co9  1  0.000000  0.500000  0.987422  1
  Co  Co10  1  0.500000  0.000000  0.014910  1
  Co  Co11  1  0.500000  0.331686  0.990318  1
  Co  Co12  1  0.500000  0.668314  0.990318  1
  Co  Co13  1  0.000000  0.166493  0.006100  1
  Co  Co14  1  0.000000  0.833507  0.006100  1
  Co  Co15  1  0.500000  0.296571  0.431084  1
  Co  Co16  1  0.500000  0.703429  0.431084  1
  Co  Co17  1  0.000000  0.203009  0.568913  1
  Co  Co18  1  0.000000  0.796991  0.568913  1
  Co  Co19  1  0.500000  0.877906  0.708535  1
  Co  Co20  1  0.500000  0.122094  0.708535  1
  Co  Co21  1  0.000000  0.622089  0.292416  1
  Co  Co22  1  0.000000  0.377911  0.292416  1
  Tc  Tc23  1  0.500000  0.500000  0.157520  1
  P  P24  1  0.500000  0.500000  0.880280  1
  P  P25  1  0.000000  0.000000  0.118522  1
  P  P26  1  0.500000  0.500000  0.350693  1
  P  P27  1  0.000000  0.000000  0.654087  1
  P  P28  1  0.500000  0.312023  0.617568  1
  P  P29  1  0.500000  0.687977  0.617568  1
  P  P30  1  0.000000  0.187550  0.383278  1
  P  P31  1  0.000000  0.812450  0.383278  1
  P  P32  1  0.500000  0.848935  0.890616  1
  P  P33  1  0.500000  0.151065  0.890616  1
  P  P34  1  0.000000  0.656764  0.107489  1
  P  P35  1  0.000000  0.343236  0.107489  1
