# generated using pymatgen
data_DyEr4U2O12
_symmetry_space_group_name_H-M   'P 1'
_cell_length_a   6.56942752
_cell_length_b   6.59124291
_cell_length_c   6.53953100
_cell_angle_alpha   99.41049330
_cell_angle_beta   98.91614945
_cell_angle_gamma   99.24202144
_symmetry_Int_Tables_number   1
_chemical_formula_structural   DyEr4U2O12
_chemical_formula_sum   'Dy1 Er4 U2 O12'
_cell_volume   270.91032178
_cell_formula_units_Z   1
loop_
 _symmetry_equiv_pos_site_id
 _symmetry_equiv_pos_as_xyz
  1  'x, y, z'
loop_
 _atom_site_type_symbol
 _atom_site_label
 _atom_site_symmetry_multiplicity
 _atom_site_fract_x
 _atom_site_fract_y
 _atom_site_fract_z
 _atom_site_occupancy
  Dy  Dy0  1  0.606191  0.133337  0.312501  1
  Er  Er1  1  0.861094  0.692585  0.395940  1
  Er  Er2  1  0.389050  0.855166  0.682034  1
  Er  Er3  1  0.310554  0.611206  0.144209  1
  Er  Er4  1  0.144490  0.316631  0.606461  1
  U  U5  1  0.689336  0.397214  0.861766  1
  U  U6  1  0.003719  0.003437  0.000494  1
  O  O7  1  0.426585  0.176931  0.586551  1
  O  O8  1  0.585604  0.425243  0.167862  1
  O  O9  1  0.174992  0.582193  0.430296  1
  O  O10  1  0.568768  0.816449  0.413487  1
  O  O11  1  0.420094  0.571842  0.821394  1
  O  O12  1  0.814446  0.418022  0.575872  1
  O  O13  1  0.077687  0.320277  0.940987  1
  O  O14  1  0.685209  0.056062  0.919915  1
  O  O15  1  0.054927  0.919629  0.684769  1
  O  O16  1  0.925381  0.684106  0.061489  1
  O  O17  1  0.316258  0.940942  0.075843  1
  O  O18  1  0.945611  0.078728  0.318133  1
