# generated using pymatgen
data_Tb3Eu4Tm5Se16
_symmetry_space_group_name_H-M   'P 1'
_cell_length_a   4.10749400
_cell_length_b   12.47992641
_cell_length_c   14.82044700
_cell_angle_alpha   90.09292718
_cell_angle_beta   90.00000000
_cell_angle_gamma   90.00000000
_symmetry_Int_Tables_number   1
_chemical_formula_structural   Tb3Eu4Tm5Se16
_chemical_formula_sum   'Tb3 Eu4 Tm5 Se16'
_cell_volume   759.71323744
_cell_formula_units_Z   1
loop_
 _symmetry_equiv_pos_site_id
 _symmetry_equiv_pos_as_xyz
  1  'x, y, z'
loop_
 _atom_site_type_symbol
 _atom_site_label
 _atom_site_symmetry_multiplicity
 _atom_site_fract_x
 _atom_site_fract_y
 _atom_site_fract_z
 _atom_site_occupancy
  Tb  Tb0  1  0.750000  0.564906  0.388707  1
  Tb  Tb1  1  0.250000  0.935422  0.889532  1
  Tb  Tb2  1  0.250000  0.434686  0.611185  1
  Eu  Eu3  1  0.750000  0.741804  0.164711  1
  Eu  Eu4  1  0.750000  0.240483  0.333912  1
  Eu  Eu5  1  0.250000  0.258416  0.835822  1
  Eu  Eu6  1  0.250000  0.759042  0.664771  1
  Tm  Tm7  1  0.750000  0.082011  0.597211  1
  Tm  Tm8  1  0.750000  0.582304  0.902874  1
  Tm  Tm9  1  0.250000  0.918543  0.402374  1
  Tm  Tm10  1  0.250000  0.417528  0.096802  1
  Tm  Tm11  1  0.750000  0.063225  0.111967  1
  Se  Se12  1  0.750000  0.290882  0.676072  1
  Se  Se13  1  0.750000  0.791437  0.824420  1
  Se  Se14  1  0.250000  0.709170  0.324045  1
  Se  Se15  1  0.250000  0.206494  0.172958  1
  Se  Se16  1  0.750000  0.369322  0.968787  1
  Se  Se17  1  0.750000  0.868892  0.530180  1
  Se  Se18  1  0.250000  0.631427  0.031035  1
  Se  Se19  1  0.250000  0.131516  0.469333  1
  Se  Se20  1  0.750000  0.975402  0.285644  1
  Se  Se21  1  0.750000  0.473182  0.213393  1
  Se  Se22  1  0.250000  0.025954  0.713945  1
  Se  Se23  1  0.250000  0.526033  0.786533  1
  Se  Se24  1  0.750000  0.092370  0.923489  1
  Se  Se25  1  0.750000  0.592004  0.579705  1
  Se  Se26  1  0.250000  0.909749  0.080544  1
  Se  Se27  1  0.250000  0.407795  0.420049  1
