# generated using pymatgen
data_Ce3Er13MgZn2Co4Hg
_symmetry_space_group_name_H-M   'P 1'
_cell_length_a   9.31485758
_cell_length_b   9.36101558
_cell_length_c   9.36101600
_cell_angle_alpha   60.00000557
_cell_angle_beta   59.83594949
_cell_angle_gamma   59.83594929
_symmetry_Int_Tables_number   1
_chemical_formula_structural   Ce3Er13MgZn2Co4Hg
_chemical_formula_sum   'Ce3 Er13 Mg1 Zn2 Co4 Hg1'
_cell_volume   575.73926055
_cell_formula_units_Z   1
loop_
 _symmetry_equiv_pos_site_id
 _symmetry_equiv_pos_as_xyz
  1  'x, y, z'
loop_
 _atom_site_type_symbol
 _atom_site_label
 _atom_site_symmetry_multiplicity
 _atom_site_fract_x
 _atom_site_fract_y
 _atom_site_fract_z
 _atom_site_occupancy
  Ce  Ce0  1  0.591703  0.596389  0.596389  1
  Ce  Ce1  1  0.590487  0.595639  0.216799  1
  Ce  Ce2  1  0.590487  0.216799  0.595639  1
  Er  Er3  1  0.193658  0.601677  0.601677  1
  Er  Er4  1  0.059976  0.440339  0.440339  1
  Er  Er5  1  0.437199  0.062577  0.062577  1
  Er  Er6  1  0.438260  0.062202  0.437437  1
  Er  Er7  1  0.060601  0.439063  0.059844  1
  Er  Er8  1  0.438260  0.437437  0.062202  1
  Er  Er9  1  0.060601  0.059844  0.439063  1
  Er  Er10  1  0.184620  0.814758  0.814758  1
  Er  Er11  1  0.810699  0.187720  0.187720  1
  Er  Er12  1  0.810112  0.190625  0.813608  1
  Er  Er13  1  0.180886  0.815393  0.188533  1
  Er  Er14  1  0.810112  0.813608  0.190625  1
  Er  Er15  1  0.180886  0.188533  0.815393  1
  Mg  Mg16  1  0.530455  0.822505  0.822505  1
  Zn  Zn17  1  0.834116  0.829838  0.503228  1
  Zn  Zn18  1  0.834116  0.503228  0.829838  1
  Co  Co19  1  0.404636  0.389489  0.389489  1
  Co  Co20  1  0.405168  0.389791  0.815748  1
  Co  Co21  1  0.405168  0.815748  0.389791  1
  Co  Co22  1  0.813738  0.395770  0.395770  1
  Hg  Hg23  1  0.834053  0.831028  0.831028  1
