# generated using pymatgen
data_NiHg(SeO4)2
_symmetry_space_group_name_H-M   'P 1'
_cell_length_a   5.06014645
_cell_length_b   5.06014579
_cell_length_c   7.13606589
_cell_angle_alpha   89.65617088
_cell_angle_beta   90.34382689
_cell_angle_gamma   112.96124804
_symmetry_Int_Tables_number   1
_chemical_formula_structural   NiHg(SeO4)2
_chemical_formula_sum   'Ni1 Hg1 Se2 O8'
_cell_volume   168.23810389
_cell_formula_units_Z   1
loop_
 _symmetry_equiv_pos_site_id
 _symmetry_equiv_pos_as_xyz
  1  'x, y, z'
loop_
 _atom_site_type_symbol
 _atom_site_label
 _atom_site_symmetry_multiplicity
 _atom_site_fract_x
 _atom_site_fract_y
 _atom_site_fract_z
 _atom_site_occupancy
  Ni  Ni0  1  0.000000  0.000000  0.500000  1
  Hg  Hg1  1  0.000000  0.000000  0.000000  1
  Se  Se2  1  0.356087  0.643913  0.728701  1
  Se  Se3  1  0.643913  0.356087  0.271299  1
  O  O4  1  0.230334  0.278991  0.719209  1
  O  O5  1  0.769666  0.721009  0.280791  1
  O  O6  1  0.278991  0.230334  0.280791  1
  O  O7  1  0.721009  0.769666  0.719209  1
  O  O8  1  0.273115  0.726885  0.940284  1
  O  O9  1  0.762239  0.237761  0.456583  1
  O  O10  1  0.726885  0.273115  0.059716  1
  O  O11  1  0.237761  0.762239  0.543417  1
