# generated using pymatgen
data_Dy3ErSc2MnBi2
_symmetry_space_group_name_H-M   'P 1'
_cell_length_a   4.26754600
_cell_length_b   8.06534728
_cell_length_c   8.06362406
_cell_angle_alpha   120.00706470
_cell_angle_beta   90.00000000
_cell_angle_gamma   90.00000000
_symmetry_Int_Tables_number   1
_chemical_formula_structural   Dy3ErSc2MnBi2
_chemical_formula_sum   'Dy3 Er1 Sc2 Mn1 Bi2'
_cell_volume   240.34288254
_cell_formula_units_Z   1
loop_
 _symmetry_equiv_pos_site_id
 _symmetry_equiv_pos_as_xyz
  1  'x, y, z'
loop_
 _atom_site_type_symbol
 _atom_site_label
 _atom_site_symmetry_multiplicity
 _atom_site_fract_x
 _atom_site_fract_y
 _atom_site_fract_z
 _atom_site_occupancy
  Dy  Dy0  1  0.000000  0.391811  0.393902  1
  Dy  Dy1  1  0.000000  0.997909  0.606098  1
  Dy  Dy2  1  0.000000  0.613141  0.000000  1
  Er  Er3  1  0.500000  0.227486  0.000000  1
  Sc  Sc4  1  0.500000  0.774297  0.775899  1
  Sc  Sc5  1  0.500000  0.998398  0.224101  1
  Mn  Mn6  1  0.000000  0.991262  0.000000  1
  Bi  Bi7  1  0.500000  0.671384  0.337071  1
  Bi  Bi8  1  0.500000  0.334313  0.662929  1
