# generated using pymatgen
data_Dy5Y(Ga2Si)4
_symmetry_space_group_name_H-M   'P 1'
_cell_length_a   4.06915650
_cell_length_b   4.14523710
_cell_length_c   21.77258021
_cell_angle_alpha   84.58993171
_cell_angle_beta   84.65581958
_cell_angle_gamma   89.99894405
_symmetry_Int_Tables_number   1
_chemical_formula_structural   Dy5Y(Ga2Si)4
_chemical_formula_sum   'Dy5 Y1 Ga8 Si4'
_cell_volume   364.01212963
_cell_formula_units_Z   1
loop_
 _symmetry_equiv_pos_site_id
 _symmetry_equiv_pos_as_xyz
  1  'x, y, z'
loop_
 _atom_site_type_symbol
 _atom_site_label
 _atom_site_symmetry_multiplicity
 _atom_site_fract_x
 _atom_site_fract_y
 _atom_site_fract_z
 _atom_site_occupancy
  Dy  Dy0  1  0.291113  0.040684  0.418882  1
  Dy  Dy1  1  0.623941  0.373552  0.753042  1
  Dy  Dy2  1  0.376465  0.626998  0.245948  1
  Dy  Dy3  1  0.708778  0.959379  0.581112  1
  Dy  Dy4  1  0.040886  0.291302  0.917234  1
  Y  Y5  1  0.958653  0.708518  0.083620  1
  Ga  Ga6  1  0.819847  0.570195  0.359884  1
  Ga  Ga7  1  0.152547  0.902843  0.694456  1
  Ga  Ga8  1  0.431480  0.181420  0.137037  1
  Ga  Ga9  1  0.764159  0.514521  0.470961  1
  Ga  Ga10  1  0.096838  0.847068  0.805667  1
  Ga  Ga11  1  0.847720  0.097549  0.304578  1
  Ga  Ga12  1  0.180555  0.430307  0.639085  1
  Ga  Ga13  1  0.513283  0.763599  0.972775  1
  Si  Si14  1  0.902942  0.152546  0.195023  1
  Si  Si15  1  0.235834  0.485204  0.529451  1
  Si  Si16  1  0.568638  0.818157  0.863468  1
  Si  Si17  1  0.486324  0.236158  0.027774  1
