# generated using pymatgen
data_TaI10Cl
_symmetry_space_group_name_H-M   'P 1'
_cell_length_a   8.43130728
_cell_length_b   8.93447440
_cell_length_c   9.12655403
_cell_angle_alpha   93.45714598
_cell_angle_beta   90.53081288
_cell_angle_gamma   107.81087118
_symmetry_Int_Tables_number   1
_chemical_formula_structural   TaI10Cl
_chemical_formula_sum   'Ta1 I10 Cl1'
_cell_volume   653.07719758
_cell_formula_units_Z   1
loop_
 _symmetry_equiv_pos_site_id
 _symmetry_equiv_pos_as_xyz
  1  'x, y, z'
loop_
 _atom_site_type_symbol
 _atom_site_label
 _atom_site_symmetry_multiplicity
 _atom_site_fract_x
 _atom_site_fract_y
 _atom_site_fract_z
 _atom_site_occupancy
  Ta  Ta0  1  0.018537  0.510034  0.523285  1
  I  I1  1  0.021828  0.994281  0.984606  1
  I  I2  1  0.696931  0.762912  0.858243  1
  I  I3  1  0.324713  0.212875  0.102402  1
  I  I4  1  0.673959  0.284096  0.542904  1
  I  I5  1  0.305912  0.730441  0.477312  1
  I  I6  1  0.517077  0.745451  0.118744  1
  I  I7  1  0.523710  0.250834  0.828086  1
  I  I8  1  0.854722  0.753878  0.545679  1
  I  I9  1  0.139709  0.266705  0.503218  1
  I  I10  1  0.900067  0.464764  0.239707  1
  Cl  Cl11  1  0.022833  0.523727  0.775813  1
