# generated using pymatgen
data_TeRuCl9
_symmetry_space_group_name_H-M   'P 1'
_cell_length_a   11.43431100
_cell_length_b   6.68367124
_cell_length_c   9.77842793
_cell_angle_alpha   76.46287597
_cell_angle_beta   90.00000000
_cell_angle_gamma   90.00000000
_symmetry_Int_Tables_number   1
_chemical_formula_structural   TeRuCl9
_chemical_formula_sum   'Te2 Ru2 Cl18'
_cell_volume   726.53740951
_cell_formula_units_Z   2
loop_
 _symmetry_equiv_pos_site_id
 _symmetry_equiv_pos_as_xyz
  1  'x, y, z'
loop_
 _atom_site_type_symbol
 _atom_site_label
 _atom_site_symmetry_multiplicity
 _atom_site_fract_x
 _atom_site_fract_y
 _atom_site_fract_z
 _atom_site_occupancy
  Te  Te0  1  0.250000  0.758984  0.466214  1
  Te  Te1  1  0.750000  0.241016  0.533786  1
  Ru  Ru2  1  0.250000  0.647038  0.849887  1
  Ru  Ru3  1  0.750000  0.352962  0.150113  1
  Cl  Cl4  1  0.606886  0.450343  0.302944  1
  Cl  Cl5  1  0.106886  0.549657  0.697056  1
  Cl  Cl6  1  0.393114  0.549657  0.697056  1
  Cl  Cl7  1  0.893114  0.450343  0.302944  1
  Cl  Cl8  1  0.750000  0.677148  0.014801  1
  Cl  Cl9  1  0.250000  0.322852  0.985199  1
  Cl  Cl10  1  0.750000  0.513544  0.651809  1
  Cl  Cl11  1  0.250000  0.486456  0.348191  1
  Cl  Cl12  1  0.750000  0.022394  0.313276  1
  Cl  Cl13  1  0.250000  0.977606  0.686724  1
  Cl  Cl14  1  0.894432  0.246533  0.026260  1
  Cl  Cl15  1  0.394432  0.753467  0.973740  1
  Cl  Cl16  1  0.105568  0.753467  0.973740  1
  Cl  Cl17  1  0.605568  0.246533  0.026260  1
  Cl  Cl18  1  0.904371  0.051118  0.665883  1
  Cl  Cl19  1  0.404371  0.948882  0.334117  1
  Cl  Cl20  1  0.095629  0.948882  0.334117  1
  Cl  Cl21  1  0.595629  0.051118  0.665883  1
