# generated using pymatgen
data_Ta6VSi6Tc5
_symmetry_space_group_name_H-M   'P 1'
_cell_length_a   7.54067949
_cell_length_b   7.53064208
_cell_length_c   7.53064158
_cell_angle_alpha   127.12165632
_cell_angle_beta   124.98228124
_cell_angle_gamma   79.78395318
_symmetry_Int_Tables_number   1
_chemical_formula_structural   Ta6VSi6Tc5
_chemical_formula_sum   'Ta6 V1 Si6 Tc5'
_cell_volume   269.90444371
_cell_formula_units_Z   1
loop_
 _symmetry_equiv_pos_site_id
 _symmetry_equiv_pos_as_xyz
  1  'x, y, z'
loop_
 _atom_site_type_symbol
 _atom_site_label
 _atom_site_symmetry_multiplicity
 _atom_site_fract_x
 _atom_site_fract_y
 _atom_site_fract_z
 _atom_site_occupancy
  Ta  Ta0  1  0.557859  0.099960  0.044666  1
  Ta  Ta1  1  0.442141  0.486806  0.542100  1
  Ta  Ta2  1  0.961943  0.492852  0.031303  1
  Ta  Ta3  1  0.038057  0.069360  0.530909  1
  Ta  Ta4  1  0.756431  0.914149  0.663764  1
  Ta  Ta5  1  0.243569  0.907332  0.157719  1
  V  V6  1  0.000000  0.244983  0.244983  1
  Si  Si7  1  0.337202  0.824961  0.497382  1
  Si  Si8  1  0.662798  0.160179  0.487758  1
  Si  Si9  1  0.827174  0.827439  0.989679  1
  Si  Si10  1  0.172826  0.162504  0.000265  1
  Si  Si11  1  0.774422  0.529676  0.257833  1
  Si  Si12  1  0.225578  0.483411  0.755255  1
  Tc  Tc13  1  0.159714  0.751814  0.656395  1
  Tc  Tc14  1  0.840286  0.496680  0.592100  1
  Tc  Tc15  1  0.597259  0.749400  0.093023  1
  Tc  Tc16  1  0.402741  0.495763  0.152141  1
  Tc  Tc17  1  0.500000  0.244728  0.744728  1
