# generated using pymatgen
data_YbSmGa9CoPd2
_symmetry_space_group_name_H-M   'P 1'
_cell_length_a   7.58987063
_cell_length_b   7.58987080
_cell_length_c   9.52532900
_cell_angle_alpha   90.00000000
_cell_angle_beta   90.00000000
_cell_angle_gamma   119.34554968
_symmetry_Int_Tables_number   1
_chemical_formula_structural   YbSmGa9CoPd2
_chemical_formula_sum   'Yb2 Sm2 Ga18 Co2 Pd4'
_cell_volume   478.30596122
_cell_formula_units_Z   2
loop_
 _symmetry_equiv_pos_site_id
 _symmetry_equiv_pos_as_xyz
  1  'x, y, z'
loop_
 _atom_site_type_symbol
 _atom_site_label
 _atom_site_symmetry_multiplicity
 _atom_site_fract_x
 _atom_site_fract_y
 _atom_site_fract_z
 _atom_site_occupancy
  Yb  Yb0  1  0.668250  0.986889  0.750000  1
  Yb  Yb1  1  0.013111  0.331750  0.250000  1
  Sm  Sm2  1  0.318912  0.992000  0.250000  1
  Sm  Sm3  1  0.008000  0.681088  0.750000  1
  Ga  Ga4  1  0.351586  0.016906  0.919249  1
  Ga  Ga5  1  0.983094  0.648414  0.080751  1
  Ga  Ga6  1  0.351586  0.016906  0.580751  1
  Ga  Ga7  1  0.983094  0.648414  0.419249  1
  Ga  Ga8  1  0.668268  0.018625  0.077762  1
  Ga  Ga9  1  0.981375  0.331732  0.922238  1
  Ga  Ga10  1  0.668268  0.018625  0.422238  1
  Ga  Ga11  1  0.981375  0.331732  0.577762  1
  Ga  Ga12  1  0.664623  0.658398  0.936210  1
  Ga  Ga13  1  0.341602  0.335377  0.063790  1
  Ga  Ga14  1  0.664623  0.658398  0.563790  1
  Ga  Ga15  1  0.341602  0.335377  0.436210  1
  Ga  Ga16  1  0.131746  0.138305  0.750000  1
  Ga  Ga17  1  0.861695  0.868254  0.250000  1
  Ga  Ga18  1  0.462605  0.663018  0.250000  1
  Ga  Ga19  1  0.336982  0.537395  0.750000  1
  Ga  Ga20  1  0.570277  0.339071  0.750000  1
  Ga  Ga21  1  0.660929  0.429723  0.250000  1
  Co  Co22  1  0.667457  0.332543  0.000000  1
  Co  Co23  1  0.667457  0.332543  0.500000  1
  Pd  Pd24  1  0.999806  0.000194  0.000000  1
  Pd  Pd25  1  0.999806  0.000194  0.500000  1
  Pd  Pd26  1  0.325938  0.674062  0.000000  1
  Pd  Pd27  1  0.325938  0.674062  0.500000  1
