# generated using pymatgen
data_Tb4DyGePb3
_symmetry_space_group_name_H-M   'P 1'
_cell_length_a   9.38715900
_cell_length_b   9.38715861
_cell_length_c   6.56954400
_cell_angle_alpha   90.00000000
_cell_angle_beta   90.00000000
_cell_angle_gamma   119.99999786
_symmetry_Int_Tables_number   1
_chemical_formula_structural   Tb4DyGePb3
_chemical_formula_sum   'Tb8 Dy2 Ge2 Pb6'
_cell_volume   501.34212409
_cell_formula_units_Z   2
loop_
 _symmetry_equiv_pos_site_id
 _symmetry_equiv_pos_as_xyz
  1  'x, y, z'
loop_
 _atom_site_type_symbol
 _atom_site_label
 _atom_site_symmetry_multiplicity
 _atom_site_fract_x
 _atom_site_fract_y
 _atom_site_fract_z
 _atom_site_occupancy
  Tb  Tb0  1  0.251642  0.000000  0.249952  1
  Tb  Tb1  1  0.748358  0.000000  0.750048  1
  Tb  Tb2  1  0.000000  0.251642  0.249952  1
  Tb  Tb3  1  0.000000  0.748358  0.750048  1
  Tb  Tb4  1  0.748358  0.748358  0.249952  1
  Tb  Tb5  1  0.251642  0.251642  0.750048  1
  Tb  Tb6  1  0.333333  0.666667  0.000000  1
  Tb  Tb7  1  0.666667  0.333333  0.000000  1
  Dy  Dy8  1  0.666667  0.333333  0.500000  1
  Dy  Dy9  1  0.333333  0.666667  0.500000  1
  Ge  Ge10  1  0.000000  0.000000  0.000000  1
  Ge  Ge11  1  0.000000  0.000000  0.500000  1
  Pb  Pb12  1  0.607953  0.000000  0.250046  1
  Pb  Pb13  1  0.392047  0.000000  0.749954  1
  Pb  Pb14  1  0.000000  0.607953  0.250046  1
  Pb  Pb15  1  0.000000  0.392047  0.749954  1
  Pb  Pb16  1  0.392047  0.392047  0.250046  1
  Pb  Pb17  1  0.607953  0.607953  0.749954  1
