# generated using pymatgen
data_YLu2Ga2Co9B4
_symmetry_space_group_name_H-M   'P 1'
_cell_length_a   5.11220600
_cell_length_b   5.11192728
_cell_length_c   9.53737900
_cell_angle_alpha   89.99988560
_cell_angle_beta   90.00030484
_cell_angle_gamma   120.00179071
_symmetry_Int_Tables_number   1
_chemical_formula_structural   YLu2Ga2Co9B4
_chemical_formula_sum   'Y1 Lu2 Ga2 Co9 B4'
_cell_volume   215.84641941
_cell_formula_units_Z   1
loop_
 _symmetry_equiv_pos_site_id
 _symmetry_equiv_pos_as_xyz
  1  'x, y, z'
loop_
 _atom_site_type_symbol
 _atom_site_label
 _atom_site_symmetry_multiplicity
 _atom_site_fract_x
 _atom_site_fract_y
 _atom_site_fract_z
 _atom_site_occupancy
  Y  Y0  1  0.999984  0.999992  0.999989  1
  Lu  Lu1  1  0.999996  0.000008  0.340165  1
  Lu  Lu2  1  0.999980  0.999999  0.659786  1
  Ga  Ga3  1  0.333360  0.666730  0.000013  1
  Ga  Ga4  1  0.666626  0.333268  0.000013  1
  Co  Co5  1  0.499994  0.000001  0.499992  1
  Co  Co6  1  0.499997  0.500000  0.500000  1
  Co  Co7  1  0.999996  0.500001  0.500000  1
  Co  Co8  1  0.499996  0.000002  0.207823  1
  Co  Co9  1  0.499992  0.500002  0.207812  1
  Co  Co10  1  0.999992  0.500001  0.207819  1
  Co  Co11  1  0.499996  0.000001  0.792196  1
  Co  Co12  1  0.500000  0.499996  0.792199  1
  Co  Co13  1  0.000000  0.500001  0.792188  1
  B  B14  1  0.333333  0.666675  0.349333  1
  B  B15  1  0.666656  0.333324  0.349333  1
  B  B16  1  0.666661  0.333313  0.650670  1
  B  B17  1  0.333340  0.666687  0.650670  1
