# generated using pymatgen
data_TbDyLuGa5Ni
_symmetry_space_group_name_H-M   'P 1'
_cell_length_a   6.84118575
_cell_length_b   6.92246862
_cell_length_c   4.22173700
_cell_angle_alpha   90.00000000
_cell_angle_beta   90.00000000
_cell_angle_gamma   120.29427611
_symmetry_Int_Tables_number   1
_chemical_formula_structural   TbDyLuGa5Ni
_chemical_formula_sum   'Tb1 Dy1 Lu1 Ga5 Ni1'
_cell_volume   172.63096921
_cell_formula_units_Z   1
loop_
 _symmetry_equiv_pos_site_id
 _symmetry_equiv_pos_as_xyz
  1  'x, y, z'
loop_
 _atom_site_type_symbol
 _atom_site_label
 _atom_site_symmetry_multiplicity
 _atom_site_fract_x
 _atom_site_fract_y
 _atom_site_fract_z
 _atom_site_occupancy
  Tb  Tb0  1  0.594369  0.001811  0.500000  1
  Dy  Dy1  1  0.404732  0.406546  0.500000  1
  Lu  Lu2  1  0.000068  0.598424  0.500000  1
  Ga  Ga3  1  0.235154  0.998927  0.000000  1
  Ga  Ga4  1  0.000404  0.235819  0.000000  1
  Ga  Ga5  1  0.671429  0.336742  0.000000  1
  Ga  Ga6  1  0.328771  0.663956  0.000000  1
  Ga  Ga7  1  0.765160  0.763786  0.000000  1
  Ni  Ni8  1  0.999912  0.993990  0.500000  1
