# generated using pymatgen
data_Sr4Ho3TmLu4O16
_symmetry_space_group_name_H-M   'P 1'
_cell_length_a   3.36624100
_cell_length_b   10.04095474
_cell_length_c   11.84039188
_cell_angle_alpha   89.95592490
_cell_angle_beta   90.00000000
_cell_angle_gamma   90.00000000
_symmetry_Int_Tables_number   1
_chemical_formula_structural   Sr4Ho3TmLu4O16
_chemical_formula_sum   'Sr4 Ho3 Tm1 Lu4 O16'
_cell_volume   400.20836574
_cell_formula_units_Z   1
loop_
 _symmetry_equiv_pos_site_id
 _symmetry_equiv_pos_as_xyz
  1  'x, y, z'
loop_
 _atom_site_type_symbol
 _atom_site_label
 _atom_site_symmetry_multiplicity
 _atom_site_fract_x
 _atom_site_fract_y
 _atom_site_fract_z
 _atom_site_occupancy
  Sr  Sr0  1  0.750000  0.254000  0.850228  1
  Sr  Sr1  1  0.250000  0.745801  0.149932  1
  Sr  Sr2  1  0.750000  0.753937  0.649527  1
  Sr  Sr3  1  0.250000  0.246225  0.350268  1
  Ho  Ho4  1  0.750000  0.924387  0.887545  1
  Ho  Ho5  1  0.250000  0.075573  0.112424  1
  Ho  Ho6  1  0.750000  0.424664  0.612149  1
  Tm  Tm7  1  0.250000  0.574719  0.387391  1
  Lu  Lu8  1  0.250000  0.577480  0.891314  1
  Lu  Lu9  1  0.750000  0.422719  0.108978  1
  Lu  Lu10  1  0.250000  0.077406  0.608703  1
  Lu  Lu11  1  0.750000  0.922233  0.391394  1
  O  O12  1  0.250000  0.576296  0.575744  1
  O  O13  1  0.750000  0.425219  0.422556  1
  O  O14  1  0.250000  0.076206  0.922998  1
  O  O15  1  0.750000  0.923803  0.077039  1
  O  O16  1  0.250000  0.482113  0.215202  1
  O  O17  1  0.750000  0.518477  0.785582  1
  O  O18  1  0.250000  0.981493  0.285680  1
  O  O19  1  0.750000  0.018465  0.714343  1
  O  O20  1  0.250000  0.878768  0.519851  1
  O  O21  1  0.750000  0.121497  0.480129  1
  O  O22  1  0.250000  0.378617  0.980331  1
  O  O23  1  0.750000  0.621407  0.019801  1
  O  O24  1  0.750000  0.711436  0.330223  1
  O  O25  1  0.250000  0.287050  0.670645  1
  O  O26  1  0.750000  0.213057  0.170676  1
  O  O27  1  0.250000  0.786951  0.829347  1
