# generated using pymatgen
data_YHo9(InGa2)2
_symmetry_space_group_name_H-M   'P 1'
_cell_length_a   7.72752838
_cell_length_b   7.72776900
_cell_length_c   14.31020870
_cell_angle_alpha   90.00000000
_cell_angle_beta   90.03592998
_cell_angle_gamma   90.00000000
_symmetry_Int_Tables_number   1
_chemical_formula_structural   YHo9(InGa2)2
_chemical_formula_sum   'Y2 Ho18 In4 Ga8'
_cell_volume   854.55618649
_cell_formula_units_Z   2
loop_
 _symmetry_equiv_pos_site_id
 _symmetry_equiv_pos_as_xyz
  1  'x, y, z'
loop_
 _atom_site_type_symbol
 _atom_site_label
 _atom_site_symmetry_multiplicity
 _atom_site_fract_x
 _atom_site_fract_y
 _atom_site_fract_z
 _atom_site_occupancy
  Y  Y0  1  0.673274  0.661053  0.605988  1
  Y  Y1  1  0.673274  0.338947  0.105988  1
  Ho  Ho2  1  0.000325  0.499873  0.759808  1
  Ho  Ho3  1  0.000325  0.500127  0.259808  1
  Ho  Ho4  1  0.499832  0.999708  0.240622  1
  Ho  Ho5  1  0.499832  0.000292  0.740622  1
  Ho  Ho6  1  0.826969  0.839344  0.393638  1
  Ho  Ho7  1  0.173325  0.839137  0.893810  1
  Ho  Ho8  1  0.326443  0.338887  0.606271  1
  Ho  Ho9  1  0.326443  0.661113  0.106271  1
  Ho  Ho10  1  0.173325  0.160863  0.393810  1
  Ho  Ho11  1  0.826969  0.160656  0.893638  1
  Ho  Ho12  1  0.660912  0.326651  0.393666  1
  Ho  Ho13  1  0.339040  0.326694  0.893799  1
  Ho  Ho14  1  0.160995  0.826740  0.606230  1
  Ho  Ho15  1  0.839119  0.826828  0.106238  1
  Ho  Ho16  1  0.339040  0.673306  0.393799  1
  Ho  Ho17  1  0.660912  0.673349  0.893666  1
  Ho  Ho18  1  0.839119  0.173172  0.606238  1
  Ho  Ho19  1  0.160995  0.173260  0.106230  1
  In  In20  1  0.999967  0.500102  0.496239  1
  In  In21  1  0.999967  0.499898  0.996239  1
  In  In22  1  0.500080  0.999878  0.503552  1
  In  In23  1  0.500080  0.000122  0.003552  1
  Ga  Ga24  1  0.876031  0.875625  0.749919  1
  Ga  Ga25  1  0.876031  0.124375  0.249919  1
  Ga  Ga26  1  0.624069  0.624439  0.250096  1
  Ga  Ga27  1  0.375482  0.624174  0.750137  1
  Ga  Ga28  1  0.124139  0.124082  0.749988  1
  Ga  Ga29  1  0.124139  0.875918  0.249988  1
  Ga  Ga30  1  0.375482  0.375826  0.250137  1
  Ga  Ga31  1  0.624069  0.375561  0.750096  1
