# generated using pymatgen
data_Be8AlCr2Cu
_symmetry_space_group_name_H-M   'P 1'
_cell_length_a   4.25840002
_cell_length_b   4.25828944
_cell_length_c   7.00840801
_cell_angle_alpha   89.99999943
_cell_angle_beta   90.00048749
_cell_angle_gamma   60.00085304
_symmetry_Int_Tables_number   1
_chemical_formula_structural   Be8AlCr2Cu
_chemical_formula_sum   'Be8 Al1 Cr2 Cu1'
_cell_volume   110.06148663
_cell_formula_units_Z   1
loop_
 _symmetry_equiv_pos_site_id
 _symmetry_equiv_pos_as_xyz
  1  'x, y, z'
loop_
 _atom_site_type_symbol
 _atom_site_label
 _atom_site_symmetry_multiplicity
 _atom_site_fract_x
 _atom_site_fract_y
 _atom_site_fract_z
 _atom_site_occupancy
  Be  Be0  1  0.000003  0.999999  0.501480  1
  Be  Be1  1  0.000003  0.999999  0.998377  1
  Be  Be2  1  0.832069  0.335884  0.755557  1
  Be  Be3  1  0.335899  0.832051  0.755547  1
  Be  Be4  1  0.832069  0.832047  0.755557  1
  Be  Be5  1  0.167919  0.664151  0.243664  1
  Be  Be6  1  0.664160  0.167920  0.243670  1
  Be  Be7  1  0.167919  0.167930  0.243664  1
  Al  Al8  1  0.666675  0.666663  0.430115  1
  Cr  Cr9  1  0.666602  0.666700  0.048637  1
  Cr  Cr10  1  0.333476  0.333262  0.953867  1
  Cu  Cu11  1  0.333207  0.333396  0.569863  1
