# generated using pymatgen
data_Ho9Lu(In2Rh)4
_symmetry_space_group_name_H-M   'P 1'
_cell_length_a   3.59082100
_cell_length_b   8.00796571
_cell_length_c   18.22208544
_cell_angle_alpha   89.88973965
_cell_angle_beta   90.00000000
_cell_angle_gamma   90.00000000
_symmetry_Int_Tables_number   1
_chemical_formula_structural   Ho9Lu(In2Rh)4
_chemical_formula_sum   'Ho9 Lu1 In8 Rh4'
_cell_volume   523.97822023
_cell_formula_units_Z   1
loop_
 _symmetry_equiv_pos_site_id
 _symmetry_equiv_pos_as_xyz
  1  'x, y, z'
loop_
 _atom_site_type_symbol
 _atom_site_label
 _atom_site_symmetry_multiplicity
 _atom_site_fract_x
 _atom_site_fract_y
 _atom_site_fract_z
 _atom_site_occupancy
  Ho  Ho0  1  0.000000  0.882252  0.087528  1
  Ho  Ho1  1  0.000000  0.753469  0.279286  1
  Ho  Ho2  1  0.000000  0.746450  0.778472  1
  Ho  Ho3  1  0.000000  0.382229  0.412973  1
  Ho  Ho4  1  0.000000  0.117566  0.912256  1
  Ho  Ho5  1  0.000000  0.246109  0.720513  1
  Ho  Ho6  1  0.000000  0.500006  0.999804  1
  Ho  Ho7  1  0.000000  0.253505  0.221312  1
  Ho  Ho8  1  0.000000  0.000342  0.500413  1
  Lu  Lu9  1  0.000000  0.617441  0.588279  1
  In  In10  1  0.500000  0.206665  0.067282  1
  In  In11  1  0.500000  0.429577  0.849583  1
  In  In12  1  0.500000  0.569705  0.149745  1
  In  In13  1  0.500000  0.070515  0.350771  1
  In  In14  1  0.500000  0.926988  0.649249  1
  In  In15  1  0.500000  0.792992  0.932340  1
  In  In16  1  0.500000  0.705629  0.434151  1
  In  In17  1  0.500000  0.296347  0.567240  1
  Rh  Rh18  1  0.500000  0.975294  0.196042  1
  Rh  Rh19  1  0.500000  0.025218  0.803747  1
  Rh  Rh20  1  0.500000  0.525663  0.694205  1
  Rh  Rh21  1  0.500000  0.476039  0.304809  1
