# generated using pymatgen
data_Ca6TaNbSb6(O6F)4
_symmetry_space_group_name_H-M   'P 1'
_cell_length_a   10.48927000
_cell_length_b   10.48876545
_cell_length_c   10.48876600
_cell_angle_alpha   89.78412903
_cell_angle_beta   90.00000000
_cell_angle_gamma   90.00000000
_symmetry_Int_Tables_number   1
_chemical_formula_structural   Ca6TaNbSb6(O6F)4
_chemical_formula_sum   'Ca12 Ta2 Nb2 Sb12 O48 F8'
_cell_volume   1153.96052417
_cell_formula_units_Z   2
loop_
 _symmetry_equiv_pos_site_id
 _symmetry_equiv_pos_as_xyz
  1  'x, y, z'
loop_
 _atom_site_type_symbol
 _atom_site_label
 _atom_site_symmetry_multiplicity
 _atom_site_fract_x
 _atom_site_fract_y
 _atom_site_fract_z
 _atom_site_occupancy
  Ca  Ca0  1  0.875000  0.865292  0.615292  1
  Ca  Ca1  1  0.884915  0.124847  0.364663  1
  Ca  Ca2  1  0.635048  0.384419  0.375287  1
  Ca  Ca3  1  0.865085  0.614663  0.874847  1
  Ca  Ca4  1  0.375000  0.634225  0.384225  1
  Ca  Ca5  1  0.125128  0.365142  0.885165  1
  Ca  Ca6  1  0.365046  0.885373  0.124958  1
  Ca  Ca7  1  0.624872  0.135165  0.115142  1
  Ca  Ca8  1  0.114952  0.625287  0.134419  1
  Ca  Ca9  1  0.616035  0.875185  0.865779  1
  Ca  Ca10  1  0.133965  0.115779  0.625185  1
  Ca  Ca11  1  0.384954  0.374958  0.635373  1
  Ta  Ta12  1  0.875000  0.124138  0.874138  1
  Ta  Ta13  1  0.875000  0.625203  0.375203  1
  Nb  Nb14  1  0.624029  0.375887  0.873823  1
  Nb  Nb15  1  0.125971  0.123823  0.125887  1
  Sb  Sb16  1  0.872839  0.874090  0.123405  1
  Sb  Sb17  1  0.372358  0.626127  0.876424  1
  Sb  Sb18  1  0.626836  0.123735  0.622386  1
  Sb  Sb19  1  0.375000  0.377492  0.127492  1
  Sb  Sb20  1  0.375000  0.874942  0.624942  1
  Sb  Sb21  1  0.127242  0.375398  0.377272  1
  Sb  Sb22  1  0.123164  0.872386  0.873735  1
  Sb  Sb23  1  0.125374  0.623803  0.626643  1
  Sb  Sb24  1  0.622758  0.627272  0.125398  1
  Sb  Sb25  1  0.377642  0.126424  0.376127  1
  Sb  Sb26  1  0.877161  0.373405  0.624090  1
  Sb  Sb27  1  0.624626  0.876643  0.373803  1
  O  O28  1  0.002788  0.495766  0.702781  1
  O  O29  1  0.304982  0.010508  0.508849  1
  O  O30  1  0.491052  0.805238  0.489683  1
  O  O31  1  0.252292  0.454085  0.254425  1
  O  O32  1  0.060688  0.241161  0.261734  1
  O  O33  1  0.988028  0.008518  0.190753  1
  O  O34  1  0.046593  0.744928  0.752056  1
  O  O35  1  0.739057  0.560650  0.259227  1
  O  O36  1  0.990923  0.689754  0.510782  1
  O  O37  1  0.741932  0.238003  0.936132  1
  O  O38  1  0.495482  0.704009  0.001847  1
  O  O39  1  0.004606  0.296511  0.502034  1
  O  O40  1  0.502726  0.004445  0.296997  1
  O  O41  1  0.689312  0.511734  0.991161  1
  O  O42  1  0.995998  0.795632  0.997941  1
  O  O43  1  0.497708  0.504425  0.204085  1
  O  O44  1  0.801705  0.997331  0.996287  1
  O  O45  1  0.241041  0.262436  0.060330  1
  O  O46  1  0.759077  0.760782  0.439754  1
  O  O47  1  0.296518  0.503015  0.004362  1
  O  O48  1  0.254518  0.251847  0.454009  1
  O  O49  1  0.940075  0.740594  0.239160  1
  O  O50  1  0.247274  0.546997  0.754445  1
  O  O51  1  0.504518  0.203310  0.497650  1
  O  O52  1  0.445018  0.758849  0.760508  1
  O  O53  1  0.703407  0.002056  0.494928  1
  O  O54  1  0.997932  0.994168  0.799707  1
  O  O55  1  0.239951  0.944222  0.740922  1
  O  O56  1  0.245482  0.747650  0.953310  1
  O  O57  1  0.745394  0.752034  0.046511  1
  O  O58  1  0.204027  0.498335  0.504340  1
  O  O59  1  0.189358  0.988029  0.008603  1
  O  O60  1  0.560642  0.258603  0.738029  1
  O  O61  1  0.258948  0.739683  0.555238  1
  O  O62  1  0.487187  0.491589  0.810082  1
  O  O63  1  0.752068  0.049707  0.744168  1
  O  O64  1  0.453482  0.254362  0.253015  1
  O  O65  1  0.761972  0.440753  0.758518  1
  O  O66  1  0.754002  0.247941  0.545632  1
  O  O67  1  0.010943  0.509227  0.310650  1
  O  O68  1  0.545973  0.754340  0.248335  1
  O  O69  1  0.948295  0.246287  0.747331  1
  O  O70  1  0.262813  0.060082  0.241589  1
  O  O71  1  0.747212  0.952781  0.245766  1
  O  O72  1  0.510049  0.990922  0.694222  1
  O  O73  1  0.508959  0.310330  0.012436  1
  O  O74  1  0.809925  0.489160  0.490594  1
  O  O75  1  0.008068  0.186132  0.988003  1
  F  F76  1  0.510883  0.990484  0.010456  1
  F  F77  1  0.009993  0.509021  0.990062  1
  F  F78  1  0.490148  0.488979  0.490059  1
  F  F79  1  0.259852  0.740059  0.238979  1
  F  F80  1  0.740007  0.240062  0.259021  1
  F  F81  1  0.989484  0.010391  0.510523  1
  F  F82  1  0.239117  0.260456  0.740484  1
  F  F83  1  0.760516  0.760523  0.760391  1
