# generated using pymatgen
data_Zr6Fe15Si7Tc
_symmetry_space_group_name_H-M   'P 1'
_cell_length_a   8.13437801
_cell_length_b   8.13437742
_cell_length_c   8.14811178
_cell_angle_alpha   60.05574255
_cell_angle_beta   60.05574180
_cell_angle_gamma   59.99999530
_symmetry_Int_Tables_number   1
_chemical_formula_structural   Zr6Fe15Si7Tc
_chemical_formula_sum   'Zr6 Fe15 Si7 Tc1'
_cell_volume   381.55401938
_cell_formula_units_Z   1
loop_
 _symmetry_equiv_pos_site_id
 _symmetry_equiv_pos_as_xyz
  1  'x, y, z'
loop_
 _atom_site_type_symbol
 _atom_site_label
 _atom_site_symmetry_multiplicity
 _atom_site_fract_x
 _atom_site_fract_y
 _atom_site_fract_z
 _atom_site_occupancy
  Zr  Zr0  1  0.702486  0.702486  0.295326  1
  Zr  Zr1  1  0.299701  0.702486  0.295326  1
  Zr  Zr2  1  0.702486  0.299701  0.295326  1
  Zr  Zr3  1  0.292240  0.292240  0.708806  1
  Zr  Zr4  1  0.706713  0.292240  0.708806  1
  Zr  Zr5  1  0.292240  0.706713  0.708806  1
  Fe  Fe6  1  0.876619  0.367275  0.879489  1
  Fe  Fe7  1  0.367275  0.876619  0.879489  1
  Fe  Fe8  1  0.876619  0.876619  0.879489  1
  Fe  Fe9  1  0.123117  0.123117  0.630649  1
  Fe  Fe10  1  0.122001  0.634463  0.121533  1
  Fe  Fe11  1  0.634463  0.122001  0.121533  1
  Fe  Fe12  1  0.122001  0.122001  0.121533  1
  Fe  Fe13  1  0.676156  0.676156  0.971532  1
  Fe  Fe14  1  0.674550  0.971757  0.679143  1
  Fe  Fe15  1  0.971757  0.674550  0.679143  1
  Fe  Fe16  1  0.674550  0.674550  0.679143  1
  Fe  Fe17  1  0.323600  0.323600  0.029201  1
  Fe  Fe18  1  0.324581  0.028411  0.322426  1
  Fe  Fe19  1  0.028411  0.324581  0.322426  1
  Fe  Fe20  1  0.324581  0.324581  0.322426  1
  Si  Si21  1  0.006312  0.006312  0.981065  1
  Si  Si22  1  0.001295  0.001295  0.502895  1
  Si  Si23  1  0.494516  0.001295  0.502895  1
  Si  Si24  1  0.001295  0.494516  0.502895  1
  Si  Si25  1  0.499590  0.499590  0.000879  1
  Si  Si26  1  0.999940  0.499590  0.000879  1
  Si  Si27  1  0.499590  0.999940  0.000879  1
  Tc  Tc28  1  0.881314  0.881314  0.356059  1
