# generated using pymatgen
data_SrPrNd5OsBr12
_symmetry_space_group_name_H-M   'P 1'
_cell_length_a   9.58719498
_cell_length_b   9.55955120
_cell_length_c   9.69424147
_cell_angle_alpha   106.01726170
_cell_angle_beta   106.70971298
_cell_angle_gamma   106.17100885
_symmetry_Int_Tables_number   1
_chemical_formula_structural   SrPrNd5OsBr12
_chemical_formula_sum   'Sr1 Pr1 Nd5 Os1 Br12'
_cell_volume   753.59835532
_cell_formula_units_Z   1
loop_
 _symmetry_equiv_pos_site_id
 _symmetry_equiv_pos_as_xyz
  1  'x, y, z'
loop_
 _atom_site_type_symbol
 _atom_site_label
 _atom_site_symmetry_multiplicity
 _atom_site_fract_x
 _atom_site_fract_y
 _atom_site_fract_z
 _atom_site_occupancy
  Sr  Sr0  1  0.500075  0.499905  0.500268  1
  Pr  Pr1  1  0.101292  0.307963  0.018942  1
  Nd  Nd2  1  0.307654  0.020002  0.101759  1
  Nd  Nd3  1  0.018990  0.105244  0.316430  1
  Nd  Nd4  1  0.980762  0.893697  0.683177  1
  Nd  Nd5  1  0.692233  0.980186  0.898315  1
  Nd  Nd6  1  0.899026  0.694068  0.980834  1
  Os  Os7  1  0.999943  0.000063  0.999727  1
  Br  Br8  1  0.219460  0.682609  0.072410  1
  Br  Br9  1  0.450627  0.366904  0.153660  1
  Br  Br10  1  0.680004  0.070894  0.216849  1
  Br  Br11  1  0.928649  0.781249  0.317740  1
  Br  Br12  1  0.150670  0.448587  0.366995  1
  Br  Br13  1  0.364348  0.148732  0.445565  1
  Br  Br14  1  0.635631  0.851051  0.554388  1
  Br  Br15  1  0.849716  0.551511  0.635498  1
  Br  Br16  1  0.070705  0.216754  0.679292  1
  Br  Br17  1  0.319968  0.928932  0.783152  1
  Br  Br18  1  0.552081  0.633287  0.847936  1
  Br  Br19  1  0.778166  0.318364  0.927062  1
