# generated using pymatgen
data_TbDy9(Bi3P)2
_symmetry_space_group_name_H-M   'P 1'
_cell_length_a   9.23303900
_cell_length_b   9.23303983
_cell_length_c   6.68012600
_cell_angle_alpha   90.00000000
_cell_angle_beta   90.00000000
_cell_angle_gamma   120.00000060
_symmetry_Int_Tables_number   1
_chemical_formula_structural   TbDy9(Bi3P)2
_chemical_formula_sum   'Tb1 Dy9 Bi6 P2'
_cell_volume   493.17909847
_cell_formula_units_Z   1
loop_
 _symmetry_equiv_pos_site_id
 _symmetry_equiv_pos_as_xyz
  1  'x, y, z'
loop_
 _atom_site_type_symbol
 _atom_site_label
 _atom_site_symmetry_multiplicity
 _atom_site_fract_x
 _atom_site_fract_y
 _atom_site_fract_z
 _atom_site_occupancy
  Tb  Tb0  1  0.666667  0.333333  0.000000  1
  Dy  Dy1  1  0.666667  0.333333  0.500000  1
  Dy  Dy2  1  0.333333  0.666667  0.500000  1
  Dy  Dy3  1  0.333333  0.666667  0.000000  1
  Dy  Dy4  1  0.762913  0.762894  0.250038  1
  Dy  Dy5  1  0.237106  0.000019  0.250038  1
  Dy  Dy6  1  0.999981  0.237087  0.250038  1
  Dy  Dy7  1  0.237106  0.237087  0.749962  1
  Dy  Dy8  1  0.762913  0.000019  0.749962  1
  Dy  Dy9  1  0.999981  0.762894  0.749962  1
  Bi  Bi10  1  0.399475  0.399648  0.250157  1
  Bi  Bi11  1  0.600352  0.999827  0.250157  1
  Bi  Bi12  1  0.000173  0.600525  0.250157  1
  Bi  Bi13  1  0.600352  0.600525  0.749843  1
  Bi  Bi14  1  0.399475  0.999827  0.749843  1
  Bi  Bi15  1  0.000173  0.399648  0.749843  1
  P  P16  1  0.000000  0.000000  0.500000  1
  P  P17  1  0.000000  0.000000  0.000000  1
