# generated using pymatgen
data_NbP2AuF12
_symmetry_space_group_name_H-M   'P 1'
_cell_length_a   8.51096131
_cell_length_b   9.14209600
_cell_length_c   8.53488048
_cell_angle_alpha   90.00000000
_cell_angle_beta   119.65758488
_cell_angle_gamma   90.00000000
_symmetry_Int_Tables_number   1
_chemical_formula_structural   NbP2AuF12
_chemical_formula_sum   'Nb2 P4 Au2 F24'
_cell_volume   577.08613784
_cell_formula_units_Z   2
loop_
 _symmetry_equiv_pos_site_id
 _symmetry_equiv_pos_as_xyz
  1  'x, y, z'
loop_
 _atom_site_type_symbol
 _atom_site_label
 _atom_site_symmetry_multiplicity
 _atom_site_fract_x
 _atom_site_fract_y
 _atom_site_fract_z
 _atom_site_occupancy
  Nb  Nb0  1  0.000000  0.500000  0.500000  1
  Nb  Nb1  1  0.000000  0.000000  0.000000  1
  P  P2  1  0.691380  0.027049  0.347961  1
  P  P3  1  0.308620  0.527049  0.152039  1
  P  P4  1  0.308620  0.972951  0.652039  1
  P  P5  1  0.691380  0.472951  0.847961  1
  Au  Au6  1  0.000000  0.000000  0.500000  1
  Au  Au7  1  0.000000  0.500000  0.000000  1
  F  F8  1  0.164531  0.420922  0.736802  1
  F  F9  1  0.835469  0.920922  0.763198  1
  F  F10  1  0.835469  0.579078  0.263198  1
  F  F11  1  0.164531  0.079078  0.236802  1
  F  F12  1  0.142153  0.411265  0.404278  1
  F  F13  1  0.857847  0.911265  0.095722  1
  F  F14  1  0.857847  0.588735  0.595722  1
  F  F15  1  0.142153  0.088735  0.904278  1
  F  F16  1  0.147163  0.676238  0.559483  1
  F  F17  1  0.852837  0.176238  0.940517  1
  F  F18  1  0.852837  0.323762  0.440517  1
  F  F19  1  0.147163  0.823762  0.059483  1
  F  F20  1  0.602588  0.112896  0.440893  1
  F  F21  1  0.397412  0.612896  0.059107  1
  F  F22  1  0.397412  0.887104  0.559107  1
  F  F23  1  0.602588  0.387104  0.940893  1
  F  F24  1  0.605751  0.103397  0.160963  1
  F  F25  1  0.394249  0.603397  0.339037  1
  F  F26  1  0.394249  0.896603  0.839037  1
  F  F27  1  0.605751  0.396603  0.660963  1
  F  F28  1  0.582486  0.881290  0.299260  1
  F  F29  1  0.417514  0.381290  0.200740  1
  F  F30  1  0.417514  0.118710  0.700740  1
  F  F31  1  0.582486  0.618710  0.799260  1
