# generated using pymatgen
data_DyHo2Er7Ru4
_symmetry_space_group_name_H-M   'P 1'
_cell_length_a   6.29694129
_cell_length_b   7.26616532
_cell_length_c   8.42473119
_cell_angle_alpha   96.79402801
_cell_angle_beta   112.04510036
_cell_angle_gamma   89.99655466
_symmetry_Int_Tables_number   1
_chemical_formula_structural   DyHo2Er7Ru4
_chemical_formula_sum   'Dy1 Ho2 Er7 Ru4'
_cell_volume   354.36718517
_cell_formula_units_Z   1
loop_
 _symmetry_equiv_pos_site_id
 _symmetry_equiv_pos_as_xyz
  1  'x, y, z'
loop_
 _atom_site_type_symbol
 _atom_site_label
 _atom_site_symmetry_multiplicity
 _atom_site_fract_x
 _atom_site_fract_y
 _atom_site_fract_z
 _atom_site_occupancy
  Dy  Dy0  1  0.209008  0.415780  0.187000  1
  Ho  Ho1  1  0.791265  0.584276  0.812766  1
  Ho  Ho2  1  0.977832  0.915812  0.186437  1
  Er  Er3  1  0.021643  0.084325  0.813418  1
  Er  Er4  1  0.205960  0.684810  0.565694  1
  Er  Er5  1  0.640625  0.815368  0.434948  1
  Er  Er6  1  0.794363  0.315133  0.434710  1
  Er  Er7  1  0.359444  0.184781  0.565502  1
  Er  Er8  1  0.419673  0.749895  0.999701  1
  Er  Er9  1  0.580079  0.250116  0.999900  1
  Ru  Ru10  1  0.602770  0.924367  0.779146  1
  Ru  Ru11  1  0.822818  0.576630  0.220862  1
  Ru  Ru12  1  0.397848  0.075545  0.220725  1
  Ru  Ru13  1  0.176673  0.423159  0.779191  1
