# generated using pymatgen
data_La4PrNd5Ir4
_symmetry_space_group_name_H-M   'P 1'
_cell_length_a   9.13225226
_cell_length_b   9.13645883
_cell_length_c   7.34988661
_cell_angle_alpha   84.10770995
_cell_angle_beta   84.07295156
_cell_angle_gamma   43.27624102
_symmetry_Int_Tables_number   1
_chemical_formula_structural   La4PrNd5Ir4
_chemical_formula_sum   'La4 Pr1 Nd5 Ir4'
_cell_volume   417.80490285
_cell_formula_units_Z   1
loop_
 _symmetry_equiv_pos_site_id
 _symmetry_equiv_pos_as_xyz
  1  'x, y, z'
loop_
 _atom_site_type_symbol
 _atom_site_label
 _atom_site_symmetry_multiplicity
 _atom_site_fract_x
 _atom_site_fract_y
 _atom_site_fract_z
 _atom_site_occupancy
  La  La0  1  0.016057  0.796582  0.915066  1
  La  La1  1  0.203497  0.983901  0.584963  1
  La  La2  1  0.983876  0.203542  0.085128  1
  La  La3  1  0.796649  0.015903  0.414950  1
  Pr  Pr4  1  0.353745  0.213227  0.818238  1
  Nd  Nd5  1  0.786613  0.645900  0.681489  1
  Nd  Nd6  1  0.646031  0.786482  0.181753  1
  Nd  Nd7  1  0.213267  0.354107  0.318403  1
  Nd  Nd8  1  0.569245  0.430951  0.749997  1
  Nd  Nd9  1  0.430825  0.569210  0.249979  1
  Ir  Ir10  1  0.177706  0.599181  0.578183  1
  Ir  Ir11  1  0.401439  0.821676  0.921530  1
  Ir  Ir12  1  0.822066  0.401409  0.421471  1
  Ir  Ir13  1  0.598984  0.177928  0.078850  1
