# generated using pymatgen
data_NaYb2As4(PPd10)2
_symmetry_space_group_name_H-M   'P 1'
_cell_length_a   8.77259408
_cell_length_b   8.77259431
_cell_length_c   8.84772600
_cell_angle_alpha   59.71627883
_cell_angle_beta   59.71627795
_cell_angle_gamma   60.56743408
_symmetry_Int_Tables_number   1
_chemical_formula_structural   NaYb2As4(PPd10)2
_chemical_formula_sum   'Na1 Yb2 As4 P2 Pd20'
_cell_volume   481.40261891
_cell_formula_units_Z   1
loop_
 _symmetry_equiv_pos_site_id
 _symmetry_equiv_pos_as_xyz
  1  'x, y, z'
loop_
 _atom_site_type_symbol
 _atom_site_label
 _atom_site_symmetry_multiplicity
 _atom_site_fract_x
 _atom_site_fract_y
 _atom_site_fract_z
 _atom_site_occupancy
  Na  Na0  1  0.000000  0.000000  0.000000  1
  Yb  Yb1  1  0.250000  0.250000  0.250000  1
  Yb  Yb2  1  0.750000  0.750000  0.750000  1
  As  As3  1  0.738610  0.261390  0.261390  1
  As  As4  1  0.261390  0.738610  0.738610  1
  As  As5  1  0.261390  0.738610  0.261390  1
  As  As6  1  0.738610  0.261390  0.738610  1
  P  P7  1  0.263980  0.263980  0.736020  1
  P  P8  1  0.736020  0.736020  0.263980  1
  Pd  Pd9  1  0.382126  0.382126  0.390073  1
  Pd  Pd10  1  0.617874  0.617874  0.609927  1
  Pd  Pd11  1  0.382126  0.382126  0.845676  1
  Pd  Pd12  1  0.390073  0.845676  0.382126  1
  Pd  Pd13  1  0.617874  0.617874  0.154324  1
  Pd  Pd14  1  0.609927  0.154324  0.617874  1
  Pd  Pd15  1  0.845676  0.390073  0.382126  1
  Pd  Pd16  1  0.154324  0.609927  0.617874  1
  Pd  Pd17  1  0.347641  0.009812  0.990188  1
  Pd  Pd18  1  0.652359  0.990188  0.009812  1
  Pd  Pd19  1  0.009812  0.347641  0.652359  1
  Pd  Pd20  1  0.990188  0.652359  0.347641  1
  Pd  Pd21  1  0.009812  0.347641  0.990188  1
  Pd  Pd22  1  0.652359  0.990188  0.347641  1
  Pd  Pd23  1  0.990188  0.652359  0.009812  1
  Pd  Pd24  1  0.347641  0.009812  0.652359  1
  Pd  Pd25  1  0.000000  0.000000  0.349868  1
  Pd  Pd26  1  0.000000  0.000000  0.650132  1
  Pd  Pd27  1  0.650132  0.349868  0.000000  1
  Pd  Pd28  1  0.349868  0.650132  0.000000  1
