# generated using pymatgen
data_Dy2TaFe8P6W
_symmetry_space_group_name_H-M   'P 1'
_cell_length_a   3.68187900
_cell_length_b   10.42906200
_cell_length_c   12.29466600
_cell_angle_alpha   90.00000000
_cell_angle_beta   90.00000000
_cell_angle_gamma   90.00000000
_symmetry_Int_Tables_number   1
_chemical_formula_structural   Dy2TaFe8P6W
_chemical_formula_sum   'Dy4 Ta2 Fe16 P12 W2'
_cell_volume   472.09727788
_cell_formula_units_Z   2
loop_
 _symmetry_equiv_pos_site_id
 _symmetry_equiv_pos_as_xyz
  1  'x, y, z'
loop_
 _atom_site_type_symbol
 _atom_site_label
 _atom_site_symmetry_multiplicity
 _atom_site_fract_x
 _atom_site_fract_y
 _atom_site_fract_z
 _atom_site_occupancy
  Dy  Dy0  1  0.250000  0.585228  0.712221  1
  Dy  Dy1  1  0.250000  0.914772  0.212221  1
  Dy  Dy2  1  0.750000  0.418078  0.288186  1
  Dy  Dy3  1  0.750000  0.081922  0.788186  1
  Ta  Ta4  1  0.750000  0.296632  0.008161  1
  Ta  Ta5  1  0.750000  0.203368  0.508161  1
  Fe  Fe6  1  0.250000  0.417516  0.491445  1
  Fe  Fe7  1  0.250000  0.082484  0.991445  1
  Fe  Fe8  1  0.750000  0.587085  0.508976  1
  Fe  Fe9  1  0.750000  0.912915  0.008976  1
  Fe  Fe10  1  0.250000  0.214900  0.170741  1
  Fe  Fe11  1  0.250000  0.285100  0.670741  1
  Fe  Fe12  1  0.750000  0.781320  0.827475  1
  Fe  Fe13  1  0.750000  0.718680  0.327475  1
  Fe  Fe14  1  0.250000  0.880688  0.696655  1
  Fe  Fe15  1  0.250000  0.619312  0.196655  1
  Fe  Fe16  1  0.750000  0.118630  0.302905  1
  Fe  Fe17  1  0.750000  0.381370  0.802905  1
  Fe  Fe18  1  0.250000  0.465750  0.935296  1
  Fe  Fe19  1  0.250000  0.034250  0.435296  1
  Fe  Fe20  1  0.750000  0.537305  0.064895  1
  Fe  Fe21  1  0.750000  0.962695  0.564895  1
  P  P22  1  0.250000  0.424313  0.114149  1
  P  P23  1  0.250000  0.075687  0.614149  1
  P  P24  1  0.750000  0.577953  0.887780  1
  P  P25  1  0.750000  0.922047  0.387780  1
  P  P26  1  0.250000  0.274184  0.855076  1
  P  P27  1  0.250000  0.225816  0.355076  1
  P  P28  1  0.750000  0.727132  0.142540  1
  P  P29  1  0.750000  0.772868  0.642540  1
  P  P30  1  0.250000  0.601266  0.377932  1
  P  P31  1  0.250000  0.898734  0.877932  1
  P  P32  1  0.750000  0.404864  0.623182  1
  P  P33  1  0.750000  0.095136  0.123182  1
  W  W34  1  0.250000  0.705437  0.992387  1
  W  W35  1  0.250000  0.794563  0.492387  1
