# generated using pymatgen
data_Pr2Eu6Be3Si12Pd
_symmetry_space_group_name_H-M   'P 1'
_cell_length_a   8.09552900
_cell_length_b   8.09552895
_cell_length_c   8.85549400
_cell_angle_alpha   90.00000000
_cell_angle_beta   90.00000000
_cell_angle_gamma   119.99999613
_symmetry_Int_Tables_number   1
_chemical_formula_structural   Pr2Eu6Be3Si12Pd
_chemical_formula_sum   'Pr2 Eu6 Be3 Si12 Pd1'
_cell_volume   502.61321686
_cell_formula_units_Z   1
loop_
 _symmetry_equiv_pos_site_id
 _symmetry_equiv_pos_as_xyz
  1  'x, y, z'
loop_
 _atom_site_type_symbol
 _atom_site_label
 _atom_site_symmetry_multiplicity
 _atom_site_fract_x
 _atom_site_fract_y
 _atom_site_fract_z
 _atom_site_occupancy
  Pr  Pr0  1  0.000000  0.000000  0.749324  1
  Pr  Pr1  1  0.000000  0.000000  0.250759  1
  Eu  Eu2  1  0.499445  0.500555  0.750216  1
  Eu  Eu3  1  0.499556  0.500444  0.249790  1
  Eu  Eu4  1  0.001110  0.500555  0.750216  1
  Eu  Eu5  1  0.000888  0.500444  0.249790  1
  Eu  Eu6  1  0.499445  0.998890  0.750216  1
  Eu  Eu7  1  0.499556  0.999112  0.249790  1
  Be  Be8  1  0.666667  0.333333  0.999109  1
  Be  Be9  1  0.333333  0.666667  0.001056  1
  Be  Be10  1  0.333333  0.666667  0.499386  1
  Si  Si11  1  0.827686  0.172314  0.000059  1
  Si  Si12  1  0.171755  0.828245  0.000073  1
  Si  Si13  1  0.344627  0.172314  0.000059  1
  Si  Si14  1  0.170389  0.829611  0.499924  1
  Si  Si15  1  0.656491  0.828245  0.000073  1
  Si  Si16  1  0.833683  0.166317  0.500086  1
  Si  Si17  1  0.827686  0.655373  0.000059  1
  Si  Si18  1  0.659221  0.829611  0.499924  1
  Si  Si19  1  0.171755  0.343509  0.000073  1
  Si  Si20  1  0.332636  0.166317  0.500086  1
  Si  Si21  1  0.170389  0.340779  0.499924  1
  Si  Si22  1  0.833683  0.667364  0.500086  1
  Pd  Pd23  1  0.666667  0.333333  0.499923  1
