# generated using pymatgen
data_Sc2Co9B6Sb
_symmetry_space_group_name_H-M   'P 1'
_cell_length_a   5.69885376
_cell_length_b   5.69885279
_cell_length_c   5.69885327
_cell_angle_alpha   95.50970959
_cell_angle_beta   95.50972242
_cell_angle_gamma   95.50972143
_symmetry_Int_Tables_number   1
_chemical_formula_structural   Sc2Co9B6Sb
_chemical_formula_sum   'Sc2 Co9 B6 Sb1'
_cell_volume   182.33775426
_cell_formula_units_Z   1
loop_
 _symmetry_equiv_pos_site_id
 _symmetry_equiv_pos_as_xyz
  1  'x, y, z'
loop_
 _atom_site_type_symbol
 _atom_site_label
 _atom_site_symmetry_multiplicity
 _atom_site_fract_x
 _atom_site_fract_y
 _atom_site_fract_z
 _atom_site_occupancy
  Sc  Sc0  1  0.671884  0.671884  0.671884  1
  Sc  Sc1  1  0.328116  0.328116  0.328116  1
  Co  Co2  1  0.000000  0.000000  0.500000  1
  Co  Co3  1  0.500000  0.000000  0.000000  1
  Co  Co4  1  0.000000  0.500000  0.000000  1
  Co  Co5  1  0.703494  0.199372  0.703494  1
  Co  Co6  1  0.703494  0.703494  0.199372  1
  Co  Co7  1  0.199372  0.703494  0.703494  1
  Co  Co8  1  0.296506  0.800628  0.296506  1
  Co  Co9  1  0.296506  0.296506  0.800628  1
  Co  Co10  1  0.800628  0.296506  0.296506  1
  B  B11  1  0.612351  0.387649  0.000000  1
  B  B12  1  0.000000  0.612351  0.387649  1
  B  B13  1  0.387649  0.000000  0.612351  1
  B  B14  1  0.000000  0.387649  0.612351  1
  B  B15  1  0.612351  0.000000  0.387649  1
  B  B16  1  0.387649  0.612351  0.000000  1
  Sb  Sb17  1  0.000000  0.000000  0.000000  1
