# generated using pymatgen
data_HfZrSiB2Ru5
_symmetry_space_group_name_H-M   'P 1'
_cell_length_a   9.32949417
_cell_length_b   9.32949417
_cell_length_c   3.03874100
_cell_angle_alpha   90.00000000
_cell_angle_beta   90.00000000
_cell_angle_gamma   90.14207425
_symmetry_Int_Tables_number   1
_chemical_formula_structural   HfZrSiB2Ru5
_chemical_formula_sum   'Hf2 Zr2 Si2 B4 Ru10'
_cell_volume   264.48956707
_cell_formula_units_Z   2
loop_
 _symmetry_equiv_pos_site_id
 _symmetry_equiv_pos_as_xyz
  1  'x, y, z'
loop_
 _atom_site_type_symbol
 _atom_site_label
 _atom_site_symmetry_multiplicity
 _atom_site_fract_x
 _atom_site_fract_y
 _atom_site_fract_z
 _atom_site_occupancy
  Hf  Hf0  1  0.675126  0.175126  0.000000  1
  Hf  Hf1  1  0.324874  0.824874  0.000000  1
  Zr  Zr2  1  0.175779  0.324221  0.000000  1
  Zr  Zr3  1  0.824221  0.675779  0.000000  1
  Si  Si4  1  0.000000  0.000000  0.000000  1
  Si  Si5  1  0.500000  0.500000  0.000000  1
  B  B6  1  0.124591  0.624591  0.000000  1
  B  B7  1  0.875409  0.375409  0.000000  1
  B  B8  1  0.623665  0.876335  0.000000  1
  B  B9  1  0.376335  0.123665  0.000000  1
  Ru  Ru10  1  0.211348  0.066807  0.500000  1
  Ru  Ru11  1  0.788652  0.933193  0.500000  1
  Ru  Ru12  1  0.069435  0.789391  0.500000  1
  Ru  Ru13  1  0.710609  0.430565  0.500000  1
  Ru  Ru14  1  0.930565  0.210609  0.500000  1
  Ru  Ru15  1  0.289391  0.569435  0.500000  1
  Ru  Ru16  1  0.566807  0.711348  0.500000  1
  Ru  Ru17  1  0.433193  0.288652  0.500000  1
  Ru  Ru18  1  0.500000  0.000000  0.500000  1
  Ru  Ru19  1  0.000000  0.500000  0.500000  1
