# generated using pymatgen
data_Mg4Ga3Co5
_symmetry_space_group_name_H-M   'P 1'
_cell_length_a   4.98844954
_cell_length_b   4.98907510
_cell_length_c   8.01955800
_cell_angle_alpha   90.00000000
_cell_angle_beta   90.00000000
_cell_angle_gamma   120.04931543
_symmetry_Int_Tables_number   1
_chemical_formula_structural   Mg4Ga3Co5
_chemical_formula_sum   'Mg4 Ga3 Co5'
_cell_volume   172.76296902
_cell_formula_units_Z   1
loop_
 _symmetry_equiv_pos_site_id
 _symmetry_equiv_pos_as_xyz
  1  'x, y, z'
loop_
 _atom_site_type_symbol
 _atom_site_label
 _atom_site_symmetry_multiplicity
 _atom_site_fract_x
 _atom_site_fract_y
 _atom_site_fract_z
 _atom_site_occupancy
  Mg  Mg0  1  0.328518  0.664240  0.061493  1
  Mg  Mg1  1  0.328518  0.664240  0.438507  1
  Mg  Mg2  1  0.674556  0.337281  0.574278  1
  Mg  Mg3  1  0.674556  0.337281  0.925722  1
  Ga  Ga4  1  0.973840  0.987019  0.991559  1
  Ga  Ga5  1  0.360524  0.180230  0.250000  1
  Ga  Ga6  1  0.973840  0.987019  0.508440  1
  Co  Co7  1  0.848150  0.182854  0.250000  1
  Co  Co8  1  0.848114  0.665215  0.250000  1
  Co  Co9  1  0.175283  0.344727  0.750000  1
  Co  Co10  1  0.175272  0.830530  0.750000  1
  Co  Co11  1  0.638832  0.819366  0.750000  1
