# generated using pymatgen
data_U8B23W4C
_symmetry_space_group_name_H-M   'P 1'
_cell_length_a   9.28934084
_cell_length_b   11.33804451
_cell_length_c   3.67672500
_cell_angle_alpha   90.00000000
_cell_angle_beta   90.00000000
_cell_angle_gamma   89.81687226
_symmetry_Int_Tables_number   1
_chemical_formula_structural   U8B23W4C
_chemical_formula_sum   'U8 B23 W4 C1'
_cell_volume   387.24158166
_cell_formula_units_Z   1
loop_
 _symmetry_equiv_pos_site_id
 _symmetry_equiv_pos_as_xyz
  1  'x, y, z'
loop_
 _atom_site_type_symbol
 _atom_site_label
 _atom_site_symmetry_multiplicity
 _atom_site_fract_x
 _atom_site_fract_y
 _atom_site_fract_z
 _atom_site_occupancy
  U  U0  1  0.836255  0.092993  0.000000  1
  U  U1  1  0.456684  0.104464  0.000000  1
  U  U2  1  0.956105  0.394662  0.000000  1
  U  U3  1  0.334689  0.407145  0.000000  1
  U  U4  1  0.664977  0.592133  0.000000  1
  U  U5  1  0.043156  0.605798  0.000000  1
  U  U6  1  0.543696  0.895733  0.000000  1
  U  U7  1  0.164446  0.907589  0.000000  1
  B  B8  1  0.050041  0.067055  0.499999  1
  B  B9  1  0.244093  0.075861  0.499999  1
  B  B10  1  0.647149  0.181802  0.499999  1
  B  B11  1  0.985858  0.218598  0.499999  1
  B  B12  1  0.304457  0.227305  0.499999  1
  B  B13  1  0.804812  0.271353  0.499999  1
  B  B14  1  0.485666  0.279594  0.499999  1
  B  B15  1  0.144902  0.312819  0.499999  1
  B  B16  1  0.743398  0.423275  0.499999  1
  B  B17  1  0.550006  0.431798  0.499999  1
  B  B18  1  0.141843  0.460832  0.499999  1
  B  B19  1  0.857100  0.539481  0.499999  1
  B  B20  1  0.450206  0.566055  0.499999  1
  B  B21  1  0.256212  0.575490  0.499999  1
  B  B22  1  0.854176  0.688432  0.499999  1
  B  B23  1  0.514519  0.718469  0.499999  1
  B  B24  1  0.195339  0.727547  0.499999  1
  B  B25  1  0.694593  0.774095  0.499999  1
  B  B26  1  0.013180  0.782272  0.499999  1
  B  B27  1  0.355293  0.812502  0.499999  1
  B  B28  1  0.753373  0.929337  0.499999  1
  B  B29  1  0.949427  0.934694  0.499999  1
  B  B30  1  0.356250  0.960068  0.499999  1
  W  W31  1  0.145568  0.180041  0.000000  1
  W  W32  1  0.645340  0.318135  0.000000  1
  W  W33  1  0.354840  0.679515  0.000000  1
  W  W34  1  0.853448  0.821843  0.000000  1
  C  C35  1  0.648901  0.041215  0.499999  1
