# generated using pymatgen
data_Tl(SbO3)3
_symmetry_space_group_name_H-M   'P 1'
_cell_length_a   7.50504100
_cell_length_b   5.38857369
_cell_length_c   8.18163400
_cell_angle_alpha   86.14840934
_cell_angle_beta   90.00000000
_cell_angle_gamma   90.00000000
_symmetry_Int_Tables_number   1
_chemical_formula_structural   Tl(SbO3)3
_chemical_formula_sum   'Tl2 Sb6 O18'
_cell_volume   330.12995417
_cell_formula_units_Z   2
loop_
 _symmetry_equiv_pos_site_id
 _symmetry_equiv_pos_as_xyz
  1  'x, y, z'
loop_
 _atom_site_type_symbol
 _atom_site_label
 _atom_site_symmetry_multiplicity
 _atom_site_fract_x
 _atom_site_fract_y
 _atom_site_fract_z
 _atom_site_occupancy
  Tl  Tl0  1  0.250000  0.965708  0.434002  1
  Tl  Tl1  1  0.750000  0.034292  0.565998  1
  Sb  Sb2  1  0.000000  0.000000  0.000000  1
  Sb  Sb3  1  0.500000  0.000000  0.000000  1
  Sb  Sb4  1  0.495633  0.530901  0.697506  1
  Sb  Sb5  1  0.004367  0.530901  0.697506  1
  Sb  Sb6  1  0.995633  0.469099  0.302494  1
  Sb  Sb7  1  0.504367  0.469099  0.302494  1
  O  O8  1  0.250000  0.880081  0.984331  1
  O  O9  1  0.937436  0.854022  0.781168  1
  O  O10  1  0.562564  0.854022  0.781168  1
  O  O11  1  0.954859  0.734488  0.473715  1
  O  O12  1  0.545141  0.734488  0.473715  1
  O  O13  1  0.250000  0.667986  0.657951  1
  O  O14  1  0.931970  0.675935  0.112657  1
  O  O15  1  0.568030  0.675935  0.112657  1
  O  O16  1  0.250000  0.595761  0.307244  1
  O  O17  1  0.750000  0.404239  0.692756  1
  O  O18  1  0.068030  0.324065  0.887343  1
  O  O19  1  0.431970  0.324065  0.887343  1
  O  O20  1  0.750000  0.332014  0.342049  1
  O  O21  1  0.045141  0.265512  0.526285  1
  O  O22  1  0.454859  0.265512  0.526285  1
  O  O23  1  0.062564  0.145978  0.218832  1
  O  O24  1  0.437436  0.145978  0.218832  1
  O  O25  1  0.750000  0.119919  0.015669  1
