# generated using pymatgen
data_Y4ErZr3Pt4
_symmetry_space_group_name_H-M   'P 1'
_cell_length_a   4.73029000
_cell_length_b   7.15300373
_cell_length_c   8.35742167
_cell_angle_alpha   89.03198848
_cell_angle_beta   90.00000000
_cell_angle_gamma   90.00000000
_symmetry_Int_Tables_number   1
_chemical_formula_structural   Y4ErZr3Pt4
_chemical_formula_sum   'Y4 Er1 Zr3 Pt4'
_cell_volume   282.73954039
_cell_formula_units_Z   1
loop_
 _symmetry_equiv_pos_site_id
 _symmetry_equiv_pos_as_xyz
  1  'x, y, z'
loop_
 _atom_site_type_symbol
 _atom_site_label
 _atom_site_symmetry_multiplicity
 _atom_site_fract_x
 _atom_site_fract_y
 _atom_site_fract_z
 _atom_site_occupancy
  Y  Y0  1  0.250000  0.013665  0.674671  1
  Y  Y1  1  0.250000  0.520746  0.827753  1
  Y  Y2  1  0.750000  0.979264  0.319246  1
  Y  Y3  1  0.750000  0.482151  0.179448  1
  Er  Er4  1  0.750000  0.353009  0.580114  1
  Zr  Zr5  1  0.250000  0.142320  0.076201  1
  Zr  Zr6  1  0.250000  0.647828  0.422691  1
  Zr  Zr7  1  0.750000  0.852641  0.921371  1
  Pt  Pt8  1  0.250000  0.268817  0.391604  1
  Pt  Pt9  1  0.250000  0.769599  0.095401  1
  Pt  Pt10  1  0.750000  0.742077  0.596249  1
  Pt  Pt11  1  0.750000  0.227881  0.915255  1
