# generated using pymatgen
data_Tb16Tl2ZnInRh4
_symmetry_space_group_name_H-M   'P 1'
_cell_length_a   9.66708675
_cell_length_b   9.67107819
_cell_length_c   9.67107906
_cell_angle_alpha   60.14299295
_cell_angle_beta   60.10501998
_cell_angle_gamma   60.10501577
_symmetry_Int_Tables_number   1
_chemical_formula_structural   Tb16Tl2ZnInRh4
_chemical_formula_sum   'Tb16 Tl2 Zn1 In1 Rh4'
_cell_volume   641.04219987
_cell_formula_units_Z   1
loop_
 _symmetry_equiv_pos_site_id
 _symmetry_equiv_pos_as_xyz
  1  'x, y, z'
loop_
 _atom_site_type_symbol
 _atom_site_label
 _atom_site_symmetry_multiplicity
 _atom_site_fract_x
 _atom_site_fract_y
 _atom_site_fract_z
 _atom_site_occupancy
  Tb  Tb0  1  0.811296  0.809929  0.189805  1
  Tb  Tb1  1  0.811296  0.189805  0.809929  1
  Tb  Tb2  1  0.188759  0.188523  0.812890  1
  Tb  Tb3  1  0.647536  0.052973  0.646950  1
  Tb  Tb4  1  0.060811  0.061937  0.438751  1
  Tb  Tb5  1  0.436232  0.435988  0.069191  1
  Tb  Tb6  1  0.652120  0.651499  0.651499  1
  Tb  Tb7  1  0.813350  0.189068  0.189068  1
  Tb  Tb8  1  0.189802  0.810685  0.810685  1
  Tb  Tb9  1  0.052900  0.647190  0.647190  1
  Tb  Tb10  1  0.439328  0.060772  0.060772  1
  Tb  Tb11  1  0.436232  0.069191  0.435988  1
  Tb  Tb12  1  0.060811  0.438751  0.061937  1
  Tb  Tb13  1  0.647536  0.646950  0.052973  1
  Tb  Tb14  1  0.188759  0.812890  0.188523  1
  Tb  Tb15  1  0.068391  0.435809  0.435809  1
  Tl  Tl16  1  0.416616  0.415040  0.750252  1
  Tl  Tl17  1  0.416616  0.750252  0.415040  1
  Zn  Zn18  1  0.417081  0.415291  0.415291  1
  In  In19  1  0.744640  0.417572  0.417572  1
  Rh  Rh20  1  0.858234  0.426991  0.858422  1
  Rh  Rh21  1  0.856061  0.856214  0.856214  1
  Rh  Rh22  1  0.858234  0.858422  0.426991  1
  Rh  Rh23  1  0.427356  0.858257  0.858257  1
