# generated using pymatgen
data_SmEr4Tl2(InPd)2
_symmetry_space_group_name_H-M   'P 1'
_cell_length_a   3.63175600
_cell_length_b   8.18472200
_cell_length_c   18.28463500
_cell_angle_alpha   90.00000000
_cell_angle_beta   90.00000000
_cell_angle_gamma   90.00000000
_symmetry_Int_Tables_number   1
_chemical_formula_structural   SmEr4Tl2(InPd)2
_chemical_formula_sum   'Sm2 Er8 Tl4 In4 Pd4'
_cell_volume   543.50918885
_cell_formula_units_Z   2
loop_
 _symmetry_equiv_pos_site_id
 _symmetry_equiv_pos_as_xyz
  1  'x, y, z'
loop_
 _atom_site_type_symbol
 _atom_site_label
 _atom_site_symmetry_multiplicity
 _atom_site_fract_x
 _atom_site_fract_y
 _atom_site_fract_z
 _atom_site_occupancy
  Sm  Sm0  1  0.000000  0.500000  0.500000  1
  Sm  Sm1  1  0.000000  0.000000  0.000000  1
  Er  Er2  1  0.000000  0.741129  0.282537  1
  Er  Er3  1  0.000000  0.258871  0.717463  1
  Er  Er4  1  0.000000  0.758871  0.782537  1
  Er  Er5  1  0.000000  0.241129  0.217463  1
  Er  Er6  1  0.000000  0.619256  0.086127  1
  Er  Er7  1  0.000000  0.380744  0.913873  1
  Er  Er8  1  0.000000  0.880744  0.586127  1
  Er  Er9  1  0.000000  0.119256  0.413873  1
  Tl  Tl10  1  0.500000  0.701721  0.933871  1
  Tl  Tl11  1  0.500000  0.298279  0.066129  1
  Tl  Tl12  1  0.500000  0.798279  0.433871  1
  Tl  Tl13  1  0.500000  0.201721  0.566129  1
  In  In14  1  0.500000  0.584227  0.652677  1
  In  In15  1  0.500000  0.415773  0.347323  1
  In  In16  1  0.500000  0.915773  0.152677  1
  In  In17  1  0.500000  0.084227  0.847323  1
  Pd  Pd18  1  0.500000  0.530512  0.197751  1
  Pd  Pd19  1  0.500000  0.469488  0.802249  1
  Pd  Pd20  1  0.500000  0.969488  0.697751  1
  Pd  Pd21  1  0.500000  0.030512  0.302249  1
