# generated using pymatgen
data_Dy2Ho3P12Ir16Rh3
_symmetry_space_group_name_H-M   'P 1'
_cell_length_a   12.71841502
_cell_length_b   12.71718365
_cell_length_c   3.96227800
_cell_angle_alpha   90.00000000
_cell_angle_beta   90.00000000
_cell_angle_gamma   119.99679790
_symmetry_Int_Tables_number   1
_chemical_formula_structural   Dy2Ho3P12Ir16Rh3
_chemical_formula_sum   'Dy2 Ho3 P12 Ir16 Rh3'
_cell_volume   555.02624852
_cell_formula_units_Z   1
loop_
 _symmetry_equiv_pos_site_id
 _symmetry_equiv_pos_as_xyz
  1  'x, y, z'
loop_
 _atom_site_type_symbol
 _atom_site_label
 _atom_site_symmetry_multiplicity
 _atom_site_fract_x
 _atom_site_fract_y
 _atom_site_fract_z
 _atom_site_occupancy
  Dy  Dy0  1  0.185855  0.185839  0.000000  1
  Dy  Dy1  1  0.814145  0.999984  0.000000  1
  Ho  Ho2  1  0.333325  0.666665  0.500000  1
  Ho  Ho3  1  0.666675  0.333339  0.500000  1
  Ho  Ho4  1  0.000000  0.814114  0.000000  1
  P  P5  1  0.000000  0.640752  0.500000  1
  P  P6  1  0.359442  0.359431  0.500000  1
  P  P7  1  0.640558  0.999989  0.500000  1
  P  P8  1  0.516417  0.686987  0.000000  1
  P  P9  1  0.313031  0.829413  0.000000  1
  P  P10  1  0.170617  0.483641  0.000000  1
  P  P11  1  0.483583  0.170570  0.000000  1
  P  P12  1  0.686969  0.516382  0.000000  1
  P  P13  1  0.829383  0.313024  0.000000  1
  P  P14  1  0.000000  0.178851  0.500000  1
  P  P15  1  0.821188  0.821068  0.500000  1
  P  P16  1  0.178812  0.999881  0.500000  1
  Ir  Ir17  1  0.507402  0.866686  0.000000  1
  Ir  Ir18  1  0.133333  0.640753  0.000000  1
  Ir  Ir19  1  0.359298  0.492621  0.000000  1
  Ir  Ir20  1  0.492598  0.359283  0.000000  1
  Ir  Ir21  1  0.866667  0.507419  0.000000  1
  Ir  Ir22  1  0.640702  0.133321  0.000000  1
  Ir  Ir23  1  0.000000  0.283307  0.000000  1
  Ir  Ir24  1  0.716862  0.716789  0.000000  1
  Ir  Ir25  1  0.283138  0.999927  0.000000  1
  Ir  Ir26  1  0.625531  0.805902  0.500000  1
  Ir  Ir27  1  0.193819  0.819598  0.500000  1
  Ir  Ir28  1  0.180400  0.374476  0.500000  1
  Ir  Ir29  1  0.374469  0.180371  0.500000  1
  Ir  Ir30  1  0.806181  0.625779  0.500000  1
  Ir  Ir31  1  0.819600  0.194075  0.500000  1
  Ir  Ir32  1  0.000000  0.999759  0.500000  1
  Rh  Rh33  1  0.000000  0.461327  0.500000  1
  Rh  Rh34  1  0.538690  0.538683  0.500000  1
  Rh  Rh35  1  0.461310  0.999993  0.500000  1
