# generated using pymatgen
data_Ho5Si12Rh19
_symmetry_space_group_name_H-M   'P 1'
_cell_length_a   12.79637200
_cell_length_b   12.79637180
_cell_length_c   3.96236800
_cell_angle_alpha   90.00000000
_cell_angle_beta   90.00000000
_cell_angle_gamma   120.00000051
_symmetry_Int_Tables_number   1
_chemical_formula_structural   Ho5Si12Rh19
_chemical_formula_sum   'Ho5 Si12 Rh19'
_cell_volume   561.90014492
_cell_formula_units_Z   1
loop_
 _symmetry_equiv_pos_site_id
 _symmetry_equiv_pos_as_xyz
  1  'x, y, z'
loop_
 _atom_site_type_symbol
 _atom_site_label
 _atom_site_symmetry_multiplicity
 _atom_site_fract_x
 _atom_site_fract_y
 _atom_site_fract_z
 _atom_site_occupancy
  Ho  Ho0  1  0.000000  0.187180  0.500000  1
  Ho  Ho1  1  0.812820  0.812820  0.500000  1
  Ho  Ho2  1  0.187180  0.000000  0.500000  1
  Ho  Ho3  1  0.666667  0.333333  0.000000  1
  Ho  Ho4  1  0.333333  0.666667  0.000000  1
  Si  Si5  1  0.477935  0.313638  0.500000  1
  Si  Si6  1  0.818205  0.000000  0.000000  1
  Si  Si7  1  0.181795  0.181795  0.000000  1
  Si  Si8  1  0.000000  0.818205  0.000000  1
  Si  Si9  1  0.371529  0.000000  0.000000  1
  Si  Si10  1  0.686362  0.164297  0.500000  1
  Si  Si11  1  0.835703  0.522065  0.500000  1
  Si  Si12  1  0.522065  0.835703  0.500000  1
  Si  Si13  1  0.164297  0.686362  0.500000  1
  Si  Si14  1  0.313638  0.477935  0.500000  1
  Si  Si15  1  0.000000  0.371529  0.000000  1
  Si  Si16  1  0.628471  0.628471  0.000000  1
  Rh  Rh17  1  0.807344  0.182910  0.000000  1
  Rh  Rh18  1  0.375566  0.192656  0.000000  1
  Rh  Rh19  1  0.640048  0.513129  0.500000  1
  Rh  Rh20  1  0.873081  0.359952  0.500000  1
  Rh  Rh21  1  0.359952  0.873081  0.500000  1
  Rh  Rh22  1  0.513129  0.640048  0.500000  1
  Rh  Rh23  1  0.126919  0.486871  0.500000  1
  Rh  Rh24  1  0.817090  0.624434  0.000000  1
  Rh  Rh25  1  0.624434  0.817090  0.000000  1
  Rh  Rh26  1  0.182910  0.807344  0.000000  1
  Rh  Rh27  1  0.192656  0.375566  0.000000  1
  Rh  Rh28  1  0.000000  0.721253  0.500000  1
  Rh  Rh29  1  0.278747  0.278747  0.500000  1
  Rh  Rh30  1  0.721253  0.000000  0.500000  1
  Rh  Rh31  1  0.000000  0.554798  0.000000  1
  Rh  Rh32  1  0.445202  0.445202  0.000000  1
  Rh  Rh33  1  0.554798  0.000000  0.000000  1
  Rh  Rh34  1  0.000000  0.000000  0.000000  1
  Rh  Rh35  1  0.486871  0.126919  0.500000  1
