# generated using pymatgen
data_Hf6Zr3CuRe4
_symmetry_space_group_name_H-M   'P 1'
_cell_length_a   8.68783200
_cell_length_b   8.68783231
_cell_length_c   8.48951000
_cell_angle_alpha   90.00000000
_cell_angle_beta   90.00000000
_cell_angle_gamma   120.00000642
_symmetry_Int_Tables_number   1
_chemical_formula_structural   Hf6Zr3CuRe4
_chemical_formula_sum   'Hf12 Zr6 Cu2 Re8'
_cell_volume   554.92727591
_cell_formula_units_Z   2
loop_
 _symmetry_equiv_pos_site_id
 _symmetry_equiv_pos_as_xyz
  1  'x, y, z'
loop_
 _atom_site_type_symbol
 _atom_site_label
 _atom_site_symmetry_multiplicity
 _atom_site_fract_x
 _atom_site_fract_y
 _atom_site_fract_z
 _atom_site_occupancy
  Hf  Hf0  1  0.194103  0.805897  0.445695  1
  Hf  Hf1  1  0.194103  0.388205  0.445695  1
  Hf  Hf2  1  0.611795  0.805897  0.445695  1
  Hf  Hf3  1  0.805897  0.194103  0.554305  1
  Hf  Hf4  1  0.805897  0.611795  0.554305  1
  Hf  Hf5  1  0.388205  0.194103  0.554305  1
  Hf  Hf6  1  0.805897  0.194103  0.945695  1
  Hf  Hf7  1  0.805897  0.611795  0.945695  1
  Hf  Hf8  1  0.388205  0.194103  0.945695  1
  Hf  Hf9  1  0.194103  0.805897  0.054305  1
  Hf  Hf10  1  0.194103  0.388205  0.054305  1
  Hf  Hf11  1  0.611795  0.805897  0.054305  1
  Zr  Zr12  1  0.540903  0.459097  0.250000  1
  Zr  Zr13  1  0.540903  0.081805  0.250000  1
  Zr  Zr14  1  0.918195  0.459097  0.250000  1
  Zr  Zr15  1  0.459097  0.540903  0.750000  1
  Zr  Zr16  1  0.459097  0.918195  0.750000  1
  Zr  Zr17  1  0.081805  0.540903  0.750000  1
  Cu  Cu18  1  0.333333  0.666667  0.250000  1
  Cu  Cu19  1  0.666667  0.333333  0.750000  1
  Re  Re20  1  0.890041  0.109959  0.250000  1
  Re  Re21  1  0.890041  0.780081  0.250000  1
  Re  Re22  1  0.219919  0.109959  0.250000  1
  Re  Re23  1  0.109959  0.890041  0.750000  1
  Re  Re24  1  0.109959  0.219919  0.750000  1
  Re  Re25  1  0.780081  0.890041  0.750000  1
  Re  Re26  1  0.000000  0.000000  0.500000  1
  Re  Re27  1  0.000000  0.000000  0.000000  1
