# generated using pymatgen
data_Tb4AlTc6Os
_symmetry_space_group_name_H-M   'P 1'
_cell_length_a   5.29520000
_cell_length_b   5.29519974
_cell_length_c   9.19067600
_cell_angle_alpha   90.00000000
_cell_angle_beta   90.00000000
_cell_angle_gamma   119.99998910
_symmetry_Int_Tables_number   1
_chemical_formula_structural   Tb4AlTc6Os
_chemical_formula_sum   'Tb4 Al1 Tc6 Os1'
_cell_volume   223.17361625
_cell_formula_units_Z   1
loop_
 _symmetry_equiv_pos_site_id
 _symmetry_equiv_pos_as_xyz
  1  'x, y, z'
loop_
 _atom_site_type_symbol
 _atom_site_label
 _atom_site_symmetry_multiplicity
 _atom_site_fract_x
 _atom_site_fract_y
 _atom_site_fract_z
 _atom_site_occupancy
  Tb  Tb0  1  0.333333  0.666667  0.430677  1
  Tb  Tb1  1  0.666667  0.333333  0.569323  1
  Tb  Tb2  1  0.666667  0.333333  0.936091  1
  Tb  Tb3  1  0.333333  0.666667  0.063909  1
  Al  Al4  1  0.000000  0.000000  0.500000  1
  Tc  Tc5  1  0.829746  0.170254  0.250979  1
  Tc  Tc6  1  0.829746  0.659492  0.250979  1
  Tc  Tc7  1  0.340508  0.170254  0.250979  1
  Tc  Tc8  1  0.170254  0.829746  0.749021  1
  Tc  Tc9  1  0.170254  0.340508  0.749021  1
  Tc  Tc10  1  0.659492  0.829746  0.749021  1
  Os  Os11  1  0.000000  0.000000  0.000000  1
