# generated using pymatgen
data_HfSc3(Fe3Si)2
_symmetry_space_group_name_H-M   'P 1'
_cell_length_a   4.97957504
_cell_length_b   4.97957486
_cell_length_c   7.89944200
_cell_angle_alpha   89.99894212
_cell_angle_beta   90.00105873
_cell_angle_gamma   120.00105370
_symmetry_Int_Tables_number   1
_chemical_formula_structural   HfSc3(Fe3Si)2
_chemical_formula_sum   'Hf1 Sc3 Fe6 Si2'
_cell_volume   169.63168723
_cell_formula_units_Z   1
loop_
 _symmetry_equiv_pos_site_id
 _symmetry_equiv_pos_as_xyz
  1  'x, y, z'
loop_
 _atom_site_type_symbol
 _atom_site_label
 _atom_site_symmetry_multiplicity
 _atom_site_fract_x
 _atom_site_fract_y
 _atom_site_fract_z
 _atom_site_occupancy
  Hf  Hf0  1  0.666677  0.333323  0.935717  1
  Sc  Sc1  1  0.666673  0.333327  0.560495  1
  Sc  Sc2  1  0.333325  0.666675  0.437855  1
  Sc  Sc3  1  0.333319  0.666681  0.065187  1
  Fe  Fe4  1  0.171612  0.343214  0.751685  1
  Fe  Fe5  1  0.171607  0.828393  0.751688  1
  Fe  Fe6  1  0.656786  0.828388  0.751685  1
  Fe  Fe7  1  0.828504  0.657009  0.248476  1
  Fe  Fe8  1  0.828510  0.171490  0.248478  1
  Fe  Fe9  1  0.342991  0.171496  0.248476  1
  Si  Si10  1  0.999996  0.000004  0.500168  1
  Si  Si11  1  0.000000  0.000000  0.000090  1
