# generated using pymatgen
data_Yb2CeY(Pd2Pb)2
_symmetry_space_group_name_H-M   'P 1'
_cell_length_a   7.90166491
_cell_length_b   7.90166447
_cell_length_c   3.69700500
_cell_angle_alpha   90.00000000
_cell_angle_beta   90.00000000
_cell_angle_gamma   90.96024065
_symmetry_Int_Tables_number   1
_chemical_formula_structural   Yb2CeY(Pd2Pb)2
_chemical_formula_sum   'Yb2 Ce1 Y1 Pd4 Pb2'
_cell_volume   230.79491496
_cell_formula_units_Z   1
loop_
 _symmetry_equiv_pos_site_id
 _symmetry_equiv_pos_as_xyz
  1  'x, y, z'
loop_
 _atom_site_type_symbol
 _atom_site_label
 _atom_site_symmetry_multiplicity
 _atom_site_fract_x
 _atom_site_fract_y
 _atom_site_fract_z
 _atom_site_occupancy
  Yb  Yb0  1  0.168914  0.328585  0.500000  1
  Yb  Yb1  1  0.828585  0.668914  0.500000  1
  Ce  Ce2  1  0.327438  0.827438  0.500000  1
  Y  Y3  1  0.673967  0.173967  0.500000  1
  Pd  Pd4  1  0.372346  0.122246  0.000000  1
  Pd  Pd5  1  0.131346  0.631346  0.000000  1
  Pd  Pd6  1  0.622246  0.872346  0.000000  1
  Pd  Pd7  1  0.876556  0.376556  0.000000  1
  Pb  Pb8  1  0.997134  0.001470  0.000000  1
  Pb  Pb9  1  0.501470  0.497134  0.000000  1
