# generated using pymatgen
data_LuTa3(PO4)6
_symmetry_space_group_name_H-M   'P 1'
_cell_length_a   8.84057999
_cell_length_b   9.11868812
_cell_length_c   8.84023000
_cell_angle_alpha   89.99548672
_cell_angle_beta   59.99878988
_cell_angle_gamma   118.99510084
_symmetry_Int_Tables_number   1
_chemical_formula_structural   LuTa3(PO4)6
_chemical_formula_sum   'Lu1 Ta3 P6 O24'
_cell_volume   511.41096591
_cell_formula_units_Z   1
loop_
 _symmetry_equiv_pos_site_id
 _symmetry_equiv_pos_as_xyz
  1  'x, y, z'
loop_
 _atom_site_type_symbol
 _atom_site_label
 _atom_site_symmetry_multiplicity
 _atom_site_fract_x
 _atom_site_fract_y
 _atom_site_fract_z
 _atom_site_occupancy
  Lu  Lu0  1  0.721130  0.081768  0.639405  1
  Ta  Ta1  1  0.284773  0.927021  0.357588  1
  Ta  Ta2  1  0.285986  0.428857  0.856987  1
  Ta  Ta3  1  0.715627  0.573303  0.142152  1
  P  P4  1  0.785984  0.749956  0.748357  1
  P  P5  1  0.486713  0.250322  0.535529  1
  P  P6  1  0.498545  0.750044  0.465545  1
  P  P7  1  0.228167  0.250404  0.236299  1
  P  P8  1  0.785981  0.250353  0.977675  1
  P  P9  1  0.215709  0.750002  0.035851  1
  O  O10  1  0.653053  0.910367  0.479009  1
  O  O11  1  0.997979  0.709583  0.093161  1
  O  O12  1  0.220936  0.583728  0.004295  1
  O  O13  1  0.227113  0.779646  0.205326  1
  O  O14  1  0.987659  0.276756  0.948997  1
  O  O15  1  0.790307  0.416422  0.018867  1
  O  O16  1  0.786446  0.234377  0.808882  1
  O  O17  1  0.803002  0.709722  0.908762  1
  O  O18  1  0.985088  0.779545  0.567487  1
  O  O19  1  0.639230  0.234542  0.551912  1
  O  O20  1  0.778139  0.910187  0.742592  1
  O  O21  1  0.588108  0.583596  0.774847  1
  O  O22  1  0.591063  0.085217  0.151025  1
  O  O23  1  0.607082  0.416347  0.373773  1
  O  O24  1  0.225804  0.276683  0.063328  1
  O  O25  1  0.340054  0.276671  0.710830  1
  O  O26  1  0.618667  0.709699  0.288221  1
  O  O27  1  0.343210  0.085106  0.505791  1
  O  O28  1  0.389348  0.910205  0.867821  1
  O  O29  1  0.358708  0.583761  0.637041  1
  O  O30  1  0.236439  0.085312  0.257943  1
  O  O31  1  0.435457  0.416535  0.190612  1
  O  O32  1  0.347200  0.779511  0.447292  1
  O  O33  1  0.043425  0.234453  0.404664  1
