# generated using pymatgen
data_Tb10Y2ZnGaCo4
_symmetry_space_group_name_H-M   'P 1'
_cell_length_a   8.30224621
_cell_length_b   8.27077100
_cell_length_c   8.27077144
_cell_angle_alpha   111.86535366
_cell_angle_beta   109.48670218
_cell_angle_gamma   106.95413263
_symmetry_Int_Tables_number   1
_chemical_formula_structural   Tb10Y2ZnGaCo4
_chemical_formula_sum   'Tb10 Y2 Zn1 Ga1 Co4'
_cell_volume   437.16118307
_cell_formula_units_Z   1
loop_
 _symmetry_equiv_pos_site_id
 _symmetry_equiv_pos_as_xyz
  1  'x, y, z'
loop_
 _atom_site_type_symbol
 _atom_site_label
 _atom_site_symmetry_multiplicity
 _atom_site_fract_x
 _atom_site_fract_y
 _atom_site_fract_z
 _atom_site_occupancy
  Tb  Tb0  1  0.568771  0.263884  0.304888  1
  Tb  Tb1  1  0.431229  0.736116  0.695112  1
  Tb  Tb2  1  0.674443  0.861828  0.188731  1
  Tb  Tb3  1  0.325557  0.514288  0.187385  1
  Tb  Tb4  1  0.325557  0.138172  0.811269  1
  Tb  Tb5  1  0.674443  0.485712  0.812615  1
  Tb  Tb6  1  0.180727  0.219922  0.399119  1
  Tb  Tb7  1  0.819273  0.218393  0.039196  1
  Tb  Tb8  1  0.180727  0.781607  0.960804  1
  Tb  Tb9  1  0.819273  0.780078  0.600881  1
  Y  Y10  1  0.043406  0.738012  0.305393  1
  Y  Y11  1  0.956594  0.261988  0.694607  1
  Zn  Zn12  1  0.000000  0.500000  0.500000  1
  Ga  Ga13  1  0.500000  0.000000  0.500000  1
  Co  Co14  1  0.661471  0.499301  0.162170  1
  Co  Co15  1  0.338529  0.500699  0.837830  1
  Co  Co16  1  0.886880  0.885727  0.001153  1
  Co  Co17  1  0.113120  0.114273  0.998847  1
