# generated using pymatgen
data_Cs4Ni(PS4)2
_symmetry_space_group_name_H-M   'P 1'
_cell_length_a   13.40080400
_cell_length_b   7.44767700
_cell_length_c   9.72627701
_cell_angle_alpha   84.36510708
_cell_angle_beta   90.00000000
_cell_angle_gamma   90.00000000
_symmetry_Int_Tables_number   1
_chemical_formula_structural   Cs4Ni(PS4)2
_chemical_formula_sum   'Cs8 Ni2 P4 S16'
_cell_volume   966.03894027
_cell_formula_units_Z   2
loop_
 _symmetry_equiv_pos_site_id
 _symmetry_equiv_pos_as_xyz
  1  'x, y, z'
loop_
 _atom_site_type_symbol
 _atom_site_label
 _atom_site_symmetry_multiplicity
 _atom_site_fract_x
 _atom_site_fract_y
 _atom_site_fract_z
 _atom_site_occupancy
  Cs  Cs0  1  0.131003  0.819111  0.681423  1
  Cs  Cs1  1  0.631003  0.180889  0.818577  1
  Cs  Cs2  1  0.868997  0.180889  0.318577  1
  Cs  Cs3  1  0.368997  0.819111  0.181423  1
  Cs  Cs4  1  0.344024  0.277133  0.533009  1
  Cs  Cs5  1  0.844024  0.722867  0.966991  1
  Cs  Cs6  1  0.655976  0.722867  0.466991  1
  Cs  Cs7  1  0.155976  0.277133  0.033009  1
  Ni  Ni8  1  0.000000  0.500000  0.500000  1
  Ni  Ni9  1  0.500000  0.500000  0.000000  1
  P  P10  1  0.421264  0.757953  0.763730  1
  P  P11  1  0.921264  0.242047  0.736270  1
  P  P12  1  0.578736  0.242047  0.236270  1
  P  P13  1  0.078736  0.757953  0.263730  1
  S  S14  1  0.066740  0.313086  0.667477  1
  S  S15  1  0.566740  0.686914  0.832523  1
  S  S16  1  0.933260  0.686914  0.332523  1
  S  S17  1  0.433260  0.313086  0.167477  1
  S  S18  1  0.397691  0.759626  0.558848  1
  S  S19  1  0.897691  0.240374  0.941152  1
  S  S20  1  0.602309  0.240374  0.441152  1
  S  S21  1  0.102309  0.759626  0.058848  1
  S  S22  1  0.138551  0.527917  0.376231  1
  S  S23  1  0.638551  0.472083  0.123769  1
  S  S24  1  0.861449  0.472083  0.623769  1
  S  S25  1  0.361449  0.527917  0.876231  1
  S  S26  1  0.375958  0.991095  0.833997  1
  S  S27  1  0.875958  0.008905  0.666003  1
  S  S28  1  0.624042  0.008905  0.166003  1
  S  S29  1  0.124042  0.991095  0.333997  1
