# generated using pymatgen
data_NaTb3(ReN3)4
_symmetry_space_group_name_H-M   'P 1'
_cell_length_a   7.43844426
_cell_length_b   7.43844473
_cell_length_c   6.28484355
_cell_angle_alpha   73.37170025
_cell_angle_beta   73.37170694
_cell_angle_gamma   83.16083044
_symmetry_Int_Tables_number   1
_chemical_formula_structural   NaTb3(ReN3)4
_chemical_formula_sum   'Na1 Tb3 Re4 N12'
_cell_volume   319.00500077
_cell_formula_units_Z   1
loop_
 _symmetry_equiv_pos_site_id
 _symmetry_equiv_pos_as_xyz
  1  'x, y, z'
loop_
 _atom_site_type_symbol
 _atom_site_label
 _atom_site_symmetry_multiplicity
 _atom_site_fract_x
 _atom_site_fract_y
 _atom_site_fract_z
 _atom_site_occupancy
  Na  Na0  1  0.708843  0.291157  0.250000  1
  Tb  Tb1  1  0.904647  0.095353  0.750000  1
  Tb  Tb2  1  0.291100  0.708900  0.750000  1
  Tb  Tb3  1  0.088793  0.911207  0.250000  1
  Re  Re4  1  0.622409  0.791508  0.276470  1
  Re  Re5  1  0.208492  0.377591  0.223530  1
  Re  Re6  1  0.376641  0.202051  0.724270  1
  Re  Re7  1  0.797949  0.623359  0.775730  1
  N  N8  1  0.332996  0.365811  0.921060  1
  N  N9  1  0.020541  0.215739  0.345430  1
  N  N10  1  0.784261  0.979459  0.154570  1
  N  N11  1  0.216624  0.005454  0.839364  1
  N  N12  1  0.659979  0.646560  0.067134  1
  N  N13  1  0.882236  0.388419  0.813491  1
  N  N14  1  0.134198  0.623460  0.165560  1
  N  N15  1  0.994546  0.783376  0.660636  1
  N  N16  1  0.376540  0.865802  0.334440  1
  N  N17  1  0.634189  0.667004  0.578940  1
  N  N18  1  0.611581  0.117764  0.686509  1
  N  N19  1  0.353440  0.340021  0.432866  1
