# generated using pymatgen
data_Dy3Al3ZnCoSi
_symmetry_space_group_name_H-M   'P 1'
_cell_length_a   6.91682700
_cell_length_b   6.91682734
_cell_length_c   4.17424300
_cell_angle_alpha   90.00000000
_cell_angle_beta   90.00000000
_cell_angle_gamma   120.00000315
_symmetry_Int_Tables_number   1
_chemical_formula_structural   Dy3Al3ZnCoSi
_chemical_formula_sum   'Dy3 Al3 Zn1 Co1 Si1'
_cell_volume   172.95064809
_cell_formula_units_Z   1
loop_
 _symmetry_equiv_pos_site_id
 _symmetry_equiv_pos_as_xyz
  1  'x, y, z'
loop_
 _atom_site_type_symbol
 _atom_site_label
 _atom_site_symmetry_multiplicity
 _atom_site_fract_x
 _atom_site_fract_y
 _atom_site_fract_z
 _atom_site_occupancy
  Dy  Dy0  1  0.403715  0.997101  0.000000  1
  Dy  Dy1  1  0.002899  0.406613  0.000000  1
  Dy  Dy2  1  0.593388  0.596286  0.000000  1
  Al  Al3  1  0.771300  0.001299  0.499999  1
  Al  Al4  1  0.229999  0.228700  0.499999  1
  Al  Al5  1  0.998701  0.770002  0.499999  1
  Zn  Zn6  1  0.666668  0.333334  0.499999  1
  Co  Co7  1  0.000000  0.000000  0.000000  1
  Si  Si8  1  0.333333  0.666667  0.499999  1
