# generated using pymatgen
data_Cs2TiBeTe4
_symmetry_space_group_name_H-M   'P 1'
_cell_length_a   15.82983788
_cell_length_b   14.09057832
_cell_length_c   8.42604691
_cell_angle_alpha   85.42053029
_cell_angle_beta   62.53417857
_cell_angle_gamma   32.04529762
_symmetry_Int_Tables_number   1
_chemical_formula_structural   Cs2TiBeTe4
_chemical_formula_sum   'Cs4 Ti2 Be2 Te8'
_cell_volume   664.09624722
_cell_formula_units_Z   2
loop_
 _symmetry_equiv_pos_site_id
 _symmetry_equiv_pos_as_xyz
  1  'x, y, z'
loop_
 _atom_site_type_symbol
 _atom_site_label
 _atom_site_symmetry_multiplicity
 _atom_site_fract_x
 _atom_site_fract_y
 _atom_site_fract_z
 _atom_site_occupancy
  Cs  Cs0  1  0.819019  0.819019  0.180981  1
  Cs  Cs1  1  0.180981  0.180981  0.819019  1
  Cs  Cs2  1  0.430981  0.430981  0.069019  1
  Cs  Cs3  1  0.069019  0.069019  0.430981  1
  Ti  Ti4  1  0.250000  0.250000  0.250000  1
  Ti  Ti5  1  0.000000  0.000000  0.000000  1
  Be  Be6  1  0.750000  0.750000  0.750000  1
  Be  Be7  1  0.500000  0.500000  0.500000  1
  Te  Te8  1  0.407837  0.698008  0.773624  1
  Te  Te9  1  0.120532  0.773624  0.698008  1
  Te  Te10  1  0.773624  0.120532  0.407837  1
  Te  Te11  1  0.698008  0.407837  0.120532  1
  Te  Te12  1  0.842163  0.551992  0.476376  1
  Te  Te13  1  0.129468  0.476376  0.551992  1
  Te  Te14  1  0.476376  0.129468  0.842163  1
  Te  Te15  1  0.551992  0.842163  0.129468  1
