# generated using pymatgen
data_Tm4GaMoRu6
_symmetry_space_group_name_H-M   'P 1'
_cell_length_a   5.52407004
_cell_length_b   5.17907306
_cell_length_c   8.88430000
_cell_angle_alpha   90.00000000
_cell_angle_beta   90.00000000
_cell_angle_gamma   122.21869221
_symmetry_Int_Tables_number   1
_chemical_formula_structural   Tm4GaMoRu6
_chemical_formula_sum   'Tm4 Ga1 Mo1 Ru6'
_cell_volume   215.03773983
_cell_formula_units_Z   1
loop_
 _symmetry_equiv_pos_site_id
 _symmetry_equiv_pos_as_xyz
  1  'x, y, z'
loop_
 _atom_site_type_symbol
 _atom_site_label
 _atom_site_symmetry_multiplicity
 _atom_site_fract_x
 _atom_site_fract_y
 _atom_site_fract_z
 _atom_site_occupancy
  Tm  Tm0  1  0.674765  0.349586  0.565076  1
  Tm  Tm1  1  0.331849  0.663736  0.433547  1
  Tm  Tm2  1  0.331849  0.663736  0.066453  1
  Tm  Tm3  1  0.674765  0.349586  0.934924  1
  Ga  Ga4  1  0.832336  0.665063  0.250000  1
  Mo  Mo5  1  0.154052  0.308349  0.750000  1
  Ru  Ru6  1  0.011139  0.021781  0.498057  1
  Ru  Ru7  1  0.011139  0.021781  0.001943  1
  Ru  Ru8  1  0.175353  0.817851  0.750000  1
  Ru  Ru9  1  0.641932  0.817546  0.750000  1
  Ru  Ru10  1  0.816867  0.160595  0.250000  1
  Ru  Ru11  1  0.343955  0.160388  0.250000  1
