# generated using pymatgen
data_Tb4Sm2NbCo17P12
_symmetry_space_group_name_H-M   'P 1'
_cell_length_a   3.72386500
_cell_length_b   10.60418900
_cell_length_c   12.32598100
_cell_angle_alpha   90.00000000
_cell_angle_beta   90.00000000
_cell_angle_gamma   90.00000000
_symmetry_Int_Tables_number   1
_chemical_formula_structural   Tb4Sm2NbCo17P12
_chemical_formula_sum   'Tb4 Sm2 Nb1 Co17 P12'
_cell_volume   486.73534222
_cell_formula_units_Z   1
loop_
 _symmetry_equiv_pos_site_id
 _symmetry_equiv_pos_as_xyz
  1  'x, y, z'
loop_
 _atom_site_type_symbol
 _atom_site_label
 _atom_site_symmetry_multiplicity
 _atom_site_fract_x
 _atom_site_fract_y
 _atom_site_fract_z
 _atom_site_occupancy
  Tb  Tb0  1  0.500000  0.819464  0.206808  1
  Tb  Tb1  1  0.500000  0.180536  0.206808  1
  Tb  Tb2  1  0.000000  0.683121  0.796027  1
  Tb  Tb3  1  0.000000  0.316879  0.796027  1
  Sm  Sm4  1  0.000000  0.500000  0.526926  1
  Sm  Sm5  1  0.500000  0.000000  0.477833  1
  Nb  Nb6  1  0.500000  0.500000  0.153688  1
  Co  Co7  1  0.000000  0.000000  0.839535  1
  Co  Co8  1  0.500000  0.500000  0.703614  1
  Co  Co9  1  0.000000  0.000000  0.294973  1
  Co  Co10  1  0.000000  0.500000  0.984481  1
  Co  Co11  1  0.500000  0.000000  0.013975  1
  Co  Co12  1  0.500000  0.329678  0.989821  1
  Co  Co13  1  0.500000  0.670322  0.989821  1
  Co  Co14  1  0.000000  0.163774  0.003909  1
  Co  Co15  1  0.000000  0.836226  0.003909  1
  Co  Co16  1  0.500000  0.295032  0.432174  1
  Co  Co17  1  0.500000  0.704968  0.432174  1
  Co  Co18  1  0.000000  0.202994  0.570214  1
  Co  Co19  1  0.000000  0.797006  0.570214  1
  Co  Co20  1  0.500000  0.880115  0.709344  1
  Co  Co21  1  0.500000  0.119885  0.709344  1
  Co  Co22  1  0.000000  0.622385  0.293628  1
  Co  Co23  1  0.000000  0.377615  0.293628  1
  P  P24  1  0.500000  0.500000  0.881862  1
  P  P25  1  0.000000  0.000000  0.116156  1
  P  P26  1  0.500000  0.500000  0.353331  1
  P  P27  1  0.000000  0.000000  0.658139  1
  P  P28  1  0.500000  0.307637  0.617415  1
  P  P29  1  0.500000  0.692363  0.617415  1
  P  P30  1  0.000000  0.190351  0.385466  1
  P  P31  1  0.000000  0.809649  0.385466  1
  P  P32  1  0.500000  0.851232  0.890854  1
  P  P33  1  0.500000  0.148768  0.890854  1
  P  P34  1  0.000000  0.660653  0.102087  1
  P  P35  1  0.000000  0.339347  0.102087  1
