# generated using pymatgen
data_LaPa3CuTe12
_symmetry_space_group_name_H-M   'P 1'
_cell_length_a   7.50769079
_cell_length_b   7.51243545
_cell_length_c   11.22628001
_cell_angle_alpha   71.00533898
_cell_angle_beta   71.00973382
_cell_angle_gamma   70.22341061
_symmetry_Int_Tables_number   1
_chemical_formula_structural   LaPa3CuTe12
_chemical_formula_sum   'La1 Pa3 Cu1 Te12'
_cell_volume   546.64661415
_cell_formula_units_Z   1
loop_
 _symmetry_equiv_pos_site_id
 _symmetry_equiv_pos_as_xyz
  1  'x, y, z'
loop_
 _atom_site_type_symbol
 _atom_site_label
 _atom_site_symmetry_multiplicity
 _atom_site_fract_x
 _atom_site_fract_y
 _atom_site_fract_z
 _atom_site_occupancy
  La  La0  1  0.191745  0.687848  0.166341  1
  Pa  Pa1  1  0.811299  0.811532  0.832023  1
  Pa  Pa2  1  0.312907  0.312824  0.832974  1
  Pa  Pa3  1  0.688770  0.193345  0.163361  1
  Cu  Cu4  1  0.811970  0.813942  0.535539  1
  Te  Te5  1  0.000527  0.021322  0.328890  1
  Te  Te6  1  0.512668  0.488664  0.335657  1
  Te  Te7  1  0.487216  0.989725  0.675794  1
  Te  Te8  1  0.991701  0.489446  0.671370  1
  Te  Te9  1  0.267537  0.244541  0.338433  1
  Te  Te10  1  0.740976  0.762552  0.334095  1
  Te  Te11  1  0.242389  0.740554  0.675040  1
  Te  Te12  1  0.741126  0.243139  0.671217  1
  Te  Te13  1  0.013253  0.034884  0.936681  1
  Te  Te14  1  0.533192  0.512576  0.936904  1
  Te  Te15  1  0.487410  0.987541  0.050184  1
  Te  Te16  1  0.976615  0.476864  0.049896  1
