# generated using pymatgen
data_TbCrFe2P3Rh2
_symmetry_space_group_name_H-M   'P 1'
_cell_length_a   3.75349000
_cell_length_b   10.57464900
_cell_length_c   12.34916500
_cell_angle_alpha   90.00000000
_cell_angle_beta   90.00000000
_cell_angle_gamma   90.00000000
_symmetry_Int_Tables_number   1
_chemical_formula_structural   TbCrFe2P3Rh2
_chemical_formula_sum   'Tb4 Cr4 Fe8 P12 Rh8'
_cell_volume   490.16107236
_cell_formula_units_Z   4
loop_
 _symmetry_equiv_pos_site_id
 _symmetry_equiv_pos_as_xyz
  1  'x, y, z'
loop_
 _atom_site_type_symbol
 _atom_site_label
 _atom_site_symmetry_multiplicity
 _atom_site_fract_x
 _atom_site_fract_y
 _atom_site_fract_z
 _atom_site_occupancy
  Tb  Tb0  1  0.250000  0.577935  0.710309  1
  Tb  Tb1  1  0.250000  0.922065  0.210309  1
  Tb  Tb2  1  0.750000  0.422065  0.289691  1
  Tb  Tb3  1  0.750000  0.077935  0.789691  1
  Cr  Cr4  1  0.250000  0.698575  0.990158  1
  Cr  Cr5  1  0.250000  0.801425  0.490158  1
  Cr  Cr6  1  0.750000  0.301425  0.009842  1
  Cr  Cr7  1  0.750000  0.198575  0.509842  1
  Fe  Fe8  1  0.250000  0.876834  0.695175  1
  Fe  Fe9  1  0.250000  0.623166  0.195175  1
  Fe  Fe10  1  0.750000  0.123166  0.304825  1
  Fe  Fe11  1  0.750000  0.376834  0.804825  1
  Fe  Fe12  1  0.250000  0.462221  0.936535  1
  Fe  Fe13  1  0.250000  0.037779  0.436535  1
  Fe  Fe14  1  0.750000  0.537779  0.063465  1
  Fe  Fe15  1  0.750000  0.962221  0.563465  1
  P  P16  1  0.250000  0.434980  0.111153  1
  P  P17  1  0.250000  0.065020  0.611153  1
  P  P18  1  0.750000  0.565020  0.888847  1
  P  P19  1  0.750000  0.934980  0.388847  1
  P  P20  1  0.250000  0.274413  0.865465  1
  P  P21  1  0.250000  0.225587  0.365465  1
  P  P22  1  0.750000  0.725587  0.134535  1
  P  P23  1  0.750000  0.774413  0.634535  1
  P  P24  1  0.250000  0.602988  0.382676  1
  P  P25  1  0.250000  0.897012  0.882676  1
  P  P26  1  0.750000  0.397012  0.617324  1
  P  P27  1  0.750000  0.102988  0.117324  1
  Rh  Rh28  1  0.250000  0.403423  0.481522  1
  Rh  Rh29  1  0.250000  0.096577  0.981522  1
  Rh  Rh30  1  0.750000  0.596577  0.518478  1
  Rh  Rh31  1  0.750000  0.903423  0.018478  1
  Rh  Rh32  1  0.250000  0.228122  0.174535  1
  Rh  Rh33  1  0.250000  0.271878  0.674535  1
  Rh  Rh34  1  0.750000  0.771878  0.825465  1
  Rh  Rh35  1  0.750000  0.728122  0.325465  1
