# generated using pymatgen
data_Pr2SiGe(Ru2C)2
_symmetry_space_group_name_H-M   'P 1'
_cell_length_a   5.92219662
_cell_length_b   5.92219684
_cell_length_c   7.29878100
_cell_angle_alpha   90.00000000
_cell_angle_beta   90.00000000
_cell_angle_gamma   140.47114011
_symmetry_Int_Tables_number   1
_chemical_formula_structural   Pr2SiGe(Ru2C)2
_chemical_formula_sum   'Pr2 Si1 Ge1 Ru4 C2'
_cell_volume   162.92650931
_cell_formula_units_Z   1
loop_
 _symmetry_equiv_pos_site_id
 _symmetry_equiv_pos_as_xyz
  1  'x, y, z'
loop_
 _atom_site_type_symbol
 _atom_site_label
 _atom_site_symmetry_multiplicity
 _atom_site_fract_x
 _atom_site_fract_y
 _atom_site_fract_z
 _atom_site_occupancy
  Pr  Pr0  1  0.549715  0.450285  0.250000  1
  Pr  Pr1  1  0.450488  0.549512  0.750000  1
  Si  Si2  1  0.729640  0.270360  0.750000  1
  Ge  Ge3  1  0.270676  0.729324  0.250000  1
  Ru  Ru4  1  0.835415  0.164585  0.052737  1
  Ru  Ru5  1  0.164078  0.835922  0.936763  1
  Ru  Ru6  1  0.164078  0.835922  0.563237  1
  Ru  Ru7  1  0.835415  0.164585  0.447263  1
  C  C8  1  0.000248  0.999752  0.998867  1
  C  C9  1  0.000248  0.999752  0.501133  1
