# generated using pymatgen
data_Tb10Tm2Tc3Ni
_symmetry_space_group_name_H-M   'P 1'
_cell_length_a   6.28451964
_cell_length_b   7.33384235
_cell_length_c   9.23235553
_cell_angle_alpha   89.97784552
_cell_angle_beta   89.71658655
_cell_angle_gamma   90.21924297
_symmetry_Int_Tables_number   1
_chemical_formula_structural   Tb10Tm2Tc3Ni
_chemical_formula_sum   'Tb10 Tm2 Tc3 Ni1'
_cell_volume   425.50792173
_cell_formula_units_Z   1
loop_
 _symmetry_equiv_pos_site_id
 _symmetry_equiv_pos_as_xyz
  1  'x, y, z'
loop_
 _atom_site_type_symbol
 _atom_site_label
 _atom_site_symmetry_multiplicity
 _atom_site_fract_x
 _atom_site_fract_y
 _atom_site_fract_z
 _atom_site_occupancy
  Tb  Tb0  1  0.666163  0.323503  0.562837  1
  Tb  Tb1  1  0.835071  0.823439  0.937880  1
  Tb  Tb2  1  0.667753  0.323105  0.938071  1
  Tb  Tb3  1  0.834763  0.823636  0.561767  1
  Tb  Tb4  1  0.327383  0.678566  0.431068  1
  Tb  Tb5  1  0.164987  0.178485  0.063772  1
  Tb  Tb6  1  0.871920  0.541130  0.249601  1
  Tb  Tb7  1  0.623017  0.040029  0.250537  1
  Tb  Tb8  1  0.141474  0.457424  0.749894  1
  Tb  Tb9  1  0.371337  0.957114  0.749506  1
  Tm  Tm10  1  0.330152  0.676760  0.067008  1
  Tm  Tm11  1  0.162508  0.176766  0.436771  1
  Tc  Tc12  1  0.039890  0.886923  0.247886  1
  Tc  Tc13  1  0.457186  0.388179  0.250934  1
  Tc  Tc14  1  0.961139  0.112557  0.746315  1
  Ni  Ni15  1  0.545257  0.612383  0.756153  1
