# generated using pymatgen
data_SmDy3CSe3
_symmetry_space_group_name_H-M   'P 1'
_cell_length_a   6.88102215
_cell_length_b   6.88102307
_cell_length_c   6.88456400
_cell_angle_alpha   79.89079356
_cell_angle_beta   79.89078374
_cell_angle_gamma   32.72722696
_symmetry_Int_Tables_number   1
_chemical_formula_structural   SmDy3CSe3
_chemical_formula_sum   'Sm1 Dy3 C1 Se3'
_cell_volume   173.26044920
_cell_formula_units_Z   1
loop_
 _symmetry_equiv_pos_site_id
 _symmetry_equiv_pos_as_xyz
  1  'x, y, z'
loop_
 _atom_site_type_symbol
 _atom_site_label
 _atom_site_symmetry_multiplicity
 _atom_site_fract_x
 _atom_site_fract_y
 _atom_site_fract_z
 _atom_site_occupancy
  Sm  Sm0  1  0.017298  0.017298  0.023383  1
  Dy  Dy1  1  0.232316  0.232316  0.225078  1
  Dy  Dy2  1  0.512415  0.512415  0.456751  1
  Dy  Dy3  1  0.737230  0.737230  0.794292  1
  C  C4  1  0.627612  0.627612  0.128093  1
  Se  Se5  1  0.864488  0.864488  0.385485  1
  Se  Se6  1  0.126459  0.126459  0.620861  1
  Se  Se7  1  0.382182  0.382182  0.866056  1
