# generated using pymatgen
data_Ho5Os2
_symmetry_space_group_name_H-M   'P 1'
_cell_length_a   6.33693146
_cell_length_b   7.33814863
_cell_length_c   8.39669386
_cell_angle_alpha   96.96050699
_cell_angle_beta   112.16943587
_cell_angle_gamma   89.99999942
_symmetry_Int_Tables_number   1
_chemical_formula_structural   Ho5Os2
_chemical_formula_sum   'Ho10 Os4'
_cell_volume   358.48246721
_cell_formula_units_Z   2
loop_
 _symmetry_equiv_pos_site_id
 _symmetry_equiv_pos_as_xyz
  1  'x, y, z'
loop_
 _atom_site_type_symbol
 _atom_site_label
 _atom_site_symmetry_multiplicity
 _atom_site_fract_x
 _atom_site_fract_y
 _atom_site_fract_z
 _atom_site_occupancy
  Ho  Ho0  1  0.976577  0.915867  0.183562  1
  Ho  Ho1  1  0.793015  0.584133  0.816438  1
  Ho  Ho2  1  0.023423  0.084133  0.816438  1
  Ho  Ho3  1  0.206985  0.415867  0.183562  1
  Ho  Ho4  1  0.639468  0.816310  0.435429  1
  Ho  Ho5  1  0.204039  0.683690  0.564571  1
  Ho  Ho6  1  0.360532  0.183690  0.564571  1
  Ho  Ho7  1  0.795961  0.316310  0.435429  1
  Ho  Ho8  1  0.422028  0.750000  0.000000  1
  Ho  Ho9  1  0.577972  0.250000  0.000000  1
  Os  Os10  1  0.822459  0.577004  0.219903  1
  Os  Os11  1  0.602556  0.922996  0.780097  1
  Os  Os12  1  0.177541  0.422996  0.780097  1
  Os  Os13  1  0.397444  0.077004  0.219903  1
