# generated using pymatgen
data_Dy3Sc2InSb2
_symmetry_space_group_name_H-M   'P 1'
_cell_length_a   6.21993200
_cell_length_b   8.78623974
_cell_length_c   8.83061213
_cell_angle_alpha   120.14672090
_cell_angle_beta   89.99921093
_cell_angle_gamma   90.00131640
_symmetry_Int_Tables_number   1
_chemical_formula_structural   Dy3Sc2InSb2
_chemical_formula_sum   'Dy6 Sc4 In2 Sb4'
_cell_volume   417.31706176
_cell_formula_units_Z   2
loop_
 _symmetry_equiv_pos_site_id
 _symmetry_equiv_pos_as_xyz
  1  'x, y, z'
loop_
 _atom_site_type_symbol
 _atom_site_label
 _atom_site_symmetry_multiplicity
 _atom_site_fract_x
 _atom_site_fract_y
 _atom_site_fract_z
 _atom_site_occupancy
  Dy  Dy0  1  0.749975  0.242745  0.004298  1
  Dy  Dy1  1  0.749974  0.756882  0.761182  1
  Dy  Dy2  1  0.749977  0.999948  0.243149  1
  Dy  Dy3  1  0.250008  0.758919  0.997292  1
  Dy  Dy4  1  0.250011  0.240899  0.238582  1
  Dy  Dy5  1  0.250022  0.000078  0.754811  1
  Sc  Sc6  1  0.500186  0.336044  0.668124  1
  Sc  Sc7  1  0.500072  0.664105  0.331910  1
  Sc  Sc8  1  0.999873  0.664088  0.331884  1
  Sc  Sc9  1  0.999797  0.336071  0.668133  1
  In  In10  1  0.749992  0.600146  0.000998  1
  In  In11  1  0.750011  0.399882  0.400716  1
  Sb  Sb12  1  0.749947  0.000131  0.605895  1
  Sb  Sb13  1  0.250062  0.399463  0.998631  1
  Sb  Sb14  1  0.250061  0.600747  0.599350  1
  Sb  Sb15  1  0.250038  0.999852  0.395045  1
