# generated using pymatgen
data_Y2Ho3Er3(WO6)4
_symmetry_space_group_name_H-M   'P 1'
_cell_length_a   5.38407502
_cell_length_b   7.68938120
_cell_length_c   11.44162653
_cell_angle_alpha   75.37955316
_cell_angle_beta   90.00114684
_cell_angle_gamma   89.99190857
_symmetry_Int_Tables_number   1
_chemical_formula_structural   Y2Ho3Er3(WO6)4
_chemical_formula_sum   'Y2 Ho3 Er3 W4 O24'
_cell_volume   458.34733746
_cell_formula_units_Z   1
loop_
 _symmetry_equiv_pos_site_id
 _symmetry_equiv_pos_as_xyz
  1  'x, y, z'
loop_
 _atom_site_type_symbol
 _atom_site_label
 _atom_site_symmetry_multiplicity
 _atom_site_fract_x
 _atom_site_fract_y
 _atom_site_fract_z
 _atom_site_occupancy
  Y  Y0  1  0.684355  0.500081  0.249939  1
  Y  Y1  1  0.315670  0.499993  0.750004  1
  Ho  Ho2  1  0.183737  0.205151  0.422106  1
  Ho  Ho3  1  0.740796  0.999947  0.249941  1
  Ho  Ho4  1  0.259196  0.999971  0.750064  1
  Er  Er5  1  0.183766  0.794686  0.078044  1
  Er  Er6  1  0.816217  0.794589  0.578069  1
  Er  Er7  1  0.816222  0.205329  0.921959  1
  W  W8  1  0.255925  0.275666  0.114842  1
  W  W9  1  0.255858  0.724428  0.385069  1
  W  W10  1  0.744121  0.724343  0.885092  1
  W  W11  1  0.744146  0.275714  0.615027  1
  O  O12  1  0.458098  0.207489  0.273443  1
  O  O13  1  0.457546  0.792616  0.226203  1
  O  O14  1  0.542445  0.792598  0.726210  1
  O  O15  1  0.542442  0.207426  0.773814  1
  O  O16  1  0.044103  0.059379  0.104248  1
  O  O17  1  0.043716  0.940049  0.395710  1
  O  O18  1  0.955920  0.940603  0.895760  1
  O  O19  1  0.955694  0.059253  0.604418  1
  O  O20  1  0.981079  0.287755  0.229078  1
  O  O21  1  0.981303  0.712302  0.270638  1
  O  O22  1  0.018689  0.712352  0.770665  1
  O  O23  1  0.018728  0.287649  0.729327  1
  O  O24  1  0.849604  0.364751  0.451816  1
  O  O25  1  0.850322  0.635582  0.048224  1
  O  O26  1  0.149682  0.635561  0.548240  1
  O  O27  1  0.149684  0.364427  0.951769  1
  O  O28  1  0.641322  0.510395  0.614189  1
  O  O29  1  0.641370  0.489644  0.885838  1
  O  O30  1  0.359013  0.490037  0.385777  1
  O  O31  1  0.358616  0.510376  0.114174  1
  O  O32  1  0.464458  0.153430  0.569600  1
  O  O33  1  0.463827  0.846390  0.930743  1
  O  O34  1  0.536150  0.846457  0.430749  1
  O  O35  1  0.536180  0.153580  0.069213  1
