# generated using pymatgen
data_Tb2PrDy(Mo2O7)2
_symmetry_space_group_name_H-M   'P 1'
_cell_length_a   7.50560437
_cell_length_b   7.43071047
_cell_length_c   7.50560453
_cell_angle_alpha   58.94459392
_cell_angle_beta   59.03428867
_cell_angle_gamma   58.94459330
_symmetry_Int_Tables_number   1
_chemical_formula_structural   Tb2PrDy(Mo2O7)2
_chemical_formula_sum   'Tb2 Pr1 Dy1 Mo4 O14'
_cell_volume   289.07101209
_cell_formula_units_Z   1
loop_
 _symmetry_equiv_pos_site_id
 _symmetry_equiv_pos_as_xyz
  1  'x, y, z'
loop_
 _atom_site_type_symbol
 _atom_site_label
 _atom_site_symmetry_multiplicity
 _atom_site_fract_x
 _atom_site_fract_y
 _atom_site_fract_z
 _atom_site_occupancy
  Tb  Tb0  1  0.625000  0.125000  0.125000  1
  Tb  Tb1  1  0.125000  0.125000  0.625000  1
  Pr  Pr2  1  0.125000  0.125000  0.125000  1
  Dy  Dy3  1  0.125000  0.625000  0.125000  1
  Mo  Mo4  1  0.125000  0.625000  0.625000  1
  Mo  Mo5  1  0.625000  0.125000  0.625000  1
  Mo  Mo6  1  0.625000  0.625000  0.125000  1
  Mo  Mo7  1  0.625000  0.625000  0.625000  1
  O  O8  1  0.711772  0.699508  0.299936  1
  O  O9  1  0.272920  0.287333  0.709806  1
  O  O10  1  0.712852  0.295471  0.712852  1
  O  O11  1  0.288601  0.692070  0.288601  1
  O  O12  1  0.299936  0.699508  0.711772  1
  O  O13  1  0.709806  0.287333  0.272920  1
  O  O14  1  0.538228  0.550492  0.950064  1
  O  O15  1  0.977080  0.962667  0.540194  1
  O  O16  1  0.537148  0.954529  0.537148  1
  O  O17  1  0.961399  0.557930  0.961399  1
  O  O18  1  0.950064  0.550492  0.538228  1
  O  O19  1  0.540194  0.962667  0.977080  1
  O  O20  1  0.253097  0.256669  0.253097  1
  O  O21  1  0.996903  0.993331  0.996903  1
