# generated using pymatgen
data_Tb4Nd2MgCo17P12
_symmetry_space_group_name_H-M   'P 1'
_cell_length_a   3.75240300
_cell_length_b   10.64268500
_cell_length_c   12.34306900
_cell_angle_alpha   90.00000000
_cell_angle_beta   90.00000000
_cell_angle_gamma   90.00000000
_symmetry_Int_Tables_number   1
_chemical_formula_structural   Tb4Nd2MgCo17P12
_chemical_formula_sum   'Tb4 Nd2 Mg1 Co17 P12'
_cell_volume   492.92839861
_cell_formula_units_Z   1
loop_
 _symmetry_equiv_pos_site_id
 _symmetry_equiv_pos_as_xyz
  1  'x, y, z'
loop_
 _atom_site_type_symbol
 _atom_site_label
 _atom_site_symmetry_multiplicity
 _atom_site_fract_x
 _atom_site_fract_y
 _atom_site_fract_z
 _atom_site_occupancy
  Tb  Tb0  1  0.500000  0.821052  0.206335  1
  Tb  Tb1  1  0.500000  0.178948  0.206335  1
  Tb  Tb2  1  0.000000  0.682843  0.795536  1
  Tb  Tb3  1  0.000000  0.317157  0.795536  1
  Nd  Nd4  1  0.000000  0.500000  0.525795  1
  Nd  Nd5  1  0.500000  0.000000  0.477781  1
  Mg  Mg6  1  0.500000  0.500000  0.151150  1
  Co  Co7  1  0.000000  0.000000  0.840899  1
  Co  Co8  1  0.500000  0.500000  0.707145  1
  Co  Co9  1  0.000000  0.000000  0.293352  1
  Co  Co10  1  0.000000  0.500000  0.986244  1
  Co  Co11  1  0.500000  0.000000  0.011528  1
  Co  Co12  1  0.500000  0.329167  0.993238  1
  Co  Co13  1  0.500000  0.670833  0.993238  1
  Co  Co14  1  0.000000  0.163347  0.001606  1
  Co  Co15  1  0.000000  0.836653  0.001606  1
  Co  Co16  1  0.500000  0.295324  0.431648  1
  Co  Co17  1  0.500000  0.704676  0.431648  1
  Co  Co18  1  0.000000  0.202780  0.571619  1
  Co  Co19  1  0.000000  0.797220  0.571619  1
  Co  Co20  1  0.500000  0.880732  0.710890  1
  Co  Co21  1  0.500000  0.119268  0.710890  1
  Co  Co22  1  0.000000  0.622252  0.291420  1
  Co  Co23  1  0.000000  0.377748  0.291420  1
  P  P24  1  0.500000  0.500000  0.884751  1
  P  P25  1  0.000000  0.000000  0.114899  1
  P  P26  1  0.500000  0.500000  0.350136  1
  P  P27  1  0.000000  0.000000  0.659202  1
  P  P28  1  0.500000  0.306056  0.617983  1
  P  P29  1  0.500000  0.693944  0.617983  1
  P  P30  1  0.000000  0.192648  0.384933  1
  P  P31  1  0.000000  0.807352  0.384933  1
  P  P32  1  0.500000  0.849364  0.891328  1
  P  P33  1  0.500000  0.150636  0.891328  1
  P  P34  1  0.000000  0.662700  0.102024  1
  P  P35  1  0.000000  0.337300  0.102024  1
