# generated using pymatgen
data_DyMg(ZnPt)2
_symmetry_space_group_name_H-M   'P 1'
_cell_length_a   4.18047000
_cell_length_b   6.64286203
_cell_length_c   8.00372960
_cell_angle_alpha   92.44544240
_cell_angle_beta   90.00000000
_cell_angle_gamma   90.00000000
_symmetry_Int_Tables_number   1
_chemical_formula_structural   DyMg(ZnPt)2
_chemical_formula_sum   'Dy2 Mg2 Zn4 Pt4'
_cell_volume   222.06343868
_cell_formula_units_Z   2
loop_
 _symmetry_equiv_pos_site_id
 _symmetry_equiv_pos_as_xyz
  1  'x, y, z'
loop_
 _atom_site_type_symbol
 _atom_site_label
 _atom_site_symmetry_multiplicity
 _atom_site_fract_x
 _atom_site_fract_y
 _atom_site_fract_z
 _atom_site_occupancy
  Dy  Dy0  1  0.750000  0.962332  0.688138  1
  Dy  Dy1  1  0.250000  0.037668  0.311862  1
  Mg  Mg2  1  0.250000  0.534155  0.174330  1
  Mg  Mg3  1  0.750000  0.465845  0.825670  1
  Zn  Zn4  1  0.250000  0.639880  0.558177  1
  Zn  Zn5  1  0.750000  0.360120  0.441823  1
  Zn  Zn6  1  0.750000  0.845843  0.060669  1
  Zn  Zn7  1  0.250000  0.154157  0.939331  1
  Pt  Pt8  1  0.250000  0.747609  0.878066  1
  Pt  Pt9  1  0.750000  0.252391  0.121934  1
  Pt  Pt10  1  0.750000  0.736489  0.369844  1
  Pt  Pt11  1  0.250000  0.263511  0.630156  1
