# generated using pymatgen
data_Ho16InHg3IrRh3
_symmetry_space_group_name_H-M   'P 1'
_cell_length_a   9.56513939
_cell_length_b   9.58754113
_cell_length_c   9.56513058
_cell_angle_alpha   59.89825728
_cell_angle_beta   59.87246570
_cell_angle_gamma   59.90004085
_symmetry_Int_Tables_number   1
_chemical_formula_structural   Ho16InHg3IrRh3
_chemical_formula_sum   'Ho16 In1 Hg3 Ir1 Rh3'
_cell_volume   618.71647588
_cell_formula_units_Z   1
loop_
 _symmetry_equiv_pos_site_id
 _symmetry_equiv_pos_as_xyz
  1  'x, y, z'
loop_
 _atom_site_type_symbol
 _atom_site_label
 _atom_site_symmetry_multiplicity
 _atom_site_fract_x
 _atom_site_fract_y
 _atom_site_fract_z
 _atom_site_occupancy
  Ho  Ho0  1  0.189415  0.184320  0.813090  1
  Ho  Ho1  1  0.601620  0.601647  0.196929  1
  Ho  Ho2  1  0.439326  0.059680  0.439344  1
  Ho  Ho3  1  0.441227  0.438955  0.058802  1
  Ho  Ho4  1  0.814162  0.185376  0.814149  1
  Ho  Ho5  1  0.187960  0.811575  0.187937  1
  Ho  Ho6  1  0.438017  0.060291  0.060928  1
  Ho  Ho7  1  0.188939  0.812531  0.811695  1
  Ho  Ho8  1  0.060291  0.437717  0.060265  1
  Ho  Ho9  1  0.811706  0.812526  0.188934  1
  Ho  Ho10  1  0.196945  0.601631  0.601635  1
  Ho  Ho11  1  0.058821  0.438935  0.441242  1
  Ho  Ho12  1  0.060928  0.060275  0.438043  1
  Ho  Ho13  1  0.813097  0.184304  0.189430  1
  Ho  Ho14  1  0.602166  0.195280  0.602186  1
  Ho  Ho15  1  0.600448  0.600378  0.600468  1
  In  In16  1  0.830397  0.506033  0.830389  1
  Hg  Hg17  1  0.834192  0.835363  0.834186  1
  Hg  Hg18  1  0.835541  0.835726  0.493341  1
  Hg  Hg19  1  0.493345  0.835710  0.835541  1
  Ir  Ir20  1  0.393484  0.821678  0.393491  1
  Rh  Rh21  1  0.392865  0.393162  0.392851  1
  Rh  Rh22  1  0.822274  0.393455  0.392844  1
  Rh  Rh23  1  0.392836  0.393454  0.822279  1
