# generated using pymatgen
data_La14PdAu5
_symmetry_space_group_name_H-M   'P 1'
_cell_length_a   10.65847300
_cell_length_b   10.60208417
_cell_length_c   6.61672320
_cell_angle_alpha   90.05957058
_cell_angle_beta   90.00000000
_cell_angle_gamma   120.17609307
_symmetry_Int_Tables_number   1
_chemical_formula_structural   La14PdAu5
_chemical_formula_sum   'La14 Pd1 Au5'
_cell_volume   646.37739318
_cell_formula_units_Z   1
loop_
 _symmetry_equiv_pos_site_id
 _symmetry_equiv_pos_as_xyz
  1  'x, y, z'
loop_
 _atom_site_type_symbol
 _atom_site_label
 _atom_site_symmetry_multiplicity
 _atom_site_fract_x
 _atom_site_fract_y
 _atom_site_fract_z
 _atom_site_occupancy
  La  La0  1  0.330831  0.661663  0.443228  1
  La  La1  1  0.666545  0.333089  0.935849  1
  La  La2  1  0.128426  0.871129  0.250066  1
  La  La3  1  0.742703  0.871129  0.250066  1
  La  La4  1  0.129569  0.259138  0.257198  1
  La  La5  1  0.878869  0.131770  0.748213  1
  La  La6  1  0.252902  0.131770  0.748213  1
  La  La7  1  0.872137  0.744273  0.750031  1
  La  La8  1  0.536264  0.461059  0.448793  1
  La  La9  1  0.924795  0.461059  0.448793  1
  La  La10  1  0.537005  0.074010  0.451161  1
  La  La11  1  0.456722  0.536047  0.946290  1
  La  La12  1  0.079326  0.536047  0.946290  1
  La  La13  1  0.463003  0.926006  0.950495  1
  Pd  Pd14  1  0.188503  0.377004  0.687914  1
  Au  Au15  1  0.811875  0.188312  0.183899  1
  Au  Au16  1  0.376436  0.188312  0.183899  1
  Au  Au17  1  0.811180  0.622362  0.185192  1
  Au  Au18  1  0.189304  0.812910  0.685098  1
  Au  Au19  1  0.623606  0.812910  0.685098  1
