# generated using pymatgen
data_Yb2(Ti2Bi3)3
_symmetry_space_group_name_H-M   'P 1'
_cell_length_a   10.53670800
_cell_length_b   10.53670800
_cell_length_c   7.82223600
_cell_angle_alpha   90.00000000
_cell_angle_beta   90.00000000
_cell_angle_gamma   90.00000000
_symmetry_Int_Tables_number   1
_chemical_formula_structural   Yb2(Ti2Bi3)3
_chemical_formula_sum   'Yb4 Ti12 Bi18'
_cell_volume   868.44197071
_cell_formula_units_Z   2
loop_
 _symmetry_equiv_pos_site_id
 _symmetry_equiv_pos_as_xyz
  1  'x, y, z'
loop_
 _atom_site_type_symbol
 _atom_site_label
 _atom_site_symmetry_multiplicity
 _atom_site_fract_x
 _atom_site_fract_y
 _atom_site_fract_z
 _atom_site_occupancy
  Yb  Yb0  1  0.500000  0.000000  0.415463  1
  Yb  Yb1  1  0.000000  0.500000  0.066133  1
  Yb  Yb2  1  0.500000  0.000000  0.933867  1
  Yb  Yb3  1  0.000000  0.500000  0.584537  1
  Ti  Ti4  1  0.856007  0.000000  0.845285  1
  Ti  Ti5  1  0.000000  0.143993  0.154715  1
  Ti  Ti6  1  0.000000  0.856007  0.154715  1
  Ti  Ti7  1  0.643993  0.500000  0.154715  1
  Ti  Ti8  1  0.143993  0.000000  0.845285  1
  Ti  Ti9  1  0.356007  0.500000  0.154715  1
  Ti  Ti10  1  0.250000  0.750000  0.000000  1
  Ti  Ti11  1  0.500000  0.356007  0.845285  1
  Ti  Ti12  1  0.750000  0.250000  0.000000  1
  Ti  Ti13  1  0.500000  0.643993  0.845285  1
  Ti  Ti14  1  0.750000  0.750000  0.000000  1
  Ti  Ti15  1  0.250000  0.250000  0.000000  1
  Bi  Bi16  1  0.673441  0.173441  0.662136  1
  Bi  Bi17  1  0.500000  0.255792  0.179703  1
  Bi  Bi18  1  0.000000  0.000000  0.500000  1
  Bi  Bi19  1  0.173441  0.673441  0.337864  1
  Bi  Bi20  1  0.255792  0.500000  0.820297  1
  Bi  Bi21  1  0.673441  0.826559  0.662136  1
  Bi  Bi22  1  0.000000  0.244208  0.820297  1
  Bi  Bi23  1  0.755792  0.000000  0.179703  1
  Bi  Bi24  1  0.500000  0.744208  0.179703  1
  Bi  Bi25  1  0.244208  0.000000  0.179703  1
  Bi  Bi26  1  0.326559  0.826559  0.662136  1
  Bi  Bi27  1  0.744208  0.500000  0.820297  1
  Bi  Bi28  1  0.500000  0.500000  0.500000  1
  Bi  Bi29  1  0.000000  0.755792  0.820297  1
  Bi  Bi30  1  0.173441  0.326559  0.337864  1
  Bi  Bi31  1  0.826559  0.326559  0.337864  1
  Bi  Bi32  1  0.326559  0.173441  0.662136  1
  Bi  Bi33  1  0.826559  0.673441  0.337864  1
