# generated using pymatgen
data_NpPbF6
_symmetry_space_group_name_H-M   'P 1'
_cell_length_a   7.17349356
_cell_length_b   7.17349260
_cell_length_c   5.49087600
_cell_angle_alpha   90.00000000
_cell_angle_beta   90.00000000
_cell_angle_gamma   111.93024929
_symmetry_Int_Tables_number   1
_chemical_formula_structural   NpPbF6
_chemical_formula_sum   'Np2 Pb2 F12'
_cell_volume   262.10909994
_cell_formula_units_Z   2
loop_
 _symmetry_equiv_pos_site_id
 _symmetry_equiv_pos_as_xyz
  1  'x, y, z'
loop_
 _atom_site_type_symbol
 _atom_site_label
 _atom_site_symmetry_multiplicity
 _atom_site_fract_x
 _atom_site_fract_y
 _atom_site_fract_z
 _atom_site_occupancy
  Np  Np0  1  0.750000  0.750000  0.000000  1
  Np  Np1  1  0.250000  0.250000  0.000000  1
  Pb  Pb2  1  0.250000  0.750000  0.510046  1
  Pb  Pb3  1  0.750000  0.250000  0.489954  1
  F  F4  1  0.183699  0.451363  0.261736  1
  F  F5  1  0.316301  0.048637  0.261736  1
  F  F6  1  0.451363  0.183699  0.738264  1
  F  F7  1  0.048637  0.316301  0.738264  1
  F  F8  1  0.572626  0.427374  0.172170  1
  F  F9  1  0.927374  0.072626  0.172170  1
  F  F10  1  0.427374  0.572626  0.827830  1
  F  F11  1  0.072626  0.927374  0.827830  1
  F  F12  1  0.951363  0.683699  0.261736  1
  F  F13  1  0.548637  0.816301  0.261736  1
  F  F14  1  0.683699  0.951363  0.738264  1
  F  F15  1  0.816301  0.548637  0.738264  1
