# generated using pymatgen
data_Pr2CrFeO6
_symmetry_space_group_name_H-M   'P 1'
_cell_length_a   5.52521004
_cell_length_b   5.64854800
_cell_length_c   7.86761906
_cell_angle_alpha   90.00000000
_cell_angle_beta   90.01387212
_cell_angle_gamma   90.00000000
_symmetry_Int_Tables_number   1
_chemical_formula_structural   Pr2CrFeO6
_chemical_formula_sum   'Pr4 Cr2 Fe2 O12'
_cell_volume   245.54377414
_cell_formula_units_Z   2
loop_
 _symmetry_equiv_pos_site_id
 _symmetry_equiv_pos_as_xyz
  1  'x, y, z'
loop_
 _atom_site_type_symbol
 _atom_site_label
 _atom_site_symmetry_multiplicity
 _atom_site_fract_x
 _atom_site_fract_y
 _atom_site_fract_z
 _atom_site_occupancy
  Pr  Pr0  1  0.511843  0.548550  0.250010  1
  Pr  Pr1  1  0.988157  0.048550  0.249990  1
  Pr  Pr2  1  0.488157  0.451450  0.749990  1
  Pr  Pr3  1  0.011843  0.951450  0.750010  1
  Cr  Cr4  1  0.000000  0.500000  0.500000  1
  Cr  Cr5  1  0.500000  0.000000  0.000000  1
  Fe  Fe6  1  0.000000  0.500000  0.000000  1
  Fe  Fe7  1  0.500000  0.000000  0.500000  1
  O  O8  1  0.413858  0.977052  0.249674  1
  O  O9  1  0.086142  0.477052  0.250326  1
  O  O10  1  0.586142  0.022948  0.750326  1
  O  O11  1  0.913858  0.522948  0.749674  1
  O  O12  1  0.790978  0.791339  0.046182  1
  O  O13  1  0.709022  0.291339  0.453818  1
  O  O14  1  0.208115  0.209567  0.546118  1
  O  O15  1  0.291885  0.709567  0.953882  1
  O  O16  1  0.209022  0.208661  0.953818  1
  O  O17  1  0.290978  0.708661  0.546182  1
  O  O18  1  0.791885  0.790433  0.453882  1
  O  O19  1  0.708115  0.290433  0.046118  1
