# generated using pymatgen
data_Tb4DyHo15(CoSb2)4
_symmetry_space_group_name_H-M   'P 1'
_cell_length_a   7.88737934
_cell_length_b   8.75037995
_cell_length_c   12.16288005
_cell_angle_alpha   90.01872230
_cell_angle_beta   89.98838272
_cell_angle_gamma   90.02063738
_symmetry_Int_Tables_number   1
_chemical_formula_structural   Tb4DyHo15(CoSb2)4
_chemical_formula_sum   'Tb4 Dy1 Ho15 Co4 Sb8'
_cell_volume   839.45226073
_cell_formula_units_Z   1
loop_
 _symmetry_equiv_pos_site_id
 _symmetry_equiv_pos_as_xyz
  1  'x, y, z'
loop_
 _atom_site_type_symbol
 _atom_site_label
 _atom_site_symmetry_multiplicity
 _atom_site_fract_x
 _atom_site_fract_y
 _atom_site_fract_z
 _atom_site_occupancy
  Tb  Tb0  1  0.121761  0.250138  0.193638  1
  Tb  Tb1  1  0.378610  0.249590  0.694032  1
  Tb  Tb2  1  0.878180  0.749984  0.806252  1
  Tb  Tb3  1  0.320729  0.464614  0.434975  1
  Dy  Dy4  1  0.621977  0.750320  0.306132  1
  Ho  Ho5  1  0.154891  0.750043  0.202986  1
  Ho  Ho6  1  0.655160  0.249771  0.296803  1
  Ho  Ho7  1  0.845097  0.249991  0.796916  1
  Ho  Ho8  1  0.345038  0.750156  0.703193  1
  Ho  Ho9  1  0.452991  0.750043  0.997925  1
  Ho  Ho10  1  0.952224  0.249768  0.502082  1
  Ho  Ho11  1  0.547127  0.249948  0.002063  1
  Ho  Ho12  1  0.046241  0.750341  0.497963  1
  Ho  Ho13  1  0.822089  0.964253  0.065081  1
  Ho  Ho14  1  0.322248  0.035428  0.435006  1
  Ho  Ho15  1  0.177920  0.464116  0.934913  1
  Ho  Ho16  1  0.678138  0.536121  0.565151  1
  Ho  Ho17  1  0.177908  0.035866  0.934879  1
  Ho  Ho18  1  0.677898  0.963695  0.565159  1
  Ho  Ho19  1  0.822035  0.535729  0.065030  1
  Co  Co20  1  0.433720  0.750324  0.490447  1
  Co  Co21  1  0.933127  0.249992  0.009352  1
  Co  Co22  1  0.568157  0.249406  0.509723  1
  Co  Co23  1  0.066846  0.750010  0.990598  1
  Sb  Sb24  1  0.928641  0.991461  0.327381  1
  Sb  Sb25  1  0.428836  0.008301  0.172566  1
  Sb  Sb26  1  0.071530  0.491554  0.672484  1
  Sb  Sb27  1  0.571326  0.508479  0.827529  1
  Sb  Sb28  1  0.071352  0.008474  0.672533  1
  Sb  Sb29  1  0.571459  0.991494  0.827649  1
  Sb  Sb30  1  0.927638  0.508780  0.327271  1
  Sb  Sb31  1  0.429104  0.491809  0.172287  1
