# generated using pymatgen
data_Tb3B6Ru5Rh3
_symmetry_space_group_name_H-M   'P 1'
_cell_length_a   9.98831483
_cell_length_b   9.20904651
_cell_length_c   5.53699123
_cell_angle_alpha   81.14498648
_cell_angle_beta   65.64293058
_cell_angle_gamma   32.94650360
_symmetry_Int_Tables_number   1
_chemical_formula_structural   Tb3B6Ru5Rh3
_chemical_formula_sum   'Tb3 B6 Ru5 Rh3'
_cell_volume   232.58361641
_cell_formula_units_Z   1
loop_
 _symmetry_equiv_pos_site_id
 _symmetry_equiv_pos_as_xyz
  1  'x, y, z'
loop_
 _atom_site_type_symbol
 _atom_site_label
 _atom_site_symmetry_multiplicity
 _atom_site_fract_x
 _atom_site_fract_y
 _atom_site_fract_z
 _atom_site_occupancy
  Tb  Tb0  1  0.000102  0.000102  0.999898  1
  Tb  Tb1  1  0.819140  0.819140  0.180860  1
  Tb  Tb2  1  0.180180  0.180180  0.819820  1
  B  B3  1  0.675179  0.326292  0.682027  1
  B  B4  1  0.326292  0.675179  0.316502  1
  B  B5  1  0.171393  0.483004  0.507012  1
  B  B6  1  0.483004  0.171393  0.838591  1
  B  B7  1  0.833616  0.510749  0.491079  1
  B  B8  1  0.510749  0.833616  0.164556  1
  Ru  Ru9  1  0.249751  0.249751  0.250249  1
  Ru  Ru10  1  0.750898  0.750898  0.749102  1
  Ru  Ru11  1  0.086297  0.086297  0.413703  1
  Ru  Ru12  1  0.586848  0.586848  0.913152  1
  Ru  Ru13  1  0.413765  0.413765  0.086235  1
  Rh  Rh14  1  0.914049  0.914049  0.585951  1
  Rh  Rh15  1  0.413909  0.413909  0.586091  1
  Rh  Rh16  1  0.584827  0.584827  0.415173  1
