# generated using pymatgen
data_Yb3(YSn2)2
_symmetry_space_group_name_H-M   'P 1'
_cell_length_a   7.84969676
_cell_length_b   8.45402199
_cell_length_c   16.09074832
_cell_angle_alpha   90.03877642
_cell_angle_beta   89.97338931
_cell_angle_gamma   90.07005890
_symmetry_Int_Tables_number   1
_chemical_formula_structural   Yb3(YSn2)2
_chemical_formula_sum   'Yb12 Y8 Sn16'
_cell_volume   1067.80518308
_cell_formula_units_Z   4
loop_
 _symmetry_equiv_pos_site_id
 _symmetry_equiv_pos_as_xyz
  1  'x, y, z'
loop_
 _atom_site_type_symbol
 _atom_site_label
 _atom_site_symmetry_multiplicity
 _atom_site_fract_x
 _atom_site_fract_y
 _atom_site_fract_z
 _atom_site_occupancy
  Yb  Yb0  1  0.178062  0.333641  0.620700  1
  Yb  Yb1  1  0.503730  0.688988  0.592978  1
  Yb  Yb2  1  0.004774  0.814073  0.908533  1
  Yb  Yb3  1  0.492176  0.310214  0.093075  1
  Yb  Yb4  1  0.995535  0.189897  0.407279  1
  Yb  Yb5  1  0.493358  0.310486  0.407418  1
  Yb  Yb6  1  0.994215  0.188580  0.093120  1
  Yb  Yb7  1  0.503799  0.688731  0.907039  1
  Yb  Yb8  1  0.006117  0.813516  0.591250  1
  Yb  Yb9  1  0.335230  0.990377  0.749020  1
  Yb  Yb10  1  0.161850  0.487882  0.250022  1
  Yb  Yb11  1  0.663033  0.009785  0.250597  1
  Y  Y12  1  0.672458  0.164806  0.621988  1
  Y  Y13  1  0.174401  0.331860  0.878763  1
  Y  Y14  1  0.326564  0.832623  0.122239  1
  Y  Y15  1  0.827942  0.663982  0.377825  1
  Y  Y16  1  0.326094  0.833531  0.377541  1
  Y  Y17  1  0.826467  0.665057  0.121826  1
  Y  Y18  1  0.672753  0.165025  0.878656  1
  Y  Y19  1  0.840314  0.511546  0.748196  1
  Sn  Sn20  1  0.673479  0.963804  0.459207  1
  Sn  Sn21  1  0.170293  0.534383  0.040627  1
  Sn  Sn22  1  0.329527  0.034111  0.959503  1
  Sn  Sn23  1  0.826967  0.468636  0.543172  1
  Sn  Sn24  1  0.334473  0.033619  0.540463  1
  Sn  Sn25  1  0.828676  0.468564  0.955708  1
  Sn  Sn26  1  0.671190  0.964831  0.041279  1
  Sn  Sn27  1  0.169384  0.536416  0.457724  1
  Sn  Sn28  1  0.476805  0.383179  0.753301  1
  Sn  Sn29  1  0.969226  0.124847  0.750088  1
  Sn  Sn30  1  0.527824  0.622038  0.249866  1
  Sn  Sn31  1  0.027543  0.876000  0.248979  1
  Sn  Sn32  1  0.718588  0.867694  0.750830  1
  Sn  Sn33  1  0.213920  0.629052  0.752395  1
  Sn  Sn34  1  0.282321  0.127188  0.249421  1
  Sn  Sn35  1  0.780909  0.371035  0.249369  1
