# generated using pymatgen
data_Zr8Tl3CdCoPd7
_symmetry_space_group_name_H-M   'P 1'
_cell_length_a   7.57523989
_cell_length_b   7.57932239
_cell_length_c   6.81582013
_cell_angle_alpha   90.15916090
_cell_angle_beta   89.81593346
_cell_angle_gamma   89.81062510
_symmetry_Int_Tables_number   1
_chemical_formula_structural   Zr8Tl3CdCoPd7
_chemical_formula_sum   'Zr8 Tl3 Cd1 Co1 Pd7'
_cell_volume   391.32589776
_cell_formula_units_Z   1
loop_
 _symmetry_equiv_pos_site_id
 _symmetry_equiv_pos_as_xyz
  1  'x, y, z'
loop_
 _atom_site_type_symbol
 _atom_site_label
 _atom_site_symmetry_multiplicity
 _atom_site_fract_x
 _atom_site_fract_y
 _atom_site_fract_z
 _atom_site_occupancy
  Zr  Zr0  1  0.663327  0.639913  0.492290  1
  Zr  Zr1  1  0.807530  0.193477  0.492794  1
  Zr  Zr2  1  0.686256  0.672637  0.004258  1
  Zr  Zr3  1  0.834019  0.167252  0.009192  1
  Zr  Zr4  1  0.182505  0.816367  0.500413  1
  Zr  Zr5  1  0.326136  0.315144  0.004043  1
  Zr  Zr6  1  0.149030  0.849522  0.997392  1
  Zr  Zr7  1  0.358372  0.338394  0.492609  1
  Tl  Tl8  1  0.999136  0.498626  0.248308  1
  Tl  Tl9  1  0.500260  0.995506  0.748651  1
  Tl  Tl10  1  0.501490  0.001036  0.248209  1
  Cd  Cd11  1  0.004147  0.499994  0.749130  1
  Co  Co12  1  0.624646  0.375864  0.229306  1
  Pd  Pd13  1  0.368743  0.627234  0.777826  1
  Pd  Pd14  1  0.870436  0.871347  0.720784  1
  Pd  Pd15  1  0.629473  0.374286  0.784036  1
  Pd  Pd16  1  0.372413  0.627646  0.218935  1
  Pd  Pd17  1  0.126312  0.128771  0.280654  1
  Pd  Pd18  1  0.871195  0.873747  0.280352  1
  Pd  Pd19  1  0.124575  0.133236  0.720818  1
