# generated using pymatgen
data_DyYPu3(SiB4)2
_symmetry_space_group_name_H-M   'P 1'
_cell_length_a   7.21563801
_cell_length_b   7.21563849
_cell_length_c   8.10309500
_cell_angle_alpha   90.00000000
_cell_angle_beta   90.00000000
_cell_angle_gamma   89.93921546
_symmetry_Int_Tables_number   1
_chemical_formula_structural   DyYPu3(SiB4)2
_chemical_formula_sum   'Dy2 Y2 Pu6 Si4 B16'
_cell_volume   421.89093128
_cell_formula_units_Z   2
loop_
 _symmetry_equiv_pos_site_id
 _symmetry_equiv_pos_as_xyz
  1  'x, y, z'
loop_
 _atom_site_type_symbol
 _atom_site_label
 _atom_site_symmetry_multiplicity
 _atom_site_fract_x
 _atom_site_fract_y
 _atom_site_fract_z
 _atom_site_occupancy
  Dy  Dy0  1  0.181497  0.318503  0.777854  1
  Dy  Dy1  1  0.181497  0.318503  0.222146  1
  Y  Y2  1  0.999271  0.998313  0.500000  1
  Y  Y3  1  0.501687  0.500729  0.500000  1
  Pu  Pu4  1  0.683084  0.182737  0.228564  1
  Pu  Pu5  1  0.317263  0.816916  0.771436  1
  Pu  Pu6  1  0.317263  0.816916  0.228564  1
  Pu  Pu7  1  0.816429  0.683571  0.228601  1
  Pu  Pu8  1  0.816429  0.683571  0.771399  1
  Pu  Pu9  1  0.683084  0.182737  0.771436  1
  Si  Si10  1  0.115908  0.614201  0.500000  1
  Si  Si11  1  0.885799  0.384092  0.500000  1
  Si  Si12  1  0.383821  0.116179  0.500000  1
  Si  Si13  1  0.613271  0.886729  0.500000  1
  B  B14  1  0.173470  0.038120  0.000000  1
  B  B15  1  0.826132  0.959740  0.000000  1
  B  B16  1  0.958304  0.172174  0.000000  1
  B  B17  1  0.327826  0.541696  0.000000  1
  B  B18  1  0.040110  0.825630  0.000000  1
  B  B19  1  0.674370  0.459890  0.000000  1
  B  B20  1  0.540260  0.673868  0.000000  1
  B  B21  1  0.461880  0.326530  0.000000  1
  B  B22  1  0.090332  0.589634  0.000000  1
  B  B23  1  0.910366  0.409668  0.000000  1
  B  B24  1  0.409859  0.090141  0.000000  1
  B  B25  1  0.589126  0.910874  0.000000  1
  B  B26  1  0.999499  0.998669  0.160697  1
  B  B27  1  0.999499  0.998669  0.839303  1
  B  B28  1  0.501331  0.500501  0.839303  1
  B  B29  1  0.501331  0.500501  0.160697  1
