# generated using pymatgen
data_Sc2Ni20B6W
_symmetry_space_group_name_H-M   'P 1'
_cell_length_a   7.49415445
_cell_length_b   7.49970620
_cell_length_c   7.49812022
_cell_angle_alpha   59.93342373
_cell_angle_beta   59.95364949
_cell_angle_gamma   60.11232296
_symmetry_Int_Tables_number   1
_chemical_formula_structural   Sc2Ni20B6W
_chemical_formula_sum   'Sc2 Ni20 B6 W1'
_cell_volume   297.98868010
_cell_formula_units_Z   1
loop_
 _symmetry_equiv_pos_site_id
 _symmetry_equiv_pos_as_xyz
  1  'x, y, z'
loop_
 _atom_site_type_symbol
 _atom_site_label
 _atom_site_symmetry_multiplicity
 _atom_site_fract_x
 _atom_site_fract_y
 _atom_site_fract_z
 _atom_site_occupancy
  Sc  Sc0  1  0.750123  0.750341  0.749440  1
  Sc  Sc1  1  0.249877  0.249659  0.250560  1
  Ni  Ni2  1  0.385586  0.385333  0.843439  1
  Ni  Ni3  1  0.614540  0.614271  0.614323  1
  Ni  Ni4  1  0.000186  0.340348  0.999870  1
  Ni  Ni5  1  0.340222  0.000245  0.999831  1
  Ni  Ni6  1  0.000145  0.340379  0.659785  1
  Ni  Ni7  1  0.843033  0.385871  0.385549  1
  Ni  Ni8  1  0.340284  0.000079  0.659802  1
  Ni  Ni9  1  0.999995  0.000304  0.340060  1
  Ni  Ni10  1  0.659867  0.340214  0.000075  1
  Ni  Ni11  1  0.999855  0.659621  0.340215  1
  Ni  Ni12  1  0.000005  0.999696  0.659940  1
  Ni  Ni13  1  0.340133  0.659786  0.999925  1
  Ni  Ni14  1  0.659778  0.999755  0.000169  1
  Ni  Ni15  1  0.999814  0.659652  0.000130  1
  Ni  Ni16  1  0.385754  0.843269  0.385321  1
  Ni  Ni17  1  0.614414  0.614667  0.156561  1
  Ni  Ni18  1  0.614246  0.156731  0.614679  1
  Ni  Ni19  1  0.156967  0.614129  0.614451  1
  Ni  Ni20  1  0.385460  0.385729  0.385677  1
  Ni  Ni21  1  0.659716  0.999921  0.340198  1
  B  B22  1  0.729958  0.270059  0.729869  1
  B  B23  1  0.270042  0.729941  0.270131  1
  B  B24  1  0.270543  0.729507  0.729452  1
  B  B25  1  0.269963  0.269886  0.730076  1
  B  B26  1  0.730037  0.730114  0.269924  1
  B  B27  1  0.729457  0.270493  0.270548  1
  W  W28  1  0.000000  0.000000  0.000000  1
