# generated using pymatgen
data_Ho4Lu8Tc3Ru
_symmetry_space_group_name_H-M   'P 1'
_cell_length_a   6.18907102
_cell_length_b   7.34870300
_cell_length_c   8.90753800
_cell_angle_alpha   90.00000000
_cell_angle_beta   90.00000000
_cell_angle_gamma   89.99455834
_symmetry_Int_Tables_number   1
_chemical_formula_structural   Ho4Lu8Tc3Ru
_chemical_formula_sum   'Ho4 Lu8 Tc3 Ru1'
_cell_volume   405.12947709
_cell_formula_units_Z   1
loop_
 _symmetry_equiv_pos_site_id
 _symmetry_equiv_pos_as_xyz
  1  'x, y, z'
loop_
 _atom_site_type_symbol
 _atom_site_label
 _atom_site_symmetry_multiplicity
 _atom_site_fract_x
 _atom_site_fract_y
 _atom_site_fract_z
 _atom_site_occupancy
  Ho  Ho0  1  0.875000  0.540334  0.250000  1
  Ho  Ho1  1  0.624577  0.039042  0.250000  1
  Ho  Ho2  1  0.128642  0.458069  0.750000  1
  Ho  Ho3  1  0.376112  0.958803  0.750000  1
  Lu  Lu4  1  0.339799  0.675645  0.062789  1
  Lu  Lu5  1  0.157315  0.175288  0.437607  1
  Lu  Lu6  1  0.658236  0.325485  0.562924  1
  Lu  Lu7  1  0.841768  0.824545  0.937407  1
  Lu  Lu8  1  0.658236  0.325485  0.937076  1
  Lu  Lu9  1  0.841768  0.824545  0.562593  1
  Lu  Lu10  1  0.339799  0.675645  0.437211  1
  Lu  Lu11  1  0.157315  0.175288  0.062393  1
  Tc  Tc12  1  0.043295  0.882876  0.250000  1
  Tc  Tc13  1  0.457977  0.384513  0.250000  1
  Tc  Tc14  1  0.957735  0.116870  0.750000  1
  Ru  Ru15  1  0.542425  0.617566  0.750000  1
