# generated using pymatgen
data_Ho4PdPb2Au3
_symmetry_space_group_name_H-M   'P 1'
_cell_length_a   8.14832611
_cell_length_b   8.14832611
_cell_length_c   3.58934900
_cell_angle_alpha   90.00000000
_cell_angle_beta   90.00000000
_cell_angle_gamma   90.19753184
_symmetry_Int_Tables_number   1
_chemical_formula_structural   Ho4PdPb2Au3
_chemical_formula_sum   'Ho4 Pd1 Pb2 Au3'
_cell_volume   238.31419424
_cell_formula_units_Z   1
loop_
 _symmetry_equiv_pos_site_id
 _symmetry_equiv_pos_as_xyz
  1  'x, y, z'
loop_
 _atom_site_type_symbol
 _atom_site_label
 _atom_site_symmetry_multiplicity
 _atom_site_fract_x
 _atom_site_fract_y
 _atom_site_fract_z
 _atom_site_occupancy
  Ho  Ho0  1  0.674172  0.174172  0.500000  1
  Ho  Ho1  1  0.159368  0.331567  0.500000  1
  Ho  Ho2  1  0.831567  0.659368  0.500000  1
  Ho  Ho3  1  0.332711  0.832711  0.500000  1
  Pd  Pd4  1  0.873506  0.373506  0.000000  1
  Pb  Pb5  1  0.997731  0.004521  0.000000  1
  Pb  Pb6  1  0.504521  0.497731  0.000000  1
  Au  Au7  1  0.374644  0.127270  0.000000  1
  Au  Au8  1  0.124510  0.624510  0.000000  1
  Au  Au9  1  0.627270  0.874644  0.000000  1
