# generated using pymatgen
data_Er5Si10P2Ir19
_symmetry_space_group_name_H-M   'P 1'
_cell_length_a   12.82320625
_cell_length_b   12.82320651
_cell_length_c   3.94841600
_cell_angle_alpha   90.00000000
_cell_angle_beta   90.00000000
_cell_angle_gamma   120.15841753
_symmetry_Int_Tables_number   1
_chemical_formula_structural   Er5Si10P2Ir19
_chemical_formula_sum   'Er5 Si10 P2 Ir19'
_cell_volume   561.37272770
_cell_formula_units_Z   1
loop_
 _symmetry_equiv_pos_site_id
 _symmetry_equiv_pos_as_xyz
  1  'x, y, z'
loop_
 _atom_site_type_symbol
 _atom_site_label
 _atom_site_symmetry_multiplicity
 _atom_site_fract_x
 _atom_site_fract_y
 _atom_site_fract_z
 _atom_site_occupancy
  Er  Er0  1  0.666518  0.333614  0.000000  1
  Er  Er1  1  0.333614  0.666518  0.000000  1
  Er  Er2  1  0.813126  0.813126  0.500000  1
  Er  Er3  1  0.185840  0.001173  0.500000  1
  Er  Er4  1  0.001173  0.185840  0.500000  1
  Si  Si5  1  0.686110  0.167563  0.500000  1
  Si  Si6  1  0.832064  0.518227  0.500000  1
  Si  Si7  1  0.481174  0.312914  0.500000  1
  Si  Si8  1  0.167563  0.686110  0.500000  1
  Si  Si9  1  0.518227  0.832064  0.500000  1
  Si  Si10  1  0.312914  0.481174  0.500000  1
  Si  Si11  1  0.633493  0.633493  0.000000  1
  Si  Si12  1  0.366899  0.000204  0.000000  1
  Si  Si13  1  0.000204  0.366899  0.000000  1
  Si  Si14  1  0.178592  0.178592  0.000000  1
  P  P15  1  0.820840  0.000848  0.000000  1
  P  P16  1  0.000848  0.820840  0.000000  1
  Ir  Ir17  1  0.806554  0.179752  0.000000  1
  Ir  Ir18  1  0.820717  0.627288  0.000000  1
  Ir  Ir19  1  0.375460  0.193877  0.000000  1
  Ir  Ir20  1  0.179752  0.806554  0.000000  1
  Ir  Ir21  1  0.627288  0.820717  0.000000  1
  Ir  Ir22  1  0.193877  0.375460  0.000000  1
  Ir  Ir23  1  0.448488  0.448488  0.000000  1
  Ir  Ir24  1  0.551879  0.999112  0.000000  1
  Ir  Ir25  1  0.999112  0.551879  0.000000  1
  Ir  Ir26  1  0.281871  0.281871  0.500000  1
  Ir  Ir27  1  0.720818  0.000142  0.500000  1
  Ir  Ir28  1  0.000142  0.720818  0.500000  1
  Ir  Ir29  1  0.872009  0.359198  0.500000  1
  Ir  Ir30  1  0.640799  0.512974  0.500000  1
  Ir  Ir31  1  0.487147  0.126626  0.500000  1
  Ir  Ir32  1  0.359198  0.872009  0.500000  1
  Ir  Ir33  1  0.512974  0.640799  0.500000  1
  Ir  Ir34  1  0.126626  0.487147  0.500000  1
  Ir  Ir35  1  0.996091  0.996091  0.000000  1
