# generated using pymatgen
data_Pr3Nd2ErTa2O14
_symmetry_space_group_name_H-M   'P 1'
_cell_length_a   6.68157131
_cell_length_b   6.64722245
_cell_length_c   7.70438900
_cell_angle_alpha   90.00000000
_cell_angle_beta   90.00000000
_cell_angle_gamma   108.71643137
_symmetry_Int_Tables_number   1
_chemical_formula_structural   Pr3Nd2ErTa2O14
_chemical_formula_sum   'Pr3 Nd2 Er1 Ta2 O14'
_cell_volume   324.08672906
_cell_formula_units_Z   1
loop_
 _symmetry_equiv_pos_site_id
 _symmetry_equiv_pos_as_xyz
  1  'x, y, z'
loop_
 _atom_site_type_symbol
 _atom_site_label
 _atom_site_symmetry_multiplicity
 _atom_site_fract_x
 _atom_site_fract_y
 _atom_site_fract_z
 _atom_site_occupancy
  Pr  Pr0  1  0.533604  0.526907  0.499024  1
  Pr  Pr1  1  0.533604  0.526907  0.000976  1
  Pr  Pr2  1  0.461379  0.003915  0.250000  1
  Nd  Nd3  1  0.007033  0.462857  0.750000  1
  Nd  Nd4  1  0.532734  0.003353  0.750000  1
  Er  Er5  1  0.003571  0.528415  0.250000  1
  Ta  Ta6  1  0.000765  0.001321  0.498071  1
  Ta  Ta7  1  0.000765  0.001321  0.001929  1
  O  O8  1  0.945208  0.057426  0.750000  1
  O  O9  1  0.057301  0.936491  0.250000  1
  O  O10  1  0.350710  0.632827  0.250000  1
  O  O11  1  0.644161  0.368421  0.750000  1
  O  O12  1  0.370926  0.632343  0.750000  1
  O  O13  1  0.648937  0.379098  0.250000  1
  O  O14  1  0.307688  0.070280  0.967939  1
  O  O15  1  0.678727  0.918593  0.474225  1
  O  O16  1  0.307688  0.070280  0.532061  1
  O  O17  1  0.678727  0.918593  0.025775  1
  O  O18  1  0.035339  0.300009  0.456767  1
  O  O19  1  0.932897  0.680316  0.977545  1
  O  O20  1  0.932897  0.680316  0.522455  1
  O  O21  1  0.035339  0.300009  0.043233  1
