# generated using pymatgen
data_ZnFe2Co4Ge
_symmetry_space_group_name_H-M   'P 1'
_cell_length_a   6.99759548
_cell_length_b   6.99759556
_cell_length_c   6.99759612
_cell_angle_alpha   33.58480566
_cell_angle_beta   33.58480082
_cell_angle_gamma   33.58480967
_symmetry_Int_Tables_number   1
_chemical_formula_structural   ZnFe2Co4Ge
_chemical_formula_sum   'Zn1 Fe2 Co4 Ge1'
_cell_volume   93.39580431
_cell_formula_units_Z   1
loop_
 _symmetry_equiv_pos_site_id
 _symmetry_equiv_pos_as_xyz
  1  'x, y, z'
loop_
 _atom_site_type_symbol
 _atom_site_label
 _atom_site_symmetry_multiplicity
 _atom_site_fract_x
 _atom_site_fract_y
 _atom_site_fract_z
 _atom_site_occupancy
  Zn  Zn0  1  0.000000  0.000000  0.000000  1
  Fe  Fe1  1  0.252749  0.252749  0.252749  1
  Fe  Fe2  1  0.747251  0.747251  0.747251  1
  Co  Co3  1  0.872901  0.872901  0.872901  1
  Co  Co4  1  0.376851  0.376851  0.376851  1
  Co  Co5  1  0.127099  0.127099  0.127099  1
  Co  Co6  1  0.623149  0.623149  0.623149  1
  Ge  Ge7  1  0.500000  0.500000  0.500000  1
