# generated using pymatgen
data_K7PaAs4
_symmetry_space_group_name_H-M   'P 1'
_cell_length_a   8.49318100
_cell_length_b   9.57817200
_cell_length_c   10.55897900
_cell_angle_alpha   90.00000000
_cell_angle_beta   90.00000000
_cell_angle_gamma   90.00000000
_symmetry_Int_Tables_number   1
_chemical_formula_structural   K7PaAs4
_chemical_formula_sum   'K14 Pa2 As8'
_cell_volume   858.96395010
_cell_formula_units_Z   2
loop_
 _symmetry_equiv_pos_site_id
 _symmetry_equiv_pos_as_xyz
  1  'x, y, z'
loop_
 _atom_site_type_symbol
 _atom_site_label
 _atom_site_symmetry_multiplicity
 _atom_site_fract_x
 _atom_site_fract_y
 _atom_site_fract_z
 _atom_site_occupancy
  K  K0  1  0.706305  0.834082  0.720594  1
  K  K1  1  0.206305  0.165918  0.779406  1
  K  K2  1  0.206305  0.165918  0.220594  1
  K  K3  1  0.706305  0.834082  0.279406  1
  K  K4  1  0.876057  0.454707  0.708439  1
  K  K5  1  0.376057  0.545293  0.791561  1
  K  K6  1  0.376057  0.545293  0.208439  1
  K  K7  1  0.876057  0.454707  0.291561  1
  K  K8  1  0.150362  0.664840  0.500000  1
  K  K9  1  0.650362  0.335160  0.000000  1
  K  K10  1  0.874303  0.041737  0.000000  1
  K  K11  1  0.374303  0.958263  0.500000  1
  K  K12  1  0.399579  0.913663  0.000000  1
  K  K13  1  0.899579  0.086337  0.500000  1
  Pa  Pa14  1  0.003527  0.673277  0.000000  1
  Pa  Pa15  1  0.503527  0.326723  0.500000  1
  As  As16  1  0.680747  0.675295  0.000000  1
  As  As17  1  0.180747  0.324705  0.500000  1
  As  As18  1  0.100060  0.819445  0.786505  1
  As  As19  1  0.600060  0.180555  0.713495  1
  As  As20  1  0.600060  0.180555  0.286505  1
  As  As21  1  0.100060  0.819445  0.213495  1
  As  As22  1  0.579251  0.605927  0.500000  1
  As  As23  1  0.079251  0.394073  0.000000  1
