# generated using pymatgen
data_Ho4Ga18Co2IrPd3
_symmetry_space_group_name_H-M   'P 1'
_cell_length_a   7.55234361
_cell_length_b   7.55234312
_cell_length_c   9.45083983
_cell_angle_alpha   89.97417899
_cell_angle_beta   89.97417171
_cell_angle_gamma   119.68058859
_symmetry_Int_Tables_number   1
_chemical_formula_structural   Ho4Ga18Co2IrPd3
_chemical_formula_sum   'Ho4 Ga18 Co2 Ir1 Pd3'
_cell_volume   468.33126918
_cell_formula_units_Z   1
loop_
 _symmetry_equiv_pos_site_id
 _symmetry_equiv_pos_as_xyz
  1  'x, y, z'
loop_
 _atom_site_type_symbol
 _atom_site_label
 _atom_site_symmetry_multiplicity
 _atom_site_fract_x
 _atom_site_fract_y
 _atom_site_fract_z
 _atom_site_occupancy
  Ho  Ho0  1  0.988865  0.667447  0.250405  1
  Ho  Ho1  1  0.994657  0.320864  0.749668  1
  Ho  Ho2  1  0.679136  0.005343  0.250332  1
  Ho  Ho3  1  0.332553  0.011135  0.749595  1
  Ga  Ga4  1  0.135327  0.132069  0.250243  1
  Ga  Ga5  1  0.867931  0.864673  0.749757  1
  Ga  Ga6  1  0.013146  0.346071  0.078158  1
  Ga  Ga7  1  0.016083  0.665449  0.921709  1
  Ga  Ga8  1  0.013247  0.663244  0.576735  1
  Ga  Ga9  1  0.336756  0.986753  0.423265  1
  Ga  Ga10  1  0.009783  0.346172  0.423209  1
  Ga  Ga11  1  0.653828  0.990217  0.576791  1
  Ga  Ga12  1  0.653929  0.986854  0.921842  1
  Ga  Ga13  1  0.334551  0.983917  0.078291  1
  Ga  Ga14  1  0.335385  0.343071  0.565243  1
  Ga  Ga15  1  0.656929  0.664615  0.434757  1
  Ga  Ga16  1  0.655835  0.665531  0.068483  1
  Ga  Ga17  1  0.334469  0.344165  0.931517  1
  Ga  Ga18  1  0.336532  0.563026  0.250818  1
  Ga  Ga19  1  0.666434  0.461704  0.748068  1
  Ga  Ga20  1  0.538296  0.333566  0.251932  1
  Ga  Ga21  1  0.436974  0.663468  0.749182  1
  Co  Co22  1  0.331860  0.668140  0.000000  1
  Co  Co23  1  0.330648  0.669352  0.500000  1
  Ir  Ir24  1  0.672884  0.327116  0.500000  1
  Pd  Pd25  1  0.672284  0.327716  0.000000  1
  Pd  Pd26  1  0.001406  0.998594  0.000000  1
  Pd  Pd27  1  0.000271  0.999729  0.500000  1
