# generated using pymatgen
data_LaPa2(AlIr)3
_symmetry_space_group_name_H-M   'P 1'
_cell_length_a   7.16623916
_cell_length_b   7.09255628
_cell_length_c   4.09557800
_cell_angle_alpha   90.00000000
_cell_angle_beta   90.00000000
_cell_angle_gamma   119.62200673
_symmetry_Int_Tables_number   1
_chemical_formula_structural   LaPa2(AlIr)3
_chemical_formula_sum   'La1 Pa2 Al3 Ir3'
_cell_volume   180.95956395
_cell_formula_units_Z   1
loop_
 _symmetry_equiv_pos_site_id
 _symmetry_equiv_pos_as_xyz
  1  'x, y, z'
loop_
 _atom_site_type_symbol
 _atom_site_label
 _atom_site_symmetry_multiplicity
 _atom_site_fract_x
 _atom_site_fract_y
 _atom_site_fract_z
 _atom_site_occupancy
  La  La0  1  0.000005  0.580820  0.500000  1
  Pa  Pa1  1  0.419761  0.417748  0.500000  1
  Pa  Pa2  1  0.580256  0.998030  0.500000  1
  Al  Al3  1  0.772808  0.772227  0.000000  1
  Al  Al4  1  0.227123  0.999451  0.000000  1
  Al  Al5  1  0.999988  0.238835  0.000000  1
  Ir  Ir6  1  0.631783  0.301586  0.000000  1
  Ir  Ir7  1  0.368245  0.669804  0.000000  1
  Ir  Ir8  1  0.000029  0.021498  0.500000  1
