# generated using pymatgen
data_Ho4Ti2Sn5
_symmetry_space_group_name_H-M   'P 1'
_cell_length_a   11.16411946
_cell_length_b   11.16411923
_cell_length_c   11.16411892
_cell_angle_alpha   148.59150401
_cell_angle_beta   131.27578309
_cell_angle_gamma   59.12561246
_symmetry_Int_Tables_number   1
_chemical_formula_structural   Ho4Ti2Sn5
_chemical_formula_sum   'Ho8 Ti4 Sn10'
_cell_volume   540.54226312
_cell_formula_units_Z   2
loop_
 _symmetry_equiv_pos_site_id
 _symmetry_equiv_pos_as_xyz
  1  'x, y, z'
loop_
 _atom_site_type_symbol
 _atom_site_label
 _atom_site_symmetry_multiplicity
 _atom_site_fract_x
 _atom_site_fract_y
 _atom_site_fract_z
 _atom_site_occupancy
  Ho  Ho0  1  0.669570  0.440699  0.228871  1
  Ho  Ho1  1  0.330430  0.559301  0.771129  1
  Ho  Ho2  1  0.211826  0.940699  0.271129  1
  Ho  Ho3  1  0.788174  0.059301  0.728871  1
  Ho  Ho4  1  0.254611  0.146008  0.108603  1
  Ho  Ho5  1  0.745389  0.853992  0.891397  1
  Ho  Ho6  1  0.037405  0.646008  0.391397  1
  Ho  Ho7  1  0.962595  0.353992  0.608603  1
  Ti  Ti8  1  0.303396  0.553396  0.250000  1
  Ti  Ti9  1  0.696604  0.446604  0.750000  1
  Ti  Ti10  1  0.696604  0.946604  0.250000  1
  Ti  Ti11  1  0.303396  0.053396  0.750000  1
  Sn  Sn12  1  0.584905  0.287551  0.297355  1
  Sn  Sn13  1  0.415095  0.712449  0.702645  1
  Sn  Sn14  1  0.990196  0.787551  0.202645  1
  Sn  Sn15  1  0.009804  0.212449  0.797355  1
  Sn  Sn16  1  0.000000  0.250000  0.250000  1
  Sn  Sn17  1  0.000000  0.750000  0.750000  1
  Sn  Sn18  1  0.485916  0.083070  0.402845  1
  Sn  Sn19  1  0.514084  0.916930  0.597155  1
  Sn  Sn20  1  0.680225  0.583070  0.097155  1
  Sn  Sn21  1  0.319775  0.416930  0.902845  1
