# generated using pymatgen
data_Cs(CoO2)2
_symmetry_space_group_name_H-M   'P 1'
_cell_length_a   4.95791000
_cell_length_b   5.75628200
_cell_length_c   13.91156500
_cell_angle_alpha   90.00000000
_cell_angle_beta   90.00000000
_cell_angle_gamma   89.99980801
_symmetry_Int_Tables_number   1
_chemical_formula_structural   Cs(CoO2)2
_chemical_formula_sum   'Cs4 Co8 O16'
_cell_volume   397.02393547
_cell_formula_units_Z   4
loop_
 _symmetry_equiv_pos_site_id
 _symmetry_equiv_pos_as_xyz
  1  'x, y, z'
loop_
 _atom_site_type_symbol
 _atom_site_label
 _atom_site_symmetry_multiplicity
 _atom_site_fract_x
 _atom_site_fract_y
 _atom_site_fract_z
 _atom_site_occupancy
  Cs  Cs0  1  0.377120  0.000001  0.000000  1
  Cs  Cs1  1  0.622880  0.499999  0.500000  1
  Cs  Cs2  1  0.066314  0.000001  0.500000  1
  Cs  Cs3  1  0.933686  0.499999  0.000000  1
  Co  Co4  1  0.000199  0.000000  0.249391  1
  Co  Co5  1  0.000199  0.000000  0.750609  1
  Co  Co6  1  0.999801  0.500000  0.250609  1
  Co  Co7  1  0.999801  0.500000  0.749391  1
  Co  Co8  1  0.500000  0.250000  0.250000  1
  Co  Co9  1  0.500000  0.750000  0.750000  1
  Co  Co10  1  0.500000  0.750000  0.250000  1
  Co  Co11  1  0.500000  0.250000  0.750000  1
  O  O12  1  0.828949  0.248983  0.319602  1
  O  O13  1  0.828949  0.751017  0.680399  1
  O  O14  1  0.171051  0.748983  0.180399  1
  O  O15  1  0.171051  0.251017  0.819602  1
  O  O16  1  0.171051  0.251017  0.180398  1
  O  O17  1  0.171051  0.748983  0.819601  1
  O  O18  1  0.828949  0.751017  0.319601  1
  O  O19  1  0.828949  0.248983  0.680398  1
  O  O20  1  0.666561  0.999999  0.180596  1
  O  O21  1  0.666561  0.999999  0.819404  1
  O  O22  1  0.333439  0.500001  0.319404  1
  O  O23  1  0.333439  0.500001  0.680596  1
  O  O24  1  0.339181  0.999999  0.318296  1
  O  O25  1  0.339181  0.999999  0.681704  1
  O  O26  1  0.660819  0.500001  0.181704  1
  O  O27  1  0.660819  0.500001  0.818296  1
