# generated using pymatgen
data_DyTmRu2F14
_symmetry_space_group_name_H-M   'P 1'
_cell_length_a   5.52126000
_cell_length_b   8.80963405
_cell_length_c   11.87845700
_cell_angle_alpha   63.65141978
_cell_angle_beta   90.00000000
_cell_angle_gamma   90.00000000
_symmetry_Int_Tables_number   1
_chemical_formula_structural   DyTmRu2F14
_chemical_formula_sum   'Dy2 Tm2 Ru4 F28'
_cell_volume   517.74704826
_cell_formula_units_Z   2
loop_
 _symmetry_equiv_pos_site_id
 _symmetry_equiv_pos_as_xyz
  1  'x, y, z'
loop_
 _atom_site_type_symbol
 _atom_site_label
 _atom_site_symmetry_multiplicity
 _atom_site_fract_x
 _atom_site_fract_y
 _atom_site_fract_z
 _atom_site_occupancy
  Dy  Dy0  1  0.241263  0.190482  0.230590  1
  Dy  Dy1  1  0.741263  0.809518  0.269410  1
  Tm  Tm2  1  0.758535  0.811985  0.768864  1
  Tm  Tm3  1  0.258535  0.188015  0.731136  1
  Ru  Ru4  1  0.755766  0.273414  0.953225  1
  Ru  Ru5  1  0.255766  0.726586  0.546775  1
  Ru  Ru6  1  0.245298  0.729145  0.042266  1
  Ru  Ru7  1  0.745298  0.270855  0.457734  1
  F  F8  1  0.450561  0.704779  0.916349  1
  F  F9  1  0.950561  0.295221  0.583651  1
  F  F10  1  0.552723  0.296200  0.080453  1
  F  F11  1  0.052723  0.703800  0.419547  1
  F  F12  1  0.448173  0.278193  0.548796  1
  F  F13  1  0.948173  0.721807  0.951204  1
  F  F14  1  0.550927  0.718987  0.455780  1
  F  F15  1  0.050927  0.281013  0.044220  1
  F  F16  1  0.769867  0.514607  0.858323  1
  F  F17  1  0.269867  0.485393  0.641677  1
  F  F18  1  0.229003  0.488023  0.138515  1
  F  F19  1  0.729003  0.511977  0.361485  1
  F  F20  1  0.753655  0.033647  0.046503  1
  F  F21  1  0.253655  0.966353  0.453497  1
  F  F22  1  0.246839  0.969100  0.950370  1
  F  F23  1  0.746839  0.030900  0.549630  1
  F  F24  1  0.967638  0.729912  0.643640  1
  F  F25  1  0.467638  0.270088  0.856360  1
  F  F26  1  0.032852  0.271547  0.360547  1
  F  F27  1  0.532852  0.728453  0.139453  1
  F  F28  1  0.045566  0.750680  0.172112  1
  F  F29  1  0.545566  0.249320  0.327888  1
  F  F30  1  0.958317  0.249477  0.824984  1
  F  F31  1  0.458317  0.750523  0.675016  1
  F  F32  1  0.420085  0.971099  0.232361  1
  F  F33  1  0.920085  0.028901  0.267639  1
  F  F34  1  0.572933  0.025628  0.766440  1
  F  F35  1  0.072933  0.974372  0.733560  1
