# generated using pymatgen
data_Lu4Sc2Si2Tc
_symmetry_space_group_name_H-M   'P 1'
_cell_length_a   7.44278700
_cell_length_b   7.39511348
_cell_length_c   4.24423900
_cell_angle_alpha   90.00000000
_cell_angle_beta   90.00000000
_cell_angle_gamma   120.21347824
_symmetry_Int_Tables_number   1
_chemical_formula_structural   Lu4Sc2Si2Tc
_chemical_formula_sum   'Lu4 Sc2 Si2 Tc1'
_cell_volume   201.87039829
_cell_formula_units_Z   1
loop_
 _symmetry_equiv_pos_site_id
 _symmetry_equiv_pos_as_xyz
  1  'x, y, z'
loop_
 _atom_site_type_symbol
 _atom_site_label
 _atom_site_symmetry_multiplicity
 _atom_site_fract_x
 _atom_site_fract_y
 _atom_site_fract_z
 _atom_site_occupancy
  Lu  Lu0  1  0.594751  0.000000  0.500000  1
  Lu  Lu1  1  0.411630  0.415699  0.500000  1
  Lu  Lu2  1  0.995932  0.584301  0.500000  1
  Lu  Lu3  1  0.249096  0.000000  0.000000  1
  Sc  Sc4  1  0.997307  0.248016  0.000000  1
  Sc  Sc5  1  0.749291  0.751984  0.000000  1
  Si  Si6  1  0.673588  0.338284  0.000000  1
  Si  Si7  1  0.335303  0.661716  0.000000  1
  Tc  Tc8  1  0.993102  0.000000  0.500000  1
