# generated using pymatgen
data_Ca5Nd3Tl4
_symmetry_space_group_name_H-M   'P 1'
_cell_length_a   7.26760155
_cell_length_b   5.36493200
_cell_length_c   9.86422135
_cell_angle_alpha   90.00000000
_cell_angle_beta   90.64536698
_cell_angle_gamma   90.00000000
_symmetry_Int_Tables_number   1
_chemical_formula_structural   Ca5Nd3Tl4
_chemical_formula_sum   'Ca5 Nd3 Tl4'
_cell_volume   384.58344822
_cell_formula_units_Z   1
loop_
 _symmetry_equiv_pos_site_id
 _symmetry_equiv_pos_as_xyz
  1  'x, y, z'
loop_
 _atom_site_type_symbol
 _atom_site_label
 _atom_site_symmetry_multiplicity
 _atom_site_fract_x
 _atom_site_fract_y
 _atom_site_fract_z
 _atom_site_occupancy
  Ca  Ca0  1  0.813944  0.749999  0.930658  1
  Ca  Ca1  1  0.683914  0.250000  0.423358  1
  Ca  Ca2  1  0.526274  0.250000  0.795323  1
  Ca  Ca3  1  0.473667  0.749999  0.203398  1
  Ca  Ca4  1  0.972918  0.749999  0.296915  1
  Nd  Nd5  1  0.335476  0.749999  0.572646  1
  Nd  Nd6  1  0.171854  0.250000  0.073243  1
  Nd  Nd7  1  0.021455  0.250000  0.702517  1
  Tl  Tl8  1  0.784366  0.749999  0.604254  1
  Tl  Tl9  1  0.727110  0.250000  0.100993  1
  Tl  Tl10  1  0.269996  0.749999  0.895381  1
  Tl  Tl11  1  0.219027  0.250000  0.401313  1
