# generated using pymatgen
data_Yb4Tm3B24Ru4W
_symmetry_space_group_name_H-M   'P 1'
_cell_length_a   3.57325600
_cell_length_b   9.03247944
_cell_length_c   11.40702126
_cell_angle_alpha   90.06229759
_cell_angle_beta   90.00000000
_cell_angle_gamma   90.00000000
_symmetry_Int_Tables_number   1
_chemical_formula_structural   Yb4Tm3B24Ru4W
_chemical_formula_sum   'Yb4 Tm3 B24 Ru4 W1'
_cell_volume   368.16551554
_cell_formula_units_Z   1
loop_
 _symmetry_equiv_pos_site_id
 _symmetry_equiv_pos_as_xyz
  1  'x, y, z'
loop_
 _atom_site_type_symbol
 _atom_site_label
 _atom_site_symmetry_multiplicity
 _atom_site_fract_x
 _atom_site_fract_y
 _atom_site_fract_z
 _atom_site_occupancy
  Yb  Yb0  1  0.000000  0.322358  0.415281  1
  Yb  Yb1  1  0.000000  0.677581  0.585359  1
  Yb  Yb2  1  0.000000  0.824499  0.085602  1
  Yb  Yb3  1  0.000000  0.175529  0.913071  1
  Tm  Tm4  1  0.000000  0.055447  0.625602  1
  Tm  Tm5  1  0.000000  0.442022  0.132726  1
  Tm  Tm6  1  0.000000  0.556658  0.869276  1
  B  B7  1  0.500000  0.556844  0.434490  1
  B  B8  1  0.500000  0.447379  0.566108  1
  B  B9  1  0.500000  0.052323  0.067632  1
  B  B10  1  0.500000  0.946039  0.932401  1
  B  B11  1  0.500000  0.755965  0.417411  1
  B  B12  1  0.500000  0.251224  0.581115  1
  B  B13  1  0.500000  0.246776  0.084992  1
  B  B14  1  0.500000  0.751172  0.917161  1
  B  B15  1  0.500000  0.796024  0.263723  1
  B  B16  1  0.500000  0.207774  0.734625  1
  B  B17  1  0.500000  0.291010  0.238620  1
  B  B18  1  0.500000  0.707809  0.763619  1
  B  B19  1  0.500000  0.633745  0.184419  1
  B  B20  1  0.500000  0.367815  0.814472  1
  B  B21  1  0.500000  0.125384  0.318178  1
  B  B22  1  0.500000  0.869056  0.684386  1
  B  B23  1  0.500000  0.979220  0.213293  1
  B  B24  1  0.500000  0.017599  0.787151  1
  B  B25  1  0.500000  0.486187  0.289929  1
  B  B26  1  0.500000  0.516283  0.711226  1
  B  B27  1  0.500000  0.599502  0.027998  1
  B  B28  1  0.500000  0.399578  0.974436  1
  B  B29  1  0.500000  0.094940  0.467303  1
  B  B30  1  0.500000  0.899734  0.519958  1
  Ru  Ru31  1  0.000000  0.647950  0.322345  1
  Ru  Ru32  1  0.000000  0.359521  0.677676  1
  Ru  Ru33  1  0.000000  0.133526  0.187424  1
  Ru  Ru34  1  0.000000  0.861269  0.817360  1
  W  W35  1  0.000000  0.944252  0.373635  1
