# generated using pymatgen
data_Lu9Hg8Pt4Pb
_symmetry_space_group_name_H-M   'P 1'
_cell_length_a   3.56885200
_cell_length_b   7.90777535
_cell_length_c   18.05919840
_cell_angle_alpha   88.36759171
_cell_angle_beta   90.00000000
_cell_angle_gamma   90.00000000
_symmetry_Int_Tables_number   1
_chemical_formula_structural   Lu9Hg8Pt4Pb
_chemical_formula_sum   'Lu9 Hg8 Pt4 Pb1'
_cell_volume   509.45407597
_cell_formula_units_Z   1
loop_
 _symmetry_equiv_pos_site_id
 _symmetry_equiv_pos_as_xyz
  1  'x, y, z'
loop_
 _atom_site_type_symbol
 _atom_site_label
 _atom_site_symmetry_multiplicity
 _atom_site_fract_x
 _atom_site_fract_y
 _atom_site_fract_z
 _atom_site_occupancy
  Lu  Lu0  1  0.000000  0.113116  0.415046  1
  Lu  Lu1  1  0.000000  0.886884  0.584954  1
  Lu  Lu2  1  0.000000  0.370459  0.915100  1
  Lu  Lu3  1  0.000000  0.629541  0.084900  1
  Lu  Lu4  1  0.000000  0.258304  0.221696  1
  Lu  Lu5  1  0.000000  0.741696  0.778304  1
  Lu  Lu6  1  0.000000  0.260056  0.710133  1
  Lu  Lu7  1  0.000000  0.739944  0.289867  1
  Lu  Lu8  1  0.000000  0.500000  0.500000  1
  Hg  Hg9  1  0.500000  0.423686  0.357701  1
  Hg  Hg10  1  0.500000  0.576314  0.642299  1
  Hg  Hg11  1  0.500000  0.075919  0.844906  1
  Hg  Hg12  1  0.500000  0.924081  0.155094  1
  Hg  Hg13  1  0.500000  0.314745  0.064725  1
  Hg  Hg14  1  0.500000  0.685255  0.935275  1
  Hg  Hg15  1  0.500000  0.209146  0.559826  1
  Hg  Hg16  1  0.500000  0.790854  0.440174  1
  Pt  Pt17  1  0.500000  0.031521  0.305362  1
  Pt  Pt18  1  0.500000  0.968479  0.694638  1
  Pt  Pt19  1  0.500000  0.453993  0.801201  1
  Pt  Pt20  1  0.500000  0.546007  0.198799  1
  Pb  Pb21  1  0.000000  0.000000  0.000000  1
