# generated using pymatgen
data_In7IrBr12
_symmetry_space_group_name_H-M   'P 1'
_cell_length_a   9.18827599
_cell_length_b   9.18827656
_cell_length_c   9.18827601
_cell_angle_alpha   105.25776171
_cell_angle_beta   105.25776441
_cell_angle_gamma   105.25776949
_symmetry_Int_Tables_number   1
_chemical_formula_structural   In7IrBr12
_chemical_formula_sum   'In7 Ir1 Br12'
_cell_volume   674.37565498
_cell_formula_units_Z   1
loop_
 _symmetry_equiv_pos_site_id
 _symmetry_equiv_pos_as_xyz
  1  'x, y, z'
loop_
 _atom_site_type_symbol
 _atom_site_label
 _atom_site_symmetry_multiplicity
 _atom_site_fract_x
 _atom_site_fract_y
 _atom_site_fract_z
 _atom_site_occupancy
  In  In0  1  0.047474  0.064530  0.310452  1
  In  In1  1  0.310452  0.047474  0.064530  1
  In  In2  1  0.064530  0.310452  0.047474  1
  In  In3  1  0.952526  0.935470  0.689548  1
  In  In4  1  0.689548  0.952526  0.935470  1
  In  In5  1  0.935470  0.689548  0.952526  1
  In  In6  1  0.500000  0.500000  0.500000  1
  Ir  Ir7  1  0.000000  0.000000  0.000000  1
  Br  Br8  1  0.982826  0.560245  0.194380  1
  Br  Br9  1  0.194380  0.982826  0.560245  1
  Br  Br10  1  0.560245  0.194380  0.982826  1
  Br  Br11  1  0.017174  0.439755  0.805620  1
  Br  Br12  1  0.805620  0.017174  0.439755  1
  Br  Br13  1  0.439755  0.805620  0.017174  1
  Br  Br14  1  0.496969  0.193031  0.392639  1
  Br  Br15  1  0.392639  0.496969  0.193031  1
  Br  Br16  1  0.193031  0.392639  0.496969  1
  Br  Br17  1  0.503031  0.806969  0.607361  1
  Br  Br18  1  0.607361  0.503031  0.806969  1
  Br  Br19  1  0.806969  0.607361  0.503031  1
