# generated using pymatgen
data_Li9Al3Au4
_symmetry_space_group_name_H-M   'P 1'
_cell_length_a   6.24265400
_cell_length_b   6.24265400
_cell_length_c   6.24265400
_cell_angle_alpha   90.00000000
_cell_angle_beta   90.00000000
_cell_angle_gamma   90.00000000
_symmetry_Int_Tables_number   1
_chemical_formula_structural   Li9Al3Au4
_chemical_formula_sum   'Li9 Al3 Au4'
_cell_volume   243.28077705
_cell_formula_units_Z   1
loop_
 _symmetry_equiv_pos_site_id
 _symmetry_equiv_pos_as_xyz
  1  'x, y, z'
loop_
 _atom_site_type_symbol
 _atom_site_label
 _atom_site_symmetry_multiplicity
 _atom_site_fract_x
 _atom_site_fract_y
 _atom_site_fract_z
 _atom_site_occupancy
  Li  Li0  1  0.255665  0.744335  0.255665  1
  Li  Li1  1  0.744335  0.255665  0.255665  1
  Li  Li2  1  0.255665  0.255665  0.744335  1
  Li  Li3  1  0.000000  0.000000  0.000000  1
  Li  Li4  1  0.000000  0.500000  0.500000  1
  Li  Li5  1  0.744335  0.744335  0.744335  1
  Li  Li6  1  0.500000  0.000000  0.500000  1
  Li  Li7  1  0.500000  0.500000  0.000000  1
  Li  Li8  1  0.500000  0.500000  0.500000  1
  Al  Al9  1  0.000000  0.000000  0.500000  1
  Al  Al10  1  0.000000  0.500000  0.000000  1
  Al  Al11  1  0.500000  0.000000  0.000000  1
  Au  Au12  1  0.242416  0.242416  0.242416  1
  Au  Au13  1  0.757584  0.242416  0.757584  1
  Au  Au14  1  0.757584  0.757584  0.242416  1
  Au  Au15  1  0.242416  0.757584  0.757584  1
