# generated using pymatgen
data_Sc24CdTc7
_symmetry_space_group_name_H-M   'P 1'
_cell_length_a   5.77045386
_cell_length_b   8.55768600
_cell_length_c   14.23143300
_cell_angle_alpha   90.00000000
_cell_angle_beta   89.10128449
_cell_angle_gamma   90.00000000
_symmetry_Int_Tables_number   1
_chemical_formula_structural   Sc24CdTc7
_chemical_formula_sum   'Sc24 Cd1 Tc7'
_cell_volume   702.68636086
_cell_formula_units_Z   1
loop_
 _symmetry_equiv_pos_site_id
 _symmetry_equiv_pos_as_xyz
  1  'x, y, z'
loop_
 _atom_site_type_symbol
 _atom_site_label
 _atom_site_symmetry_multiplicity
 _atom_site_fract_x
 _atom_site_fract_y
 _atom_site_fract_z
 _atom_site_occupancy
  Sc  Sc0  1  0.521610  0.750000  0.350072  1
  Sc  Sc1  1  0.022346  0.250000  0.148806  1
  Sc  Sc2  1  0.471376  0.250000  0.648606  1
  Sc  Sc3  1  0.972076  0.750000  0.865197  1
  Sc  Sc4  1  0.795096  0.750000  0.116417  1
  Sc  Sc5  1  0.289057  0.250000  0.380930  1
  Sc  Sc6  1  0.207342  0.250000  0.887448  1
  Sc  Sc7  1  0.702752  0.750000  0.604794  1
  Sc  Sc8  1  0.470541  0.941970  0.806841  1
  Sc  Sc9  1  0.943299  0.071614  0.704889  1
  Sc  Sc10  1  0.553337  0.436699  0.208471  1
  Sc  Sc11  1  0.051924  0.563052  0.287621  1
  Sc  Sc12  1  0.553337  0.063301  0.208471  1
  Sc  Sc13  1  0.051924  0.936948  0.287621  1
  Sc  Sc14  1  0.470541  0.558030  0.806841  1
  Sc  Sc15  1  0.943299  0.428386  0.704889  1
  Sc  Sc16  1  0.235941  0.947531  0.516140  1
  Sc  Sc17  1  0.749514  0.063620  0.973986  1
  Sc  Sc18  1  0.744757  0.436420  0.463440  1
  Sc  Sc19  1  0.250187  0.558063  0.037964  1
  Sc  Sc20  1  0.744757  0.063580  0.463440  1
  Sc  Sc21  1  0.250187  0.941937  0.037964  1
  Sc  Sc22  1  0.235941  0.552469  0.516140  1
  Sc  Sc23  1  0.749514  0.436380  0.973986  1
  Cd  Cd24  1  0.184470  0.750000  0.679465  1
  Tc  Tc25  1  0.921430  0.750000  0.442299  1
  Tc  Tc26  1  0.418564  0.250000  0.055489  1
  Tc  Tc27  1  0.076648  0.250000  0.552082  1
  Tc  Tc28  1  0.576217  0.750000  0.951185  1
  Tc  Tc29  1  0.343852  0.750000  0.181236  1
  Tc  Tc30  1  0.839022  0.250000  0.317946  1
  Tc  Tc31  1  0.659140  0.250000  0.819326  1
