# generated using pymatgen
data_Y7Sc(Si4W3)4
_symmetry_space_group_name_H-M   'P 1'
_cell_length_a   6.75927799
_cell_length_b   6.92749687
_cell_length_c   12.89121306
_cell_angle_alpha   90.08731096
_cell_angle_beta   89.97560416
_cell_angle_gamma   90.05743338
_symmetry_Int_Tables_number   1
_chemical_formula_structural   Y7Sc(Si4W3)4
_chemical_formula_sum   'Y7 Sc1 Si16 W12'
_cell_volume   603.62840968
_cell_formula_units_Z   1
loop_
 _symmetry_equiv_pos_site_id
 _symmetry_equiv_pos_as_xyz
  1  'x, y, z'
loop_
 _atom_site_type_symbol
 _atom_site_label
 _atom_site_symmetry_multiplicity
 _atom_site_fract_x
 _atom_site_fract_y
 _atom_site_fract_z
 _atom_site_occupancy
  Y  Y0  1  0.495458  0.668000  0.593249  1
  Y  Y1  1  0.995836  0.832592  0.906877  1
  Y  Y2  1  0.504464  0.332654  0.093468  1
  Y  Y3  1  0.003915  0.166798  0.408613  1
  Y  Y4  1  0.503661  0.331883  0.407915  1
  Y  Y5  1  0.004212  0.167605  0.093436  1
  Y  Y6  1  0.495443  0.668088  0.904937  1
  Sc  Sc7  1  0.992729  0.830600  0.595144  1
  Si  Si8  1  0.662997  0.956998  0.454788  1
  Si  Si9  1  0.161653  0.542335  0.046856  1
  Si  Si10  1  0.339449  0.043117  0.952101  1
  Si  Si11  1  0.840635  0.462152  0.547732  1
  Si  Si12  1  0.331777  0.038535  0.547731  1
  Si  Si13  1  0.838339  0.457073  0.952431  1
  Si  Si14  1  0.661162  0.957135  0.046974  1
  Si  Si15  1  0.160744  0.545759  0.455036  1
  Si  Si16  1  0.463846  0.369753  0.749582  1
  Si  Si17  1  0.964777  0.125930  0.747533  1
  Si  Si18  1  0.537114  0.629916  0.250535  1
  Si  Si19  1  0.036713  0.870659  0.250311  1
  Si  Si20  1  0.700935  0.865932  0.747927  1
  Si  Si21  1  0.193207  0.636539  0.747299  1
  Si  Si22  1  0.303048  0.133517  0.250574  1
  Si  Si23  1  0.803774  0.367347  0.251074  1
  W  W24  1  0.668631  0.161962  0.625046  1
  W  W25  1  0.166785  0.336080  0.872930  1
  W  W26  1  0.332390  0.837124  0.125375  1
  W  W27  1  0.833352  0.665020  0.375988  1
  W  W28  1  0.332298  0.836651  0.374621  1
  W  W29  1  0.832698  0.663747  0.125930  1
  W  W30  1  0.669357  0.162113  0.873601  1
  W  W31  1  0.168380  0.336722  0.625282  1
  W  W32  1  0.833804  0.499820  0.748981  1
  W  W33  1  0.333137  0.999333  0.748467  1
  W  W34  1  0.166810  0.501518  0.250595  1
  W  W35  1  0.666470  0.998991  0.251060  1
