# generated using pymatgen
data_GdPdF7
_symmetry_space_group_name_H-M   'P 1'
_cell_length_a   5.93106013
_cell_length_b   6.18464239
_cell_length_c   9.30237500
_cell_angle_alpha   116.16350872
_cell_angle_beta   90.01184352
_cell_angle_gamma   89.98509669
_symmetry_Int_Tables_number   1
_chemical_formula_structural   GdPdF7
_chemical_formula_sum   'Gd2 Pd2 F14'
_cell_volume   306.26280671
_cell_formula_units_Z   2
loop_
 _symmetry_equiv_pos_site_id
 _symmetry_equiv_pos_as_xyz
  1  'x, y, z'
loop_
 _atom_site_type_symbol
 _atom_site_label
 _atom_site_symmetry_multiplicity
 _atom_site_fract_x
 _atom_site_fract_y
 _atom_site_fract_z
 _atom_site_occupancy
  Gd  Gd0  1  0.315975  0.036334  0.190251  1
  Gd  Gd1  1  0.815645  0.964476  0.809907  1
  Pd  Pd2  1  0.811044  0.595308  0.274339  1
  Pd  Pd3  1  0.311114  0.404678  0.725566  1
  F  F4  1  0.573525  0.991098  0.002916  1
  F  F5  1  0.805033  0.412571  0.041678  1
  F  F6  1  0.027730  0.824749  0.252161  1
  F  F7  1  0.064058  0.401971  0.290397  1
  F  F8  1  0.559680  0.796910  0.259190  1
  F  F9  1  0.590012  0.375548  0.297252  1
  F  F10  1  0.314736  0.215056  0.487838  1
  F  F11  1  0.814146  0.784996  0.511855  1
  F  F12  1  0.090472  0.624637  0.702572  1
  F  F13  1  0.059273  0.203137  0.740216  1
  F  F14  1  0.564782  0.598345  0.710101  1
  F  F15  1  0.527255  0.174927  0.747614  1
  F  F16  1  0.304858  0.586583  0.958484  1
  F  F17  1  0.074453  0.008676  0.997663  1
