# generated using pymatgen
data_Hf16Pt8CN
_symmetry_space_group_name_H-M   'P 1'
_cell_length_a   8.82169999
_cell_length_b   8.83534916
_cell_length_c   8.82169851
_cell_angle_alpha   120.24509651
_cell_angle_beta   119.69282592
_cell_angle_gamma   90.00975983
_symmetry_Int_Tables_number   1
_chemical_formula_structural   Hf16Pt8CN
_chemical_formula_sum   'Hf16 Pt8 C1 N1'
_cell_volume   486.60128632
_cell_formula_units_Z   1
loop_
 _symmetry_equiv_pos_site_id
 _symmetry_equiv_pos_as_xyz
  1  'x, y, z'
loop_
 _atom_site_type_symbol
 _atom_site_label
 _atom_site_symmetry_multiplicity
 _atom_site_fract_x
 _atom_site_fract_y
 _atom_site_fract_z
 _atom_site_occupancy
  Hf  Hf0  1  0.941952  0.192455  0.750503  1
  Hf  Hf1  1  0.311535  0.561476  0.749941  1
  Hf  Hf2  1  0.940127  0.560625  0.757182  1
  Hf  Hf3  1  0.302934  0.182458  0.742192  1
  Hf  Hf4  1  0.940266  0.182458  0.379525  1
  Hf  Hf5  1  0.303443  0.560625  0.120498  1
  Hf  Hf6  1  0.058048  0.807545  0.249497  1
  Hf  Hf7  1  0.688465  0.438524  0.250059  1
  Hf  Hf8  1  0.059873  0.439375  0.242818  1
  Hf  Hf9  1  0.697066  0.817542  0.257808  1
  Hf  Hf10  1  0.059734  0.817542  0.620475  1
  Hf  Hf11  1  0.696557  0.439375  0.879502  1
  Hf  Hf12  1  0.500000  0.000000  0.000000  1
  Hf  Hf13  1  0.500000  0.500000  0.500000  1
  Hf  Hf14  1  0.500000  0.000000  0.500000  1
  Hf  Hf15  1  0.000000  0.000000  0.000000  1
  Pt  Pt16  1  0.720906  0.776076  0.555170  1
  Pt  Pt17  1  0.720537  0.165688  0.945152  1
  Pt  Pt18  1  0.718679  0.778971  0.940891  1
  Pt  Pt19  1  0.338081  0.778971  0.560292  1
  Pt  Pt20  1  0.279094  0.223924  0.444830  1
  Pt  Pt21  1  0.279463  0.834312  0.054848  1
  Pt  Pt22  1  0.281321  0.221029  0.059109  1
  Pt  Pt23  1  0.661919  0.221029  0.439708  1
  C  C24  1  0.000000  0.500000  0.000000  1
  N  N25  1  0.000000  0.000000  0.500000  1
