# generated using pymatgen
data_Cs2NaHg3F12
_symmetry_space_group_name_H-M   'P 1'
_cell_length_a   7.78291315
_cell_length_b   8.41203884
_cell_length_c   11.15253046
_cell_angle_alpha   88.76685054
_cell_angle_beta   85.11738378
_cell_angle_gamma   89.65088936
_symmetry_Int_Tables_number   1
_chemical_formula_structural   Cs2NaHg3F12
_chemical_formula_sum   'Cs4 Na2 Hg6 F24'
_cell_volume   727.33327132
_cell_formula_units_Z   2
loop_
 _symmetry_equiv_pos_site_id
 _symmetry_equiv_pos_as_xyz
  1  'x, y, z'
loop_
 _atom_site_type_symbol
 _atom_site_label
 _atom_site_symmetry_multiplicity
 _atom_site_fract_x
 _atom_site_fract_y
 _atom_site_fract_z
 _atom_site_occupancy
  Cs  Cs0  1  0.509210  0.745248  0.605545  1
  Cs  Cs1  1  0.490790  0.254752  0.394455  1
  Cs  Cs2  1  0.018703  0.262408  0.134638  1
  Cs  Cs3  1  0.981297  0.737592  0.865362  1
  Na  Na4  1  0.707691  0.229420  0.747863  1
  Na  Na5  1  0.292309  0.770580  0.252137  1
  Hg  Hg6  1  0.803417  0.741839  0.221566  1
  Hg  Hg7  1  0.196583  0.258161  0.778434  1
  Hg  Hg8  1  0.000000  0.500000  0.500000  1
  Hg  Hg9  1  0.000000  0.000000  0.500000  1
  Hg  Hg10  1  0.500000  0.000000  0.000000  1
  Hg  Hg11  1  0.500000  0.500000  0.000000  1
  F  F12  1  0.053854  0.709015  0.142483  1
  F  F13  1  0.946146  0.290985  0.857517  1
  F  F14  1  0.565737  0.780775  0.318124  1
  F  F15  1  0.434263  0.219225  0.681876  1
  F  F16  1  0.768056  0.404508  0.579626  1
  F  F17  1  0.231944  0.595492  0.420374  1
  F  F18  1  0.740090  0.050042  0.552830  1
  F  F19  1  0.259910  0.949958  0.447170  1
  F  F20  1  0.633342  0.942097  0.834462  1
  F  F21  1  0.366658  0.057903  0.165538  1
  F  F22  1  0.604884  0.530626  0.821666  1
  F  F23  1  0.395116  0.469374  0.178334  1
  F  F24  1  0.602676  0.227937  0.960498  1
  F  F25  1  0.397324  0.772063  0.039502  1
  F  F26  1  0.253994  0.449193  0.941582  1
  F  F27  1  0.746006  0.550807  0.058418  1
  F  F28  1  0.227319  0.062513  0.900246  1
  F  F29  1  0.772681  0.937487  0.099754  1
  F  F30  1  0.051538  0.033395  0.680035  1
  F  F31  1  0.948462  0.966605  0.319965  1
  F  F32  1  0.915988  0.722570  0.571516  1
  F  F33  1  0.084012  0.277430  0.428484  1
  F  F34  1  0.170567  0.474309  0.678612  1
  F  F35  1  0.829433  0.525691  0.321388  1
