# generated using pymatgen
data_Mg2CuB2PtRh4
_symmetry_space_group_name_H-M   'P 1'
_cell_length_a   9.40941901
_cell_length_b   2.94347300
_cell_length_c   9.40700101
_cell_angle_alpha   90.00000000
_cell_angle_beta   90.00466492
_cell_angle_gamma   90.00000000
_symmetry_Int_Tables_number   1
_chemical_formula_structural   Mg2CuB2PtRh4
_chemical_formula_sum   'Mg4 Cu2 B4 Pt2 Rh8'
_cell_volume   260.53978712
_cell_formula_units_Z   2
loop_
 _symmetry_equiv_pos_site_id
 _symmetry_equiv_pos_as_xyz
  1  'x, y, z'
loop_
 _atom_site_type_symbol
 _atom_site_label
 _atom_site_symmetry_multiplicity
 _atom_site_fract_x
 _atom_site_fract_y
 _atom_site_fract_z
 _atom_site_occupancy
  Mg  Mg0  1  0.327225  0.000000  0.175994  1
  Mg  Mg1  1  0.819881  0.000000  0.329215  1
  Mg  Mg2  1  0.176665  0.000000  0.676867  1
  Mg  Mg3  1  0.674498  0.000000  0.819110  1
  Cu  Cu4  1  0.001896  0.000000  0.996609  1
  Cu  Cu5  1  0.500454  0.000000  0.500747  1
  B  B6  1  0.619452  0.000000  0.129764  1
  B  B7  1  0.129567  0.000000  0.380856  1
  B  B8  1  0.870167  0.000000  0.627739  1
  B  B9  1  0.372397  0.000000  0.870463  1
  Pt  Pt10  1  0.785821  0.500001  0.069698  1
  Pt  Pt11  1  0.071075  0.500001  0.214067  1
  Rh  Rh12  1  0.502080  0.500001  0.998725  1
  Rh  Rh13  1  0.571551  0.500001  0.284673  1
  Rh  Rh14  1  0.284969  0.500001  0.427329  1
  Rh  Rh15  1  0.000195  0.500001  0.499599  1
  Rh  Rh16  1  0.716188  0.500001  0.570143  1
  Rh  Rh17  1  0.428632  0.500001  0.715992  1
  Rh  Rh18  1  0.929527  0.500001  0.782594  1
  Rh  Rh19  1  0.217762  0.500001  0.929815  1
