# generated using pymatgen
data_TbNd2Tm5S12
_symmetry_space_group_name_H-M   'P 1'
_cell_length_a   3.98479800
_cell_length_b   11.07977126
_cell_length_c   11.33529800
_cell_angle_alpha   71.33880975
_cell_angle_beta   90.00000000
_cell_angle_gamma   90.00000000
_symmetry_Int_Tables_number   1
_chemical_formula_structural   TbNd2Tm5S12
_chemical_formula_sum   'Tb1 Nd2 Tm5 S12'
_cell_volume   474.15016956
_cell_formula_units_Z   1
loop_
 _symmetry_equiv_pos_site_id
 _symmetry_equiv_pos_as_xyz
  1  'x, y, z'
loop_
 _atom_site_type_symbol
 _atom_site_label
 _atom_site_symmetry_multiplicity
 _atom_site_fract_x
 _atom_site_fract_y
 _atom_site_fract_z
 _atom_site_occupancy
  Tb  Tb0  1  0.750000  0.179962  0.997587  1
  Nd  Nd1  1  0.750000  0.548640  0.805532  1
  Nd  Nd2  1  0.250000  0.452520  0.194065  1
  Tm  Tm3  1  0.250000  0.819488  0.001946  1
  Tm  Tm4  1  0.750000  0.938810  0.666905  1
  Tm  Tm5  1  0.250000  0.061029  0.333119  1
  Tm  Tm6  1  0.750000  0.660867  0.413476  1
  Tm  Tm7  1  0.250000  0.339588  0.585522  1
  S  S8  1  0.750000  0.974830  0.888354  1
  S  S9  1  0.250000  0.020430  0.114350  1
  S  S10  1  0.750000  0.305703  0.745813  1
  S  S11  1  0.250000  0.695476  0.251936  1
  S  S12  1  0.750000  0.896643  0.439047  1
  S  S13  1  0.250000  0.103162  0.561387  1
  S  S14  1  0.750000  0.419048  0.406598  1
  S  S15  1  0.250000  0.581403  0.593002  1
  S  S16  1  0.750000  0.235783  0.228930  1
  S  S17  1  0.250000  0.764251  0.772933  1
  S  S18  1  0.750000  0.618717  0.036511  1
  S  S19  1  0.250000  0.383649  0.962990  1
