# generated using pymatgen
data_Ba4GdNbO8
_symmetry_space_group_name_H-M   'P 1'
_cell_length_a   7.47158900
_cell_length_b   7.47158790
_cell_length_c   6.08735500
_cell_angle_alpha   90.00000000
_cell_angle_beta   90.00000000
_cell_angle_gamma   132.19084542
_symmetry_Int_Tables_number   1
_chemical_formula_structural   Ba4GdNbO8
_chemical_formula_sum   'Ba4 Gd1 Nb1 O8'
_cell_volume   251.77992016
_cell_formula_units_Z   1
loop_
 _symmetry_equiv_pos_site_id
 _symmetry_equiv_pos_as_xyz
  1  'x, y, z'
loop_
 _atom_site_type_symbol
 _atom_site_label
 _atom_site_symmetry_multiplicity
 _atom_site_fract_x
 _atom_site_fract_y
 _atom_site_fract_z
 _atom_site_occupancy
  Ba  Ba0  1  0.353638  0.646362  0.000000  1
  Ba  Ba1  1  0.853034  0.146966  0.500000  1
  Ba  Ba2  1  0.146966  0.853034  0.500000  1
  Ba  Ba3  1  0.646362  0.353638  0.000000  1
  Gd  Gd4  1  0.000000  0.000000  0.000000  1
  Nb  Nb5  1  0.500000  0.500000  0.500000  1
  O  O6  1  0.263199  0.263199  0.731971  1
  O  O7  1  0.736801  0.736801  0.268029  1
  O  O8  1  0.736801  0.736801  0.731971  1
  O  O9  1  0.263199  0.263199  0.268029  1
  O  O10  1  0.167164  0.832836  0.000000  1
  O  O11  1  0.651329  0.348671  0.500000  1
  O  O12  1  0.348671  0.651329  0.500000  1
  O  O13  1  0.832836  0.167164  0.000000  1
