# generated using pymatgen
data_Tb3DyY2(ReB7)2
_symmetry_space_group_name_H-M   'P 1'
_cell_length_a   8.11845192
_cell_length_b   8.11845201
_cell_length_c   9.37099471
_cell_angle_alpha   89.95649607
_cell_angle_beta   90.04350391
_cell_angle_gamma   154.77131901
_symmetry_Int_Tables_number   1
_chemical_formula_structural   Tb3DyY2(ReB7)2
_chemical_formula_sum   'Tb3 Dy1 Y2 Re2 B14'
_cell_volume   263.25597811
_cell_formula_units_Z   1
loop_
 _symmetry_equiv_pos_site_id
 _symmetry_equiv_pos_as_xyz
  1  'x, y, z'
loop_
 _atom_site_type_symbol
 _atom_site_label
 _atom_site_symmetry_multiplicity
 _atom_site_fract_x
 _atom_site_fract_y
 _atom_site_fract_z
 _atom_site_occupancy
  Tb  Tb0  1  0.894640  0.105360  0.439405  1
  Tb  Tb1  1  0.105410  0.894590  0.560649  1
  Tb  Tb2  1  0.894617  0.105383  0.060513  1
  Dy  Dy3  1  0.105150  0.894850  0.939893  1
  Y  Y4  1  0.242284  0.757716  0.249951  1
  Y  Y5  1  0.757546  0.242454  0.750025  1
  Re  Re6  1  0.052999  0.947001  0.249757  1
  Re  Re7  1  0.947168  0.052832  0.750209  1
  B  B8  1  0.727026  0.272974  0.466293  1
  B  B9  1  0.272978  0.727022  0.533701  1
  B  B10  1  0.726818  0.273182  0.033538  1
  B  B11  1  0.272703  0.727297  0.966189  1
  B  B12  1  0.631710  0.368290  0.150550  1
  B  B13  1  0.368285  0.631715  0.849019  1
  B  B14  1  0.631722  0.368278  0.349045  1
  B  B15  1  0.368299  0.631701  0.650975  1
  B  B16  1  0.521163  0.478837  0.095386  1
  B  B17  1  0.479091  0.520909  0.904524  1
  B  B18  1  0.521109  0.478891  0.404326  1
  B  B19  1  0.478987  0.521013  0.595784  1
  B  B20  1  0.458266  0.541734  0.249898  1
  B  B21  1  0.542030  0.457970  0.750370  1
