# generated using pymatgen
data_EuThRe2C3
_symmetry_space_group_name_H-M   'P 1'
_cell_length_a   3.38820100
_cell_length_b   5.44103600
_cell_length_c   12.02562800
_cell_angle_alpha   90.00000000
_cell_angle_beta   90.00000000
_cell_angle_gamma   90.00000000
_symmetry_Int_Tables_number   1
_chemical_formula_structural   EuThRe2C3
_chemical_formula_sum   'Eu2 Th2 Re4 C6'
_cell_volume   221.69634387
_cell_formula_units_Z   2
loop_
 _symmetry_equiv_pos_site_id
 _symmetry_equiv_pos_as_xyz
  1  'x, y, z'
loop_
 _atom_site_type_symbol
 _atom_site_label
 _atom_site_symmetry_multiplicity
 _atom_site_fract_x
 _atom_site_fract_y
 _atom_site_fract_z
 _atom_site_occupancy
  Eu  Eu0  1  0.500000  0.838501  0.157964  1
  Eu  Eu1  1  0.000000  0.338501  0.342036  1
  Th  Th2  1  0.000000  0.663166  0.659397  1
  Th  Th3  1  0.500000  0.163166  0.840603  1
  Re  Re4  1  0.500000  0.825793  0.429140  1
  Re  Re5  1  0.000000  0.325793  0.070860  1
  Re  Re6  1  0.500000  0.175507  0.573377  1
  Re  Re7  1  0.000000  0.675507  0.926623  1
  C  C8  1  0.000000  0.166733  0.672321  1
  C  C9  1  0.500000  0.666733  0.827679  1
  C  C10  1  0.000000  0.832486  0.340781  1
  C  C11  1  0.000000  0.997813  0.000137  1
  C  C12  1  0.500000  0.332486  0.159219  1
  C  C13  1  0.500000  0.497813  0.499863  1
