# generated using pymatgen
data_TbTh3(AlRu)4
_symmetry_space_group_name_H-M   'P 1'
_cell_length_a   4.07407900
_cell_length_b   7.07965994
_cell_length_c   8.36337668
_cell_angle_alpha   89.51737494
_cell_angle_beta   90.00000000
_cell_angle_gamma   90.00000000
_symmetry_Int_Tables_number   1
_chemical_formula_structural   TbTh3(AlRu)4
_chemical_formula_sum   'Tb1 Th3 Al4 Ru4'
_cell_volume   241.21710096
_cell_formula_units_Z   1
loop_
 _symmetry_equiv_pos_site_id
 _symmetry_equiv_pos_as_xyz
  1  'x, y, z'
loop_
 _atom_site_type_symbol
 _atom_site_label
 _atom_site_symmetry_multiplicity
 _atom_site_fract_x
 _atom_site_fract_y
 _atom_site_fract_z
 _atom_site_occupancy
  Tb  Tb0  1  0.750000  0.459599  0.815378  1
  Th  Th1  1  0.250000  0.035017  0.316285  1
  Th  Th2  1  0.250000  0.536007  0.178697  1
  Th  Th3  1  0.750000  0.962714  0.686772  1
  Al  Al4  1  0.250000  0.138804  0.942105  1
  Al  Al5  1  0.250000  0.624587  0.560363  1
  Al  Al6  1  0.750000  0.870277  0.054053  1
  Al  Al7  1  0.750000  0.370502  0.447145  1
  Ru  Ru8  1  0.250000  0.252708  0.621452  1
  Ru  Ru9  1  0.250000  0.767538  0.874664  1
  Ru  Ru10  1  0.750000  0.740715  0.372586  1
  Ru  Ru11  1  0.750000  0.241533  0.130500  1
