# generated using pymatgen
data_Dy6ZnTcNi
_symmetry_space_group_name_H-M   'P 1'
_cell_length_a   8.35348951
_cell_length_b   8.35349119
_cell_length_c   8.35349000
_cell_angle_alpha   104.35065688
_cell_angle_beta   110.90709886
_cell_angle_gamma   113.28409480
_symmetry_Int_Tables_number   1
_chemical_formula_structural   Dy6ZnTcNi
_chemical_formula_sum   'Dy12 Zn2 Tc2 Ni2'
_cell_volume   445.85923089
_cell_formula_units_Z   2
loop_
 _symmetry_equiv_pos_site_id
 _symmetry_equiv_pos_as_xyz
  1  'x, y, z'
loop_
 _atom_site_type_symbol
 _atom_site_label
 _atom_site_symmetry_multiplicity
 _atom_site_fract_x
 _atom_site_fract_y
 _atom_site_fract_z
 _atom_site_occupancy
  Dy  Dy0  1  0.689308  0.256661  0.945969  1
  Dy  Dy1  1  0.310692  0.743339  0.054031  1
  Dy  Dy2  1  0.689308  0.743339  0.432649  1
  Dy  Dy3  1  0.310692  0.256661  0.567351  1
  Dy  Dy4  1  0.814941  0.146607  0.331666  1
  Dy  Dy5  1  0.814941  0.483275  0.668334  1
  Dy  Dy6  1  0.185059  0.853393  0.668334  1
  Dy  Dy7  1  0.185059  0.516725  0.331666  1
  Dy  Dy8  1  0.600204  0.780169  0.820034  1
  Dy  Dy9  1  0.960134  0.780169  0.179966  1
  Dy  Dy10  1  0.039866  0.219831  0.820034  1
  Dy  Dy11  1  0.399796  0.219831  0.179966  1
  Zn  Zn12  1  0.500000  0.500000  0.000000  1
  Zn  Zn13  1  0.500000  0.000000  0.500000  1
  Tc  Tc14  1  0.820049  0.500000  0.320049  1
  Tc  Tc15  1  0.179951  0.500000  0.679951  1
  Ni  Ni16  1  0.000000  0.116529  0.116529  1
  Ni  Ni17  1  0.000000  0.883471  0.883471  1
