# generated using pymatgen
data_Ce10CoPb6Au
_symmetry_space_group_name_H-M   'P 1'
_cell_length_a   9.57793300
_cell_length_b   9.57793436
_cell_length_c   6.76862300
_cell_angle_alpha   90.00000000
_cell_angle_beta   90.00000000
_cell_angle_gamma   120.00000566
_symmetry_Int_Tables_number   1
_chemical_formula_structural   Ce10CoPb6Au
_chemical_formula_sum   'Ce10 Co1 Pb6 Au1'
_cell_volume   537.74277434
_cell_formula_units_Z   1
loop_
 _symmetry_equiv_pos_site_id
 _symmetry_equiv_pos_as_xyz
  1  'x, y, z'
loop_
 _atom_site_type_symbol
 _atom_site_label
 _atom_site_symmetry_multiplicity
 _atom_site_fract_x
 _atom_site_fract_y
 _atom_site_fract_z
 _atom_site_occupancy
  Ce  Ce0  1  0.248367  0.248367  0.724384  1
  Ce  Ce1  1  0.751633  0.751633  0.275616  1
  Ce  Ce2  1  0.248367  0.000000  0.275616  1
  Ce  Ce3  1  0.751633  0.000000  0.724384  1
  Ce  Ce4  1  0.333333  0.666667  0.500000  1
  Ce  Ce5  1  0.666667  0.333333  0.500000  1
  Ce  Ce6  1  0.000000  0.248367  0.275616  1
  Ce  Ce7  1  0.000000  0.751633  0.724384  1
  Ce  Ce8  1  0.333333  0.666667  0.000000  1
  Ce  Ce9  1  0.666667  0.333333  0.000000  1
  Co  Co10  1  0.000000  0.000000  0.500000  1
  Pb  Pb11  1  0.393340  0.393340  0.244680  1
  Pb  Pb12  1  0.606660  0.606660  0.755320  1
  Pb  Pb13  1  0.000000  0.393340  0.755320  1
  Pb  Pb14  1  0.606660  0.000000  0.244680  1
  Pb  Pb15  1  0.393340  0.000000  0.755320  1
  Pb  Pb16  1  0.000000  0.606660  0.244680  1
  Au  Au17  1  0.000000  0.000000  0.000000  1
