# generated using pymatgen
data_Rb2CdSnS4
_symmetry_space_group_name_H-M   'P 1'
_cell_length_a   8.06177748
_cell_length_b   8.06177761
_cell_length_c   15.72622124
_cell_angle_alpha   83.89639379
_cell_angle_beta   83.89639431
_cell_angle_gamma   89.62834445
_symmetry_Int_Tables_number   1
_chemical_formula_structural   Rb2CdSnS4
_chemical_formula_sum   'Rb8 Cd4 Sn4 S16'
_cell_volume   1010.51560329
_cell_formula_units_Z   4
loop_
 _symmetry_equiv_pos_site_id
 _symmetry_equiv_pos_as_xyz
  1  'x, y, z'
loop_
 _atom_site_type_symbol
 _atom_site_label
 _atom_site_symmetry_multiplicity
 _atom_site_fract_x
 _atom_site_fract_y
 _atom_site_fract_z
 _atom_site_occupancy
  Rb  Rb0  1  0.856061  0.721961  0.116016  1
  Rb  Rb1  1  0.278039  0.143939  0.383984  1
  Rb  Rb2  1  0.143939  0.278039  0.883984  1
  Rb  Rb3  1  0.721961  0.856061  0.616016  1
  Rb  Rb4  1  0.347402  0.709316  0.115581  1
  Rb  Rb5  1  0.290684  0.652598  0.384419  1
  Rb  Rb6  1  0.652598  0.290684  0.884419  1
  Rb  Rb7  1  0.709316  0.347402  0.615581  1
  Cd  Cd8  1  0.914205  0.809339  0.835893  1
  Cd  Cd9  1  0.190661  0.085795  0.664107  1
  Cd  Cd10  1  0.085795  0.190661  0.164107  1
  Cd  Cd11  1  0.809339  0.914205  0.335893  1
  Sn  Sn12  1  0.406046  0.795723  0.847235  1
  Sn  Sn13  1  0.204277  0.593954  0.652765  1
  Sn  Sn14  1  0.593954  0.204277  0.152765  1
  Sn  Sn15  1  0.795723  0.406046  0.347235  1
  S  S16  1  0.146741  0.759333  0.938831  1
  S  S17  1  0.240667  0.853259  0.561169  1
  S  S18  1  0.853259  0.240667  0.061169  1
  S  S19  1  0.759333  0.146741  0.438831  1
  S  S20  1  0.633884  0.735352  0.933323  1
  S  S21  1  0.264648  0.366116  0.566677  1
  S  S22  1  0.366116  0.264648  0.066677  1
  S  S23  1  0.735352  0.633884  0.433323  1
  S  S24  1  0.913625  0.086375  0.750000  1
  S  S25  1  0.086375  0.913625  0.250000  1
  S  S26  1  0.939678  0.563300  0.738915  1
  S  S27  1  0.436700  0.060322  0.761085  1
  S  S28  1  0.060322  0.436700  0.261085  1
  S  S29  1  0.563300  0.939678  0.238915  1
  S  S30  1  0.430963  0.569037  0.750000  1
  S  S31  1  0.569037  0.430963  0.250000  1
