# generated using pymatgen
data_Y2Ho6Tc3B24Ru
_symmetry_space_group_name_H-M   'P 1'
_cell_length_a   3.67302500
_cell_length_b   9.14552754
_cell_length_c   11.53164900
_cell_angle_alpha   89.91732624
_cell_angle_beta   90.00000000
_cell_angle_gamma   90.00000000
_symmetry_Int_Tables_number   1
_chemical_formula_structural   Y2Ho6Tc3B24Ru
_chemical_formula_sum   'Y2 Ho6 Tc3 B24 Ru1'
_cell_volume   387.36788214
_cell_formula_units_Z   1
loop_
 _symmetry_equiv_pos_site_id
 _symmetry_equiv_pos_as_xyz
  1  'x, y, z'
loop_
 _atom_site_type_symbol
 _atom_site_label
 _atom_site_symmetry_multiplicity
 _atom_site_fract_x
 _atom_site_fract_y
 _atom_site_fract_z
 _atom_site_occupancy
  Y  Y0  1  0.000000  0.323427  0.413918  1
  Y  Y1  1  0.000000  0.675309  0.584076  1
  Ho  Ho2  1  0.000000  0.823135  0.087276  1
  Ho  Ho3  1  0.000000  0.177845  0.914570  1
  Ho  Ho4  1  0.000000  0.942602  0.370131  1
  Ho  Ho5  1  0.000000  0.057703  0.630795  1
  Ho  Ho6  1  0.000000  0.443098  0.129913  1
  Ho  Ho7  1  0.000000  0.557808  0.869290  1
  Tc  Tc8  1  0.000000  0.638671  0.320129  1
  Tc  Tc9  1  0.000000  0.361390  0.680347  1
  Tc  Tc10  1  0.000000  0.137802  0.178109  1
  B  B11  1  0.500000  0.553130  0.432618  1
  B  B12  1  0.500000  0.446551  0.566984  1
  B  B13  1  0.500000  0.052957  0.066712  1
  B  B14  1  0.500000  0.946223  0.932943  1
  B  B15  1  0.500000  0.748714  0.418463  1
  B  B16  1  0.500000  0.250623  0.581682  1
  B  B17  1  0.500000  0.249143  0.081010  1
  B  B18  1  0.500000  0.751556  0.918634  1
  B  B19  1  0.500000  0.791962  0.265344  1
  B  B20  1  0.500000  0.208259  0.735371  1
  B  B21  1  0.500000  0.291690  0.234315  1
  B  B22  1  0.500000  0.709309  0.765538  1
  B  B23  1  0.500000  0.631219  0.185292  1
  B  B24  1  0.500000  0.368946  0.815184  1
  B  B25  1  0.500000  0.130284  0.313960  1
  B  B26  1  0.500000  0.869068  0.685904  1
  B  B27  1  0.500000  0.981663  0.211711  1
  B  B28  1  0.500000  0.016869  0.788511  1
  B  B29  1  0.500000  0.482352  0.287643  1
  B  B30  1  0.500000  0.517525  0.711912  1
  B  B31  1  0.500000  0.602410  0.028107  1
  B  B32  1  0.500000  0.399250  0.971543  1
  B  B33  1  0.500000  0.101211  0.472157  1
  B  B34  1  0.500000  0.898464  0.528703  1
  Ru  Ru35  1  0.000000  0.861835  0.821205  1
