# generated using pymatgen
data_Tb2Tm3Lu3(CdNi)2
_symmetry_space_group_name_H-M   'P 1'
_cell_length_a   9.43764720
_cell_length_b   9.43764765
_cell_length_c   9.43764800
_cell_angle_alpha   59.99999876
_cell_angle_beta   59.99999721
_cell_angle_gamma   59.99999969
_symmetry_Int_Tables_number   1
_chemical_formula_structural   Tb2Tm3Lu3(CdNi)2
_chemical_formula_sum   'Tb4 Tm6 Lu6 Cd4 Ni4'
_cell_volume   594.39652362
_cell_formula_units_Z   2
loop_
 _symmetry_equiv_pos_site_id
 _symmetry_equiv_pos_as_xyz
  1  'x, y, z'
loop_
 _atom_site_type_symbol
 _atom_site_label
 _atom_site_symmetry_multiplicity
 _atom_site_fract_x
 _atom_site_fract_y
 _atom_site_fract_z
 _atom_site_occupancy
  Tb  Tb0  1  0.349855  0.349855  0.349855  1
  Tb  Tb1  1  0.349855  0.349855  0.950434  1
  Tb  Tb2  1  0.349855  0.950434  0.349855  1
  Tb  Tb3  1  0.950434  0.349855  0.349855  1
  Tm  Tm4  1  0.935552  0.564448  0.564448  1
  Tm  Tm5  1  0.564448  0.935552  0.935552  1
  Tm  Tm6  1  0.564448  0.935552  0.564448  1
  Tm  Tm7  1  0.935552  0.564448  0.935552  1
  Tm  Tm8  1  0.564448  0.564448  0.935552  1
  Tm  Tm9  1  0.935552  0.935552  0.564448  1
  Lu  Lu10  1  0.812807  0.187193  0.187193  1
  Lu  Lu11  1  0.187193  0.812807  0.812807  1
  Lu  Lu12  1  0.187193  0.812807  0.187193  1
  Lu  Lu13  1  0.812807  0.187193  0.812807  1
  Lu  Lu14  1  0.187193  0.187193  0.812807  1
  Lu  Lu15  1  0.812807  0.812807  0.187193  1
  Cd  Cd16  1  0.582180  0.582180  0.582180  1
  Cd  Cd17  1  0.582180  0.582180  0.253462  1
  Cd  Cd18  1  0.582180  0.253462  0.582180  1
  Cd  Cd19  1  0.253462  0.582180  0.582180  1
  Ni  Ni20  1  0.141319  0.141319  0.141319  1
  Ni  Ni21  1  0.141319  0.141319  0.576044  1
  Ni  Ni22  1  0.141319  0.576044  0.141319  1
  Ni  Ni23  1  0.576044  0.141319  0.141319  1
