# generated using pymatgen
data_CePr3(Al3Ir)6
_symmetry_space_group_name_H-M   'P 1'
_cell_length_a   7.61913905
_cell_length_b   7.62980183
_cell_length_c   9.58679400
_cell_angle_alpha   90.00000000
_cell_angle_beta   90.00000000
_cell_angle_gamma   119.45907708
_symmetry_Int_Tables_number   1
_chemical_formula_structural   CePr3(Al3Ir)6
_chemical_formula_sum   'Ce1 Pr3 Al18 Ir6'
_cell_volume   485.24903424
_cell_formula_units_Z   1
loop_
 _symmetry_equiv_pos_site_id
 _symmetry_equiv_pos_as_xyz
  1  'x, y, z'
loop_
 _atom_site_type_symbol
 _atom_site_label
 _atom_site_symmetry_multiplicity
 _atom_site_fract_x
 _atom_site_fract_y
 _atom_site_fract_z
 _atom_site_occupancy
  Ce  Ce0  1  0.329433  0.004370  0.750000  1
  Pr  Pr1  1  0.996673  0.670762  0.250000  1
  Pr  Pr2  1  0.004430  0.328667  0.750000  1
  Pr  Pr3  1  0.669248  0.995554  0.250000  1
  Al  Al4  1  0.129365  0.129224  0.250000  1
  Al  Al5  1  0.870113  0.868354  0.750000  1
  Al  Al6  1  0.003043  0.334917  0.073026  1
  Al  Al7  1  0.997236  0.664723  0.925738  1
  Al  Al8  1  0.997236  0.664723  0.574262  1
  Al  Al9  1  0.335167  0.003391  0.427815  1
  Al  Al10  1  0.003043  0.334917  0.426974  1
  Al  Al11  1  0.664635  0.997107  0.574304  1
  Al  Al12  1  0.664635  0.997107  0.925696  1
  Al  Al13  1  0.335167  0.003391  0.072185  1
  Al  Al14  1  0.334872  0.335055  0.549231  1
  Al  Al15  1  0.665896  0.665733  0.452794  1
  Al  Al16  1  0.665896  0.665733  0.047206  1
  Al  Al17  1  0.334872  0.335055  0.950769  1
  Al  Al18  1  0.339132  0.545368  0.250000  1
  Al  Al19  1  0.657849  0.453075  0.750000  1
  Al  Al20  1  0.546023  0.339054  0.250000  1
  Al  Al21  1  0.454187  0.661741  0.750000  1
  Ir  Ir22  1  0.670268  0.328567  0.998601  1
  Ir  Ir23  1  0.329303  0.671988  0.998693  1
  Ir  Ir24  1  0.329303  0.671988  0.501307  1
  Ir  Ir25  1  0.670268  0.328567  0.501399  1
  Ir  Ir26  1  0.001354  0.000435  0.997996  1
  Ir  Ir27  1  0.001354  0.000435  0.502004  1
