# generated using pymatgen
data_Pr9SmAlSi4Ge
_symmetry_space_group_name_H-M   'P 1'
_cell_length_a   7.83067600
_cell_length_b   9.14656620
_cell_length_c   7.83067600
_cell_angle_alpha   115.34492073
_cell_angle_beta   90.00000000
_cell_angle_gamma   115.34492073
_symmetry_Int_Tables_number   1
_chemical_formula_structural   Pr9SmAlSi4Ge
_chemical_formula_sum   'Pr9 Sm1 Al1 Si4 Ge1'
_cell_volume   446.41223980
_cell_formula_units_Z   1
loop_
 _symmetry_equiv_pos_site_id
 _symmetry_equiv_pos_as_xyz
  1  'x, y, z'
loop_
 _atom_site_type_symbol
 _atom_site_label
 _atom_site_symmetry_multiplicity
 _atom_site_fract_x
 _atom_site_fract_y
 _atom_site_fract_z
 _atom_site_occupancy
  Pr  Pr0  1  0.524196  0.048391  0.524196  1
  Pr  Pr1  1  0.527219  0.717285  0.673659  1
  Pr  Pr2  1  0.190067  0.717285  0.043627  1
  Pr  Pr3  1  0.673659  0.717285  0.190067  1
  Pr  Pr4  1  0.043627  0.717285  0.527219  1
  Pr  Pr5  1  0.455517  0.282186  0.308440  1
  Pr  Pr6  1  0.826666  0.282186  0.973744  1
  Pr  Pr7  1  0.308440  0.282186  0.826666  1
  Pr  Pr8  1  0.973744  0.282186  0.455517  1
  Sm  Sm9  1  0.978524  0.957049  0.978524  1
  Al  Al10  1  0.751858  0.503715  0.751858  1
  Si  Si11  1  0.885688  0.998616  0.616062  1
  Si  Si12  1  0.112928  0.998616  0.382555  1
  Si  Si13  1  0.616062  0.998616  0.112928  1
  Si  Si14  1  0.382555  0.998616  0.885688  1
  Ge  Ge15  1  0.249249  0.498498  0.249249  1
