# generated using pymatgen
data_Ac2CuNi9
_symmetry_space_group_name_H-M   'P 1'
_cell_length_a   5.11246300
_cell_length_b   5.11246438
_cell_length_c   8.05997600
_cell_angle_alpha   90.00000000
_cell_angle_beta   90.00000000
_cell_angle_gamma   120.16830644
_symmetry_Int_Tables_number   1
_chemical_formula_structural   Ac2CuNi9
_chemical_formula_sum   'Ac2 Cu1 Ni9'
_cell_volume   182.13180971
_cell_formula_units_Z   1
loop_
 _symmetry_equiv_pos_site_id
 _symmetry_equiv_pos_as_xyz
  1  'x, y, z'
loop_
 _atom_site_type_symbol
 _atom_site_label
 _atom_site_symmetry_multiplicity
 _atom_site_fract_x
 _atom_site_fract_y
 _atom_site_fract_z
 _atom_site_occupancy
  Ac  Ac0  1  0.000000  0.000000  0.753790  1
  Ac  Ac1  1  0.000000  0.000000  0.246210  1
  Cu  Cu2  1  0.500000  0.500000  0.500000  1
  Ni  Ni3  1  0.671833  0.328167  0.750693  1
  Ni  Ni4  1  0.671833  0.328167  0.249307  1
  Ni  Ni5  1  0.500000  0.500000  0.000000  1
  Ni  Ni6  1  0.328167  0.671833  0.750693  1
  Ni  Ni7  1  0.500000  0.000000  0.500000  1
  Ni  Ni8  1  0.000000  0.500000  0.000000  1
  Ni  Ni9  1  0.500000  0.000000  0.000000  1
  Ni  Ni10  1  0.328167  0.671833  0.249307  1
  Ni  Ni11  1  0.000000  0.500000  0.500000  1
