# generated using pymatgen
data_Ac4CdOs
_symmetry_space_group_name_H-M   'P 1'
_cell_length_a   10.53680902
_cell_length_b   10.53680942
_cell_length_c   10.53680900
_cell_angle_alpha   59.99999818
_cell_angle_beta   59.99999691
_cell_angle_gamma   60.00000284
_symmetry_Int_Tables_number   1
_chemical_formula_structural   Ac4CdOs
_chemical_formula_sum   'Ac16 Cd4 Os4'
_cell_volume   827.20344908
_cell_formula_units_Z   4
loop_
 _symmetry_equiv_pos_site_id
 _symmetry_equiv_pos_as_xyz
  1  'x, y, z'
loop_
 _atom_site_type_symbol
 _atom_site_label
 _atom_site_symmetry_multiplicity
 _atom_site_fract_x
 _atom_site_fract_y
 _atom_site_fract_z
 _atom_site_occupancy
  Ac  Ac0  1  0.940859  0.940859  0.559141  1
  Ac  Ac1  1  0.811220  0.188780  0.188780  1
  Ac  Ac2  1  0.940859  0.559141  0.559141  1
  Ac  Ac3  1  0.940859  0.559141  0.940859  1
  Ac  Ac4  1  0.811220  0.811220  0.188780  1
  Ac  Ac5  1  0.344845  0.344845  0.344845  1
  Ac  Ac6  1  0.559141  0.940859  0.940859  1
  Ac  Ac7  1  0.559141  0.940859  0.559141  1
  Ac  Ac8  1  0.188780  0.811220  0.811220  1
  Ac  Ac9  1  0.188780  0.188780  0.811220  1
  Ac  Ac10  1  0.344845  0.344845  0.965465  1
  Ac  Ac11  1  0.344845  0.965465  0.344845  1
  Ac  Ac12  1  0.811220  0.188780  0.811220  1
  Ac  Ac13  1  0.559141  0.559141  0.940859  1
  Ac  Ac14  1  0.188780  0.811220  0.188780  1
  Ac  Ac15  1  0.965465  0.344845  0.344845  1
  Cd  Cd16  1  0.578123  0.578123  0.265633  1
  Cd  Cd17  1  0.265633  0.578123  0.578123  1
  Cd  Cd18  1  0.578123  0.578123  0.578123  1
  Cd  Cd19  1  0.578123  0.265633  0.578123  1
  Os  Os20  1  0.585714  0.138096  0.138096  1
  Os  Os21  1  0.138096  0.138096  0.138096  1
  Os  Os22  1  0.138096  0.585714  0.138096  1
  Os  Os23  1  0.138096  0.138096  0.585714  1
