# generated using pymatgen
data_Rb6Cr(RhBr6)3
_symmetry_space_group_name_H-M   'P 1'
_cell_length_a   7.51985000
_cell_length_b   7.51984939
_cell_length_c   19.21075800
_cell_angle_alpha   90.00000000
_cell_angle_beta   90.00000000
_cell_angle_gamma   119.99999391
_symmetry_Int_Tables_number   1
_chemical_formula_structural   Rb6Cr(RhBr6)3
_chemical_formula_sum   'Rb6 Cr1 Rh3 Br18'
_cell_volume   940.79170480
_cell_formula_units_Z   1
loop_
 _symmetry_equiv_pos_site_id
 _symmetry_equiv_pos_as_xyz
  1  'x, y, z'
loop_
 _atom_site_type_symbol
 _atom_site_label
 _atom_site_symmetry_multiplicity
 _atom_site_fract_x
 _atom_site_fract_y
 _atom_site_fract_z
 _atom_site_occupancy
  Rb  Rb0  1  0.666667  0.333333  0.563214  1
  Rb  Rb1  1  0.333333  0.666667  0.064872  1
  Rb  Rb2  1  0.333333  0.666667  0.433224  1
  Rb  Rb3  1  0.666667  0.333333  0.935961  1
  Rb  Rb4  1  0.000000  0.000000  0.252330  1
  Rb  Rb5  1  0.000000  0.000000  0.749687  1
  Cr  Cr6  1  0.666667  0.333333  0.163230  1
  Rh  Rh7  1  0.333333  0.666667  0.664980  1
  Rh  Rh8  1  0.666667  0.333333  0.333088  1
  Rh  Rh9  1  0.333333  0.666667  0.835362  1
  Br  Br10  1  0.823673  0.647344  0.406849  1
  Br  Br11  1  0.176223  0.823777  0.591553  1
  Br  Br12  1  0.647554  0.823777  0.591553  1
  Br  Br13  1  0.823673  0.176327  0.406849  1
  Br  Br14  1  0.352656  0.176327  0.406849  1
  Br  Br15  1  0.176175  0.352350  0.908804  1
  Br  Br16  1  0.030672  0.515337  0.750232  1
  Br  Br17  1  0.647650  0.823825  0.908804  1
  Br  Br18  1  0.825350  0.650701  0.093462  1
  Br  Br19  1  0.176223  0.352446  0.591553  1
  Br  Br20  1  0.484663  0.969328  0.750232  1
  Br  Br21  1  0.513058  0.486942  0.250451  1
  Br  Br22  1  0.484663  0.515337  0.750232  1
  Br  Br23  1  0.176175  0.823825  0.908804  1
  Br  Br24  1  0.349299  0.174650  0.093462  1
  Br  Br25  1  0.973883  0.486942  0.250451  1
  Br  Br26  1  0.513058  0.026117  0.250451  1
  Br  Br27  1  0.825350  0.174650  0.093462  1
