# generated using pymatgen
data_Sm4Mg2MnCoO12
_symmetry_space_group_name_H-M   'P 1'
_cell_length_a   5.37701330
_cell_length_b   5.56183971
_cell_length_c   7.68749561
_cell_angle_alpha   89.80334903
_cell_angle_beta   89.87157644
_cell_angle_gamma   89.91457018
_symmetry_Int_Tables_number   1
_chemical_formula_structural   Sm4Mg2MnCoO12
_chemical_formula_sum   'Sm4 Mg2 Mn1 Co1 O12'
_cell_volume   229.90072114
_cell_formula_units_Z   1
loop_
 _symmetry_equiv_pos_site_id
 _symmetry_equiv_pos_as_xyz
  1  'x, y, z'
loop_
 _atom_site_type_symbol
 _atom_site_label
 _atom_site_symmetry_multiplicity
 _atom_site_fract_x
 _atom_site_fract_y
 _atom_site_fract_z
 _atom_site_occupancy
  Sm  Sm0  1  0.514609  0.555660  0.247926  1
  Sm  Sm1  1  0.986485  0.059397  0.249083  1
  Sm  Sm2  1  0.485391  0.444340  0.752074  1
  Sm  Sm3  1  0.013515  0.940603  0.750917  1
  Mg  Mg4  1  0.500000  0.000000  0.000000  1
  Mg  Mg5  1  0.000000  0.500000  0.500000  1
  Mn  Mn6  1  0.500000  0.000000  0.500000  1
  Co  Co7  1  0.000000  0.500000  0.000000  1
  O  O8  1  0.411285  0.975238  0.257728  1
  O  O9  1  0.090632  0.474669  0.239084  1
  O  O10  1  0.588715  0.024762  0.742272  1
  O  O11  1  0.909368  0.525331  0.760916  1
  O  O12  1  0.808284  0.781923  0.048191  1
  O  O13  1  0.693691  0.286485  0.451178  1
  O  O14  1  0.212137  0.195775  0.546219  1
  O  O15  1  0.284921  0.696370  0.953181  1
  O  O16  1  0.191716  0.218077  0.951809  1
  O  O17  1  0.306309  0.713515  0.548822  1
  O  O18  1  0.787863  0.804225  0.453781  1
  O  O19  1  0.715079  0.303630  0.046819  1
