# generated using pymatgen
data_Zr6Zn19PRh4
_symmetry_space_group_name_H-M   'P 1'
_cell_length_a   8.74494902
_cell_length_b   8.79244556
_cell_length_c   8.79244600
_cell_angle_alpha   59.68050790
_cell_angle_beta   59.86948199
_cell_angle_gamma   59.86948277
_symmetry_Int_Tables_number   1
_chemical_formula_structural   Zr6Zn19PRh4
_chemical_formula_sum   'Zr6 Zn19 P1 Rh4'
_cell_volume   475.93387119
_cell_formula_units_Z   1
loop_
 _symmetry_equiv_pos_site_id
 _symmetry_equiv_pos_as_xyz
  1  'x, y, z'
loop_
 _atom_site_type_symbol
 _atom_site_label
 _atom_site_symmetry_multiplicity
 _atom_site_fract_x
 _atom_site_fract_y
 _atom_site_fract_z
 _atom_site_occupancy
  Zr  Zr0  1  0.706969  0.291339  0.291339  1
  Zr  Zr1  1  0.293031  0.708661  0.708661  1
  Zr  Zr2  1  0.291217  0.716164  0.285859  1
  Zr  Zr3  1  0.708783  0.283836  0.714141  1
  Zr  Zr4  1  0.291217  0.285859  0.716164  1
  Zr  Zr5  1  0.708783  0.714141  0.283836  1
  Zn  Zn6  1  0.123557  0.114983  0.636284  1
  Zn  Zn7  1  0.123557  0.636284  0.114983  1
  Zn  Zn8  1  0.876443  0.885017  0.363716  1
  Zn  Zn9  1  0.876443  0.363716  0.885017  1
  Zn  Zn10  1  0.631722  0.123306  0.123306  1
  Zn  Zn11  1  0.368278  0.876694  0.876694  1
  Zn  Zn12  1  0.500000  0.000000  0.000000  1
  Zn  Zn13  1  0.000000  0.500000  0.500000  1
  Zn  Zn14  1  0.000000  0.500000  0.000000  1
  Zn  Zn15  1  0.000000  0.000000  0.500000  1
  Zn  Zn16  1  0.332440  0.338013  0.338013  1
  Zn  Zn17  1  0.667560  0.661987  0.661987  1
  Zn  Zn18  1  0.329958  0.331004  0.002612  1
  Zn  Zn19  1  0.329958  0.002612  0.331004  1
  Zn  Zn20  1  0.670042  0.668996  0.997388  1
  Zn  Zn21  1  0.670042  0.997388  0.668996  1
  Zn  Zn22  1  0.997885  0.330917  0.330917  1
  Zn  Zn23  1  0.002115  0.669083  0.669083  1
  Zn  Zn24  1  0.000000  0.000000  0.000000  1
  P  P25  1  0.500000  0.500000  0.500000  1
  Rh  Rh26  1  0.117897  0.118880  0.118880  1
  Rh  Rh27  1  0.882103  0.881120  0.881120  1
  Rh  Rh28  1  0.500000  0.000000  0.500000  1
  Rh  Rh29  1  0.500000  0.500000  0.000000  1
