# generated using pymatgen
data_Dy16ZnIn4Os3
_symmetry_space_group_name_H-M   'P 1'
_cell_length_a   9.71629412
_cell_length_b   9.68354346
_cell_length_c   9.71629300
_cell_angle_alpha   59.88805157
_cell_angle_beta   59.99999361
_cell_angle_gamma   59.88804976
_symmetry_Int_Tables_number   1
_chemical_formula_structural   Dy16ZnIn4Os3
_chemical_formula_sum   'Dy16 Zn1 In4 Os3'
_cell_volume   645.33257968
_cell_formula_units_Z   1
loop_
 _symmetry_equiv_pos_site_id
 _symmetry_equiv_pos_as_xyz
  1  'x, y, z'
loop_
 _atom_site_type_symbol
 _atom_site_label
 _atom_site_symmetry_multiplicity
 _atom_site_fract_x
 _atom_site_fract_y
 _atom_site_fract_z
 _atom_site_occupancy
  Dy  Dy0  1  0.690048  0.311474  0.308430  1
  Dy  Dy1  1  0.701269  0.681118  0.308806  1
  Dy  Dy2  1  0.308806  0.681118  0.308806  1
  Dy  Dy3  1  0.932358  0.946447  0.560598  1
  Dy  Dy4  1  0.146052  0.157839  0.550056  1
  Dy  Dy5  1  0.560598  0.946447  0.560598  1
  Dy  Dy6  1  0.146052  0.157839  0.146052  1
  Dy  Dy7  1  0.308430  0.311474  0.690048  1
  Dy  Dy8  1  0.941253  0.559872  0.557620  1
  Dy  Dy9  1  0.557620  0.559872  0.941253  1
  Dy  Dy10  1  0.560598  0.946447  0.932358  1
  Dy  Dy11  1  0.941253  0.559872  0.941253  1
  Dy  Dy12  1  0.152895  0.541314  0.152895  1
  Dy  Dy13  1  0.308806  0.681118  0.701269  1
  Dy  Dy14  1  0.690048  0.311474  0.690048  1
  Dy  Dy15  1  0.550056  0.157839  0.146052  1
  Zn  Zn16  1  0.359750  0.920750  0.359750  1
  In  In17  1  0.917175  0.918027  0.247624  1
  In  In18  1  0.247624  0.918027  0.917175  1
  In  In19  1  0.917522  0.247435  0.917522  1
  In  In20  1  0.917175  0.918027  0.917175  1
  Os  Os21  1  0.360859  0.355390  0.360859  1
  Os  Os22  1  0.922893  0.355390  0.360859  1
  Os  Os23  1  0.360859  0.355390  0.922893  1
