# generated using pymatgen
data_Dy4YTc5(P6Ir7)2
_symmetry_space_group_name_H-M   'P 1'
_cell_length_a   12.63018101
_cell_length_b   12.72679130
_cell_length_c   3.98260800
_cell_angle_alpha   90.00000000
_cell_angle_beta   90.00000000
_cell_angle_gamma   120.14845596
_symmetry_Int_Tables_number   1
_chemical_formula_structural   Dy4YTc5(P6Ir7)2
_chemical_formula_sum   'Dy4 Y1 Tc5 P12 Ir14'
_cell_volume   553.57321219
_cell_formula_units_Z   1
loop_
 _symmetry_equiv_pos_site_id
 _symmetry_equiv_pos_as_xyz
  1  'x, y, z'
loop_
 _atom_site_type_symbol
 _atom_site_label
 _atom_site_symmetry_multiplicity
 _atom_site_fract_x
 _atom_site_fract_y
 _atom_site_fract_z
 _atom_site_occupancy
  Dy  Dy0  1  0.334300  0.667968  0.500000  1
  Dy  Dy1  1  0.666619  0.333415  0.500000  1
  Dy  Dy2  1  0.186589  0.185051  0.000000  1
  Dy  Dy3  1  0.810763  0.998595  0.000000  1
  Y  Y4  1  0.999481  0.811029  0.000000  1
  Tc  Tc5  1  0.996707  0.450238  0.500000  1
  Tc  Tc6  1  0.548411  0.544877  0.500000  1
  Tc  Tc7  1  0.456878  0.008985  0.500000  1
  Tc  Tc8  1  0.620673  0.799291  0.500000  1
  Tc  Tc9  1  0.201208  0.821953  0.500000  1
  P  P10  1  0.006409  0.639666  0.500000  1
  P  P11  1  0.363624  0.364830  0.500000  1
  P  P12  1  0.633126  0.993584  0.500000  1
  P  P13  1  0.520179  0.693808  0.000000  1
  P  P14  1  0.308226  0.829898  0.000000  1
  P  P15  1  0.169842  0.483281  0.000000  1
  P  P16  1  0.483383  0.169547  0.000000  1
  P  P17  1  0.685983  0.516540  0.000000  1
  P  P18  1  0.832306  0.314797  0.000000  1
  P  P19  1  0.998977  0.176469  0.500000  1
  P  P20  1  0.817099  0.820411  0.500000  1
  P  P21  1  0.177340  0.993962  0.500000  1
  Ir  Ir22  1  0.507930  0.874616  0.000000  1
  Ir  Ir23  1  0.127747  0.636018  0.000000  1
  Ir  Ir24  1  0.361773  0.493914  0.000000  1
  Ir  Ir25  1  0.490775  0.359106  0.000000  1
  Ir  Ir26  1  0.866008  0.506401  0.000000  1
  Ir  Ir27  1  0.643253  0.136416  0.000000  1
  Ir  Ir28  1  0.000296  0.285540  0.000000  1
  Ir  Ir29  1  0.716264  0.710998  0.000000  1
  Ir  Ir30  1  0.287384  0.005216  0.000000  1
  Ir  Ir31  1  0.180006  0.375116  0.500000  1
  Ir  Ir32  1  0.374150  0.183656  0.500000  1
  Ir  Ir33  1  0.807295  0.622606  0.500000  1
  Ir  Ir34  1  0.819338  0.192770  0.500000  1
  Ir  Ir35  1  0.999656  0.999430  0.500000  1
