# generated using pymatgen
data_YbY6FeI12
_symmetry_space_group_name_H-M   'P 1'
_cell_length_a   9.76477442
_cell_length_b   9.76477406
_cell_length_c   9.76477431
_cell_angle_alpha   107.07735268
_cell_angle_beta   107.07734416
_cell_angle_gamma   107.07734782
_symmetry_Int_Tables_number   1
_chemical_formula_structural   YbY6FeI12
_chemical_formula_sum   'Yb1 Y6 Fe1 I12'
_cell_volume   773.76974156
_cell_formula_units_Z   1
loop_
 _symmetry_equiv_pos_site_id
 _symmetry_equiv_pos_as_xyz
  1  'x, y, z'
loop_
 _atom_site_type_symbol
 _atom_site_label
 _atom_site_symmetry_multiplicity
 _atom_site_fract_x
 _atom_site_fract_y
 _atom_site_fract_z
 _atom_site_occupancy
  Yb  Yb0  1  0.500000  0.500000  0.500000  1
  Y  Y1  1  0.708046  0.976202  0.906101  1
  Y  Y2  1  0.976202  0.906101  0.708046  1
  Y  Y3  1  0.093899  0.291954  0.023798  1
  Y  Y4  1  0.291954  0.023798  0.093899  1
  Y  Y5  1  0.906101  0.708046  0.976202  1
  Y  Y6  1  0.023798  0.093899  0.291954  1
  Fe  Fe7  1  0.000000  0.000000  0.000000  1
  I  I8  1  0.072235  0.224796  0.681157  1
  I  I9  1  0.378701  0.149623  0.456395  1
  I  I10  1  0.621299  0.850377  0.543605  1
  I  I11  1  0.224796  0.681157  0.072235  1
  I  I12  1  0.775204  0.318843  0.927765  1
  I  I13  1  0.681157  0.072235  0.224796  1
  I  I14  1  0.543605  0.621299  0.850377  1
  I  I15  1  0.850377  0.543605  0.621299  1
  I  I16  1  0.927765  0.775204  0.318843  1
  I  I17  1  0.318843  0.927765  0.775204  1
  I  I18  1  0.456395  0.378701  0.149623  1
  I  I19  1  0.149623  0.456395  0.378701  1
