# generated using pymatgen
data_HfZn2GaRh4
_symmetry_space_group_name_H-M   'P 1'
_cell_length_a   6.14391400
_cell_length_b   6.14405800
_cell_length_c   6.22878100
_cell_angle_alpha   90.00000000
_cell_angle_beta   90.00000000
_cell_angle_gamma   90.00000000
_symmetry_Int_Tables_number   1
_chemical_formula_structural   HfZn2GaRh4
_chemical_formula_sum   'Hf2 Zn4 Ga2 Rh8'
_cell_volume   235.12753799
_cell_formula_units_Z   2
loop_
 _symmetry_equiv_pos_site_id
 _symmetry_equiv_pos_as_xyz
  1  'x, y, z'
loop_
 _atom_site_type_symbol
 _atom_site_label
 _atom_site_symmetry_multiplicity
 _atom_site_fract_x
 _atom_site_fract_y
 _atom_site_fract_z
 _atom_site_occupancy
  Hf  Hf0  1  0.750028  0.250000  0.500000  1
  Hf  Hf1  1  0.249973  0.750001  0.500000  1
  Zn  Zn2  1  0.250027  0.250000  0.000000  1
  Zn  Zn3  1  0.749974  0.750001  0.000000  1
  Zn  Zn4  1  0.749946  0.750001  0.499996  1
  Zn  Zn5  1  0.250055  0.250000  0.500003  1
  Ga  Ga6  1  0.749999  0.250000  0.000000  1
  Ga  Ga7  1  0.250001  0.750001  0.000000  1
  Rh  Rh8  1  0.000000  0.000000  0.239804  1
  Rh  Rh9  1  0.000000  0.500001  0.239804  1
  Rh  Rh10  1  0.499999  0.000000  0.239812  1
  Rh  Rh11  1  0.499999  0.499999  0.239812  1
  Rh  Rh12  1  0.500002  0.000000  0.760187  1
  Rh  Rh13  1  0.500002  0.500001  0.760187  1
  Rh  Rh14  1  0.000000  0.000000  0.760196  1
  Rh  Rh15  1  0.000000  0.499999  0.760196  1
