# generated using pymatgen
data_PrNdTc17C3
_symmetry_space_group_name_H-M   'P 1'
_cell_length_a   7.01604964
_cell_length_b   7.01604952
_cell_length_c   7.01604897
_cell_angle_alpha   83.02617050
_cell_angle_beta   83.02617678
_cell_angle_gamma   83.02617938
_symmetry_Int_Tables_number   1
_chemical_formula_structural   PrNdTc17C3
_chemical_formula_sum   'Pr1 Nd1 Tc17 C3'
_cell_volume   338.27307414
_cell_formula_units_Z   1
loop_
 _symmetry_equiv_pos_site_id
 _symmetry_equiv_pos_as_xyz
  1  'x, y, z'
loop_
 _atom_site_type_symbol
 _atom_site_label
 _atom_site_symmetry_multiplicity
 _atom_site_fract_x
 _atom_site_fract_y
 _atom_site_fract_z
 _atom_site_occupancy
  Pr  Pr0  1  0.350622  0.350622  0.350622  1
  Nd  Nd1  1  0.649762  0.649762  0.649762  1
  Tc  Tc2  1  0.999835  0.999835  0.500040  1
  Tc  Tc3  1  0.500040  0.999835  0.999835  1
  Tc  Tc4  1  0.999835  0.500040  0.999835  1
  Tc  Tc5  1  0.721994  0.278233  0.999693  1
  Tc  Tc6  1  0.999693  0.721994  0.278233  1
  Tc  Tc7  1  0.278233  0.999693  0.721994  1
  Tc  Tc8  1  0.999693  0.278233  0.721994  1
  Tc  Tc9  1  0.721994  0.999693  0.278233  1
  Tc  Tc10  1  0.278233  0.721994  0.999693  1
  Tc  Tc11  1  0.347503  0.347503  0.866029  1
  Tc  Tc12  1  0.866029  0.347503  0.347503  1
  Tc  Tc13  1  0.347503  0.866029  0.347503  1
  Tc  Tc14  1  0.652924  0.652924  0.133497  1
  Tc  Tc15  1  0.133497  0.652924  0.652924  1
  Tc  Tc16  1  0.652924  0.133497  0.652924  1
  Tc  Tc17  1  0.902926  0.902926  0.902926  1
  Tc  Tc18  1  0.096918  0.096918  0.096918  1
  C  C19  1  0.500476  0.500476  0.998890  1
  C  C20  1  0.998890  0.500476  0.500476  1
  C  C21  1  0.500476  0.998890  0.500476  1
