# generated using pymatgen
data_TbCo3As3Ru2
_symmetry_space_group_name_H-M   'P 1'
_cell_length_a   3.88448200
_cell_length_b   10.95059400
_cell_length_c   12.37869600
_cell_angle_alpha   90.00000000
_cell_angle_beta   90.00000000
_cell_angle_gamma   90.00000000
_symmetry_Int_Tables_number   1
_chemical_formula_structural   TbCo3As3Ru2
_chemical_formula_sum   'Tb4 Co12 As12 Ru8'
_cell_volume   526.55736104
_cell_formula_units_Z   4
loop_
 _symmetry_equiv_pos_site_id
 _symmetry_equiv_pos_as_xyz
  1  'x, y, z'
loop_
 _atom_site_type_symbol
 _atom_site_label
 _atom_site_symmetry_multiplicity
 _atom_site_fract_x
 _atom_site_fract_y
 _atom_site_fract_z
 _atom_site_occupancy
  Tb  Tb0  1  0.250000  0.585404  0.705398  1
  Tb  Tb1  1  0.250000  0.914596  0.205398  1
  Tb  Tb2  1  0.750000  0.414596  0.294602  1
  Tb  Tb3  1  0.750000  0.085404  0.794602  1
  Co  Co4  1  0.250000  0.219984  0.177853  1
  Co  Co5  1  0.250000  0.280016  0.677853  1
  Co  Co6  1  0.750000  0.780016  0.822147  1
  Co  Co7  1  0.750000  0.719984  0.322147  1
  Co  Co8  1  0.250000  0.884756  0.696863  1
  Co  Co9  1  0.250000  0.615244  0.196863  1
  Co  Co10  1  0.750000  0.115244  0.303137  1
  Co  Co11  1  0.750000  0.384756  0.803137  1
  Co  Co12  1  0.250000  0.466156  0.932971  1
  Co  Co13  1  0.250000  0.033844  0.432971  1
  Co  Co14  1  0.750000  0.533844  0.067029  1
  Co  Co15  1  0.750000  0.966156  0.567029  1
  As  As16  1  0.250000  0.419080  0.114029  1
  As  As17  1  0.250000  0.080920  0.614029  1
  As  As18  1  0.750000  0.580920  0.885971  1
  As  As19  1  0.750000  0.919080  0.385971  1
  As  As20  1  0.250000  0.273371  0.866187  1
  As  As21  1  0.250000  0.226629  0.366187  1
  As  As22  1  0.750000  0.726629  0.133813  1
  As  As23  1  0.750000  0.773371  0.633813  1
  As  As24  1  0.250000  0.600335  0.384729  1
  As  As25  1  0.250000  0.899665  0.884729  1
  As  As26  1  0.750000  0.399665  0.615271  1
  As  As27  1  0.750000  0.100335  0.115271  1
  Ru  Ru28  1  0.250000  0.706086  0.985517  1
  Ru  Ru29  1  0.250000  0.793914  0.485517  1
  Ru  Ru30  1  0.750000  0.293914  0.014483  1
  Ru  Ru31  1  0.750000  0.206086  0.514483  1
  Ru  Ru32  1  0.250000  0.403675  0.486466  1
  Ru  Ru33  1  0.250000  0.096325  0.986466  1
  Ru  Ru34  1  0.750000  0.596325  0.513534  1
  Ru  Ru35  1  0.750000  0.903675  0.013534  1
