# generated using pymatgen
data_Tb11Dy9Si15Os
_symmetry_space_group_name_H-M   'P 1'
_cell_length_a   7.40545324
_cell_length_b   7.76334240
_cell_length_c   14.62590741
_cell_angle_alpha   90.00674087
_cell_angle_beta   90.04980963
_cell_angle_gamma   90.06244997
_symmetry_Int_Tables_number   1
_chemical_formula_structural   Tb11Dy9Si15Os
_chemical_formula_sum   'Tb11 Dy9 Si15 Os1'
_cell_volume   840.85823059
_cell_formula_units_Z   1
loop_
 _symmetry_equiv_pos_site_id
 _symmetry_equiv_pos_as_xyz
  1  'x, y, z'
loop_
 _atom_site_type_symbol
 _atom_site_label
 _atom_site_symmetry_multiplicity
 _atom_site_fract_x
 _atom_site_fract_y
 _atom_site_fract_z
 _atom_site_occupancy
  Tb  Tb0  1  0.817502  0.679377  0.122926  1
  Tb  Tb1  1  0.671949  0.185258  0.874851  1
  Tb  Tb2  1  0.191137  0.323617  0.626407  1
  Tb  Tb3  1  0.522583  0.674082  0.597049  1
  Tb  Tb4  1  0.026984  0.816210  0.903400  1
  Tb  Tb5  1  0.472997  0.315280  0.097350  1
  Tb  Tb6  1  0.973308  0.183473  0.402806  1
  Tb  Tb7  1  0.473380  0.315173  0.402712  1
  Tb  Tb8  1  0.973349  0.183588  0.097224  1
  Tb  Tb9  1  0.522095  0.673986  0.902819  1
  Tb  Tb10  1  0.026833  0.816040  0.596583  1
  Dy  Dy11  1  0.672150  0.185010  0.625113  1
  Dy  Dy12  1  0.191193  0.323930  0.873669  1
  Dy  Dy13  1  0.318687  0.819412  0.123465  1
  Dy  Dy14  1  0.817633  0.679262  0.377088  1
  Dy  Dy15  1  0.318649  0.819473  0.376515  1
  Dy  Dy16  1  0.840137  0.512143  0.749983  1
  Dy  Dy17  1  0.354766  0.986375  0.750037  1
  Dy  Dy18  1  0.150333  0.484531  0.249994  1
  Dy  Dy19  1  0.649951  0.014518  0.250017  1
  Si  Si20  1  0.645495  0.971510  0.460127  1
  Si  Si21  1  0.148587  0.528330  0.039415  1
  Si  Si22  1  0.349548  0.025170  0.961044  1
  Si  Si23  1  0.856374  0.471568  0.538970  1
  Si  Si24  1  0.350379  0.024917  0.539024  1
  Si  Si25  1  0.857505  0.471248  0.960661  1
  Si  Si26  1  0.644872  0.971583  0.040008  1
  Si  Si27  1  0.147984  0.528816  0.460306  1
  Si  Si28  1  0.978732  0.100411  0.749875  1
  Si  Si29  1  0.524146  0.603163  0.250228  1
  Si  Si30  1  0.021821  0.895294  0.250205  1
  Si  Si31  1  0.741488  0.876254  0.749849  1
  Si  Si32  1  0.231953  0.632843  0.750234  1
  Si  Si33  1  0.266624  0.126764  0.250017  1
  Si  Si34  1  0.767920  0.373755  0.250152  1
  Os  Os35  1  0.480954  0.407635  0.749878  1
