# generated using pymatgen
data_RbB4Ir3
_symmetry_space_group_name_H-M   'P 1'
_cell_length_a   7.69934128
_cell_length_b   7.69934201
_cell_length_c   8.35553800
_cell_angle_alpha   90.00000000
_cell_angle_beta   90.00000000
_cell_angle_gamma   96.94843910
_symmetry_Int_Tables_number   1
_chemical_formula_structural   RbB4Ir3
_chemical_formula_sum   'Rb4 B16 Ir12'
_cell_volume   491.67725653
_cell_formula_units_Z   4
loop_
 _symmetry_equiv_pos_site_id
 _symmetry_equiv_pos_as_xyz
  1  'x, y, z'
loop_
 _atom_site_type_symbol
 _atom_site_label
 _atom_site_symmetry_multiplicity
 _atom_site_fract_x
 _atom_site_fract_y
 _atom_site_fract_z
 _atom_site_occupancy
  Rb  Rb0  1  0.997322  0.002678  0.500000  1
  Rb  Rb1  1  0.497322  0.502678  0.500000  1
  Rb  Rb2  1  0.220443  0.279557  0.772769  1
  Rb  Rb3  1  0.720443  0.779557  0.227231  1
  B  B4  1  0.156723  0.162920  0.178955  1
  B  B5  1  0.837080  0.843277  0.821045  1
  B  B6  1  0.656723  0.662920  0.821045  1
  B  B7  1  0.337080  0.343277  0.178955  1
  B  B8  1  0.907090  0.414812  0.499472  1
  B  B9  1  0.585188  0.092910  0.500528  1
  B  B10  1  0.085188  0.592910  0.499472  1
  B  B11  1  0.407090  0.914812  0.500528  1
  B  B12  1  0.212944  0.948242  0.160923  1
  B  B13  1  0.051758  0.787056  0.839077  1
  B  B14  1  0.441985  0.718808  0.838789  1
  B  B15  1  0.281192  0.558015  0.161211  1
  B  B16  1  0.781192  0.058015  0.838789  1
  B  B17  1  0.941985  0.218808  0.161211  1
  B  B18  1  0.551758  0.287056  0.160923  1
  B  B19  1  0.712944  0.448242  0.839077  1
  Ir  Ir20  1  0.102389  0.397611  0.305201  1
  Ir  Ir21  1  0.602389  0.897611  0.694799  1
  Ir  Ir22  1  0.890910  0.609090  0.694289  1
  Ir  Ir23  1  0.390910  0.109090  0.305711  1
  Ir  Ir24  1  0.747291  0.252709  0.000000  1
  Ir  Ir25  1  0.247291  0.752709  0.000000  1
  Ir  Ir26  1  0.997652  0.002348  0.000000  1
  Ir  Ir27  1  0.497652  0.502348  0.000000  1
  Ir  Ir28  1  0.746342  0.253309  0.666199  1
  Ir  Ir29  1  0.746691  0.253658  0.333801  1
  Ir  Ir30  1  0.246342  0.753309  0.333801  1
  Ir  Ir31  1  0.246691  0.753658  0.666199  1
