# generated using pymatgen
data_Y3Zn3Hg2Pt
_symmetry_space_group_name_H-M   'P 1'
_cell_length_a   7.74488600
_cell_length_b   7.74488734
_cell_length_c   3.76957100
_cell_angle_alpha   90.00000000
_cell_angle_beta   90.00000000
_cell_angle_gamma   120.00000280
_symmetry_Int_Tables_number   1
_chemical_formula_structural   Y3Zn3Hg2Pt
_chemical_formula_sum   'Y3 Zn3 Hg2 Pt1'
_cell_volume   195.81803206
_cell_formula_units_Z   1
loop_
 _symmetry_equiv_pos_site_id
 _symmetry_equiv_pos_as_xyz
  1  'x, y, z'
loop_
 _atom_site_type_symbol
 _atom_site_label
 _atom_site_symmetry_multiplicity
 _atom_site_fract_x
 _atom_site_fract_y
 _atom_site_fract_z
 _atom_site_occupancy
  Y  Y0  1  0.582768  0.603337  0.000000  1
  Y  Y1  1  0.396663  0.979432  0.000000  1
  Y  Y2  1  0.020568  0.417232  0.000000  1
  Zn  Zn3  1  0.271637  0.278398  0.500000  1
  Zn  Zn4  1  0.721602  0.993240  0.500000  1
  Zn  Zn5  1  0.006760  0.728363  0.500000  1
  Hg  Hg6  1  0.000000  0.000000  0.000000  1
  Hg  Hg7  1  0.666667  0.333333  0.500000  1
  Pt  Pt8  1  0.333333  0.666667  0.500000  1
