# generated using pymatgen
data_PaGa5Pt
_symmetry_space_group_name_H-M   'P 1'
_cell_length_a   4.39419500
_cell_length_b   4.39419500
_cell_length_c   6.87982000
_cell_angle_alpha   90.00000000
_cell_angle_beta   90.00000000
_cell_angle_gamma   90.00000000
_symmetry_Int_Tables_number   1
_chemical_formula_structural   PaGa5Pt
_chemical_formula_sum   'Pa1 Ga5 Pt1'
_cell_volume   132.84209831
_cell_formula_units_Z   1
loop_
 _symmetry_equiv_pos_site_id
 _symmetry_equiv_pos_as_xyz
  1  'x, y, z'
loop_
 _atom_site_type_symbol
 _atom_site_label
 _atom_site_symmetry_multiplicity
 _atom_site_fract_x
 _atom_site_fract_y
 _atom_site_fract_z
 _atom_site_occupancy
  Pa  Pa0  1  0.000000  0.000000  0.000000  1
  Ga  Ga1  1  0.499999  0.499999  0.000000  1
  Ga  Ga2  1  0.499999  0.000000  0.295596  1
  Ga  Ga3  1  0.000000  0.499999  0.295596  1
  Ga  Ga4  1  0.499999  0.000000  0.704404  1
  Ga  Ga5  1  0.000000  0.499999  0.704404  1
  Pt  Pt6  1  0.000000  0.000000  0.500000  1
