# generated using pymatgen
data_Sb2Se4O13
_symmetry_space_group_name_H-M   'P 1'
_cell_length_a   6.96530600
_cell_length_b   7.41558984
_cell_length_c   11.53134102
_cell_angle_alpha   71.88373038
_cell_angle_beta   90.00000000
_cell_angle_gamma   90.00000000
_symmetry_Int_Tables_number   1
_chemical_formula_structural   Sb2Se4O13
_chemical_formula_sum   'Sb4 Se8 O26'
_cell_volume   566.08897869
_cell_formula_units_Z   2
loop_
 _symmetry_equiv_pos_site_id
 _symmetry_equiv_pos_as_xyz
  1  'x, y, z'
loop_
 _atom_site_type_symbol
 _atom_site_label
 _atom_site_symmetry_multiplicity
 _atom_site_fract_x
 _atom_site_fract_y
 _atom_site_fract_z
 _atom_site_occupancy
  Sb  Sb0  1  0.498498  0.919295  0.397087  1
  Sb  Sb1  1  0.501502  0.419295  0.397087  1
  Sb  Sb2  1  0.001793  0.850059  0.048223  1
  Sb  Sb3  1  0.998207  0.350059  0.048223  1
  Se  Se4  1  0.512833  0.898473  0.707140  1
  Se  Se5  1  0.487167  0.398473  0.707140  1
  Se  Se6  1  0.070497  0.051702  0.729262  1
  Se  Se7  1  0.929503  0.551702  0.729262  1
  Se  Se8  1  0.066307  0.675495  0.383268  1
  Se  Se9  1  0.933693  0.175495  0.383268  1
  Se  Se10  1  0.566109  0.593966  0.061431  1
  Se  Se11  1  0.433891  0.093966  0.061431  1
  O  O12  1  0.087621  0.508482  0.634136  1
  O  O13  1  0.912379  0.008482  0.634136  1
  O  O14  1  0.576270  0.698916  0.812586  1
  O  O15  1  0.423730  0.198916  0.812586  1
  O  O16  1  0.248724  0.869043  0.722880  1
  O  O17  1  0.751276  0.369043  0.722880  1
  O  O18  1  0.592293  0.668404  0.397897  1
  O  O19  1  0.407707  0.168404  0.397897  1
  O  O20  1  0.530655  0.809867  0.578759  1
  O  O21  1  0.469345  0.309867  0.578759  1
  O  O22  1  0.213929  0.853678  0.406065  1
  O  O23  1  0.786071  0.353678  0.406065  1
  O  O24  1  0.998147  0.272536  0.233106  1
  O  O25  1  0.001853  0.772536  0.233106  1
  O  O26  1  0.282850  0.281358  0.060809  1
  O  O27  1  0.717150  0.781358  0.060809  1
  O  O28  1  0.286445  0.915268  0.037914  1
  O  O29  1  0.713555  0.415268  0.037914  1
  O  O30  1  0.040339  0.414498  0.867523  1
  O  O31  1  0.959661  0.914498  0.867523  1
  O  O32  1  0.908431  0.097599  0.052316  1
  O  O33  1  0.091569  0.597599  0.052316  1
  O  O34  1  0.491536  0.995112  0.212848  1
  O  O35  1  0.508464  0.495112  0.212848  1
  O  O36  1  0.218254  0.489946  0.380747  1
  O  O37  1  0.781746  0.989946  0.380747  1
