# generated using pymatgen
data_Tb8HfTa5(Si8W3)2
_symmetry_space_group_name_H-M   'P 1'
_cell_length_a   6.97789635
_cell_length_b   6.98006952
_cell_length_c   12.96576820
_cell_angle_alpha   90.03966336
_cell_angle_beta   90.02325916
_cell_angle_gamma   90.07445929
_symmetry_Int_Tables_number   1
_chemical_formula_structural   Tb8HfTa5(Si8W3)2
_chemical_formula_sum   'Tb8 Hf1 Ta5 Si16 W6'
_cell_volume   631.51258398
_cell_formula_units_Z   1
loop_
 _symmetry_equiv_pos_site_id
 _symmetry_equiv_pos_as_xyz
  1  'x, y, z'
loop_
 _atom_site_type_symbol
 _atom_site_label
 _atom_site_symmetry_multiplicity
 _atom_site_fract_x
 _atom_site_fract_y
 _atom_site_fract_z
 _atom_site_occupancy
  Tb  Tb0  1  0.000111  0.337685  0.218582  1
  Tb  Tb1  1  0.001074  0.662940  0.718066  1
  Tb  Tb2  1  0.162746  0.500390  0.468268  1
  Tb  Tb3  1  0.499727  0.836826  0.032064  1
  Tb  Tb4  1  0.837422  0.501511  0.969605  1
  Tb  Tb5  1  0.498803  0.162969  0.530670  1
  Tb  Tb6  1  0.336468  0.998996  0.781741  1
  Tb  Tb7  1  0.663106  0.000028  0.281382  1
  Hf  Hf8  1  0.666276  0.332650  0.749187  1
  Ta  Ta9  1  0.168951  0.168143  0.001310  1
  Ta  Ta10  1  0.831991  0.830991  0.499091  1
  Ta  Ta11  1  0.333596  0.667271  0.249476  1
  Ta  Ta12  1  0.160008  0.994389  0.375919  1
  Ta  Ta13  1  0.841151  0.004710  0.876919  1
  Si  Si14  1  0.375799  0.299069  0.316960  1
  Si  Si15  1  0.624749  0.703721  0.817016  1
  Si  Si16  1  0.203722  0.874856  0.568777  1
  Si  Si17  1  0.128643  0.793824  0.932265  1
  Si  Si18  1  0.795498  0.124819  0.068600  1
  Si  Si19  1  0.872210  0.206611  0.432469  1
  Si  Si20  1  0.293193  0.373487  0.682293  1
  Si  Si21  1  0.703838  0.625597  0.182431  1
  Si  Si22  1  0.292412  0.040116  0.186643  1
  Si  Si23  1  0.707410  0.956338  0.685676  1
  Si  Si24  1  0.461585  0.790429  0.437102  1
  Si  Si25  1  0.208502  0.539515  0.063507  1
  Si  Si26  1  0.537396  0.209034  0.938686  1
  Si  Si27  1  0.792282  0.462204  0.561835  1
  Si  Si28  1  0.043347  0.293658  0.813522  1
  Si  Si29  1  0.959477  0.706432  0.312355  1
  W  W30  1  0.506031  0.660039  0.624221  1
  W  W31  1  0.336897  0.493006  0.875350  1
  W  W32  1  0.492350  0.339865  0.125984  1
  W  W33  1  0.663158  0.508267  0.373752  1
  W  W34  1  0.991947  0.161743  0.623808  1
  W  W35  1  0.008129  0.837867  0.124466  1
