# generated using pymatgen
data_DyLu3(SiRh2)8
_symmetry_space_group_name_H-M   'P 1'
_cell_length_a   4.11884600
_cell_length_b   9.07087566
_cell_length_c   11.22770726
_cell_angle_alpha   90.16829886
_cell_angle_beta   90.00000000
_cell_angle_gamma   90.00000000
_symmetry_Int_Tables_number   1
_chemical_formula_structural   DyLu3(SiRh2)8
_chemical_formula_sum   'Dy1 Lu3 Si8 Rh16'
_cell_volume   419.48262352
_cell_formula_units_Z   1
loop_
 _symmetry_equiv_pos_site_id
 _symmetry_equiv_pos_as_xyz
  1  'x, y, z'
loop_
 _atom_site_type_symbol
 _atom_site_label
 _atom_site_symmetry_multiplicity
 _atom_site_fract_x
 _atom_site_fract_y
 _atom_site_fract_z
 _atom_site_occupancy
  Dy  Dy0  1  0.250000  0.147956  0.825325  1
  Lu  Lu1  1  0.250000  0.355225  0.324162  1
  Lu  Lu2  1  0.750000  0.853245  0.175733  1
  Lu  Lu3  1  0.750000  0.647251  0.674554  1
  Si  Si4  1  0.250000  0.413403  0.635501  1
  Si  Si5  1  0.250000  0.087629  0.138122  1
  Si  Si6  1  0.750000  0.588988  0.362125  1
  Si  Si7  1  0.750000  0.910378  0.863773  1
  Si  Si8  1  0.250000  0.615640  0.058546  1
  Si  Si9  1  0.250000  0.883459  0.559490  1
  Si  Si10  1  0.750000  0.381203  0.941041  1
  Si  Si11  1  0.750000  0.115894  0.441754  1
  Rh  Rh12  1  0.250000  0.616606  0.501602  1
  Rh  Rh13  1  0.250000  0.882027  0.003438  1
  Rh  Rh14  1  0.750000  0.384001  0.494620  1
  Rh  Rh15  1  0.750000  0.112129  0.002613  1
  Rh  Rh16  1  0.250000  0.687517  0.267726  1
  Rh  Rh17  1  0.250000  0.811710  0.768686  1
  Rh  Rh18  1  0.750000  0.318764  0.728530  1
  Rh  Rh19  1  0.750000  0.189448  0.233920  1
  Rh  Rh20  1  0.250000  0.173010  0.558092  1
  Rh  Rh21  1  0.250000  0.326850  0.060430  1
  Rh  Rh22  1  0.750000  0.828080  0.440009  1
  Rh  Rh23  1  0.750000  0.671317  0.940723  1
  Rh  Rh24  1  0.250000  0.006631  0.342837  1
  Rh  Rh25  1  0.250000  0.493033  0.843912  1
  Rh  Rh26  1  0.750000  0.991901  0.656367  1
  Rh  Rh27  1  0.750000  0.506707  0.156372  1
