# generated using pymatgen
data_Tb2YCoSn3Rh2
_symmetry_space_group_name_H-M   'P 1'
_cell_length_a   7.50751375
_cell_length_b   7.50751298
_cell_length_c   3.87154900
_cell_angle_alpha   90.00000000
_cell_angle_beta   90.00000000
_cell_angle_gamma   120.15362218
_symmetry_Int_Tables_number   1
_chemical_formula_structural   Tb2YCoSn3Rh2
_chemical_formula_sum   'Tb2 Y1 Co1 Sn3 Rh2'
_cell_volume   188.68320682
_cell_formula_units_Z   1
loop_
 _symmetry_equiv_pos_site_id
 _symmetry_equiv_pos_as_xyz
  1  'x, y, z'
loop_
 _atom_site_type_symbol
 _atom_site_label
 _atom_site_symmetry_multiplicity
 _atom_site_fract_x
 _atom_site_fract_y
 _atom_site_fract_z
 _atom_site_occupancy
  Tb  Tb0  1  0.405562  0.000013  0.500000  1
  Tb  Tb1  1  0.000013  0.405562  0.500000  1
  Y  Y2  1  0.595235  0.595235  0.500000  1
  Co  Co3  1  0.000365  0.000365  0.500000  1
  Sn  Sn4  1  0.749344  0.999541  0.000000  1
  Sn  Sn5  1  0.999541  0.749344  0.000000  1
  Sn  Sn6  1  0.251089  0.251089  0.000000  1
  Rh  Rh7  1  0.332234  0.666619  0.000000  1
  Rh  Rh8  1  0.666619  0.332234  0.000000  1
