# generated using pymatgen
data_ErTm5MoO12
_symmetry_space_group_name_H-M   'P 1'
_cell_length_a   6.38634978
_cell_length_b   6.39528162
_cell_length_c   6.38762192
_cell_angle_alpha   98.66356362
_cell_angle_beta   98.70800069
_cell_angle_gamma   98.76687100
_symmetry_Int_Tables_number   1
_chemical_formula_structural   ErTm5MoO12
_chemical_formula_sum   'Er1 Tm5 Mo1 O12'
_cell_volume   250.80492697
_cell_formula_units_Z   1
loop_
 _symmetry_equiv_pos_site_id
 _symmetry_equiv_pos_as_xyz
  1  'x, y, z'
loop_
 _atom_site_type_symbol
 _atom_site_label
 _atom_site_symmetry_multiplicity
 _atom_site_fract_x
 _atom_site_fract_y
 _atom_site_fract_z
 _atom_site_occupancy
  Er  Er0  1  0.682832  0.856482  0.388048  1
  Tm  Tm1  1  0.388357  0.680888  0.855542  1
  Tm  Tm2  1  0.855924  0.388776  0.682138  1
  Tm  Tm3  1  0.317842  0.144084  0.611885  1
  Tm  Tm4  1  0.611306  0.318473  0.144217  1
  Tm  Tm5  1  0.144421  0.610883  0.318684  1
  Mo  Mo6  1  0.000523  0.000362  0.000178  1
  O  O7  1  0.429146  0.588896  0.176962  1
  O  O8  1  0.177647  0.429627  0.590171  1
  O  O9  1  0.589017  0.178611  0.430342  1
  O  O10  1  0.570135  0.409898  0.822834  1
  O  O11  1  0.822981  0.568935  0.410061  1
  O  O12  1  0.408744  0.822668  0.570413  1
  O  O13  1  0.921713  0.037650  0.700398  1
  O  O14  1  0.963940  0.299396  0.080197  1
  O  O15  1  0.299998  0.080473  0.964533  1
  O  O16  1  0.079575  0.963653  0.299582  1
  O  O17  1  0.035987  0.700680  0.919465  1
  O  O18  1  0.699911  0.919563  0.034349  1
