# generated using pymatgen
data_TbEr9(PuCo5)2
_symmetry_space_group_name_H-M   'P 1'
_cell_length_a   5.55494276
_cell_length_b   5.55494250
_cell_length_c   20.90365200
_cell_angle_alpha   90.06667216
_cell_angle_beta   89.93331753
_cell_angle_gamma   136.70666232
_symmetry_Int_Tables_number   1
_chemical_formula_structural   TbEr9(PuCo5)2
_chemical_formula_sum   'Tb1 Er9 Pu2 Co10'
_cell_volume   442.31991221
_cell_formula_units_Z   1
loop_
 _symmetry_equiv_pos_site_id
 _symmetry_equiv_pos_as_xyz
  1  'x, y, z'
loop_
 _atom_site_type_symbol
 _atom_site_label
 _atom_site_symmetry_multiplicity
 _atom_site_fract_x
 _atom_site_fract_y
 _atom_site_fract_z
 _atom_site_occupancy
  Tb  Tb0  1  0.287159  0.712841  0.427640  1
  Er  Er1  1  0.287608  0.712392  0.249306  1
  Er  Er2  1  0.286365  0.713635  0.072684  1
  Er  Er3  1  0.995871  0.004129  0.837632  1
  Er  Er4  1  0.712344  0.287656  0.750229  1
  Er  Er5  1  0.713792  0.286208  0.573558  1
  Er  Er6  1  0.004340  0.995660  0.337121  1
  Er  Er7  1  0.996069  0.003931  0.662728  1
  Er  Er8  1  0.713657  0.286343  0.927053  1
  Er  Er9  1  0.003867  0.996133  0.162107  1
  Pu  Pu10  1  0.000744  0.999256  0.500496  1
  Pu  Pu11  1  0.999888  0.000112  0.999826  1
  Co  Co12  1  0.295583  0.704417  0.655675  1
  Co  Co13  1  0.581815  0.418185  0.441834  1
  Co  Co14  1  0.407616  0.592384  0.750232  1
  Co  Co15  1  0.418073  0.581927  0.941484  1
  Co  Co16  1  0.591295  0.408705  0.249321  1
  Co  Co17  1  0.419529  0.580471  0.559540  1
  Co  Co18  1  0.702601  0.297399  0.343548  1
  Co  Co19  1  0.704408  0.295592  0.154941  1
  Co  Co20  1  0.581852  0.418148  0.058288  1
  Co  Co21  1  0.295525  0.704475  0.844756  1
