# generated using pymatgen
data_Y2Tm3Ru2
_symmetry_space_group_name_H-M   'P 1'
_cell_length_a   6.28938675
_cell_length_b   7.26763776
_cell_length_c   8.42097027
_cell_angle_alpha   97.03789675
_cell_angle_beta   111.92768544
_cell_angle_gamma   90.00000403
_symmetry_Int_Tables_number   1
_chemical_formula_structural   Y2Tm3Ru2
_chemical_formula_sum   'Y4 Tm6 Ru4'
_cell_volume   353.93944766
_cell_formula_units_Z   2
loop_
 _symmetry_equiv_pos_site_id
 _symmetry_equiv_pos_as_xyz
  1  'x, y, z'
loop_
 _atom_site_type_symbol
 _atom_site_label
 _atom_site_symmetry_multiplicity
 _atom_site_fract_x
 _atom_site_fract_y
 _atom_site_fract_z
 _atom_site_occupancy
  Y  Y0  1  0.788355  0.082681  0.810645  1
  Y  Y1  1  0.977710  0.417319  0.189355  1
  Y  Y2  1  0.211645  0.917319  0.189355  1
  Y  Y3  1  0.022290  0.582681  0.810645  1
  Tm  Tm4  1  0.203557  0.184116  0.565942  1
  Tm  Tm5  1  0.637615  0.315884  0.434058  1
  Tm  Tm6  1  0.796443  0.815884  0.434058  1
  Tm  Tm7  1  0.362385  0.684116  0.565942  1
  Tm  Tm8  1  0.421300  0.250000  0.000000  1
  Tm  Tm9  1  0.578700  0.750000  0.000000  1
  Ru  Ru10  1  0.594526  0.424702  0.777300  1
  Ru  Ru11  1  0.817225  0.075298  0.222700  1
  Ru  Ru12  1  0.405474  0.575298  0.222700  1
  Ru  Ru13  1  0.182775  0.924702  0.777300  1
