# generated using pymatgen
data_Nd4Y(SiHg)2
_symmetry_space_group_name_H-M   'P 1'
_cell_length_a   9.13489929
_cell_length_b   9.13489994
_cell_length_c   7.71747000
_cell_angle_alpha   90.00000000
_cell_angle_beta   90.00000000
_cell_angle_gamma   130.09870711
_symmetry_Int_Tables_number   1
_chemical_formula_structural   Nd4Y(SiHg)2
_chemical_formula_sum   'Nd8 Y2 Si4 Hg4'
_cell_volume   492.61493202
_cell_formula_units_Z   2
loop_
 _symmetry_equiv_pos_site_id
 _symmetry_equiv_pos_as_xyz
  1  'x, y, z'
loop_
 _atom_site_type_symbol
 _atom_site_label
 _atom_site_symmetry_multiplicity
 _atom_site_fract_x
 _atom_site_fract_y
 _atom_site_fract_z
 _atom_site_occupancy
  Nd  Nd0  1  0.057001  0.312027  0.322206  1
  Nd  Nd1  1  0.942999  0.687973  0.677794  1
  Nd  Nd2  1  0.442999  0.187973  0.822206  1
  Nd  Nd3  1  0.812027  0.557001  0.177794  1
  Nd  Nd4  1  0.557001  0.812027  0.177794  1
  Nd  Nd5  1  0.187973  0.442999  0.822206  1
  Nd  Nd6  1  0.687973  0.942999  0.677794  1
  Nd  Nd7  1  0.312027  0.057001  0.322206  1
  Y  Y8  1  0.000000  0.000000  0.000000  1
  Y  Y9  1  0.500000  0.500000  0.500000  1
  Si  Si10  1  0.384749  0.384749  0.117862  1
  Si  Si11  1  0.615251  0.615251  0.882138  1
  Si  Si12  1  0.115251  0.115251  0.617862  1
  Si  Si13  1  0.884749  0.884749  0.382138  1
  Hg  Hg14  1  0.781102  0.218898  0.000000  1
  Hg  Hg15  1  0.218898  0.781102  0.000000  1
  Hg  Hg16  1  0.718898  0.281102  0.500000  1
  Hg  Hg17  1  0.281102  0.718898  0.500000  1
