# generated using pymatgen
data_TiNb3(VSi)4
_symmetry_space_group_name_H-M   'P 1'
_cell_length_a   3.37459600
_cell_length_b   6.60023344
_cell_length_c   7.96373568
_cell_angle_alpha   90.11890757
_cell_angle_beta   90.00000000
_cell_angle_gamma   90.00000000
_symmetry_Int_Tables_number   1
_chemical_formula_structural   TiNb3(VSi)4
_chemical_formula_sum   'Ti1 Nb3 V4 Si4'
_cell_volume   177.37686935
_cell_formula_units_Z   1
loop_
 _symmetry_equiv_pos_site_id
 _symmetry_equiv_pos_as_xyz
  1  'x, y, z'
loop_
 _atom_site_type_symbol
 _atom_site_label
 _atom_site_symmetry_multiplicity
 _atom_site_fract_x
 _atom_site_fract_y
 _atom_site_fract_z
 _atom_site_occupancy
  Ti  Ti0  1  0.250000  0.046866  0.332582  1
  Nb  Nb1  1  0.250000  0.545509  0.167831  1
  Nb  Nb2  1  0.750000  0.452677  0.831834  1
  Nb  Nb3  1  0.750000  0.953473  0.667780  1
  V  V4  1  0.250000  0.628169  0.560223  1
  V  V5  1  0.750000  0.372778  0.437924  1
  V  V6  1  0.750000  0.871642  0.061530  1
  V  V7  1  0.250000  0.129645  0.939185  1
  Si  Si8  1  0.250000  0.753174  0.862304  1
  Si  Si9  1  0.750000  0.242858  0.141665  1
  Si  Si10  1  0.750000  0.751085  0.361422  1
  Si  Si11  1  0.250000  0.252125  0.635719  1
