# generated using pymatgen
data_Li3Pr4GaPt4
_symmetry_space_group_name_H-M   'P 1'
_cell_length_a   4.13215700
_cell_length_b   7.31438625
_cell_length_c   8.61826092
_cell_angle_alpha   91.14696761
_cell_angle_beta   90.00000000
_cell_angle_gamma   90.00000000
_symmetry_Int_Tables_number   1
_chemical_formula_structural   Li3Pr4GaPt4
_chemical_formula_sum   'Li3 Pr4 Ga1 Pt4'
_cell_volume   260.42778565
_cell_formula_units_Z   1
loop_
 _symmetry_equiv_pos_site_id
 _symmetry_equiv_pos_as_xyz
  1  'x, y, z'
loop_
 _atom_site_type_symbol
 _atom_site_label
 _atom_site_symmetry_multiplicity
 _atom_site_fract_x
 _atom_site_fract_y
 _atom_site_fract_z
 _atom_site_occupancy
  Li  Li0  1  0.250000  0.135273  0.061123  1
  Li  Li1  1  0.250000  0.630923  0.439315  1
  Li  Li2  1  0.750000  0.871035  0.939442  1
  Pr  Pr3  1  0.250000  0.040464  0.689205  1
  Pr  Pr4  1  0.250000  0.537656  0.807671  1
  Pr  Pr5  1  0.750000  0.960990  0.312603  1
  Pr  Pr6  1  0.750000  0.459185  0.186500  1
  Ga  Ga7  1  0.750000  0.364470  0.559955  1
  Pt  Pt8  1  0.250000  0.259266  0.396095  1
  Pt  Pt9  1  0.250000  0.753141  0.115613  1
  Pt  Pt10  1  0.750000  0.738580  0.610470  1
  Pt  Pt11  1  0.750000  0.249017  0.882008  1
