# generated using pymatgen
data_DyEr7Ga3Rh
_symmetry_space_group_name_H-M   'P 1'
_cell_length_a   9.98762500
_cell_length_b   9.98762577
_cell_length_c   6.98720100
_cell_angle_alpha   90.00000000
_cell_angle_beta   90.00000000
_cell_angle_gamma   120.00000738
_symmetry_Int_Tables_number   1
_chemical_formula_structural   DyEr7Ga3Rh
_chemical_formula_sum   'Dy2 Er14 Ga6 Rh2'
_cell_volume   603.61263960
_cell_formula_units_Z   2
loop_
 _symmetry_equiv_pos_site_id
 _symmetry_equiv_pos_as_xyz
  1  'x, y, z'
loop_
 _atom_site_type_symbol
 _atom_site_label
 _atom_site_symmetry_multiplicity
 _atom_site_fract_x
 _atom_site_fract_y
 _atom_site_fract_z
 _atom_site_occupancy
  Dy  Dy0  1  0.000000  0.000000  0.267614  1
  Dy  Dy1  1  0.000000  0.000000  0.767614  1
  Er  Er2  1  0.171344  0.828656  0.990050  1
  Er  Er3  1  0.828656  0.171344  0.490050  1
  Er  Er4  1  0.171344  0.342687  0.990050  1
  Er  Er5  1  0.657313  0.828656  0.990050  1
  Er  Er6  1  0.342687  0.171344  0.490050  1
  Er  Er7  1  0.828656  0.657313  0.490050  1
  Er  Er8  1  0.333333  0.666667  0.664345  1
  Er  Er9  1  0.666667  0.333333  0.164345  1
  Er  Er10  1  0.465466  0.534534  0.295506  1
  Er  Er11  1  0.534534  0.465466  0.795506  1
  Er  Er12  1  0.465466  0.930933  0.295506  1
  Er  Er13  1  0.069067  0.534534  0.295506  1
  Er  Er14  1  0.930933  0.465466  0.795506  1
  Er  Er15  1  0.534534  0.069067  0.795506  1
  Ga  Ga16  1  0.163869  0.836131  0.542965  1
  Ga  Ga17  1  0.836131  0.163869  0.042965  1
  Ga  Ga18  1  0.163869  0.327739  0.542965  1
  Ga  Ga19  1  0.672261  0.836131  0.542965  1
  Ga  Ga20  1  0.327739  0.163869  0.042965  1
  Ga  Ga21  1  0.836131  0.672261  0.042965  1
  Rh  Rh22  1  0.333333  0.666667  0.055538  1
  Rh  Rh23  1  0.666667  0.333333  0.555538  1
