# generated using pymatgen
data_LiHoMgPt3
_symmetry_space_group_name_H-M   'P 1'
_cell_length_a   5.07581531
_cell_length_b   5.07581481
_cell_length_c   5.07581531
_cell_angle_alpha   65.17619063
_cell_angle_beta   65.17618486
_cell_angle_gamma   65.17618125
_symmetry_Int_Tables_number   1
_chemical_formula_structural   LiHoMgPt3
_chemical_formula_sum   'Li1 Ho1 Mg1 Pt3'
_cell_volume   102.90625469
_cell_formula_units_Z   1
loop_
 _symmetry_equiv_pos_site_id
 _symmetry_equiv_pos_as_xyz
  1  'x, y, z'
loop_
 _atom_site_type_symbol
 _atom_site_label
 _atom_site_symmetry_multiplicity
 _atom_site_fract_x
 _atom_site_fract_y
 _atom_site_fract_z
 _atom_site_occupancy
  Li  Li0  1  0.627077  0.627077  0.627077  1
  Ho  Ho1  1  0.247228  0.247228  0.247228  1
  Mg  Mg2  1  0.995017  0.995017  0.995017  1
  Pt  Pt3  1  0.627655  0.627655  0.125371  1
  Pt  Pt4  1  0.627655  0.125371  0.627655  1
  Pt  Pt5  1  0.125371  0.627655  0.627655  1
