# generated using pymatgen
data_Pr3Ag5Pt
_symmetry_space_group_name_H-M   'P 1'
_cell_length_a   7.83838200
_cell_length_b   7.83838119
_cell_length_c   4.01653900
_cell_angle_alpha   90.00000000
_cell_angle_beta   90.00000000
_cell_angle_gamma   120.00000342
_symmetry_Int_Tables_number   1
_chemical_formula_structural   Pr3Ag5Pt
_chemical_formula_sum   'Pr3 Ag5 Pt1'
_cell_volume   213.71519911
_cell_formula_units_Z   1
loop_
 _symmetry_equiv_pos_site_id
 _symmetry_equiv_pos_as_xyz
  1  'x, y, z'
loop_
 _atom_site_type_symbol
 _atom_site_label
 _atom_site_symmetry_multiplicity
 _atom_site_fract_x
 _atom_site_fract_y
 _atom_site_fract_z
 _atom_site_occupancy
  Pr  Pr0  1  0.606285  0.019840  0.000000  1
  Pr  Pr1  1  0.980160  0.586445  0.000000  1
  Pr  Pr2  1  0.413555  0.393715  0.000000  1
  Ag  Ag3  1  0.255674  0.996806  0.500000  1
  Ag  Ag4  1  0.003194  0.258868  0.500000  1
  Ag  Ag5  1  0.741132  0.744326  0.500000  1
  Ag  Ag6  1  0.333333  0.666667  0.500000  1
  Ag  Ag7  1  0.000000  0.000000  0.000000  1
  Pt  Pt8  1  0.666667  0.333333  0.500000  1
