# generated using pymatgen
data_Rb2Mn2(SiO3)3
_symmetry_space_group_name_H-M   'P 1'
_cell_length_a   7.13400100
_cell_length_b   6.46995045
_cell_length_c   11.85335271
_cell_angle_alpha   60.25404642
_cell_angle_beta   90.00000000
_cell_angle_gamma   90.00000000
_symmetry_Int_Tables_number   1
_chemical_formula_structural   Rb2Mn2(SiO3)3
_chemical_formula_sum   'Rb4 Mn4 Si6 O18'
_cell_volume   475.02016368
_cell_formula_units_Z   2
loop_
 _symmetry_equiv_pos_site_id
 _symmetry_equiv_pos_as_xyz
  1  'x, y, z'
loop_
 _atom_site_type_symbol
 _atom_site_label
 _atom_site_symmetry_multiplicity
 _atom_site_fract_x
 _atom_site_fract_y
 _atom_site_fract_z
 _atom_site_occupancy
  Rb  Rb0  1  0.368983  0.441048  0.764808  1
  Rb  Rb1  1  0.631017  0.441048  0.264808  1
  Rb  Rb2  1  0.654078  0.819620  0.900326  1
  Rb  Rb3  1  0.345922  0.819620  0.400326  1
  Mn  Mn4  1  0.839013  0.875140  0.589282  1
  Mn  Mn5  1  0.160987  0.875140  0.089282  1
  Mn  Mn6  1  0.921608  0.344477  0.858108  1
  Mn  Mn7  1  0.078392  0.344477  0.358108  1
  Si  Si8  1  0.574636  0.116448  0.087197  1
  Si  Si9  1  0.425364  0.116448  0.587197  1
  Si  Si10  1  0.228842  0.420934  0.055870  1
  Si  Si11  1  0.771158  0.420934  0.555870  1
  Si  Si12  1  0.125835  0.876038  0.817206  1
  Si  Si13  1  0.874165  0.876038  0.317206  1
  O  O14  1  0.866746  0.492986  0.655043  1
  O  O15  1  0.133254  0.492986  0.155043  1
  O  O16  1  0.438937  0.303378  0.111350  1
  O  O17  1  0.561063  0.303378  0.611350  1
  O  O18  1  0.453641  0.881041  0.121032  1
  O  O19  1  0.546359  0.881041  0.621032  1
  O  O20  1  0.035680  0.003458  0.893262  1
  O  O21  1  0.964320  0.003458  0.393262  1
  O  O22  1  0.886444  0.251329  0.516284  1
  O  O23  1  0.113556  0.251329  0.016284  1
  O  O24  1  0.660695  0.251488  0.942226  1
  O  O25  1  0.339305  0.251488  0.442226  1
  O  O26  1  0.974413  0.738929  0.774812  1
  O  O27  1  0.025587  0.738929  0.274812  1
  O  O28  1  0.279365  0.673642  0.918891  1
  O  O29  1  0.720635  0.673642  0.418891  1
  O  O30  1  0.741856  0.063946  0.195742  1
  O  O31  1  0.258144  0.063946  0.695742  1
