# generated using pymatgen
data_LiLa7PaIr6
_symmetry_space_group_name_H-M   'P 1'
_cell_length_a   7.80423279
_cell_length_b   7.80423194
_cell_length_c   7.80423244
_cell_angle_alpha   67.83067929
_cell_angle_beta   67.83067556
_cell_angle_gamma   67.83066466
_symmetry_Int_Tables_number   1
_chemical_formula_structural   LiLa7PaIr6
_chemical_formula_sum   'Li1 La7 Pa1 Ir6'
_cell_volume   392.04708412
_cell_formula_units_Z   1
loop_
 _symmetry_equiv_pos_site_id
 _symmetry_equiv_pos_as_xyz
  1  'x, y, z'
loop_
 _atom_site_type_symbol
 _atom_site_label
 _atom_site_symmetry_multiplicity
 _atom_site_fract_x
 _atom_site_fract_y
 _atom_site_fract_z
 _atom_site_occupancy
  Li  Li0  1  0.996403  0.996403  0.996403  1
  La  La1  1  0.184891  0.184891  0.184891  1
  La  La2  1  0.135561  0.381732  0.685637  1
  La  La3  1  0.685637  0.135561  0.381732  1
  La  La4  1  0.381732  0.685637  0.135561  1
  La  La5  1  0.862261  0.615422  0.320828  1
  La  La6  1  0.320828  0.862261  0.615422  1
  La  La7  1  0.615422  0.320828  0.862261  1
  Pa  Pa8  1  0.820101  0.820101  0.820101  1
  Ir  Ir9  1  0.944980  0.163605  0.589417  1
  Ir  Ir10  1  0.589417  0.944980  0.163605  1
  Ir  Ir11  1  0.163605  0.589417  0.944980  1
  Ir  Ir12  1  0.038047  0.806263  0.454854  1
  Ir  Ir13  1  0.454854  0.038047  0.806263  1
  Ir  Ir14  1  0.806263  0.454854  0.038047  1
