# generated using pymatgen
data_Ba4TcSN4Cl
_symmetry_space_group_name_H-M   'P 1'
_cell_length_a   6.11455300
_cell_length_b   8.57006736
_cell_length_c   10.78041120
_cell_angle_alpha   81.30913748
_cell_angle_beta   90.00000000
_cell_angle_gamma   90.00000000
_symmetry_Int_Tables_number   1
_chemical_formula_structural   Ba4TcSN4Cl
_chemical_formula_sum   'Ba8 Tc2 S2 N8 Cl2'
_cell_volume   558.43014811
_cell_formula_units_Z   2
loop_
 _symmetry_equiv_pos_site_id
 _symmetry_equiv_pos_as_xyz
  1  'x, y, z'
loop_
 _atom_site_type_symbol
 _atom_site_label
 _atom_site_symmetry_multiplicity
 _atom_site_fract_x
 _atom_site_fract_y
 _atom_site_fract_z
 _atom_site_occupancy
  Ba  Ba0  1  0.750000  0.289752  0.273637  1
  Ba  Ba1  1  0.750000  0.997223  0.634355  1
  Ba  Ba2  1  0.750000  0.449816  0.629684  1
  Ba  Ba3  1  0.750000  0.801154  0.079002  1
  Ba  Ba4  1  0.250000  0.002777  0.365645  1
  Ba  Ba5  1  0.250000  0.550184  0.370316  1
  Ba  Ba6  1  0.250000  0.198846  0.920998  1
  Ba  Ba7  1  0.250000  0.710248  0.726363  1
  Tc  Tc8  1  0.750000  0.770649  0.398032  1
  Tc  Tc9  1  0.250000  0.229351  0.601968  1
  S  S10  1  0.250000  0.320882  0.172479  1
  S  S11  1  0.750000  0.679118  0.827521  1
  N  N12  1  0.250000  0.041417  0.706267  1
  N  N13  1  0.006607  0.244878  0.502038  1
  N  N14  1  0.506607  0.755122  0.497962  1
  N  N15  1  0.993393  0.755122  0.497962  1
  N  N16  1  0.750000  0.610410  0.302326  1
  N  N17  1  0.750000  0.958583  0.293733  1
  N  N18  1  0.493393  0.244878  0.502038  1
  N  N19  1  0.250000  0.389590  0.697674  1
  Cl  Cl20  1  0.250000  0.847096  0.100775  1
  Cl  Cl21  1  0.750000  0.152904  0.899225  1
