# generated using pymatgen
data_TbPr3NdSn3
_symmetry_space_group_name_H-M   'P 1'
_cell_length_a   9.29802200
_cell_length_b   9.29802091
_cell_length_c   6.82405200
_cell_angle_alpha   90.00000000
_cell_angle_beta   90.00000000
_cell_angle_gamma   120.00000387
_symmetry_Int_Tables_number   1
_chemical_formula_structural   TbPr3NdSn3
_chemical_formula_sum   'Tb2 Pr6 Nd2 Sn6'
_cell_volume   510.92132561
_cell_formula_units_Z   2
loop_
 _symmetry_equiv_pos_site_id
 _symmetry_equiv_pos_as_xyz
  1  'x, y, z'
loop_
 _atom_site_type_symbol
 _atom_site_label
 _atom_site_symmetry_multiplicity
 _atom_site_fract_x
 _atom_site_fract_y
 _atom_site_fract_z
 _atom_site_occupancy
  Tb  Tb0  1  0.333333  0.666667  0.500000  1
  Tb  Tb1  1  0.666667  0.333333  0.500000  1
  Pr  Pr2  1  0.757231  0.757231  0.748878  1
  Pr  Pr3  1  0.242769  0.000000  0.748878  1
  Pr  Pr4  1  0.000000  0.242769  0.748878  1
  Pr  Pr5  1  0.242769  0.242769  0.251122  1
  Pr  Pr6  1  0.757231  0.000000  0.251122  1
  Pr  Pr7  1  0.000000  0.757231  0.251122  1
  Nd  Nd8  1  0.666667  0.333333  0.000000  1
  Nd  Nd9  1  0.333333  0.666667  0.000000  1
  Sn  Sn10  1  0.396738  0.396738  0.745361  1
  Sn  Sn11  1  0.603262  0.000000  0.745361  1
  Sn  Sn12  1  0.000000  0.603262  0.745361  1
  Sn  Sn13  1  0.603262  0.603262  0.254639  1
  Sn  Sn14  1  0.396738  0.000000  0.254639  1
  Sn  Sn15  1  0.000000  0.396738  0.254639  1
