# generated using pymatgen
data_Ti8Re3
_symmetry_space_group_name_H-M   'P 1'
_cell_length_a   5.29616097
_cell_length_b   5.29616096
_cell_length_c   11.56164919
_cell_angle_alpha   105.06719350
_cell_angle_beta   105.06719428
_cell_angle_gamma   34.80306677
_symmetry_Int_Tables_number   1
_chemical_formula_structural   Ti8Re3
_chemical_formula_sum   'Ti8 Re3'
_cell_volume   178.09406315
_cell_formula_units_Z   1
loop_
 _symmetry_equiv_pos_site_id
 _symmetry_equiv_pos_as_xyz
  1  'x, y, z'
loop_
 _atom_site_type_symbol
 _atom_site_label
 _atom_site_symmetry_multiplicity
 _atom_site_fract_x
 _atom_site_fract_y
 _atom_site_fract_z
 _atom_site_occupancy
  Ti  Ti0  1  0.707046  0.707046  0.084176  1
  Ti  Ti1  1  0.456325  0.456325  0.181925  1
  Ti  Ti2  1  0.204304  0.204304  0.282633  1
  Ti  Ti3  1  0.624217  0.624217  0.456695  1
  Ti  Ti4  1  0.375784  0.375784  0.543304  1
  Ti  Ti5  1  0.795696  0.795696  0.717367  1
  Ti  Ti6  1  0.543675  0.543675  0.818075  1
  Ti  Ti7  1  0.292955  0.292955  0.915825  1
  Re  Re8  1  0.000000  0.000000  0.000000  1
  Re  Re9  1  0.913793  0.913793  0.360588  1
  Re  Re10  1  0.086207  0.086207  0.639413  1
