# generated using pymatgen
data_Ca9Ac(TaN5)2
_symmetry_space_group_name_H-M   'P 1'
_cell_length_a   7.01137007
_cell_length_b   7.01624593
_cell_length_c   8.97957128
_cell_angle_alpha   81.04807640
_cell_angle_beta   80.52067379
_cell_angle_gamma   59.97784083
_symmetry_Int_Tables_number   1
_chemical_formula_structural   Ca9Ac(TaN5)2
_chemical_formula_sum   'Ca9 Ac1 Ta2 N10'
_cell_volume   375.85849628
_cell_formula_units_Z   1
loop_
 _symmetry_equiv_pos_site_id
 _symmetry_equiv_pos_as_xyz
  1  'x, y, z'
loop_
 _atom_site_type_symbol
 _atom_site_label
 _atom_site_symmetry_multiplicity
 _atom_site_fract_x
 _atom_site_fract_y
 _atom_site_fract_z
 _atom_site_occupancy
  Ca  Ca0  1  0.872136  0.872890  0.825360  1
  Ca  Ca1  1  0.740103  0.745399  0.518799  1
  Ca  Ca2  1  0.754154  0.248861  0.500143  1
  Ca  Ca3  1  0.624378  0.127716  0.157290  1
  Ca  Ca4  1  0.360543  0.875461  0.836505  1
  Ca  Ca5  1  0.249871  0.754840  0.507200  1
  Ca  Ca6  1  0.244072  0.241568  0.489449  1
  Ca  Ca7  1  0.150083  0.129841  0.169922  1
  Ca  Ca8  1  0.140299  0.621660  0.153758  1
  Ac  Ac9  1  0.875681  0.353231  0.845580  1
  Ta  Ta10  1  0.630201  0.632112  0.223541  1
  Ta  Ta11  1  0.372066  0.369339  0.770262  1
  N  N12  1  0.914125  0.466143  0.318832  1
  N  N13  1  0.997702  0.993581  0.021490  1
  N  N14  1  0.668246  0.701360  0.004783  1
  N  N15  1  0.532875  0.538480  0.691953  1
  N  N16  1  0.466499  0.911286  0.327454  1
  N  N17  1  0.538447  0.088043  0.673956  1
  N  N18  1  0.468076  0.465558  0.296518  1
  N  N19  1  0.317357  0.317417  0.989657  1
  N  N20  1  0.055000  0.069537  0.648439  1
  N  N21  1  0.090372  0.537961  0.674914  1
