# generated using pymatgen
data_Tb8CoCu2Si12Pd
_symmetry_space_group_name_H-M   'P 1'
_cell_length_a   8.04633800
_cell_length_b   8.04633753
_cell_length_c   8.15440800
_cell_angle_alpha   90.00000000
_cell_angle_beta   90.00000000
_cell_angle_gamma   120.00001014
_symmetry_Int_Tables_number   1
_chemical_formula_structural   Tb8CoCu2Si12Pd
_chemical_formula_sum   'Tb8 Co1 Cu2 Si12 Pd1'
_cell_volume   457.21402433
_cell_formula_units_Z   1
loop_
 _symmetry_equiv_pos_site_id
 _symmetry_equiv_pos_as_xyz
  1  'x, y, z'
loop_
 _atom_site_type_symbol
 _atom_site_label
 _atom_site_symmetry_multiplicity
 _atom_site_fract_x
 _atom_site_fract_y
 _atom_site_fract_z
 _atom_site_occupancy
  Tb  Tb0  1  0.498064  0.996127  0.246560  1
  Tb  Tb1  1  0.498369  0.996739  0.753457  1
  Tb  Tb2  1  0.003873  0.501936  0.246560  1
  Tb  Tb3  1  0.003261  0.501631  0.753457  1
  Tb  Tb4  1  0.498064  0.501936  0.246560  1
  Tb  Tb5  1  0.498369  0.501631  0.753457  1
  Tb  Tb6  1  0.000000  0.000000  0.249645  1
  Tb  Tb7  1  0.000000  0.000000  0.750382  1
  Co  Co8  1  0.333333  0.666667  0.999956  1
  Cu  Cu9  1  0.666667  0.333333  0.000074  1
  Cu  Cu10  1  0.666667  0.333333  0.499117  1
  Si  Si11  1  0.173720  0.347439  0.999700  1
  Si  Si12  1  0.832910  0.665819  0.000386  1
  Si  Si13  1  0.652561  0.826280  0.999700  1
  Si  Si14  1  0.831290  0.662579  0.500318  1
  Si  Si15  1  0.334181  0.167090  0.000386  1
  Si  Si16  1  0.165470  0.330939  0.499609  1
  Si  Si17  1  0.173720  0.826280  0.999700  1
  Si  Si18  1  0.337421  0.168710  0.500318  1
  Si  Si19  1  0.832910  0.167090  0.000386  1
  Si  Si20  1  0.669061  0.834530  0.499609  1
  Si  Si21  1  0.831290  0.168710  0.500318  1
  Si  Si22  1  0.165470  0.834530  0.499609  1
  Pd  Pd23  1  0.333333  0.666667  0.500733  1
