# generated using pymatgen
data_CaNd8DyIr6
_symmetry_space_group_name_H-M   'P 1'
_cell_length_a   11.24517700
_cell_length_b   11.24517700
_cell_length_c   6.50594400
_cell_angle_alpha   90.00000000
_cell_angle_beta   90.00000000
_cell_angle_gamma   90.00000000
_symmetry_Int_Tables_number   1
_chemical_formula_structural   CaNd8DyIr6
_chemical_formula_sum   'Ca2 Nd16 Dy2 Ir12'
_cell_volume   822.70268006
_cell_formula_units_Z   2
loop_
 _symmetry_equiv_pos_site_id
 _symmetry_equiv_pos_as_xyz
  1  'x, y, z'
loop_
 _atom_site_type_symbol
 _atom_site_label
 _atom_site_symmetry_multiplicity
 _atom_site_fract_x
 _atom_site_fract_y
 _atom_site_fract_z
 _atom_site_occupancy
  Ca  Ca0  1  0.000000  0.000000  0.500000  1
  Ca  Ca1  1  0.000000  0.000000  0.000000  1
  Nd  Nd2  1  0.289417  0.087924  0.384919  1
  Nd  Nd3  1  0.289417  0.912076  0.884919  1
  Nd  Nd4  1  0.710583  0.087924  0.884919  1
  Nd  Nd5  1  0.710583  0.912076  0.384919  1
  Nd  Nd6  1  0.588038  0.788986  0.884891  1
  Nd  Nd7  1  0.588038  0.211014  0.384891  1
  Nd  Nd8  1  0.411962  0.788986  0.384891  1
  Nd  Nd9  1  0.411962  0.211014  0.884891  1
  Nd  Nd10  1  0.211014  0.411962  0.615109  1
  Nd  Nd11  1  0.211014  0.588038  0.115109  1
  Nd  Nd12  1  0.788986  0.411962  0.115109  1
  Nd  Nd13  1  0.788986  0.588038  0.615109  1
  Nd  Nd14  1  0.912076  0.710583  0.115081  1
  Nd  Nd15  1  0.912076  0.289417  0.615081  1
  Nd  Nd16  1  0.087924  0.710583  0.615081  1
  Nd  Nd17  1  0.087924  0.289417  0.115081  1
  Dy  Dy18  1  0.500000  0.500000  0.000000  1
  Dy  Dy19  1  0.500000  0.500000  0.500000  1
  Ir  Ir20  1  0.841368  0.158632  0.250000  1
  Ir  Ir21  1  0.841368  0.841368  0.750000  1
  Ir  Ir22  1  0.158632  0.158632  0.750000  1
  Ir  Ir23  1  0.158632  0.841368  0.250000  1
  Ir  Ir24  1  0.649109  0.350891  0.750000  1
  Ir  Ir25  1  0.649109  0.649109  0.250000  1
  Ir  Ir26  1  0.350891  0.350891  0.250000  1
  Ir  Ir27  1  0.350891  0.649109  0.750000  1
  Ir  Ir28  1  0.500000  0.000000  0.118523  1
  Ir  Ir29  1  0.500000  0.000000  0.618523  1
  Ir  Ir30  1  0.000000  0.500000  0.881477  1
  Ir  Ir31  1  0.000000  0.500000  0.381477  1
