# generated using pymatgen
data_Nd4Al16Si2(IrRh)3
_symmetry_space_group_name_H-M   'P 1'
_cell_length_a   7.59478223
_cell_length_b   7.57373379
_cell_length_c   9.56364815
_cell_angle_alpha   89.96587651
_cell_angle_beta   89.92399868
_cell_angle_gamma   119.65747883
_symmetry_Int_Tables_number   1
_chemical_formula_structural   Nd4Al16Si2(IrRh)3
_chemical_formula_sum   'Nd4 Al16 Si2 Ir3 Rh3'
_cell_volume   478.04346014
_cell_formula_units_Z   1
loop_
 _symmetry_equiv_pos_site_id
 _symmetry_equiv_pos_as_xyz
  1  'x, y, z'
loop_
 _atom_site_type_symbol
 _atom_site_label
 _atom_site_symmetry_multiplicity
 _atom_site_fract_x
 _atom_site_fract_y
 _atom_site_fract_z
 _atom_site_occupancy
  Nd  Nd0  1  0.995096  0.665127  0.244347  1
  Nd  Nd1  1  0.004904  0.334873  0.755653  1
  Nd  Nd2  1  0.673924  0.000042  0.247440  1
  Nd  Nd3  1  0.326076  0.999958  0.752560  1
  Al  Al4  1  0.130937  0.129559  0.249962  1
  Al  Al5  1  0.869063  0.870441  0.750038  1
  Al  Al6  1  0.997583  0.665740  0.567311  1
  Al  Al7  1  0.334888  0.001062  0.427561  1
  Al  Al8  1  0.002417  0.334260  0.432689  1
  Al  Al9  1  0.665112  0.998938  0.572439  1
  Al  Al10  1  0.661631  0.994255  0.924101  1
  Al  Al11  1  0.338369  0.005745  0.075899  1
  Al  Al12  1  0.334352  0.333384  0.550692  1
  Al  Al13  1  0.665648  0.666616  0.449308  1
  Al  Al14  1  0.662641  0.665255  0.052097  1
  Al  Al15  1  0.337359  0.334745  0.947903  1
  Al  Al16  1  0.340097  0.547140  0.249457  1
  Al  Al17  1  0.659903  0.452860  0.750543  1
  Al  Al18  1  0.546007  0.341172  0.249932  1
  Al  Al19  1  0.453993  0.658828  0.750068  1
  Si  Si20  1  0.004592  0.328687  0.074601  1
  Si  Si21  1  0.995408  0.671313  0.925399  1
  Ir  Ir22  1  0.328043  0.669932  0.500174  1
  Ir  Ir23  1  0.671957  0.330068  0.499826  1
  Ir  Ir24  1  0.000000  0.000000  0.500000  1
  Rh  Rh25  1  0.688287  0.337746  0.001076  1
  Rh  Rh26  1  0.311713  0.662254  0.998924  1
  Rh  Rh27  1  0.000000  0.000000  0.000000  1
