# generated using pymatgen
data_Zr10GaBi2Pb4Au
_symmetry_space_group_name_H-M   'P 1'
_cell_length_a   8.88567424
_cell_length_b   8.88280520
_cell_length_c   5.98501800
_cell_angle_alpha   89.90207962
_cell_angle_beta   90.04894759
_cell_angle_gamma   119.98931076
_symmetry_Int_Tables_number   1
_chemical_formula_structural   Zr10GaBi2Pb4Au
_chemical_formula_sum   'Zr10 Ga1 Bi2 Pb4 Au1'
_cell_volume   409.15018585
_cell_formula_units_Z   1
loop_
 _symmetry_equiv_pos_site_id
 _symmetry_equiv_pos_as_xyz
  1  'x, y, z'
loop_
 _atom_site_type_symbol
 _atom_site_label
 _atom_site_symmetry_multiplicity
 _atom_site_fract_x
 _atom_site_fract_y
 _atom_site_fract_z
 _atom_site_occupancy
  Zr  Zr0  1  0.666751  0.333702  0.001302  1
  Zr  Zr1  1  0.333249  0.666952  0.001302  1
  Zr  Zr2  1  0.333195  0.666921  0.498473  1
  Zr  Zr3  1  0.666805  0.333725  0.498473  1
  Zr  Zr4  1  0.732695  0.731275  0.739214  1
  Zr  Zr5  1  0.267305  0.998579  0.739214  1
  Zr  Zr6  1  0.000000  0.268274  0.739023  1
  Zr  Zr7  1  0.269809  0.270113  0.260635  1
  Zr  Zr8  1  0.730191  0.000303  0.260635  1
  Zr  Zr9  1  0.000000  0.729782  0.260685  1
  Ga  Ga10  1  0.000000  0.999633  0.497623  1
  Bi  Bi11  1  0.386298  0.386337  0.755038  1
  Bi  Bi12  1  0.613702  0.000039  0.755038  1
  Pb  Pb13  1  0.000000  0.613948  0.755269  1
  Pb  Pb14  1  0.616202  0.616211  0.244989  1
  Pb  Pb15  1  0.383798  0.000009  0.244989  1
  Pb  Pb16  1  0.000000  0.385140  0.244394  1
  Au  Au17  1  0.000000  0.999056  0.003703  1
