# generated using pymatgen
data_Tb3HoGa16FeCo2
_symmetry_space_group_name_H-M   'P 1'
_cell_length_a   6.03602500
_cell_length_b   6.03905200
_cell_length_c   11.16855800
_cell_angle_alpha   90.00000000
_cell_angle_beta   90.00000000
_cell_angle_gamma   90.00000000
_symmetry_Int_Tables_number   1
_chemical_formula_structural   Tb3HoGa16FeCo2
_chemical_formula_sum   'Tb3 Ho1 Ga16 Fe1 Co2'
_cell_volume   407.11481144
_cell_formula_units_Z   1
loop_
 _symmetry_equiv_pos_site_id
 _symmetry_equiv_pos_as_xyz
  1  'x, y, z'
loop_
 _atom_site_type_symbol
 _atom_site_label
 _atom_site_symmetry_multiplicity
 _atom_site_fract_x
 _atom_site_fract_y
 _atom_site_fract_z
 _atom_site_occupancy
  Tb  Tb0  1  0.000000  0.500000  0.194620  1
  Tb  Tb1  1  0.000000  0.500000  0.805832  1
  Tb  Tb2  1  0.500000  0.000000  0.805486  1
  Ho  Ho3  1  0.500000  0.000000  0.194956  1
  Ga  Ga4  1  0.000000  0.000000  0.217629  1
  Ga  Ga5  1  0.000000  0.000000  0.781867  1
  Ga  Ga6  1  0.500000  0.500000  0.195553  1
  Ga  Ga7  1  0.500000  0.500000  0.804715  1
  Ga  Ga8  1  0.281358  0.280274  0.000579  1
  Ga  Ga9  1  0.718642  0.719726  0.000579  1
  Ga  Ga10  1  0.281358  0.719726  0.000579  1
  Ga  Ga11  1  0.718642  0.280274  0.000579  1
  Ga  Ga12  1  0.249754  0.249082  0.384770  1
  Ga  Ga13  1  0.750246  0.750918  0.384770  1
  Ga  Ga14  1  0.249408  0.750483  0.614692  1
  Ga  Ga15  1  0.750592  0.249517  0.614692  1
  Ga  Ga16  1  0.750592  0.750483  0.614692  1
  Ga  Ga17  1  0.249408  0.249517  0.614692  1
  Ga  Ga18  1  0.249754  0.750918  0.384770  1
  Ga  Ga19  1  0.750246  0.249082  0.384770  1
  Fe  Fe20  1  0.000000  0.000000  0.999871  1
  Co  Co21  1  0.000000  0.500000  0.499592  1
  Co  Co22  1  0.500000  0.000000  0.499711  1
