# generated using pymatgen
data_LiNbAlPt9
_symmetry_space_group_name_H-M   'P 1'
_cell_length_a   3.95146100
_cell_length_b   3.95146100
_cell_length_c   11.75408000
_cell_angle_alpha   90.00000000
_cell_angle_beta   90.00000000
_cell_angle_gamma   90.00000000
_symmetry_Int_Tables_number   1
_chemical_formula_structural   LiNbAlPt9
_chemical_formula_sum   'Li1 Nb1 Al1 Pt9'
_cell_volume   183.52872271
_cell_formula_units_Z   1
loop_
 _symmetry_equiv_pos_site_id
 _symmetry_equiv_pos_as_xyz
  1  'x, y, z'
loop_
 _atom_site_type_symbol
 _atom_site_label
 _atom_site_symmetry_multiplicity
 _atom_site_fract_x
 _atom_site_fract_y
 _atom_site_fract_z
 _atom_site_occupancy
  Li  Li0  1  0.000000  0.000000  0.339970  1
  Nb  Nb1  1  0.000000  0.000000  0.004473  1
  Al  Al2  1  0.000000  0.000000  0.652677  1
  Pt  Pt3  1  0.500000  0.500000  0.998889  1
  Pt  Pt4  1  0.500000  0.500000  0.335886  1
  Pt  Pt5  1  0.500000  0.500000  0.665995  1
  Pt  Pt6  1  0.500000  0.000000  0.169409  1
  Pt  Pt7  1  0.500000  0.000000  0.499522  1
  Pt  Pt8  1  0.500000  0.000000  0.832124  1
  Pt  Pt9  1  0.000000  0.500000  0.169409  1
  Pt  Pt10  1  0.000000  0.500000  0.499522  1
  Pt  Pt11  1  0.000000  0.500000  0.832124  1
