# generated using pymatgen
data_Ba2CdIn3Pd2
_symmetry_space_group_name_H-M   'P 1'
_cell_length_a   6.31120275
_cell_length_b   6.31120378
_cell_length_c   8.31208768
_cell_angle_alpha   90.10378453
_cell_angle_beta   89.89621499
_cell_angle_gamma   137.73403898
_symmetry_Int_Tables_number   1
_chemical_formula_structural   Ba2CdIn3Pd2
_chemical_formula_sum   'Ba2 Cd1 In3 Pd2'
_cell_volume   222.67581569
_cell_formula_units_Z   1
loop_
 _symmetry_equiv_pos_site_id
 _symmetry_equiv_pos_as_xyz
  1  'x, y, z'
loop_
 _atom_site_type_symbol
 _atom_site_label
 _atom_site_symmetry_multiplicity
 _atom_site_fract_x
 _atom_site_fract_y
 _atom_site_fract_z
 _atom_site_occupancy
  Ba  Ba0  1  0.552017  0.447983  0.247626  1
  Ba  Ba1  1  0.448322  0.551678  0.750939  1
  Cd  Cd2  1  0.835354  0.164646  0.056863  1
  In  In3  1  0.165584  0.834416  0.945190  1
  In  In4  1  0.162037  0.837963  0.557377  1
  In  In5  1  0.837856  0.162144  0.440673  1
  Pd  Pd6  1  0.274877  0.725123  0.255153  1
  Pd  Pd7  1  0.723952  0.276048  0.746179  1
