# generated using pymatgen
data_Cs4Tb7(YS4)5
_symmetry_space_group_name_H-M   'P 1'
_cell_length_a   4.02551300
_cell_length_b   12.05444626
_cell_length_c   21.50407447
_cell_angle_alpha   90.02403288
_cell_angle_beta   90.00000000
_cell_angle_gamma   90.00000000
_symmetry_Int_Tables_number   1
_chemical_formula_structural   Cs4Tb7(YS4)5
_chemical_formula_sum   'Cs4 Tb7 Y5 S20'
_cell_volume   1043.49222153
_cell_formula_units_Z   1
loop_
 _symmetry_equiv_pos_site_id
 _symmetry_equiv_pos_as_xyz
  1  'x, y, z'
loop_
 _atom_site_type_symbol
 _atom_site_label
 _atom_site_symmetry_multiplicity
 _atom_site_fract_x
 _atom_site_fract_y
 _atom_site_fract_z
 _atom_site_occupancy
  Cs  Cs0  1  0.250000  0.853830  0.093286  1
  Cs  Cs1  1  0.750000  0.146135  0.906718  1
  Cs  Cs2  1  0.750000  0.353867  0.406712  1
  Cs  Cs3  1  0.250000  0.646133  0.593278  1
  Tb  Tb4  1  0.750000  0.797421  0.825597  1
  Tb  Tb5  1  0.250000  0.202651  0.174426  1
  Tb  Tb6  1  0.250000  0.297414  0.674398  1
  Tb  Tb7  1  0.750000  0.702454  0.325500  1
  Tb  Tb8  1  0.250000  0.958149  0.697418  1
  Tb  Tb9  1  0.750000  0.041844  0.302590  1
  Tb  Tb10  1  0.750000  0.458136  0.802574  1
  Y  Y11  1  0.250000  0.542055  0.197413  1
  Y  Y12  1  0.750000  0.391099  0.052911  1
  Y  Y13  1  0.250000  0.608944  0.947164  1
  Y  Y14  1  0.250000  0.891039  0.447123  1
  Y  Y15  1  0.750000  0.108950  0.552867  1
  S  S16  1  0.250000  0.951637  0.568583  1
  S  S17  1  0.750000  0.048372  0.431421  1
  S  S18  1  0.750000  0.451638  0.931418  1
  S  S19  1  0.250000  0.548341  0.068754  1
  S  S20  1  0.750000  0.761579  0.951616  1
  S  S21  1  0.250000  0.238412  0.048390  1
  S  S22  1  0.250000  0.261584  0.548382  1
  S  S23  1  0.750000  0.738413  0.451617  1
  S  S24  1  0.250000  0.946760  0.824355  1
  S  S25  1  0.750000  0.053270  0.175639  1
  S  S26  1  0.750000  0.446761  0.675650  1
  S  S27  1  0.250000  0.553117  0.324141  1
  S  S28  1  0.750000  0.126203  0.682535  1
  S  S29  1  0.250000  0.873809  0.317466  1
  S  S30  1  0.250000  0.626203  0.817478  1
  S  S31  1  0.750000  0.374163  0.182602  1
  S  S32  1  0.750000  0.689438  0.198706  1
  S  S33  1  0.250000  0.310191  0.801276  1
  S  S34  1  0.250000  0.189801  0.301270  1
  S  S35  1  0.750000  0.810186  0.698726  1
