# generated using pymatgen
data_Ba5(SbO5)2
_symmetry_space_group_name_H-M   'P 1'
_cell_length_a   6.18419400
_cell_length_b   6.18419304
_cell_length_c   18.29962300
_cell_angle_alpha   90.00000000
_cell_angle_beta   90.00000000
_cell_angle_gamma   120.00000512
_symmetry_Int_Tables_number   1
_chemical_formula_structural   Ba5(SbO5)2
_chemical_formula_sum   'Ba10 Sb4 O20'
_cell_volume   606.09247896
_cell_formula_units_Z   2
loop_
 _symmetry_equiv_pos_site_id
 _symmetry_equiv_pos_as_xyz
  1  'x, y, z'
loop_
 _atom_site_type_symbol
 _atom_site_label
 _atom_site_symmetry_multiplicity
 _atom_site_fract_x
 _atom_site_fract_y
 _atom_site_fract_z
 _atom_site_occupancy
  Ba  Ba0  1  0.333333  0.666667  0.479747  1
  Ba  Ba1  1  0.666667  0.333333  0.979747  1
  Ba  Ba2  1  0.666667  0.333333  0.520253  1
  Ba  Ba3  1  0.333333  0.666667  0.020253  1
  Ba  Ba4  1  0.666667  0.333333  0.750000  1
  Ba  Ba5  1  0.333333  0.666667  0.250000  1
  Ba  Ba6  1  0.000000  0.000000  0.367496  1
  Ba  Ba7  1  0.000000  0.000000  0.867496  1
  Ba  Ba8  1  0.000000  0.000000  0.632504  1
  Ba  Ba9  1  0.000000  0.000000  0.132504  1
  Sb  Sb10  1  0.333333  0.666667  0.829254  1
  Sb  Sb11  1  0.666667  0.333333  0.329254  1
  Sb  Sb12  1  0.666667  0.333333  0.170746  1
  Sb  Sb13  1  0.333333  0.666667  0.670746  1
  O  O14  1  0.000000  0.000000  0.500000  1
  O  O15  1  0.000000  0.000000  0.000000  1
  O  O16  1  0.490791  0.509209  0.883945  1
  O  O17  1  0.490791  0.981582  0.883945  1
  O  O18  1  0.018418  0.509209  0.883945  1
  O  O19  1  0.981582  0.490791  0.383945  1
  O  O20  1  0.509209  0.018418  0.116055  1
  O  O21  1  0.509209  0.490791  0.383945  1
  O  O22  1  0.509209  0.018418  0.383945  1
  O  O23  1  0.490791  0.509209  0.616055  1
  O  O24  1  0.018418  0.509209  0.616055  1
  O  O25  1  0.981582  0.490791  0.116055  1
  O  O26  1  0.509209  0.490791  0.116055  1
  O  O27  1  0.490791  0.981582  0.616055  1
  O  O28  1  0.190457  0.380913  0.750000  1
  O  O29  1  0.809543  0.190457  0.250000  1
  O  O30  1  0.380913  0.190457  0.250000  1
  O  O31  1  0.619087  0.809543  0.750000  1
  O  O32  1  0.190457  0.809543  0.750000  1
  O  O33  1  0.809543  0.619087  0.250000  1
