# generated using pymatgen
data_BaNbTlO4
_symmetry_space_group_name_H-M   'P 1'
_cell_length_a   6.29328600
_cell_length_b   8.09974200
_cell_length_c   10.73821900
_cell_angle_alpha   90.00000000
_cell_angle_beta   90.00000000
_cell_angle_gamma   90.00000000
_symmetry_Int_Tables_number   1
_chemical_formula_structural   BaNbTlO4
_chemical_formula_sum   'Ba4 Nb4 Tl4 O16'
_cell_volume   547.36989941
_cell_formula_units_Z   4
loop_
 _symmetry_equiv_pos_site_id
 _symmetry_equiv_pos_as_xyz
  1  'x, y, z'
loop_
 _atom_site_type_symbol
 _atom_site_label
 _atom_site_symmetry_multiplicity
 _atom_site_fract_x
 _atom_site_fract_y
 _atom_site_fract_z
 _atom_site_occupancy
  Ba  Ba0  1  0.520467  0.748570  0.211066  1
  Ba  Ba1  1  0.479535  0.248569  0.288932  1
  Ba  Ba2  1  0.979533  0.251431  0.711067  1
  Ba  Ba3  1  0.020467  0.751430  0.788932  1
  Nb  Nb4  1  0.987541  0.529534  0.082391  1
  Nb  Nb5  1  0.012459  0.029533  0.417609  1
  Nb  Nb6  1  0.512459  0.470467  0.582391  1
  Nb  Nb7  1  0.487541  0.970465  0.917609  1
  Tl  Tl8  1  0.971173  0.067601  0.073754  1
  Tl  Tl9  1  0.028827  0.567599  0.426245  1
  Tl  Tl10  1  0.528828  0.932400  0.573754  1
  Tl  Tl11  1  0.471173  0.432399  0.926245  1
  O  O12  1  0.934507  0.756555  0.063816  1
  O  O13  1  0.504989  0.054660  0.080172  1
  O  O14  1  0.246022  0.487839  0.165444  1
  O  O15  1  0.750456  0.448828  0.168270  1
  O  O16  1  0.249543  0.948828  0.331729  1
  O  O17  1  0.753978  0.987840  0.334556  1
  O  O18  1  0.495011  0.554660  0.419827  1
  O  O19  1  0.065493  0.256556  0.436184  1
  O  O20  1  0.565493  0.243444  0.563816  1
  O  O21  1  0.995011  0.945341  0.580172  1
  O  O22  1  0.253978  0.512159  0.665444  1
  O  O23  1  0.749544  0.551172  0.668271  1
  O  O24  1  0.250456  0.051173  0.831729  1
  O  O25  1  0.746022  0.012159  0.834557  1
  O  O26  1  0.004989  0.445341  0.919828  1
  O  O27  1  0.434507  0.743444  0.936185  1
