# generated using pymatgen
data_Ca6NpSbO12
_symmetry_space_group_name_H-M   'P 1'
_cell_length_a   6.69989430
_cell_length_b   6.69989308
_cell_length_c   6.69989468
_cell_angle_alpha   90.98151875
_cell_angle_beta   90.98151902
_cell_angle_gamma   90.98151682
_symmetry_Int_Tables_number   1
_chemical_formula_structural   Ca6NpSbO12
_chemical_formula_sum   'Ca6 Np1 Sb1 O12'
_cell_volume   300.61481191
_cell_formula_units_Z   1
loop_
 _symmetry_equiv_pos_site_id
 _symmetry_equiv_pos_as_xyz
  1  'x, y, z'
loop_
 _atom_site_type_symbol
 _atom_site_label
 _atom_site_symmetry_multiplicity
 _atom_site_fract_x
 _atom_site_fract_y
 _atom_site_fract_z
 _atom_site_occupancy
  Ca  Ca0  1  0.944553  0.439606  0.761109  1
  Ca  Ca1  1  0.761109  0.944553  0.439606  1
  Ca  Ca2  1  0.560394  0.238891  0.055447  1
  Ca  Ca3  1  0.439606  0.761109  0.944553  1
  Ca  Ca4  1  0.238891  0.055447  0.560394  1
  Ca  Ca5  1  0.055447  0.560394  0.238891  1
  Np  Np6  1  0.500000  0.500000  0.500000  1
  Sb  Sb7  1  0.000000  0.000000  0.000000  1
  O  O8  1  0.926967  0.287124  0.070241  1
  O  O9  1  0.929759  0.073033  0.712876  1
  O  O10  1  0.788938  0.580122  0.459300  1
  O  O11  1  0.712876  0.929759  0.073033  1
  O  O12  1  0.580122  0.459300  0.788938  1
  O  O13  1  0.540700  0.211062  0.419878  1
  O  O14  1  0.459300  0.788938  0.580122  1
  O  O15  1  0.419878  0.540700  0.211062  1
  O  O16  1  0.287124  0.070241  0.926967  1
  O  O17  1  0.211062  0.419878  0.540700  1
  O  O18  1  0.070241  0.926967  0.287124  1
  O  O19  1  0.073033  0.712876  0.929759  1
