# generated using pymatgen
data_Ho2TcB8Rh
_symmetry_space_group_name_H-M   'P 1'
_cell_length_a   3.57736800
_cell_length_b   5.95513277
_cell_length_c   11.53795233
_cell_angle_alpha   90.28762882
_cell_angle_beta   90.00000000
_cell_angle_gamma   90.00000000
_symmetry_Int_Tables_number   1
_chemical_formula_structural   Ho2TcB8Rh
_chemical_formula_sum   'Ho4 Tc2 B16 Rh2'
_cell_volume   245.79799397
_cell_formula_units_Z   2
loop_
 _symmetry_equiv_pos_site_id
 _symmetry_equiv_pos_as_xyz
  1  'x, y, z'
loop_
 _atom_site_type_symbol
 _atom_site_label
 _atom_site_symmetry_multiplicity
 _atom_site_fract_x
 _atom_site_fract_y
 _atom_site_fract_z
 _atom_site_occupancy
  Ho  Ho0  1  0.500000  0.371548  0.149063  1
  Ho  Ho1  1  0.500000  0.628452  0.850937  1
  Ho  Ho2  1  0.500000  0.129053  0.648714  1
  Ho  Ho3  1  0.500000  0.870947  0.351286  1
  Tc  Tc4  1  0.500000  0.365604  0.411028  1
  Tc  Tc5  1  0.500000  0.634396  0.588972  1
  B  B6  1  0.000000  0.112985  0.047666  1
  B  B7  1  0.000000  0.887015  0.952334  1
  B  B8  1  0.000000  0.387272  0.546597  1
  B  B9  1  0.000000  0.612728  0.453403  1
  B  B10  1  0.000000  0.135161  0.469277  1
  B  B11  1  0.000000  0.864839  0.530723  1
  B  B12  1  0.000000  0.364100  0.969246  1
  B  B13  1  0.000000  0.635900  0.030754  1
  B  B14  1  0.000000  0.023481  0.193047  1
  B  B15  1  0.000000  0.976519  0.806953  1
  B  B16  1  0.000000  0.475926  0.692409  1
  B  B17  1  0.000000  0.524074  0.307591  1
  B  B18  1  0.000000  0.211218  0.314175  1
  B  B19  1  0.000000  0.788782  0.685825  1
  B  B20  1  0.000000  0.289949  0.813775  1
  B  B21  1  0.000000  0.710051  0.186225  1
  Rh  Rh22  1  0.500000  0.140837  0.905614  1
  Rh  Rh23  1  0.500000  0.859163  0.094386  1
