# generated using pymatgen
data_YLu2(CuSi)4
_symmetry_space_group_name_H-M   'P 1'
_cell_length_a   4.07975936
_cell_length_b   6.52521222
_cell_length_c   7.78147594
_cell_angle_alpha   114.78904491
_cell_angle_beta   105.19741809
_cell_angle_gamma   90.00000078
_symmetry_Int_Tables_number   1
_chemical_formula_structural   YLu2(CuSi)4
_chemical_formula_sum   'Y1 Lu2 Cu4 Si4'
_cell_volume   180.05456562
_cell_formula_units_Z   1
loop_
 _symmetry_equiv_pos_site_id
 _symmetry_equiv_pos_as_xyz
  1  'x, y, z'
loop_
 _atom_site_type_symbol
 _atom_site_label
 _atom_site_symmetry_multiplicity
 _atom_site_fract_x
 _atom_site_fract_y
 _atom_site_fract_z
 _atom_site_occupancy
  Y  Y0  1  0.000000  0.500000  0.000000  1
  Lu  Lu1  1  0.872029  0.872029  0.744060  1
  Lu  Lu2  1  0.127971  0.127971  0.255940  1
  Cu  Cu3  1  0.670153  0.862327  0.340307  1
  Cu  Cu4  1  0.670153  0.477980  0.340307  1
  Cu  Cu5  1  0.329847  0.522020  0.659693  1
  Cu  Cu6  1  0.329847  0.137673  0.659693  1
  Si  Si7  1  0.782175  0.282175  0.564351  1
  Si  Si8  1  0.217825  0.717825  0.435649  1
  Si  Si9  1  0.500000  0.183819  0.000000  1
  Si  Si10  1  0.500000  0.816181  0.000000  1
