# generated using pymatgen
data_La2(B2Ir3)3
_symmetry_space_group_name_H-M   'P 1'
_cell_length_a   5.72546203
_cell_length_b   5.72544558
_cell_length_c   8.64263300
_cell_angle_alpha   89.99669114
_cell_angle_beta   90.00662771
_cell_angle_gamma   120.00010655
_symmetry_Int_Tables_number   1
_chemical_formula_structural   La2(B2Ir3)3
_chemical_formula_sum   'La2 B6 Ir9'
_cell_volume   245.35565047
_cell_formula_units_Z   1
loop_
 _symmetry_equiv_pos_site_id
 _symmetry_equiv_pos_as_xyz
  1  'x, y, z'
loop_
 _atom_site_type_symbol
 _atom_site_label
 _atom_site_symmetry_multiplicity
 _atom_site_fract_x
 _atom_site_fract_y
 _atom_site_fract_z
 _atom_site_occupancy
  La  La0  1  0.999990  0.000000  0.295530  1
  La  La1  1  0.999973  0.000000  0.704527  1
  B  B2  1  0.333330  0.666662  0.999989  1
  B  B3  1  0.666668  0.333338  0.999989  1
  B  B4  1  0.333315  0.666645  0.332435  1
  B  B5  1  0.666670  0.333355  0.332435  1
  B  B6  1  0.666663  0.333336  0.667576  1
  B  B7  1  0.333326  0.666664  0.667576  1
  Ir  Ir8  1  0.500041  0.000000  0.162728  1
  Ir  Ir9  1  0.499983  0.500060  0.162741  1
  Ir  Ir10  1  0.999923  0.499940  0.162741  1
  Ir  Ir11  1  0.500001  0.000000  0.837290  1
  Ir  Ir12  1  0.499994  0.499980  0.837301  1
  Ir  Ir13  1  0.000015  0.500020  0.837301  1
  Ir  Ir14  1  0.499939  0.000000  0.500005  1
  Ir  Ir15  1  0.500003  0.499936  0.499919  1
  Ir  Ir16  1  0.000066  0.500064  0.499919  1
