# generated using pymatgen
data_Nb4Si4Ir3Ru
_symmetry_space_group_name_H-M   'P 1'
_cell_length_a   3.82872500
_cell_length_b   6.45395612
_cell_length_c   7.32037166
_cell_angle_alpha   89.87061105
_cell_angle_beta   90.00000000
_cell_angle_gamma   90.00000000
_symmetry_Int_Tables_number   1
_chemical_formula_structural   Nb4Si4Ir3Ru
_chemical_formula_sum   'Nb4 Si4 Ir3 Ru1'
_cell_volume   180.88902005
_cell_formula_units_Z   1
loop_
 _symmetry_equiv_pos_site_id
 _symmetry_equiv_pos_as_xyz
  1  'x, y, z'
loop_
 _atom_site_type_symbol
 _atom_site_label
 _atom_site_symmetry_multiplicity
 _atom_site_fract_x
 _atom_site_fract_y
 _atom_site_fract_z
 _atom_site_occupancy
  Nb  Nb0  1  0.750000  0.525072  0.827839  1
  Nb  Nb1  1  0.250000  0.974300  0.325133  1
  Nb  Nb2  1  0.750000  0.021816  0.674818  1
  Nb  Nb3  1  0.250000  0.477812  0.172131  1
  Si  Si4  1  0.250000  0.227125  0.875695  1
  Si  Si5  1  0.250000  0.728814  0.626231  1
  Si  Si6  1  0.750000  0.772627  0.121823  1
  Si  Si7  1  0.750000  0.270204  0.376087  1
  Ir  Ir8  1  0.250000  0.352046  0.562084  1
  Ir  Ir9  1  0.750000  0.647214  0.436885  1
  Ir  Ir10  1  0.750000  0.149401  0.063215  1
  Ru  Ru11  1  0.250000  0.853570  0.938060  1
