# generated using pymatgen
data_V3Co2AsN
_symmetry_space_group_name_H-M   'P 1'
_cell_length_a   7.63093180
_cell_length_b   7.63402516
_cell_length_c   7.63054039
_cell_angle_alpha   59.99608694
_cell_angle_beta   60.01036166
_cell_angle_gamma   60.00322351
_symmetry_Int_Tables_number   1
_chemical_formula_structural   V3Co2AsN
_chemical_formula_sum   'V12 Co8 As4 N4'
_cell_volume   314.34256099
_cell_formula_units_Z   4
loop_
 _symmetry_equiv_pos_site_id
 _symmetry_equiv_pos_as_xyz
  1  'x, y, z'
loop_
 _atom_site_type_symbol
 _atom_site_label
 _atom_site_symmetry_multiplicity
 _atom_site_fract_x
 _atom_site_fract_y
 _atom_site_fract_z
 _atom_site_occupancy
  V  V0  1  0.685043  0.314840  0.685184  1
  V  V1  1  0.564865  0.564725  0.935177  1
  V  V2  1  0.564924  0.935163  0.564834  1
  V  V3  1  0.935146  0.935216  0.564844  1
  V  V4  1  0.935178  0.564776  0.564864  1
  V  V5  1  0.935173  0.564830  0.935132  1
  V  V6  1  0.685094  0.314842  0.314939  1
  V  V7  1  0.314805  0.685091  0.314837  1
  V  V8  1  0.314935  0.314890  0.685149  1
  V  V9  1  0.314824  0.685012  0.685303  1
  V  V10  1  0.685243  0.685084  0.314829  1
  V  V11  1  0.564836  0.935274  0.935129  1
  Co  Co12  1  0.261348  0.912861  0.912919  1
  Co  Co13  1  0.912922  0.261247  0.912926  1
  Co  Co14  1  0.912968  0.912918  0.912951  1
  Co  Co15  1  0.912969  0.912956  0.261086  1
  Co  Co16  1  0.988777  0.336992  0.337182  1
  Co  Co17  1  0.337039  0.336913  0.989011  1
  Co  Co18  1  0.337056  0.988630  0.337104  1
  Co  Co19  1  0.336964  0.337098  0.337004  1
  As  As20  1  0.625030  0.125142  0.124939  1
  As  As21  1  0.125027  0.125139  0.624985  1
  As  As22  1  0.124959  0.625037  0.124917  1
  As  As23  1  0.124843  0.125246  0.124898  1
  N  N24  1  0.625008  0.625011  0.624972  1
  N  N25  1  0.124992  0.625044  0.624962  1
  N  N26  1  0.625026  0.124972  0.624991  1
  N  N27  1  0.625007  0.625052  0.124931  1
