# generated using pymatgen
data_Ho5V2P12Rh17
_symmetry_space_group_name_H-M   'P 1'
_cell_length_a   12.73122283
_cell_length_b   12.61917561
_cell_length_c   3.90797200
_cell_angle_alpha   90.00000000
_cell_angle_beta   90.00000000
_cell_angle_gamma   119.70929072
_symmetry_Int_Tables_number   1
_chemical_formula_structural   Ho5V2P12Rh17
_chemical_formula_sum   'Ho5 V2 P12 Rh17'
_cell_volume   545.31563889
_cell_formula_units_Z   1
loop_
 _symmetry_equiv_pos_site_id
 _symmetry_equiv_pos_as_xyz
  1  'x, y, z'
loop_
 _atom_site_type_symbol
 _atom_site_label
 _atom_site_symmetry_multiplicity
 _atom_site_fract_x
 _atom_site_fract_y
 _atom_site_fract_z
 _atom_site_occupancy
  Ho  Ho0  1  0.661956  0.331110  0.000000  1
  Ho  Ho1  1  0.338044  0.669155  0.000000  1
  Ho  Ho2  1  0.808876  0.811243  0.500000  1
  Ho  Ho3  1  0.191124  0.002368  0.500000  1
  Ho  Ho4  1  0.000000  0.189137  0.500000  1
  V  V5  1  0.447552  0.449371  0.000000  1
  V  V6  1  0.552448  0.001819  0.000000  1
  P  P7  1  0.680078  0.164072  0.500000  1
  P  P8  1  0.829098  0.516063  0.500000  1
  P  P9  1  0.481379  0.319034  0.500000  1
  P  P10  1  0.170902  0.686966  0.500000  1
  P  P11  1  0.518621  0.837656  0.500000  1
  P  P12  1  0.319922  0.483994  0.500000  1
  P  P13  1  0.176334  0.175840  0.000000  1
  P  P14  1  0.823666  0.999506  0.000000  1
  P  P15  1  0.000000  0.819376  0.000000  1
  P  P16  1  0.633079  0.632686  0.000000  1
  P  P17  1  0.366921  0.999607  0.000000  1
  P  P18  1  0.000000  0.361203  0.000000  1
  Rh  Rh19  1  0.863403  0.355322  0.500000  1
  Rh  Rh20  1  0.640983  0.514738  0.500000  1
  Rh  Rh21  1  0.487583  0.132266  0.500000  1
  Rh  Rh22  1  0.359017  0.873755  0.500000  1
  Rh  Rh23  1  0.512417  0.644682  0.500000  1
  Rh  Rh24  1  0.136597  0.491918  0.500000  1
  Rh  Rh25  1  0.000000  0.543236  0.000000  1
  Rh  Rh26  1  0.804048  0.179305  0.000000  1
  Rh  Rh27  1  0.821714  0.621867  0.000000  1
  Rh  Rh28  1  0.373707  0.197068  0.000000  1
  Rh  Rh29  1  0.178286  0.800154  0.000000  1
  Rh  Rh30  1  0.626293  0.823362  0.000000  1
  Rh  Rh31  1  0.195952  0.375258  0.000000  1
  Rh  Rh32  1  0.281032  0.282251  0.500000  1
  Rh  Rh33  1  0.718968  0.001220  0.500000  1
  Rh  Rh34  1  0.000000  0.715952  0.500000  1
  Rh  Rh35  1  0.000000  0.997438  0.000000  1
