# generated using pymatgen
data_Er2Tm4TcRh
_symmetry_space_group_name_H-M   'P 1'
_cell_length_a   6.25372300
_cell_length_b   7.27062400
_cell_length_c   9.05259600
_cell_angle_alpha   90.00000000
_cell_angle_beta   90.00000000
_cell_angle_gamma   90.00000000
_symmetry_Int_Tables_number   1
_chemical_formula_structural   Er2Tm4TcRh
_chemical_formula_sum   'Er4 Tm8 Tc2 Rh2'
_cell_volume   411.60767637
_cell_formula_units_Z   2
loop_
 _symmetry_equiv_pos_site_id
 _symmetry_equiv_pos_as_xyz
  1  'x, y, z'
loop_
 _atom_site_type_symbol
 _atom_site_label
 _atom_site_symmetry_multiplicity
 _atom_site_fract_x
 _atom_site_fract_y
 _atom_site_fract_z
 _atom_site_occupancy
  Er  Er0  1  0.866840  0.960022  0.750000  1
  Er  Er1  1  0.366840  0.539978  0.250000  1
  Er  Er2  1  0.630552  0.460602  0.750000  1
  Er  Er3  1  0.130552  0.039398  0.250000  1
  Tm  Tm4  1  0.670646  0.176040  0.064542  1
  Tm  Tm5  1  0.170646  0.323960  0.935458  1
  Tm  Tm6  1  0.832641  0.678570  0.438654  1
  Tm  Tm7  1  0.332641  0.821430  0.561346  1
  Tm  Tm8  1  0.332641  0.821430  0.938654  1
  Tm  Tm9  1  0.832641  0.678570  0.061346  1
  Tm  Tm10  1  0.170646  0.323960  0.564542  1
  Tm  Tm11  1  0.670646  0.176040  0.435458  1
  Tc  Tc12  1  0.039514  0.612713  0.750000  1
  Tc  Tc13  1  0.539514  0.887287  0.250000  1
  Rh  Rh14  1  0.456519  0.115567  0.750000  1
  Rh  Rh15  1  0.956519  0.384433  0.250000  1
