# generated using pymatgen
data_Tb3HoZn5Ni9
_symmetry_space_group_name_H-M   'P 1'
_cell_length_a   5.19488137
_cell_length_b   5.19488210
_cell_length_c   12.24582600
_cell_angle_alpha   77.75406293
_cell_angle_beta   77.75407245
_cell_angle_gamma   60.00000859
_symmetry_Int_Tables_number   1
_chemical_formula_structural   Tb3HoZn5Ni9
_chemical_formula_sum   'Tb3 Ho1 Zn5 Ni9'
_cell_volume   277.48346670
_cell_formula_units_Z   1
loop_
 _symmetry_equiv_pos_site_id
 _symmetry_equiv_pos_as_xyz
  1  'x, y, z'
loop_
 _atom_site_type_symbol
 _atom_site_label
 _atom_site_symmetry_multiplicity
 _atom_site_fract_x
 _atom_site_fract_y
 _atom_site_fract_z
 _atom_site_occupancy
  Tb  Tb0  1  0.951989  0.951989  0.143946  1
  Tb  Tb1  1  0.048186  0.048186  0.855548  1
  Tb  Tb2  1  0.854678  0.854678  0.436305  1
  Ho  Ho3  1  0.145123  0.145123  0.564340  1
  Zn  Zn4  1  0.499953  0.499953  0.500182  1
  Zn  Zn5  1  0.722261  0.722261  0.833159  1
  Zn  Zn6  1  0.277758  0.277758  0.166814  1
  Zn  Zn7  1  0.610861  0.610861  0.167702  1
  Zn  Zn8  1  0.389130  0.389130  0.832337  1
  Ni  Ni9  1  0.000032  0.500066  0.999909  1
  Ni  Ni10  1  0.500066  0.000032  0.999909  1
  Ni  Ni11  1  0.500042  0.500042  0.999934  1
  Ni  Ni12  1  0.386399  0.386399  0.333235  1
  Ni  Ni13  1  0.894265  0.386129  0.333310  1
  Ni  Ni14  1  0.386129  0.894265  0.333310  1
  Ni  Ni15  1  0.613498  0.613498  0.666742  1
  Ni  Ni16  1  0.105905  0.613724  0.666661  1
  Ni  Ni17  1  0.613724  0.105905  0.666661  1
