# generated using pymatgen
data_La16Cd4TcRu3
_symmetry_space_group_name_H-M   'P 1'
_cell_length_a   10.05182096
_cell_length_b   10.05182092
_cell_length_c   10.09879049
_cell_angle_alpha   60.15373278
_cell_angle_beta   60.15373502
_cell_angle_gamma   59.99999570
_symmetry_Int_Tables_number   1
_chemical_formula_structural   La16Cd4TcRu3
_chemical_formula_sum   'La16 Cd4 Tc1 Ru3'
_cell_volume   723.18448994
_cell_formula_units_Z   1
loop_
 _symmetry_equiv_pos_site_id
 _symmetry_equiv_pos_as_xyz
  1  'x, y, z'
loop_
 _atom_site_type_symbol
 _atom_site_label
 _atom_site_symmetry_multiplicity
 _atom_site_fract_x
 _atom_site_fract_y
 _atom_site_fract_z
 _atom_site_occupancy
  La  La0  1  0.903914  0.903914  0.903710  1
  La  La1  1  0.438675  0.438675  0.061910  1
  La  La2  1  0.061549  0.061549  0.439123  1
  La  La3  1  0.438675  0.060741  0.061910  1
  La  La4  1  0.309433  0.690859  0.308849  1
  La  La5  1  0.690859  0.690859  0.308849  1
  La  La6  1  0.690859  0.309433  0.308849  1
  La  La7  1  0.288463  0.903914  0.903710  1
  La  La8  1  0.903914  0.288463  0.903710  1
  La  La9  1  0.308365  0.692373  0.690898  1
  La  La10  1  0.903667  0.903667  0.289000  1
  La  La11  1  0.060741  0.438675  0.061910  1
  La  La12  1  0.308365  0.308365  0.690898  1
  La  La13  1  0.061549  0.437778  0.439123  1
  La  La14  1  0.437778  0.061549  0.439123  1
  La  La15  1  0.692373  0.308365  0.690898  1
  Cd  Cd16  1  0.671192  0.671192  0.986422  1
  Cd  Cd17  1  0.986348  0.671251  0.671150  1
  Cd  Cd18  1  0.671251  0.986348  0.671150  1
  Cd  Cd19  1  0.671251  0.671251  0.671150  1
  Tc  Tc20  1  0.114549  0.114549  0.656353  1
  Ru  Ru21  1  0.113533  0.113533  0.113767  1
  Ru  Ru22  1  0.113533  0.659165  0.113767  1
  Ru  Ru23  1  0.659165  0.113533  0.113767  1
