# generated using pymatgen
data_Ho2Tm10GaCo4Ir
_symmetry_space_group_name_H-M   'P 1'
_cell_length_a   8.14289810
_cell_length_b   8.13820289
_cell_length_c   8.14034596
_cell_angle_alpha   111.10112374
_cell_angle_beta   110.77937763
_cell_angle_gamma   106.53994111
_symmetry_Int_Tables_number   1
_chemical_formula_structural   Ho2Tm10GaCo4Ir
_chemical_formula_sum   'Ho2 Tm10 Ga1 Co4 Ir1'
_cell_volume   414.62579560
_cell_formula_units_Z   1
loop_
 _symmetry_equiv_pos_site_id
 _symmetry_equiv_pos_as_xyz
  1  'x, y, z'
loop_
 _atom_site_type_symbol
 _atom_site_label
 _atom_site_symmetry_multiplicity
 _atom_site_fract_x
 _atom_site_fract_y
 _atom_site_fract_z
 _atom_site_occupancy
  Ho  Ho0  1  0.581262  0.273729  0.307078  1
  Ho  Ho1  1  0.182297  0.218680  0.401409  1
  Tm  Tm2  1  0.181856  0.780250  0.962539  1
  Tm  Tm3  1  0.682486  0.487753  0.806337  1
  Tm  Tm4  1  0.681682  0.875902  0.194392  1
  Tm  Tm5  1  0.967296  0.274389  0.693531  1
  Tm  Tm6  1  0.032962  0.725393  0.307124  1
  Tm  Tm7  1  0.317910  0.123343  0.805255  1
  Tm  Tm8  1  0.317830  0.513157  0.194211  1
  Tm  Tm9  1  0.817461  0.219083  0.036191  1
  Tm  Tm10  1  0.818008  0.781348  0.598978  1
  Tm  Tm11  1  0.418777  0.726236  0.693179  1
  Ga  Ga12  1  0.499974  0.999800  0.500180  1
  Co  Co13  1  0.886455  0.886376  0.999358  1
  Co  Co14  1  0.371920  0.500212  0.872286  1
  Co  Co15  1  0.628166  0.500274  0.127839  1
  Co  Co16  1  0.112505  0.112784  0.999037  1
  Ir  Ir17  1  0.001154  0.501293  0.501076  1
