# generated using pymatgen
data_Ac4HoMgSi4
_symmetry_space_group_name_H-M   'P 1'
_cell_length_a   7.81640900
_cell_length_b   7.81640900
_cell_length_c   4.67791700
_cell_angle_alpha   90.00000000
_cell_angle_beta   90.00000000
_cell_angle_gamma   90.00000000
_symmetry_Int_Tables_number   1
_chemical_formula_structural   Ac4HoMgSi4
_chemical_formula_sum   'Ac4 Ho1 Mg1 Si4'
_cell_volume   285.80318490
_cell_formula_units_Z   1
loop_
 _symmetry_equiv_pos_site_id
 _symmetry_equiv_pos_as_xyz
  1  'x, y, z'
loop_
 _atom_site_type_symbol
 _atom_site_label
 _atom_site_symmetry_multiplicity
 _atom_site_fract_x
 _atom_site_fract_y
 _atom_site_fract_z
 _atom_site_occupancy
  Ac  Ac0  1  0.673639  0.189246  0.500000  1
  Ac  Ac1  1  0.326361  0.810754  0.500000  1
  Ac  Ac2  1  0.189246  0.326361  0.500000  1
  Ac  Ac3  1  0.810754  0.673639  0.500000  1
  Ho  Ho4  1  0.000000  0.000000  0.000000  1
  Mg  Mg5  1  0.500000  0.500000  0.000000  1
  Si  Si6  1  0.101887  0.620083  0.000000  1
  Si  Si7  1  0.898113  0.379917  0.000000  1
  Si  Si8  1  0.620083  0.898113  0.000000  1
  Si  Si9  1  0.379917  0.101887  0.000000  1
