# generated using pymatgen
data_Ho4Er3Tm13Pb16
_symmetry_space_group_name_H-M   'P 1'
_cell_length_a   8.14258118
_cell_length_b   15.48211854
_cell_length_c   8.20364655
_cell_angle_alpha   90.00466134
_cell_angle_beta   89.87097000
_cell_angle_gamma   90.07631937
_symmetry_Int_Tables_number   1
_chemical_formula_structural   Ho4Er3Tm13Pb16
_chemical_formula_sum   'Ho4 Er3 Tm13 Pb16'
_cell_volume   1034.18429376
_cell_formula_units_Z   1
loop_
 _symmetry_equiv_pos_site_id
 _symmetry_equiv_pos_as_xyz
  1  'x, y, z'
loop_
 _atom_site_type_symbol
 _atom_site_label
 _atom_site_symmetry_multiplicity
 _atom_site_fract_x
 _atom_site_fract_y
 _atom_site_fract_z
 _atom_site_occupancy
  Ho  Ho0  1  0.536967  0.400367  0.323862  1
  Ho  Ho1  1  0.036576  0.099555  0.176446  1
  Ho  Ho2  1  0.463668  0.900470  0.676409  1
  Ho  Ho3  1  0.963316  0.599695  0.823518  1
  Er  Er4  1  0.963547  0.900174  0.823465  1
  Er  Er5  1  0.536658  0.099641  0.323684  1
  Er  Er6  1  0.036937  0.400269  0.176160  1
  Tm  Tm7  1  0.623062  0.621443  0.158401  1
  Tm  Tm8  1  0.123513  0.878542  0.341797  1
  Tm  Tm9  1  0.376708  0.121456  0.841744  1
  Tm  Tm10  1  0.877104  0.378666  0.658441  1
  Tm  Tm11  1  0.377159  0.378863  0.841482  1
  Tm  Tm12  1  0.876555  0.121361  0.658270  1
  Tm  Tm13  1  0.623306  0.878399  0.158184  1
  Tm  Tm14  1  0.123038  0.621371  0.341760  1
  Tm  Tm15  1  0.462225  0.600004  0.675762  1
  Tm  Tm16  1  0.791388  0.749764  0.495564  1
  Tm  Tm17  1  0.291639  0.749858  0.004616  1
  Tm  Tm18  1  0.208496  0.250091  0.504494  1
  Tm  Tm19  1  0.708429  0.250101  0.995432  1
  Pb  Pb20  1  0.718469  0.457347  0.966659  1
  Pb  Pb21  1  0.218094  0.042628  0.534131  1
  Pb  Pb22  1  0.282050  0.957185  0.033747  1
  Pb  Pb23  1  0.780789  0.542790  0.467105  1
  Pb  Pb24  1  0.282059  0.542804  0.033275  1
  Pb  Pb25  1  0.782178  0.957275  0.465860  1
  Pb  Pb26  1  0.717954  0.042503  0.966059  1
  Pb  Pb27  1  0.218509  0.457764  0.534046  1
  Pb  Pb28  1  0.428690  0.750028  0.372950  1
  Pb  Pb29  1  0.928851  0.750000  0.127451  1
  Pb  Pb30  1  0.571122  0.250103  0.627282  1
  Pb  Pb31  1  0.071078  0.250002  0.872428  1
  Pb  Pb32  1  0.651200  0.749517  0.845264  1
  Pb  Pb33  1  0.152059  0.750014  0.654106  1
  Pb  Pb34  1  0.348359  0.249997  0.154118  1
  Pb  Pb35  1  0.848247  0.249957  0.346026  1
