# generated using pymatgen
data_BaSrFe6(P2O7)4
_symmetry_space_group_name_H-M   'P 1'
_cell_length_a   7.72260122
_cell_length_b   7.92585064
_cell_length_c   9.77416719
_cell_angle_alpha   90.10804322
_cell_angle_beta   112.65310408
_cell_angle_gamma   89.97176527
_symmetry_Int_Tables_number   1
_chemical_formula_structural   BaSrFe6(P2O7)4
_chemical_formula_sum   'Ba1 Sr1 Fe6 P8 O28'
_cell_volume   552.10451662
_cell_formula_units_Z   1
loop_
 _symmetry_equiv_pos_site_id
 _symmetry_equiv_pos_as_xyz
  1  'x, y, z'
loop_
 _atom_site_type_symbol
 _atom_site_label
 _atom_site_symmetry_multiplicity
 _atom_site_fract_x
 _atom_site_fract_y
 _atom_site_fract_z
 _atom_site_occupancy
  Ba  Ba0  1  0.500000  0.500000  0.500000  1
  Sr  Sr1  1  0.500000  0.000000  0.000000  1
  Fe  Fe2  1  0.189511  0.623861  0.027666  1
  Fe  Fe3  1  0.000000  0.000000  0.000000  1
  Fe  Fe4  1  0.187554  0.876928  0.526837  1
  Fe  Fe5  1  0.810489  0.376139  0.972334  1
  Fe  Fe6  1  0.812446  0.123072  0.473163  1
  Fe  Fe7  1  0.000000  0.500000  0.500000  1
  P  P8  1  0.607020  0.047694  0.703990  1
  P  P9  1  0.392337  0.556500  0.800738  1
  P  P10  1  0.392980  0.952306  0.296010  1
  P  P11  1  0.607663  0.443500  0.199262  1
  P  P12  1  0.894350  0.798192  0.694807  1
  P  P13  1  0.110219  0.297534  0.808210  1
  P  P14  1  0.889781  0.702466  0.191790  1
  P  P15  1  0.105650  0.201808  0.305193  1
  O  O16  1  0.855109  0.628956  0.613954  1
  O  O17  1  0.159074  0.129035  0.890278  1
  O  O18  1  0.144891  0.371044  0.386046  1
  O  O19  1  0.840926  0.870965  0.109722  1
  O  O20  1  0.270044  0.613534  0.639872  1
  O  O21  1  0.725815  0.105766  0.865522  1
  O  O22  1  0.729956  0.386466  0.360128  1
  O  O23  1  0.274185  0.894233  0.134478  1
  O  O24  1  0.623591  0.169437  0.589815  1
  O  O25  1  0.378992  0.680487  0.915298  1
  O  O26  1  0.376410  0.830563  0.410185  1
  O  O27  1  0.621008  0.319513  0.084702  1
  O  O28  1  0.689239  0.865910  0.679511  1
  O  O29  1  0.311041  0.374628  0.823610  1
  O  O30  1  0.310761  0.134090  0.320489  1
  O  O31  1  0.688959  0.625372  0.176389  1
  O  O32  1  0.409046  0.487348  0.188020  1
  O  O33  1  0.591373  0.994676  0.305865  1
  O  O34  1  0.590954  0.512652  0.811980  1
  O  O35  1  0.408627  0.005324  0.694135  1
  O  O36  1  0.995365  0.211346  0.136908  1
  O  O37  1  0.001157  0.713170  0.360278  1
  O  O38  1  0.973932  0.924949  0.615665  1
  O  O39  1  0.998843  0.286830  0.639722  1
  O  O40  1  0.974700  0.579259  0.113126  1
  O  O41  1  0.026068  0.075051  0.384335  1
  O  O42  1  0.025300  0.420739  0.886874  1
  O  O43  1  0.004635  0.788654  0.863092  1
