# generated using pymatgen
data_Sr20(LiAg3)3
_symmetry_space_group_name_H-M   'P 1'
_cell_length_a   8.65738600
_cell_length_b   8.65738600
_cell_length_c   16.24545400
_cell_angle_alpha   90.00000000
_cell_angle_beta   90.00000000
_cell_angle_gamma   90.00000000
_symmetry_Int_Tables_number   1
_chemical_formula_structural   Sr20(LiAg3)3
_chemical_formula_sum   'Sr20 Li3 Ag9'
_cell_volume   1217.60217653
_cell_formula_units_Z   1
loop_
 _symmetry_equiv_pos_site_id
 _symmetry_equiv_pos_as_xyz
  1  'x, y, z'
loop_
 _atom_site_type_symbol
 _atom_site_label
 _atom_site_symmetry_multiplicity
 _atom_site_fract_x
 _atom_site_fract_y
 _atom_site_fract_z
 _atom_site_occupancy
  Sr  Sr0  1  0.674255  0.160621  0.108105  1
  Sr  Sr1  1  0.167359  0.666083  0.611875  1
  Sr  Sr2  1  0.325745  0.839379  0.108105  1
  Sr  Sr3  1  0.832641  0.333917  0.611875  1
  Sr  Sr4  1  0.839379  0.674255  0.108105  1
  Sr  Sr5  1  0.333917  0.167359  0.611875  1
  Sr  Sr6  1  0.160621  0.325745  0.108105  1
  Sr  Sr7  1  0.666083  0.832641  0.611875  1
  Sr  Sr8  1  0.839379  0.325745  0.891895  1
  Sr  Sr9  1  0.333917  0.832641  0.388125  1
  Sr  Sr10  1  0.160621  0.674255  0.891895  1
  Sr  Sr11  1  0.666083  0.167359  0.388125  1
  Sr  Sr12  1  0.674255  0.839379  0.891895  1
  Sr  Sr13  1  0.167359  0.333917  0.388125  1
  Sr  Sr14  1  0.325745  0.160621  0.891895  1
  Sr  Sr15  1  0.832641  0.666083  0.388125  1
  Sr  Sr16  1  0.500000  0.500000  0.754493  1
  Sr  Sr17  1  0.000000  0.000000  0.249635  1
  Sr  Sr18  1  0.000000  0.000000  0.750365  1
  Sr  Sr19  1  0.500000  0.500000  0.245507  1
  Li  Li20  1  0.500000  0.500000  0.500000  1
  Li  Li21  1  0.500000  0.500000  0.000000  1
  Li  Li22  1  0.000000  0.000000  0.500000  1
  Ag  Ag23  1  0.622742  0.123595  0.751726  1
  Ag  Ag24  1  0.123595  0.622742  0.248274  1
  Ag  Ag25  1  0.876405  0.377258  0.248274  1
  Ag  Ag26  1  0.377258  0.876405  0.751726  1
  Ag  Ag27  1  0.876405  0.622742  0.751726  1
  Ag  Ag28  1  0.377258  0.123595  0.248274  1
  Ag  Ag29  1  0.123595  0.377258  0.751726  1
  Ag  Ag30  1  0.622742  0.876405  0.248274  1
  Ag  Ag31  1  0.000000  0.000000  0.000000  1
