# generated using pymatgen
data_Hg3AsF12
_symmetry_space_group_name_H-M   'P 1'
_cell_length_a   5.74848940
_cell_length_b   6.05620080
_cell_length_c   8.34868312
_cell_angle_alpha   95.70143895
_cell_angle_beta   91.58880440
_cell_angle_gamma   90.33738798
_symmetry_Int_Tables_number   1
_chemical_formula_structural   Hg3AsF12
_chemical_formula_sum   'Hg3 As1 F12'
_cell_volume   289.09117383
_cell_formula_units_Z   1
loop_
 _symmetry_equiv_pos_site_id
 _symmetry_equiv_pos_as_xyz
  1  'x, y, z'
loop_
 _atom_site_type_symbol
 _atom_site_label
 _atom_site_symmetry_multiplicity
 _atom_site_fract_x
 _atom_site_fract_y
 _atom_site_fract_z
 _atom_site_occupancy
  Hg  Hg0  1  0.000000  0.000000  0.000000  1
  Hg  Hg1  1  0.500000  0.500000  0.500000  1
  Hg  Hg2  1  0.000000  0.000000  0.500000  1
  As  As3  1  0.500000  0.500000  0.000000  1
  F  F4  1  0.876549  0.998478  0.770130  1
  F  F5  1  0.203684  0.309661  0.551621  1
  F  F6  1  0.243680  0.618367  0.922816  1
  F  F7  1  0.366043  0.485563  0.188893  1
  F  F8  1  0.391073  0.231038  0.932640  1
  F  F9  1  0.306605  0.798004  0.543782  1
  F  F10  1  0.693395  0.201996  0.456218  1
  F  F11  1  0.608927  0.768962  0.067360  1
  F  F12  1  0.633957  0.514437  0.811107  1
  F  F13  1  0.756320  0.381633  0.077184  1
  F  F14  1  0.796316  0.690339  0.448379  1
  F  F15  1  0.123451  0.001522  0.229870  1
