# generated using pymatgen
data_Gd2Tm3(TcO6)2
_symmetry_space_group_name_H-M   'P 1'
_cell_length_a   6.79729324
_cell_length_b   6.79729232
_cell_length_c   7.49845405
_cell_angle_alpha   74.09087595
_cell_angle_beta   74.09086887
_cell_angle_gamma   49.30303497
_symmetry_Int_Tables_number   1
_chemical_formula_structural   Gd2Tm3(TcO6)2
_chemical_formula_sum   'Gd2 Tm3 Tc2 O12'
_cell_volume   250.43818948
_cell_formula_units_Z   1
loop_
 _symmetry_equiv_pos_site_id
 _symmetry_equiv_pos_as_xyz
  1  'x, y, z'
loop_
 _atom_site_type_symbol
 _atom_site_label
 _atom_site_symmetry_multiplicity
 _atom_site_fract_x
 _atom_site_fract_y
 _atom_site_fract_z
 _atom_site_occupancy
  Gd  Gd0  1  0.805193  0.805193  0.356386  1
  Gd  Gd1  1  0.194807  0.194807  0.643614  1
  Tm  Tm2  1  0.184471  0.184471  0.173793  1
  Tm  Tm3  1  0.815529  0.815529  0.826207  1
  Tm  Tm4  1  0.500000  0.500000  0.500000  1
  Tc  Tc5  1  0.286520  0.713480  0.000000  1
  Tc  Tc6  1  0.713480  0.286520  0.000000  1
  O  O7  1  0.416868  0.913594  0.920150  1
  O  O8  1  0.086406  0.583132  0.079850  1
  O  O9  1  0.583132  0.086406  0.079850  1
  O  O10  1  0.913594  0.416868  0.920150  1
  O  O11  1  0.600961  0.096597  0.579042  1
  O  O12  1  0.903403  0.399039  0.420958  1
  O  O13  1  0.399039  0.903403  0.420958  1
  O  O14  1  0.998744  0.998744  0.823579  1
  O  O15  1  0.001256  0.001256  0.176421  1
  O  O16  1  0.501215  0.501215  0.792716  1
  O  O17  1  0.498785  0.498785  0.207284  1
  O  O18  1  0.096597  0.600961  0.579042  1
