# generated using pymatgen
data_Sc4Al2NiB4Ir9
_symmetry_space_group_name_H-M   'P 1'
_cell_length_a   3.05442400
_cell_length_b   9.31518923
_cell_length_c   9.31519000
_cell_angle_alpha   89.15261789
_cell_angle_beta   90.00000000
_cell_angle_gamma   90.00000000
_symmetry_Int_Tables_number   1
_chemical_formula_structural   Sc4Al2NiB4Ir9
_chemical_formula_sum   'Sc4 Al2 Ni1 B4 Ir9'
_cell_volume   265.01180740
_cell_formula_units_Z   1
loop_
 _symmetry_equiv_pos_site_id
 _symmetry_equiv_pos_as_xyz
  1  'x, y, z'
loop_
 _atom_site_type_symbol
 _atom_site_label
 _atom_site_symmetry_multiplicity
 _atom_site_fract_x
 _atom_site_fract_y
 _atom_site_fract_z
 _atom_site_occupancy
  Sc  Sc0  1  0.000000  0.175305  0.675305  1
  Sc  Sc1  1  0.000000  0.824695  0.324695  1
  Sc  Sc2  1  0.000000  0.320505  0.179495  1
  Sc  Sc3  1  0.000000  0.679495  0.820505  1
  Al  Al4  1  0.000000  0.000000  0.000000  1
  Al  Al5  1  0.000000  0.500000  0.500000  1
  Ni  Ni6  1  0.500000  0.000000  0.500000  1
  B  B7  1  0.000000  0.623110  0.123110  1
  B  B8  1  0.000000  0.376890  0.876890  1
  B  B9  1  0.000000  0.886569  0.613431  1
  B  B10  1  0.000000  0.113431  0.386569  1
  Ir  Ir11  1  0.500000  0.064625  0.223198  1
  Ir  Ir12  1  0.500000  0.935375  0.776802  1
  Ir  Ir13  1  0.500000  0.785010  0.068267  1
  Ir  Ir14  1  0.500000  0.431733  0.714990  1
  Ir  Ir15  1  0.500000  0.214990  0.931733  1
  Ir  Ir16  1  0.500000  0.568267  0.285010  1
  Ir  Ir17  1  0.500000  0.723198  0.564625  1
  Ir  Ir18  1  0.500000  0.276802  0.435375  1
  Ir  Ir19  1  0.500000  0.500000  0.000000  1
