# generated using pymatgen
data_Ti8Al15Os4RhAu2
_symmetry_space_group_name_H-M   'P 1'
_cell_length_a   8.72979838
_cell_length_b   8.71392982
_cell_length_c   8.71167094
_cell_angle_alpha   120.18240954
_cell_angle_beta   119.64408795
_cell_angle_gamma   89.99876973
_symmetry_Int_Tables_number   1
_chemical_formula_structural   Ti8Al15Os4RhAu2
_chemical_formula_sum   'Ti8 Al15 Os4 Rh1 Au2'
_cell_volume   469.82349330
_cell_formula_units_Z   1
loop_
 _symmetry_equiv_pos_site_id
 _symmetry_equiv_pos_as_xyz
  1  'x, y, z'
loop_
 _atom_site_type_symbol
 _atom_site_label
 _atom_site_symmetry_multiplicity
 _atom_site_fract_x
 _atom_site_fract_y
 _atom_site_fract_z
 _atom_site_occupancy
  Ti  Ti0  1  0.782420  0.287250  0.073984  1
  Ti  Ti1  1  0.218742  0.295559  0.505174  1
  Ti  Ti2  1  0.212677  0.711674  0.509248  1
  Ti  Ti3  1  0.223951  0.719790  0.927581  1
  Ti  Ti4  1  0.789084  0.715009  0.494569  1
  Ti  Ti5  1  0.776955  0.277043  0.486901  1
  Ti  Ti6  1  0.378228  0.123501  0.746873  1
  Ti  Ti7  1  0.392370  0.635626  0.263105  1
  Al  Al8  1  0.996543  0.496837  0.500246  1
  Al  Al9  1  0.158230  0.350664  0.199618  1
  Al  Al10  1  0.158246  0.965576  0.808596  1
  Al  Al11  1  0.154200  0.344970  0.801797  1
  Al  Al12  1  0.536455  0.345141  0.191582  1
  Al  Al13  1  0.840203  0.645729  0.793673  1
  Al  Al14  1  0.843399  0.037042  0.196053  1
  Al  Al15  1  0.839740  0.656803  0.189828  1
  Al  Al16  1  0.473708  0.657407  0.817009  1
  Al  Al17  1  0.389880  0.125808  0.265084  1
  Al  Al18  1  0.855487  0.114852  0.725135  1
  Al  Al19  1  0.620532  0.874610  0.253142  1
  Al  Al20  1  0.610393  0.362927  0.737345  1
  Al  Al21  1  0.606783  0.872920  0.735080  1
  Al  Al22  1  0.143465  0.885961  0.275990  1
  Os  Os23  1  0.001048  0.999491  0.502769  1
  Os  Os24  1  0.498796  0.000696  0.000291  1
  Os  Os25  1  0.498270  0.496325  0.999251  1
  Os  Os26  1  0.498046  0.499317  0.498337  1
  Rh  Rh27  1  0.501192  0.000076  0.500325  1
  Au  Au28  1  0.002837  0.502666  0.002580  1
  Au  Au29  1  0.998118  0.998723  0.998834  1
