# generated using pymatgen
data_Tb4Gd(OsO6)2
_symmetry_space_group_name_H-M   'P 1'
_cell_length_a   6.93013892
_cell_length_b   6.93013892
_cell_length_c   7.57678341
_cell_angle_alpha   73.87116672
_cell_angle_beta   73.87116685
_cell_angle_gamma   48.35445712
_symmetry_Int_Tables_number   1
_chemical_formula_structural   Tb4Gd(OsO6)2
_chemical_formula_sum   'Tb4 Gd1 Os2 O12'
_cell_volume   259.00950821
_cell_formula_units_Z   1
loop_
 _symmetry_equiv_pos_site_id
 _symmetry_equiv_pos_as_xyz
  1  'x, y, z'
loop_
 _atom_site_type_symbol
 _atom_site_label
 _atom_site_symmetry_multiplicity
 _atom_site_fract_x
 _atom_site_fract_y
 _atom_site_fract_z
 _atom_site_occupancy
  Tb  Tb0  1  0.698198  0.698198  0.642554  1
  Tb  Tb1  1  0.301802  0.301802  0.357446  1
  Tb  Tb2  1  0.688360  0.688360  0.170190  1
  Tb  Tb3  1  0.311640  0.311640  0.829810  1
  Gd  Gd4  1  0.000000  0.000000  0.500000  1
  Os  Os5  1  0.780755  0.219245  0.000000  1
  Os  Os6  1  0.219245  0.780755  0.000000  1
  O  O7  1  0.000673  0.000673  0.201321  1
  O  O8  1  0.999327  0.999327  0.798679  1
  O  O9  1  0.582333  0.087174  0.084421  1
  O  O10  1  0.417667  0.912826  0.915579  1
  O  O11  1  0.912826  0.417667  0.915579  1
  O  O12  1  0.087174  0.582333  0.084421  1
  O  O13  1  0.498878  0.498878  0.172379  1
  O  O14  1  0.501122  0.501122  0.827621  1
  O  O15  1  0.406715  0.901968  0.425865  1
  O  O16  1  0.593285  0.098032  0.574135  1
  O  O17  1  0.098032  0.593285  0.574135  1
  O  O18  1  0.901968  0.406715  0.425865  1
