# generated using pymatgen
data_Sm11Tm(PaRh2)8
_symmetry_space_group_name_H-M   'P 1'
_cell_length_a   7.56825524
_cell_length_b   7.55207033
_cell_length_c   14.34017200
_cell_angle_alpha   90.00000000
_cell_angle_beta   90.00000000
_cell_angle_gamma   89.81467007
_symmetry_Int_Tables_number   1
_chemical_formula_structural   Sm11Tm(PaRh2)8
_chemical_formula_sum   'Sm11 Tm1 Pa8 Rh16'
_cell_volume   819.62252341
_cell_formula_units_Z   1
loop_
 _symmetry_equiv_pos_site_id
 _symmetry_equiv_pos_as_xyz
  1  'x, y, z'
loop_
 _atom_site_type_symbol
 _atom_site_label
 _atom_site_symmetry_multiplicity
 _atom_site_fract_x
 _atom_site_fract_y
 _atom_site_fract_z
 _atom_site_occupancy
  Sm  Sm0  1  0.507397  0.675771  0.595352  1
  Sm  Sm1  1  0.004832  0.819926  0.906063  1
  Sm  Sm2  1  0.495091  0.323649  0.092388  1
  Sm  Sm3  1  0.993794  0.176694  0.407698  1
  Sm  Sm4  1  0.495091  0.323649  0.407612  1
  Sm  Sm5  1  0.993794  0.176694  0.092302  1
  Sm  Sm6  1  0.507397  0.675771  0.904648  1
  Sm  Sm7  1  0.004832  0.819926  0.593937  1
  Sm  Sm8  1  0.308394  0.976641  0.750000  1
  Sm  Sm9  1  0.190239  0.475366  0.250000  1
  Sm  Sm10  1  0.690356  0.026302  0.250000  1
  Tm  Tm11  1  0.812197  0.519184  0.750000  1
  Pa  Pa12  1  0.656562  0.157219  0.622007  1
  Pa  Pa13  1  0.156848  0.344383  0.878854  1
  Pa  Pa14  1  0.344033  0.842686  0.120314  1
  Pa  Pa15  1  0.841874  0.658078  0.379353  1
  Pa  Pa16  1  0.344033  0.842686  0.379686  1
  Pa  Pa17  1  0.841874  0.658078  0.120647  1
  Pa  Pa18  1  0.656562  0.157219  0.877993  1
  Pa  Pa19  1  0.156848  0.344383  0.621146  1
  Rh  Rh20  1  0.681060  0.949474  0.464208  1
  Rh  Rh21  1  0.180203  0.549457  0.036563  1
  Rh  Rh22  1  0.320398  0.050339  0.962883  1
  Rh  Rh23  1  0.820049  0.450468  0.539026  1
  Rh  Rh24  1  0.320398  0.050339  0.537117  1
  Rh  Rh25  1  0.820049  0.450468  0.960974  1
  Rh  Rh26  1  0.681060  0.949474  0.035792  1
  Rh  Rh27  1  0.180203  0.549457  0.463437  1
  Rh  Rh28  1  0.457371  0.352789  0.750000  1
  Rh  Rh29  1  0.954292  0.154602  0.750000  1
  Rh  Rh30  1  0.543781  0.651682  0.250000  1
  Rh  Rh31  1  0.044308  0.847864  0.250000  1
  Rh  Rh32  1  0.693085  0.890356  0.750000  1
  Rh  Rh33  1  0.182204  0.609302  0.750000  1
  Rh  Rh34  1  0.308709  0.106691  0.250000  1
  Rh  Rh35  1  0.810777  0.392934  0.250000  1
