# generated using pymatgen
data_Ta6Tl2PbCl18
_symmetry_space_group_name_H-M   'P 1'
_cell_length_a   9.53314691
_cell_length_b   9.53292391
_cell_length_c   10.38340100
_cell_angle_alpha   62.66872926
_cell_angle_beta   117.32894086
_cell_angle_gamma   119.99901674
_symmetry_Int_Tables_number   1
_chemical_formula_structural   Ta6Tl2PbCl18
_chemical_formula_sum   'Ta6 Tl2 Pb1 Cl18'
_cell_volume   692.92355277
_cell_formula_units_Z   1
loop_
 _symmetry_equiv_pos_site_id
 _symmetry_equiv_pos_as_xyz
  1  'x, y, z'
loop_
 _atom_site_type_symbol
 _atom_site_label
 _atom_site_symmetry_multiplicity
 _atom_site_fract_x
 _atom_site_fract_y
 _atom_site_fract_z
 _atom_site_occupancy
  Ta  Ta0  1  0.299027  0.354459  0.365841  1
  Ta  Ta1  1  0.645515  0.578734  0.365833  1
  Ta  Ta2  1  0.421274  0.700991  0.365818  1
  Ta  Ta3  1  0.578726  0.299009  0.634182  1
  Ta  Ta4  1  0.354486  0.421265  0.634167  1
  Ta  Ta5  1  0.700973  0.645541  0.634159  1
  Tl  Tl6  1  0.723025  0.277019  0.169071  1
  Tl  Tl7  1  0.276976  0.722982  0.830929  1
  Pb  Pb8  1  0.000000  0.000000  0.000000  1
  Cl  Cl9  1  0.578580  0.833174  0.178301  1
  Cl  Cl10  1  0.166835  0.567085  0.178278  1
  Cl  Cl11  1  0.432831  0.421449  0.178295  1
  Cl  Cl12  1  0.331026  0.966278  0.191828  1
  Cl  Cl13  1  0.827053  0.669003  0.191832  1
  Cl  Cl14  1  0.033796  0.172931  0.191887  1
  Cl  Cl15  1  0.355556  0.088332  0.498959  1
  Cl  Cl16  1  0.231707  0.644350  0.498932  1
  Cl  Cl17  1  0.911685  0.768323  0.498974  1
  Cl  Cl18  1  0.088316  0.231676  0.501026  1
  Cl  Cl19  1  0.768293  0.355651  0.501068  1
  Cl  Cl20  1  0.644444  0.911668  0.501041  1
  Cl  Cl21  1  0.966205  0.827069  0.808113  1
  Cl  Cl22  1  0.172947  0.330997  0.808168  1
  Cl  Cl23  1  0.668975  0.033721  0.808172  1
  Cl  Cl24  1  0.567169  0.578550  0.821705  1
  Cl  Cl25  1  0.833165  0.432916  0.821722  1
  Cl  Cl26  1  0.421421  0.166827  0.821699  1
