# generated using pymatgen
data_Er4Cd2CoCu3
_symmetry_space_group_name_H-M   'P 1'
_cell_length_a   7.45522800
_cell_length_b   7.45522800
_cell_length_c   3.68801000
_cell_angle_alpha   90.00000000
_cell_angle_beta   90.00000000
_cell_angle_gamma   90.15699567
_symmetry_Int_Tables_number   1
_chemical_formula_structural   Er4Cd2CoCu3
_chemical_formula_sum   'Er4 Cd2 Co1 Cu3'
_cell_volume   204.98039179
_cell_formula_units_Z   1
loop_
 _symmetry_equiv_pos_site_id
 _symmetry_equiv_pos_as_xyz
  1  'x, y, z'
loop_
 _atom_site_type_symbol
 _atom_site_label
 _atom_site_symmetry_multiplicity
 _atom_site_fract_x
 _atom_site_fract_y
 _atom_site_fract_z
 _atom_site_occupancy
  Er  Er0  1  0.673790  0.173790  0.500000  1
  Er  Er1  1  0.311448  0.811448  0.500000  1
  Er  Er2  1  0.178323  0.342527  0.500000  1
  Er  Er3  1  0.842527  0.678323  0.500000  1
  Cd  Cd4  1  0.001089  0.000583  0.000000  1
  Cd  Cd5  1  0.500583  0.501089  0.000000  1
  Co  Co6  1  0.117063  0.617063  0.000000  1
  Cu  Cu7  1  0.879933  0.379933  0.000000  1
  Cu  Cu8  1  0.617185  0.878060  0.000000  1
  Cu  Cu9  1  0.378060  0.117185  0.000000  1
