# generated using pymatgen
data_Nd2Gd3HoTa2O14
_symmetry_space_group_name_H-M   'P 1'
_cell_length_a   6.55405236
_cell_length_b   6.56600595
_cell_length_c   7.65046333
_cell_angle_alpha   89.97130840
_cell_angle_beta   89.99308962
_cell_angle_gamma   109.34195321
_symmetry_Int_Tables_number   1
_chemical_formula_structural   Nd2Gd3HoTa2O14
_chemical_formula_sum   'Nd2 Gd3 Ho1 Ta2 O14'
_cell_volume   310.64742655
_cell_formula_units_Z   1
loop_
 _symmetry_equiv_pos_site_id
 _symmetry_equiv_pos_as_xyz
  1  'x, y, z'
loop_
 _atom_site_type_symbol
 _atom_site_label
 _atom_site_symmetry_multiplicity
 _atom_site_fract_x
 _atom_site_fract_y
 _atom_site_fract_z
 _atom_site_occupancy
  Nd  Nd0  1  0.513480  0.513968  0.498767  1
  Nd  Nd1  1  0.483538  0.482119  0.001089  1
  Gd  Gd2  1  0.999760  0.533454  0.246054  1
  Gd  Gd3  1  0.999802  0.466786  0.746019  1
  Gd  Gd4  1  0.532054  0.000145  0.753692  1
  Ho  Ho5  1  0.466195  0.999267  0.253928  1
  Ta  Ta6  1  0.001001  0.001540  0.498886  1
  Ta  Ta7  1  0.997624  0.998272  0.000991  1
  O  O8  1  0.938559  0.058835  0.749943  1
  O  O9  1  0.064788  0.938704  0.249988  1
  O  O10  1  0.359556  0.644737  0.249609  1
  O  O11  1  0.639363  0.358621  0.750015  1
  O  O12  1  0.367554  0.634053  0.750052  1
  O  O13  1  0.630232  0.360705  0.250690  1
  O  O14  1  0.323597  0.073827  0.975820  1
  O  O15  1  0.679604  0.929242  0.467126  1
  O  O16  1  0.315513  0.061302  0.532217  1
  O  O17  1  0.688245  0.942726  0.041442  1
  O  O18  1  0.064681  0.314646  0.464942  1
  O  O19  1  0.935344  0.686317  0.964445  1
  O  O20  1  0.923214  0.678528  0.527433  1
  O  O21  1  0.076296  0.322206  0.026851  1
