# generated using pymatgen
data_Ce9Ho7(CdTc)4
_symmetry_space_group_name_H-M   'P 1'
_cell_length_a   9.62297193
_cell_length_b   9.62297256
_cell_length_c   9.57900900
_cell_angle_alpha   60.15101694
_cell_angle_beta   60.15101479
_cell_angle_gamma   60.81355243
_symmetry_Int_Tables_number   1
_chemical_formula_structural   Ce9Ho7(CdTc)4
_chemical_formula_sum   'Ce9 Ho7 Cd4 Tc4'
_cell_volume   632.44561086
_cell_formula_units_Z   1
loop_
 _symmetry_equiv_pos_site_id
 _symmetry_equiv_pos_as_xyz
  1  'x, y, z'
loop_
 _atom_site_type_symbol
 _atom_site_label
 _atom_site_symmetry_multiplicity
 _atom_site_fract_x
 _atom_site_fract_y
 _atom_site_fract_z
 _atom_site_occupancy
  Ce  Ce0  1  0.347241  0.347241  0.350049  1
  Ce  Ce1  1  0.347241  0.347241  0.955469  1
  Ce  Ce2  1  0.347562  0.958649  0.346894  1
  Ce  Ce3  1  0.958649  0.347562  0.346894  1
  Ce  Ce4  1  0.808632  0.186592  0.187964  1
  Ce  Ce5  1  0.186592  0.808632  0.816811  1
  Ce  Ce6  1  0.186592  0.808632  0.187964  1
  Ce  Ce7  1  0.808632  0.186592  0.816811  1
  Ce  Ce8  1  0.187600  0.187600  0.812400  1
  Ho  Ho9  1  0.804843  0.804843  0.195157  1
  Ho  Ho10  1  0.934540  0.564917  0.563908  1
  Ho  Ho11  1  0.564917  0.934540  0.936634  1
  Ho  Ho12  1  0.564917  0.934540  0.563908  1
  Ho  Ho13  1  0.934540  0.564917  0.936634  1
  Ho  Ho14  1  0.562441  0.562441  0.937559  1
  Ho  Ho15  1  0.937794  0.937794  0.562206  1
  Cd  Cd16  1  0.581669  0.581669  0.580678  1
  Cd  Cd17  1  0.581669  0.581669  0.255985  1
  Cd  Cd18  1  0.582314  0.253334  0.582176  1
  Cd  Cd19  1  0.253334  0.582314  0.582176  1
  Tc  Tc20  1  0.133453  0.133453  0.136502  1
  Tc  Tc21  1  0.133453  0.133453  0.596594  1
  Tc  Tc22  1  0.158632  0.592741  0.124314  1
  Tc  Tc23  1  0.592741  0.158632  0.124314  1
