# generated using pymatgen
data_PrZnInCu4
_symmetry_space_group_name_H-M   'P 1'
_cell_length_a   5.07962300
_cell_length_b   8.49813900
_cell_length_c   10.89087400
_cell_angle_alpha   90.00000000
_cell_angle_beta   90.00000000
_cell_angle_gamma   90.00000000
_symmetry_Int_Tables_number   1
_chemical_formula_structural   PrZnInCu4
_chemical_formula_sum   'Pr4 Zn4 In4 Cu16'
_cell_volume   470.13008614
_cell_formula_units_Z   4
loop_
 _symmetry_equiv_pos_site_id
 _symmetry_equiv_pos_as_xyz
  1  'x, y, z'
loop_
 _atom_site_type_symbol
 _atom_site_label
 _atom_site_symmetry_multiplicity
 _atom_site_fract_x
 _atom_site_fract_y
 _atom_site_fract_z
 _atom_site_occupancy
  Pr  Pr0  1  0.250000  0.754490  0.058939  1
  Pr  Pr1  1  0.750000  0.245510  0.941061  1
  Pr  Pr2  1  0.750000  0.745510  0.558939  1
  Pr  Pr3  1  0.250000  0.254490  0.441061  1
  Zn  Zn4  1  0.250000  0.814972  0.740365  1
  Zn  Zn5  1  0.750000  0.185028  0.259635  1
  Zn  Zn6  1  0.750000  0.685028  0.240365  1
  Zn  Zn7  1  0.250000  0.314972  0.759635  1
  In  In8  1  0.250000  0.637238  0.364762  1
  In  In9  1  0.750000  0.362762  0.635238  1
  In  In10  1  0.750000  0.862762  0.864762  1
  In  In11  1  0.250000  0.137238  0.135238  1
  Cu  Cu12  1  0.503392  0.567589  0.812569  1
  Cu  Cu13  1  0.496608  0.432411  0.187431  1
  Cu  Cu14  1  0.496608  0.932411  0.312569  1
  Cu  Cu15  1  0.003392  0.432411  0.187431  1
  Cu  Cu16  1  0.503392  0.067589  0.687431  1
  Cu  Cu17  1  0.996608  0.567589  0.812569  1
  Cu  Cu18  1  0.996608  0.067589  0.687431  1
  Cu  Cu19  1  0.003392  0.932411  0.312569  1
  Cu  Cu20  1  0.250000  0.556125  0.606646  1
  Cu  Cu21  1  0.750000  0.443875  0.393354  1
  Cu  Cu22  1  0.750000  0.943875  0.106646  1
  Cu  Cu23  1  0.250000  0.056125  0.893354  1
  Cu  Cu24  1  0.250000  0.921023  0.515696  1
  Cu  Cu25  1  0.750000  0.078977  0.484304  1
  Cu  Cu26  1  0.750000  0.578977  0.015696  1
  Cu  Cu27  1  0.250000  0.421023  0.984304  1
