# generated using pymatgen
data_Mg2Bi3Pt2RhO14
_symmetry_space_group_name_H-M   'P 1'
_cell_length_a   7.20847874
_cell_length_b   7.20847872
_cell_length_c   7.21980216
_cell_angle_alpha   61.01802449
_cell_angle_beta   61.01802607
_cell_angle_gamma   60.95051544
_symmetry_Int_Tables_number   1
_chemical_formula_structural   Mg2Bi3Pt2RhO14
_chemical_formula_sum   'Mg2 Bi3 Pt2 Rh1 O14'
_cell_volume   271.22422640
_cell_formula_units_Z   1
loop_
 _symmetry_equiv_pos_site_id
 _symmetry_equiv_pos_as_xyz
  1  'x, y, z'
loop_
 _atom_site_type_symbol
 _atom_site_label
 _atom_site_symmetry_multiplicity
 _atom_site_fract_x
 _atom_site_fract_y
 _atom_site_fract_z
 _atom_site_occupancy
  Mg  Mg0  1  0.500000  0.500000  0.500000  1
  Mg  Mg1  1  0.000000  0.000000  0.000000  1
  Bi  Bi2  1  0.000000  0.500000  0.500000  1
  Bi  Bi3  1  0.500000  0.500000  0.000000  1
  Bi  Bi4  1  0.500000  0.000000  0.500000  1
  Pt  Pt5  1  0.500000  0.000000  0.000000  1
  Pt  Pt6  1  0.000000  0.500000  0.000000  1
  Rh  Rh7  1  0.000000  0.000000  0.500000  1
  O  O8  1  0.384830  0.384830  0.387001  1
  O  O9  1  0.615170  0.615170  0.612999  1
  O  O10  1  0.903639  0.331779  0.331749  1
  O  O11  1  0.349892  0.907420  0.906318  1
  O  O12  1  0.333020  0.333020  0.901850  1
  O  O13  1  0.906920  0.906920  0.351889  1
  O  O14  1  0.907420  0.349892  0.906318  1
  O  O15  1  0.331779  0.903639  0.331749  1
  O  O16  1  0.096361  0.668221  0.668251  1
  O  O17  1  0.650108  0.092580  0.093682  1
  O  O18  1  0.666980  0.666980  0.098150  1
  O  O19  1  0.093080  0.093080  0.648111  1
  O  O20  1  0.092580  0.650108  0.093682  1
  O  O21  1  0.668221  0.096361  0.668251  1
