# generated using pymatgen
data_Pr4ReOs3I2
_symmetry_space_group_name_H-M   'P 1'
_cell_length_a   4.28873900
_cell_length_b   4.28873882
_cell_length_c   18.04331900
_cell_angle_alpha   90.00000000
_cell_angle_beta   90.00000000
_cell_angle_gamma   119.99999371
_symmetry_Int_Tables_number   1
_chemical_formula_structural   Pr4ReOs3I2
_chemical_formula_sum   'Pr4 Re1 Os3 I2'
_cell_volume   287.41293012
_cell_formula_units_Z   1
loop_
 _symmetry_equiv_pos_site_id
 _symmetry_equiv_pos_as_xyz
  1  'x, y, z'
loop_
 _atom_site_type_symbol
 _atom_site_label
 _atom_site_symmetry_multiplicity
 _atom_site_fract_x
 _atom_site_fract_y
 _atom_site_fract_z
 _atom_site_occupancy
  Pr  Pr0  1  0.000000  0.000000  0.112170  1
  Pr  Pr1  1  0.000000  0.000000  0.391591  1
  Pr  Pr2  1  0.000000  0.000000  0.888681  1
  Pr  Pr3  1  0.000000  0.000000  0.607978  1
  Re  Re4  1  0.333333  0.666667  0.011260  1
  Os  Os5  1  0.666667  0.333333  0.988304  1
  Os  Os6  1  0.333333  0.666667  0.495414  1
  Os  Os7  1  0.666667  0.333333  0.504482  1
  I  I8  1  0.333333  0.666667  0.749015  1
  I  I9  1  0.666667  0.333333  0.251106  1
