# generated using pymatgen
data_Na4TbUS6
_symmetry_space_group_name_H-M   'P 1'
_cell_length_a   6.94516787
_cell_length_b   6.94516758
_cell_length_c   7.01785800
_cell_angle_alpha   80.40464270
_cell_angle_beta   80.40465147
_cell_angle_gamma   120.01187645
_symmetry_Int_Tables_number   1
_chemical_formula_structural   Na4TbUS6
_chemical_formula_sum   'Na4 Tb1 U1 S6'
_cell_volume   276.34746412
_cell_formula_units_Z   1
loop_
 _symmetry_equiv_pos_site_id
 _symmetry_equiv_pos_as_xyz
  1  'x, y, z'
loop_
 _atom_site_type_symbol
 _atom_site_label
 _atom_site_symmetry_multiplicity
 _atom_site_fract_x
 _atom_site_fract_y
 _atom_site_fract_z
 _atom_site_occupancy
  Na  Na0  1  0.000051  0.999949  0.000000  1
  Na  Na1  1  0.499652  0.500348  0.500000  1
  Na  Na2  1  0.839349  0.160651  0.500000  1
  Na  Na3  1  0.160583  0.839417  0.500000  1
  Tb  Tb4  1  0.667139  0.332861  0.000000  1
  U  U5  1  0.332718  0.667282  0.000000  1
  S  S6  1  0.273575  0.285246  0.228489  1
  S  S7  1  0.426551  0.064191  0.771959  1
  S  S8  1  0.088705  0.438885  0.775021  1
  S  S9  1  0.714754  0.726425  0.771511  1
  S  S10  1  0.561115  0.911295  0.224979  1
  S  S11  1  0.935809  0.573449  0.228041  1
