# generated using pymatgen
data_Tb7Co4Sn23Ir2
_symmetry_space_group_name_H-M   'P 1'
_cell_length_a   9.77706689
_cell_length_b   9.77706561
_cell_length_c   10.05251165
_cell_angle_alpha   90.12278718
_cell_angle_beta   89.87721202
_cell_angle_gamma   120.05784612
_symmetry_Int_Tables_number   1
_chemical_formula_structural   Tb7Co4Sn23Ir2
_chemical_formula_sum   'Tb7 Co4 Sn23 Ir2'
_cell_volume   831.70164438
_cell_formula_units_Z   1
loop_
 _symmetry_equiv_pos_site_id
 _symmetry_equiv_pos_as_xyz
  1  'x, y, z'
loop_
 _atom_site_type_symbol
 _atom_site_label
 _atom_site_symmetry_multiplicity
 _atom_site_fract_x
 _atom_site_fract_y
 _atom_site_fract_z
 _atom_site_occupancy
  Tb  Tb0  1  0.000000  0.000000  0.000000  1
  Tb  Tb1  1  0.478781  0.521219  0.306045  1
  Tb  Tb2  1  0.521219  0.478781  0.693955  1
  Tb  Tb3  1  0.478325  0.957011  0.306165  1
  Tb  Tb4  1  0.521675  0.042989  0.693835  1
  Tb  Tb5  1  0.042989  0.521675  0.306165  1
  Tb  Tb6  1  0.957011  0.478325  0.693835  1
  Co  Co7  1  0.831668  0.664467  0.197427  1
  Co  Co8  1  0.168332  0.335533  0.802573  1
  Co  Co9  1  0.335533  0.168332  0.197427  1
  Co  Co10  1  0.664467  0.831668  0.802573  1
  Sn  Sn11  1  0.350833  0.004267  0.005398  1
  Sn  Sn12  1  0.649167  0.995733  0.994602  1
  Sn  Sn13  1  0.004267  0.350833  0.994602  1
  Sn  Sn14  1  0.995733  0.649167  0.005398  1
  Sn  Sn15  1  0.654331  0.654331  0.000000  1
  Sn  Sn16  1  0.345669  0.345669  0.000000  1
  Sn  Sn17  1  0.335700  0.664300  0.819100  1
  Sn  Sn18  1  0.664300  0.335700  0.180900  1
  Sn  Sn19  1  0.000000  0.000000  0.500000  1
  Sn  Sn20  1  0.779765  0.220235  0.457089  1
  Sn  Sn21  1  0.220235  0.779765  0.542911  1
  Sn  Sn22  1  0.781150  0.562192  0.451596  1
  Sn  Sn23  1  0.218850  0.437808  0.548404  1
  Sn  Sn24  1  0.437808  0.218850  0.451596  1
  Sn  Sn25  1  0.562192  0.781150  0.548404  1
  Sn  Sn26  1  0.333654  0.666346  0.116345  1
  Sn  Sn27  1  0.666346  0.333654  0.883655  1
  Sn  Sn28  1  0.117192  0.882808  0.274261  1
  Sn  Sn29  1  0.882808  0.117192  0.725739  1
  Sn  Sn30  1  0.123947  0.236917  0.278130  1
  Sn  Sn31  1  0.876053  0.763083  0.721870  1
  Sn  Sn32  1  0.763083  0.876053  0.278130  1
  Sn  Sn33  1  0.236917  0.123947  0.721870  1
  Ir  Ir34  1  0.831903  0.168097  0.197131  1
  Ir  Ir35  1  0.168097  0.831903  0.802869  1
