# generated using pymatgen
data_Tb2Sc8Bi5Te
_symmetry_space_group_name_H-M   'P 1'
_cell_length_a   7.85935400
_cell_length_b   9.02784000
_cell_length_c   11.51925400
_cell_angle_alpha   90.00000000
_cell_angle_beta   90.00000000
_cell_angle_gamma   90.00000000
_symmetry_Int_Tables_number   1
_chemical_formula_structural   Tb2Sc8Bi5Te
_chemical_formula_sum   'Tb4 Sc16 Bi10 Te2'
_cell_volume   817.32551865
_cell_formula_units_Z   2
loop_
 _symmetry_equiv_pos_site_id
 _symmetry_equiv_pos_as_xyz
  1  'x, y, z'
loop_
 _atom_site_type_symbol
 _atom_site_label
 _atom_site_symmetry_multiplicity
 _atom_site_fract_x
 _atom_site_fract_y
 _atom_site_fract_z
 _atom_site_occupancy
  Tb  Tb0  1  0.317298  0.250000  0.218941  1
  Tb  Tb1  1  0.817298  0.250000  0.281059  1
  Tb  Tb2  1  0.679788  0.750000  0.782548  1
  Tb  Tb3  1  0.179788  0.750000  0.717452  1
  Sc  Sc4  1  0.349028  0.750000  0.218498  1
  Sc  Sc5  1  0.849028  0.750000  0.281502  1
  Sc  Sc6  1  0.651699  0.250000  0.779141  1
  Sc  Sc7  1  0.151699  0.250000  0.720859  1
  Sc  Sc8  1  0.690915  0.568947  0.061618  1
  Sc  Sc9  1  0.190915  0.931053  0.438382  1
  Sc  Sc10  1  0.308454  0.064157  0.938153  1
  Sc  Sc11  1  0.808454  0.435843  0.561847  1
  Sc  Sc12  1  0.308454  0.435843  0.938153  1
  Sc  Sc13  1  0.808454  0.064157  0.561847  1
  Sc  Sc14  1  0.690915  0.931053  0.061618  1
  Sc  Sc15  1  0.190915  0.568947  0.438382  1
  Sc  Sc16  1  0.482760  0.250000  0.489382  1
  Sc  Sc17  1  0.982760  0.250000  0.010618  1
  Sc  Sc18  1  0.519679  0.750000  0.511767  1
  Sc  Sc19  1  0.019679  0.750000  0.988233  1
  Bi  Bi20  1  0.598225  0.250000  0.032581  1
  Bi  Bi21  1  0.098225  0.250000  0.467419  1
  Bi  Bi22  1  0.564743  0.988953  0.329098  1
  Bi  Bi23  1  0.064743  0.511047  0.170902  1
  Bi  Bi24  1  0.435174  0.489536  0.671947  1
  Bi  Bi25  1  0.935174  0.010464  0.828053  1
  Bi  Bi26  1  0.435174  0.010464  0.671947  1
  Bi  Bi27  1  0.935174  0.489536  0.828053  1
  Bi  Bi28  1  0.564743  0.511047  0.329098  1
  Bi  Bi29  1  0.064743  0.988953  0.170902  1
  Te  Te30  1  0.402953  0.750000  0.967901  1
  Te  Te31  1  0.902953  0.750000  0.532099  1
