# generated using pymatgen
data_LaPrZn6Si2Ge
_symmetry_space_group_name_H-M   'P 1'
_cell_length_a   7.63326902
_cell_length_b   7.64761709
_cell_length_c   4.11245800
_cell_angle_alpha   90.00000000
_cell_angle_beta   90.00000000
_cell_angle_gamma   120.07596613
_symmetry_Int_Tables_number   1
_chemical_formula_structural   LaPrZn6Si2Ge
_chemical_formula_sum   'La1 Pr1 Zn6 Si2 Ge1'
_cell_volume   207.74752343
_cell_formula_units_Z   1
loop_
 _symmetry_equiv_pos_site_id
 _symmetry_equiv_pos_as_xyz
  1  'x, y, z'
loop_
 _atom_site_type_symbol
 _atom_site_label
 _atom_site_symmetry_multiplicity
 _atom_site_fract_x
 _atom_site_fract_y
 _atom_site_fract_z
 _atom_site_occupancy
  La  La0  1  0.664888  0.332895  0.000000  1
  Pr  Pr1  1  0.335317  0.668139  0.000000  1
  Zn  Zn2  1  0.702438  0.995301  0.500000  1
  Zn  Zn3  1  0.000234  0.714139  0.500000  1
  Zn  Zn4  1  0.191727  0.998378  0.000000  1
  Zn  Zn5  1  0.807504  0.807364  0.000000  1
  Zn  Zn6  1  0.297143  0.293121  0.500000  1
  Zn  Zn7  1  0.000736  0.187751  0.000000  1
  Si  Si8  1  0.376163  0.999563  0.500000  1
  Si  Si9  1  0.623471  0.623619  0.500000  1
  Ge  Ge10  1  0.000379  0.379733  0.500000  1
