# generated using pymatgen
data_La2SmTh5(ZnRh)8
_symmetry_space_group_name_H-M   'P 1'
_cell_length_a   3.95984100
_cell_length_b   7.54351252
_cell_length_c   16.61486245
_cell_angle_alpha   89.51375402
_cell_angle_beta   90.00000000
_cell_angle_gamma   90.00000000
_symmetry_Int_Tables_number   1
_chemical_formula_structural   La2SmTh5(ZnRh)8
_chemical_formula_sum   'La2 Sm1 Th5 Zn8 Rh8'
_cell_volume   496.28651408
_cell_formula_units_Z   1
loop_
 _symmetry_equiv_pos_site_id
 _symmetry_equiv_pos_as_xyz
  1  'x, y, z'
loop_
 _atom_site_type_symbol
 _atom_site_label
 _atom_site_symmetry_multiplicity
 _atom_site_fract_x
 _atom_site_fract_y
 _atom_site_fract_z
 _atom_site_occupancy
  La  La0  1  0.750000  0.444397  0.214550  1
  La  La1  1  0.750000  0.944943  0.285242  1
  Sm  Sm2  1  0.250000  0.056577  0.714651  1
  Th  Th3  1  0.750000  0.325577  0.440985  1
  Th  Th4  1  0.250000  0.556741  0.784122  1
  Th  Th5  1  0.250000  0.670978  0.561828  1
  Th  Th6  1  0.750000  0.825880  0.059215  1
  Th  Th7  1  0.250000  0.173272  0.937329  1
  Zn  Zn8  1  0.250000  0.117648  0.150508  1
  Zn  Zn9  1  0.250000  0.993636  0.441582  1
  Zn  Zn10  1  0.750000  0.886585  0.843853  1
  Zn  Zn11  1  0.750000  0.003541  0.563672  1
  Zn  Zn12  1  0.250000  0.492812  0.058351  1
  Zn  Zn13  1  0.750000  0.378010  0.653314  1
  Zn  Zn14  1  0.750000  0.506641  0.940148  1
  Zn  Zn15  1  0.250000  0.616999  0.349445  1
  Rh  Rh16  1  0.750000  0.266626  0.818368  1
  Rh  Rh17  1  0.250000  0.251307  0.321285  1
  Rh  Rh18  1  0.250000  0.757775  0.937002  1
  Rh  Rh19  1  0.250000  0.257301  0.560672  1
  Rh  Rh20  1  0.250000  0.751121  0.177272  1
  Rh  Rh21  1  0.750000  0.740493  0.442490  1
  Rh  Rh22  1  0.750000  0.239528  0.057538  1
  Rh  Rh23  1  0.750000  0.741609  0.686578  1
