# generated using pymatgen
data_K2CaNpO6
_symmetry_space_group_name_H-M   'P 1'
_cell_length_a   6.13317125
_cell_length_b   6.13317023
_cell_length_c   6.13439002
_cell_angle_alpha   120.00121084
_cell_angle_beta   120.00120638
_cell_angle_gamma   89.98651554
_symmetry_Int_Tables_number   1
_chemical_formula_structural   K2CaNpO6
_chemical_formula_sum   'K2 Ca1 Np1 O6'
_cell_volume   163.17803969
_cell_formula_units_Z   1
loop_
 _symmetry_equiv_pos_site_id
 _symmetry_equiv_pos_as_xyz
  1  'x, y, z'
loop_
 _atom_site_type_symbol
 _atom_site_label
 _atom_site_symmetry_multiplicity
 _atom_site_fract_x
 _atom_site_fract_y
 _atom_site_fract_z
 _atom_site_occupancy
  K  K0  1  0.749998  0.249999  0.499997  1
  K  K1  1  0.249999  0.749998  0.499997  1
  Ca  Ca2  1  0.500001  0.500001  0.000000  1
  Np  Np3  1  0.000000  0.000000  0.000000  1
  O  O4  1  0.768643  0.231358  0.000000  1
  O  O5  1  0.231344  0.231344  0.000000  1
  O  O6  1  0.231358  0.768643  0.000000  1
  O  O7  1  0.768659  0.768659  0.000000  1
  O  O8  1  0.768670  0.768670  0.537338  1
  O  O9  1  0.231330  0.231330  0.462661  1
