# generated using pymatgen
data_Y13Th3Mg3CdIr4
_symmetry_space_group_name_H-M   'P 1'
_cell_length_a   9.78823500
_cell_length_b   9.82446503
_cell_length_c   9.82446600
_cell_angle_alpha   59.99999673
_cell_angle_beta   59.87748014
_cell_angle_gamma   59.87748626
_symmetry_Int_Tables_number   1
_chemical_formula_structural   Y13Th3Mg3CdIr4
_chemical_formula_sum   'Y13 Th3 Mg3 Cd1 Ir4'
_cell_volume   666.80755623
_cell_formula_units_Z   1
loop_
 _symmetry_equiv_pos_site_id
 _symmetry_equiv_pos_as_xyz
  1  'x, y, z'
loop_
 _atom_site_type_symbol
 _atom_site_label
 _atom_site_symmetry_multiplicity
 _atom_site_fract_x
 _atom_site_fract_y
 _atom_site_fract_z
 _atom_site_occupancy
  Y  Y0  1  0.954104  0.348632  0.348632  1
  Y  Y1  1  0.812669  0.187963  0.187963  1
  Y  Y2  1  0.188200  0.812413  0.812413  1
  Y  Y3  1  0.188200  0.812413  0.186973  1
  Y  Y4  1  0.812669  0.187963  0.811406  1
  Y  Y5  1  0.188200  0.186973  0.812413  1
  Y  Y6  1  0.812669  0.811406  0.187963  1
  Y  Y7  1  0.938999  0.563813  0.563813  1
  Y  Y8  1  0.564720  0.935067  0.935067  1
  Y  Y9  1  0.564720  0.935067  0.565144  1
  Y  Y10  1  0.938999  0.563813  0.933374  1
  Y  Y11  1  0.564720  0.565144  0.935067  1
  Y  Y12  1  0.938999  0.933374  0.563813  1
  Th  Th13  1  0.345492  0.348323  0.348323  1
  Th  Th14  1  0.345492  0.348323  0.957862  1
  Th  Th15  1  0.345492  0.957862  0.348323  1
  Mg  Mg16  1  0.579410  0.579787  0.579787  1
  Mg  Mg17  1  0.579410  0.579787  0.261018  1
  Mg  Mg18  1  0.579410  0.261018  0.579787  1
  Cd  Cd19  1  0.251273  0.582909  0.582909  1
  Ir  Ir20  1  0.145406  0.141643  0.141643  1
  Ir  Ir21  1  0.145406  0.141643  0.571309  1
  Ir  Ir22  1  0.145406  0.571309  0.141643  1
  Ir  Ir23  1  0.569938  0.143354  0.143354  1
