# generated using pymatgen
data_Zr2Si7(Ir2Rh)4
_symmetry_space_group_name_H-M   'P 1'
_cell_length_a   9.72388144
_cell_length_b   9.70338919
_cell_length_c   3.84032908
_cell_angle_alpha   90.02078569
_cell_angle_beta   89.97987952
_cell_angle_gamma   120.09806487
_symmetry_Int_Tables_number   1
_chemical_formula_structural   Zr2Si7(Ir2Rh)4
_chemical_formula_sum   'Zr2 Si7 Ir8 Rh4'
_cell_volume   313.49609630
_cell_formula_units_Z   1
loop_
 _symmetry_equiv_pos_site_id
 _symmetry_equiv_pos_as_xyz
  1  'x, y, z'
loop_
 _atom_site_type_symbol
 _atom_site_label
 _atom_site_symmetry_multiplicity
 _atom_site_fract_x
 _atom_site_fract_y
 _atom_site_fract_z
 _atom_site_occupancy
  Zr  Zr0  1  0.334210  0.666232  0.738443  1
  Zr  Zr1  1  0.667719  0.334572  0.242946  1
  Si  Si2  1  0.999150  0.998110  0.688765  1
  Si  Si3  1  0.405678  0.290252  0.741482  1
  Si  Si4  1  0.708390  0.115055  0.741503  1
  Si  Si5  1  0.886246  0.595155  0.741349  1
  Si  Si6  1  0.595264  0.708909  0.239330  1
  Si  Si7  1  0.290594  0.886339  0.239839  1
  Si  Si8  1  0.114293  0.405273  0.239795  1
  Ir  Ir9  1  0.446722  0.070483  0.741124  1
  Ir  Ir10  1  0.928664  0.375920  0.741164  1
  Ir  Ir11  1  0.624716  0.552180  0.740793  1
  Ir  Ir12  1  0.552046  0.934208  0.239993  1
  Ir  Ir13  1  0.066341  0.619025  0.239961  1
  Ir  Ir14  1  0.381409  0.447729  0.239793  1
  Ir  Ir15  1  0.149421  0.273732  0.738875  1
  Ir  Ir16  1  0.724051  0.874686  0.738460  1
  Rh  Rh17  1  0.124466  0.850159  0.738942  1
  Rh  Rh18  1  0.862379  0.748081  0.242244  1
  Rh  Rh19  1  0.253606  0.114989  0.242908  1
  Rh  Rh20  1  0.884635  0.138910  0.242294  1
