# generated using pymatgen
data_CeNp3(GeIr)4
_symmetry_space_group_name_H-M   'P 1'
_cell_length_a   4.41940400
_cell_length_b   6.88216366
_cell_length_c   7.58266350
_cell_angle_alpha   89.39097319
_cell_angle_beta   90.00000000
_cell_angle_gamma   90.00000000
_symmetry_Int_Tables_number   1
_chemical_formula_structural   CeNp3(GeIr)4
_chemical_formula_sum   'Ce1 Np3 Ge4 Ir4'
_cell_volume   230.61414886
_cell_formula_units_Z   1
loop_
 _symmetry_equiv_pos_site_id
 _symmetry_equiv_pos_as_xyz
  1  'x, y, z'
loop_
 _atom_site_type_symbol
 _atom_site_label
 _atom_site_symmetry_multiplicity
 _atom_site_fract_x
 _atom_site_fract_y
 _atom_site_fract_z
 _atom_site_occupancy
  Ce  Ce0  1  0.750000  0.484296  0.803269  1
  Np  Np1  1  0.250000  0.015628  0.301890  1
  Np  Np2  1  0.250000  0.519534  0.200593  1
  Np  Np3  1  0.750000  0.986384  0.694191  1
  Ge  Ge4  1  0.250000  0.176772  0.919075  1
  Ge  Ge5  1  0.250000  0.677990  0.582821  1
  Ge  Ge6  1  0.750000  0.825249  0.080583  1
  Ge  Ge7  1  0.750000  0.326027  0.416256  1
  Ir  Ir8  1  0.250000  0.275547  0.585756  1
  Ir  Ir9  1  0.250000  0.782899  0.911575  1
  Ir  Ir10  1  0.750000  0.719413  0.409004  1
  Ir  Ir11  1  0.750000  0.210261  0.094989  1
