# generated using pymatgen
data_YbGdTaIr3
_symmetry_space_group_name_H-M   'P 1'
_cell_length_a   5.23189112
_cell_length_b   5.64899749
_cell_length_c   5.64899600
_cell_angle_alpha   59.99999702
_cell_angle_beta   57.32575758
_cell_angle_gamma   57.32575983
_symmetry_Int_Tables_number   1
_chemical_formula_structural   YbGdTaIr3
_chemical_formula_sum   'Yb1 Gd1 Ta1 Ir3'
_cell_volume   113.05616547
_cell_formula_units_Z   1
loop_
 _symmetry_equiv_pos_site_id
 _symmetry_equiv_pos_as_xyz
  1  'x, y, z'
loop_
 _atom_site_type_symbol
 _atom_site_label
 _atom_site_symmetry_multiplicity
 _atom_site_fract_x
 _atom_site_fract_y
 _atom_site_fract_z
 _atom_site_occupancy
  Yb  Yb0  1  0.750350  0.749883  0.749883  1
  Gd  Gd1  1  0.497083  0.500972  0.500972  1
  Ta  Ta2  1  0.622616  0.125795  0.125795  1
  Ir  Ir3  1  0.126651  0.123426  0.123426  1
  Ir  Ir4  1  0.126651  0.123426  0.626498  1
  Ir  Ir5  1  0.126651  0.626498  0.123426  1
