# generated using pymatgen
data_YbPr17(CdIr6)2
_symmetry_space_group_name_H-M   'P 1'
_cell_length_a   11.26916000
_cell_length_b   11.26916000
_cell_length_c   6.44701100
_cell_angle_alpha   90.00000000
_cell_angle_beta   90.00000000
_cell_angle_gamma   90.00000000
_symmetry_Int_Tables_number   1
_chemical_formula_structural   YbPr17(CdIr6)2
_chemical_formula_sum   'Yb1 Pr17 Cd2 Ir12'
_cell_volume   818.73150286
_cell_formula_units_Z   1
loop_
 _symmetry_equiv_pos_site_id
 _symmetry_equiv_pos_as_xyz
  1  'x, y, z'
loop_
 _atom_site_type_symbol
 _atom_site_label
 _atom_site_symmetry_multiplicity
 _atom_site_fract_x
 _atom_site_fract_y
 _atom_site_fract_z
 _atom_site_occupancy
  Yb  Yb0  1  0.000000  0.000000  0.000000  1
  Pr  Pr1  1  0.280386  0.087029  0.384565  1
  Pr  Pr2  1  0.288219  0.914959  0.878706  1
  Pr  Pr3  1  0.711781  0.085041  0.878706  1
  Pr  Pr4  1  0.719614  0.912971  0.384565  1
  Pr  Pr5  1  0.586087  0.781118  0.882685  1
  Pr  Pr6  1  0.588729  0.207821  0.376712  1
  Pr  Pr7  1  0.411271  0.792179  0.376712  1
  Pr  Pr8  1  0.413913  0.218882  0.882685  1
  Pr  Pr9  1  0.207821  0.411271  0.623288  1
  Pr  Pr10  1  0.218882  0.586087  0.117315  1
  Pr  Pr11  1  0.781118  0.413913  0.117315  1
  Pr  Pr12  1  0.792179  0.588729  0.623288  1
  Pr  Pr13  1  0.914959  0.711781  0.121294  1
  Pr  Pr14  1  0.912971  0.280386  0.615435  1
  Pr  Pr15  1  0.087029  0.719614  0.615435  1
  Pr  Pr16  1  0.085041  0.288219  0.121294  1
  Pr  Pr17  1  0.500000  0.500000  0.500000  1
  Cd  Cd18  1  0.000000  0.000000  0.500000  1
  Cd  Cd19  1  0.500000  0.500000  0.000000  1
  Ir  Ir20  1  0.846521  0.156719  0.239666  1
  Ir  Ir21  1  0.843281  0.846521  0.760334  1
  Ir  Ir22  1  0.156719  0.153479  0.760334  1
  Ir  Ir23  1  0.153479  0.843281  0.239666  1
  Ir  Ir24  1  0.658364  0.344725  0.739142  1
  Ir  Ir25  1  0.655275  0.658364  0.260858  1
  Ir  Ir26  1  0.344725  0.341636  0.260858  1
  Ir  Ir27  1  0.341636  0.655275  0.739142  1
  Ir  Ir28  1  0.500000  0.000000  0.112411  1
  Ir  Ir29  1  0.500000  0.000000  0.612984  1
  Ir  Ir30  1  0.000000  0.500000  0.887589  1
  Ir  Ir31  1  0.000000  0.500000  0.387016  1
