# generated using pymatgen
data_Tb6DyY(Sc3Si4)4
_symmetry_space_group_name_H-M   'P 1'
_cell_length_a   7.11350303
_cell_length_b   7.40242513
_cell_length_c   14.03326840
_cell_angle_alpha   89.98054995
_cell_angle_beta   90.01185350
_cell_angle_gamma   90.00933120
_symmetry_Int_Tables_number   1
_chemical_formula_structural   Tb6DyY(Sc3Si4)4
_chemical_formula_sum   'Tb6 Dy1 Y1 Sc12 Si16'
_cell_volume   738.95218111
_cell_formula_units_Z   1
loop_
 _symmetry_equiv_pos_site_id
 _symmetry_equiv_pos_as_xyz
  1  'x, y, z'
loop_
 _atom_site_type_symbol
 _atom_site_label
 _atom_site_symmetry_multiplicity
 _atom_site_fract_x
 _atom_site_fract_y
 _atom_site_fract_z
 _atom_site_occupancy
  Tb  Tb0  1  0.011968  0.174803  0.097111  1
  Tb  Tb1  1  0.988025  0.825185  0.902906  1
  Tb  Tb2  1  0.488014  0.674793  0.902934  1
  Tb  Tb3  1  0.987990  0.825186  0.597052  1
  Tb  Tb4  1  0.511992  0.325198  0.097054  1
  Tb  Tb5  1  0.012005  0.174836  0.402914  1
  Dy  Dy6  1  0.487961  0.674943  0.597168  1
  Y  Y7  1  0.511909  0.325217  0.402966  1
  Sc  Sc8  1  0.160616  0.502280  0.749962  1
  Sc  Sc9  1  0.839414  0.497761  0.250034  1
  Sc  Sc10  1  0.339490  0.002236  0.250074  1
  Sc  Sc11  1  0.660580  0.997740  0.749942  1
  Sc  Sc12  1  0.330544  0.176699  0.625111  1
  Sc  Sc13  1  0.669449  0.823288  0.374953  1
  Sc  Sc14  1  0.169528  0.676603  0.374914  1
  Sc  Sc15  1  0.669494  0.823360  0.125102  1
  Sc  Sc16  1  0.830384  0.323365  0.625069  1
  Sc  Sc17  1  0.330556  0.176603  0.874865  1
  Sc  Sc18  1  0.830481  0.323360  0.874861  1
  Sc  Sc19  1  0.169500  0.676696  0.125112  1
  Si  Si20  1  0.033405  0.118465  0.749981  1
  Si  Si21  1  0.966615  0.881529  0.250003  1
  Si  Si22  1  0.466592  0.618418  0.250012  1
  Si  Si23  1  0.533349  0.381669  0.749926  1
  Si  Si24  1  0.285685  0.874508  0.749909  1
  Si  Si25  1  0.714445  0.125376  0.250014  1
  Si  Si26  1  0.214498  0.374633  0.250047  1
  Si  Si27  1  0.785403  0.625406  0.749916  1
  Si  Si28  1  0.157481  0.464624  0.539470  1
  Si  Si29  1  0.842675  0.535560  0.460571  1
  Si  Si30  1  0.342895  0.964333  0.460601  1
  Si  Si31  1  0.842866  0.535515  0.039429  1
  Si  Si32  1  0.657061  0.035362  0.539466  1
  Si  Si33  1  0.157136  0.464463  0.960561  1
  Si  Si34  1  0.657174  0.035515  0.960562  1
  Si  Si35  1  0.342816  0.964473  0.039431  1
