# generated using pymatgen
data_SmSc2Ni9
_symmetry_space_group_name_H-M   'P 1'
_cell_length_a   8.44240809
_cell_length_b   8.44240824
_cell_length_c   8.44240809
_cell_angle_alpha   33.61967636
_cell_angle_beta   33.61967460
_cell_angle_gamma   33.61967529
_symmetry_Int_Tables_number   1
_chemical_formula_structural   SmSc2Ni9
_chemical_formula_sum   'Sm1 Sc2 Ni9'
_cell_volume   164.32375824
_cell_formula_units_Z   1
loop_
 _symmetry_equiv_pos_site_id
 _symmetry_equiv_pos_as_xyz
  1  'x, y, z'
loop_
 _atom_site_type_symbol
 _atom_site_label
 _atom_site_symmetry_multiplicity
 _atom_site_fract_x
 _atom_site_fract_y
 _atom_site_fract_z
 _atom_site_occupancy
  Sm  Sm0  1  0.000000  0.000000  0.000000  1
  Sc  Sc1  1  0.858425  0.858425  0.858425  1
  Sc  Sc2  1  0.141575  0.141575  0.141575  1
  Ni  Ni3  1  0.413425  0.917504  0.413425  1
  Ni  Ni4  1  0.413425  0.413425  0.917504  1
  Ni  Ni5  1  0.917504  0.413425  0.413425  1
  Ni  Ni6  1  0.586575  0.082496  0.586575  1
  Ni  Ni7  1  0.586575  0.586575  0.082496  1
  Ni  Ni8  1  0.082496  0.586575  0.586575  1
  Ni  Ni9  1  0.666653  0.666653  0.666653  1
  Ni  Ni10  1  0.333347  0.333347  0.333347  1
  Ni  Ni11  1  0.500000  0.500000  0.500000  1
