# generated using pymatgen
data_Er3TmRe5Os3
_symmetry_space_group_name_H-M   'P 1'
_cell_length_a   5.35503808
_cell_length_b   5.24616785
_cell_length_c   8.97838300
_cell_angle_alpha   90.00004393
_cell_angle_beta   90.00217631
_cell_angle_gamma   119.44980743
_symmetry_Int_Tables_number   1
_chemical_formula_structural   Er3TmRe5Os3
_chemical_formula_sum   'Er3 Tm1 Re5 Os3'
_cell_volume   219.64164057
_cell_formula_units_Z   1
loop_
 _symmetry_equiv_pos_site_id
 _symmetry_equiv_pos_as_xyz
  1  'x, y, z'
loop_
 _atom_site_type_symbol
 _atom_site_label
 _atom_site_symmetry_multiplicity
 _atom_site_fract_x
 _atom_site_fract_y
 _atom_site_fract_z
 _atom_site_occupancy
  Er  Er0  1  0.669164  0.334936  0.562301  1
  Er  Er1  1  0.328913  0.664238  0.436141  1
  Er  Er2  1  0.328910  0.664262  0.063817  1
  Tm  Tm3  1  0.669234  0.334971  0.937687  1
  Re  Re4  1  0.171173  0.341361  0.750101  1
  Re  Re5  1  0.171411  0.831931  0.750087  1
  Re  Re6  1  0.656123  0.827398  0.750112  1
  Re  Re7  1  0.832743  0.662843  0.249928  1
  Re  Re8  1  0.833437  0.170364  0.249929  1
  Os  Os9  1  0.993228  0.995699  0.499322  1
  Os  Os10  1  0.993179  0.995670  0.000654  1
  Os  Os11  1  0.352488  0.176329  0.249921  1
