# generated using pymatgen
data_Hf4Ag(AsO4)6
_symmetry_space_group_name_H-M   'P 1'
_cell_length_a   9.14925965
_cell_length_b   9.14925942
_cell_length_c   9.43507600
_cell_angle_alpha   60.99711434
_cell_angle_beta   60.99712229
_cell_angle_gamma   60.00000044
_symmetry_Int_Tables_number   1
_chemical_formula_structural   Hf4Ag(AsO4)6
_chemical_formula_sum   'Hf4 Ag1 As6 O24'
_cell_volume   566.74266056
_cell_formula_units_Z   1
loop_
 _symmetry_equiv_pos_site_id
 _symmetry_equiv_pos_as_xyz
  1  'x, y, z'
loop_
 _atom_site_type_symbol
 _atom_site_label
 _atom_site_symmetry_multiplicity
 _atom_site_fract_x
 _atom_site_fract_y
 _atom_site_fract_z
 _atom_site_occupancy
  Hf  Hf0  1  0.140794  0.140794  0.577618  1
  Hf  Hf1  1  0.859206  0.859206  0.422382  1
  Hf  Hf2  1  0.644448  0.644448  0.066659  1
  Hf  Hf3  1  0.355552  0.355552  0.933341  1
  Ag  Ag4  1  0.500000  0.500000  0.500000  1
  As  As5  1  0.960282  0.255516  0.257817  1
  As  As6  1  0.255516  0.526384  0.257817  1
  As  As7  1  0.526384  0.960282  0.257817  1
  As  As8  1  0.039718  0.744484  0.742183  1
  As  As9  1  0.744484  0.473616  0.742183  1
  As  As10  1  0.473616  0.039718  0.742183  1
  O  O11  1  0.984437  0.264055  0.420710  1
  O  O12  1  0.264055  0.330800  0.420710  1
  O  O13  1  0.330800  0.984437  0.420710  1
  O  O14  1  0.015563  0.735945  0.579290  1
  O  O15  1  0.735945  0.669200  0.579290  1
  O  O16  1  0.669200  0.015563  0.579290  1
  O  O17  1  0.504138  0.879021  0.930081  1
  O  O18  1  0.879021  0.686759  0.930081  1
  O  O19  1  0.686759  0.504138  0.930081  1
  O  O20  1  0.495862  0.120979  0.069919  1
  O  O21  1  0.120979  0.313241  0.069919  1
  O  O22  1  0.313241  0.495862  0.069919  1
  O  O23  1  0.027977  0.946449  0.716971  1
  O  O24  1  0.946449  0.308604  0.716971  1
  O  O25  1  0.308604  0.027977  0.716971  1
  O  O26  1  0.972023  0.053551  0.283029  1
  O  O27  1  0.053551  0.691396  0.283029  1
  O  O28  1  0.691396  0.972023  0.283029  1
  O  O29  1  0.591671  0.751457  0.248809  1
  O  O30  1  0.751457  0.408063  0.248809  1
  O  O31  1  0.408063  0.591671  0.248809  1
  O  O32  1  0.408329  0.248543  0.751191  1
  O  O33  1  0.248543  0.591937  0.751191  1
  O  O34  1  0.591937  0.408329  0.751191  1
