# generated using pymatgen
data_TbHo5Tm10In4Ir3Ru
_symmetry_space_group_name_H-M   'P 1'
_cell_length_a   9.57880546
_cell_length_b   9.57999149
_cell_length_c   9.59767300
_cell_angle_alpha   59.93893037
_cell_angle_beta   59.93482432
_cell_angle_gamma   59.86242292
_symmetry_Int_Tables_number   1
_chemical_formula_structural   TbHo5Tm10In4Ir3Ru
_chemical_formula_sum   'Tb1 Ho5 Tm10 In4 Ir3 Ru1'
_cell_volume   621.52654369
_cell_formula_units_Z   1
loop_
 _symmetry_equiv_pos_site_id
 _symmetry_equiv_pos_as_xyz
  1  'x, y, z'
loop_
 _atom_site_type_symbol
 _atom_site_label
 _atom_site_symmetry_multiplicity
 _atom_site_fract_x
 _atom_site_fract_y
 _atom_site_fract_z
 _atom_site_occupancy
  Tb  Tb0  1  0.436850  0.439984  0.061583  1
  Ho  Ho1  1  0.438671  0.058925  0.059125  1
  Ho  Ho2  1  0.058990  0.060540  0.440235  1
  Ho  Ho3  1  0.649649  0.047037  0.651658  1
  Ho  Ho4  1  0.810073  0.807925  0.191001  1
  Ho  Ho5  1  0.438671  0.058925  0.443278  1
  Tm  Tm6  1  0.650278  0.651306  0.044426  1
  Tm  Tm7  1  0.193274  0.809547  0.189226  1
  Tm  Tm8  1  0.057689  0.440795  0.059194  1
  Tm  Tm9  1  0.193274  0.809547  0.807953  1
  Tm  Tm10  1  0.057689  0.440795  0.442322  1
  Tm  Tm11  1  0.810715  0.191854  0.190462  1
  Tm  Tm12  1  0.650278  0.651306  0.653991  1
  Tm  Tm13  1  0.810715  0.191854  0.806968  1
  Tm  Tm14  1  0.192331  0.189667  0.809001  1
  Tm  Tm15  1  0.047787  0.650261  0.650978  1
  In  In16  1  0.416729  0.417627  0.417222  1
  In  In17  1  0.416729  0.417627  0.748423  1
  In  In18  1  0.417144  0.748792  0.417033  1
  In  In19  1  0.749028  0.418616  0.416178  1
  Ir  Ir20  1  0.860929  0.857736  0.858851  1
  Ir  Ir21  1  0.860862  0.422289  0.858424  1
  Ir  Ir22  1  0.860929  0.857736  0.422481  1
  Ru  Ru23  1  0.420715  0.859308  0.859989  1
