# generated using pymatgen
data_Zr10Bi6C
_symmetry_space_group_name_H-M   'P 1'
_cell_length_a   8.68674900
_cell_length_b   8.68674985
_cell_length_c   5.91598400
_cell_angle_alpha   90.00000000
_cell_angle_beta   90.00000000
_cell_angle_gamma   120.00000058
_symmetry_Int_Tables_number   1
_chemical_formula_structural   Zr10Bi6C
_chemical_formula_sum   'Zr10 Bi6 C1'
_cell_volume   386.60922099
_cell_formula_units_Z   1
loop_
 _symmetry_equiv_pos_site_id
 _symmetry_equiv_pos_as_xyz
  1  'x, y, z'
loop_
 _atom_site_type_symbol
 _atom_site_label
 _atom_site_symmetry_multiplicity
 _atom_site_fract_x
 _atom_site_fract_y
 _atom_site_fract_z
 _atom_site_occupancy
  Zr  Zr0  1  0.000000  0.778291  0.269629  1
  Zr  Zr1  1  0.221709  0.221709  0.269629  1
  Zr  Zr2  1  0.778291  0.000000  0.269629  1
  Zr  Zr3  1  0.000000  0.221709  0.730371  1
  Zr  Zr4  1  0.778291  0.778291  0.730371  1
  Zr  Zr5  1  0.221709  0.000000  0.730371  1
  Zr  Zr6  1  0.333333  0.666667  0.000000  1
  Zr  Zr7  1  0.666667  0.333333  0.000000  1
  Zr  Zr8  1  0.666667  0.333333  0.500000  1
  Zr  Zr9  1  0.333333  0.666667  0.500000  1
  Bi  Bi10  1  0.000000  0.397062  0.243522  1
  Bi  Bi11  1  0.602938  0.602938  0.243522  1
  Bi  Bi12  1  0.397062  0.000000  0.243522  1
  Bi  Bi13  1  0.000000  0.602938  0.756478  1
  Bi  Bi14  1  0.397062  0.397062  0.756478  1
  Bi  Bi15  1  0.602938  0.000000  0.756478  1
  C  C16  1  0.000000  0.000000  0.500000  1
