# generated using pymatgen
data_Tb5Er(ThSn2)4
_symmetry_space_group_name_H-M   'P 1'
_cell_length_a   8.13931800
_cell_length_b   8.25331600
_cell_length_c   15.59923400
_cell_angle_alpha   90.00000000
_cell_angle_beta   90.00000000
_cell_angle_gamma   90.00000000
_symmetry_Int_Tables_number   1
_chemical_formula_structural   Tb5Er(ThSn2)4
_chemical_formula_sum   'Tb10 Er2 Th8 Sn16'
_cell_volume   1047.89981317
_cell_formula_units_Z   2
loop_
 _symmetry_equiv_pos_site_id
 _symmetry_equiv_pos_as_xyz
  1  'x, y, z'
loop_
 _atom_site_type_symbol
 _atom_site_label
 _atom_site_symmetry_multiplicity
 _atom_site_fract_x
 _atom_site_fract_y
 _atom_site_fract_z
 _atom_site_occupancy
  Tb  Tb0  1  0.364462  0.836071  0.876763  1
  Tb  Tb1  1  0.864462  0.663929  0.623237  1
  Tb  Tb2  1  0.635549  0.163887  0.376867  1
  Tb  Tb3  1  0.135549  0.336113  0.123133  1
  Tb  Tb4  1  0.635549  0.163887  0.123133  1
  Tb  Tb5  1  0.135549  0.336113  0.376867  1
  Tb  Tb6  1  0.364462  0.836071  0.623237  1
  Tb  Tb7  1  0.864462  0.663929  0.876763  1
  Tb  Tb8  1  0.807127  0.502795  0.250000  1
  Tb  Tb9  1  0.307127  0.997205  0.250000  1
  Er  Er10  1  0.193192  0.497211  0.750000  1
  Er  Er11  1  0.693192  0.002789  0.750000  1
  Th  Th12  1  0.519459  0.320294  0.903043  1
  Th  Th13  1  0.019459  0.179706  0.596957  1
  Th  Th14  1  0.480573  0.679854  0.403078  1
  Th  Th15  1  0.980573  0.820146  0.096922  1
  Th  Th16  1  0.480573  0.679854  0.096922  1
  Th  Th17  1  0.980573  0.820146  0.403078  1
  Th  Th18  1  0.519459  0.320294  0.596957  1
  Th  Th19  1  0.019459  0.179706  0.903043  1
  Sn  Sn20  1  0.295666  0.037922  0.042065  1
  Sn  Sn21  1  0.795666  0.462078  0.457935  1
  Sn  Sn22  1  0.704260  0.962167  0.542415  1
  Sn  Sn23  1  0.204260  0.537833  0.957585  1
  Sn  Sn24  1  0.704260  0.962167  0.957585  1
  Sn  Sn25  1  0.204260  0.537833  0.542415  1
  Sn  Sn26  1  0.295666  0.037922  0.457935  1
  Sn  Sn27  1  0.795666  0.462078  0.042065  1
  Sn  Sn28  1  0.559837  0.620591  0.750000  1
  Sn  Sn29  1  0.059837  0.879409  0.750000  1
  Sn  Sn30  1  0.439489  0.379611  0.250000  1
  Sn  Sn31  1  0.939489  0.120389  0.250000  1
  Sn  Sn32  1  0.325956  0.142481  0.750000  1
  Sn  Sn33  1  0.825956  0.357519  0.750000  1
  Sn  Sn34  1  0.674463  0.858115  0.250000  1
  Sn  Sn35  1  0.174463  0.641885  0.250000  1
