# generated using pymatgen
data_HoEr4Bi2Pt
_symmetry_space_group_name_H-M   'P 1'
_cell_length_a   8.01980300
_cell_length_b   9.01338300
_cell_length_c   12.30503200
_cell_angle_alpha   90.00000000
_cell_angle_beta   90.00000000
_cell_angle_gamma   90.00000000
_symmetry_Int_Tables_number   1
_chemical_formula_structural   HoEr4Bi2Pt
_chemical_formula_sum   'Ho4 Er16 Bi8 Pt4'
_cell_volume   889.47608001
_cell_formula_units_Z   4
loop_
 _symmetry_equiv_pos_site_id
 _symmetry_equiv_pos_as_xyz
  1  'x, y, z'
loop_
 _atom_site_type_symbol
 _atom_site_label
 _atom_site_symmetry_multiplicity
 _atom_site_fract_x
 _atom_site_fract_y
 _atom_site_fract_z
 _atom_site_occupancy
  Ho  Ho0  1  0.627874  0.750000  0.303464  1
  Ho  Ho1  1  0.872126  0.750000  0.803464  1
  Ho  Ho2  1  0.372126  0.250000  0.696536  1
  Ho  Ho3  1  0.127874  0.250000  0.196536  1
  Er  Er4  1  0.165828  0.750000  0.210749  1
  Er  Er5  1  0.334172  0.750000  0.710749  1
  Er  Er6  1  0.834172  0.250000  0.789251  1
  Er  Er7  1  0.665828  0.250000  0.289251  1
  Er  Er8  1  0.452603  0.750000  0.999870  1
  Er  Er9  1  0.047397  0.750000  0.499870  1
  Er  Er10  1  0.547397  0.250000  0.000130  1
  Er  Er11  1  0.952603  0.250000  0.500130  1
  Er  Er12  1  0.822619  0.548325  0.066428  1
  Er  Er13  1  0.677381  0.951675  0.566428  1
  Er  Er14  1  0.177381  0.048325  0.933572  1
  Er  Er15  1  0.322619  0.451675  0.433572  1
  Er  Er16  1  0.177381  0.451675  0.933572  1
  Er  Er17  1  0.322619  0.048325  0.433572  1
  Er  Er18  1  0.822619  0.951675  0.066428  1
  Er  Er19  1  0.677381  0.548325  0.566428  1
  Bi  Bi20  1  0.932575  0.509419  0.326959  1
  Bi  Bi21  1  0.567425  0.990581  0.826959  1
  Bi  Bi22  1  0.067425  0.009419  0.673041  1
  Bi  Bi23  1  0.432575  0.490581  0.173041  1
  Bi  Bi24  1  0.067425  0.490581  0.673041  1
  Bi  Bi25  1  0.432575  0.009419  0.173041  1
  Bi  Bi26  1  0.932575  0.990581  0.326959  1
  Bi  Bi27  1  0.567425  0.509419  0.826959  1
  Pt  Pt28  1  0.417982  0.750000  0.487755  1
  Pt  Pt29  1  0.082018  0.750000  0.987755  1
  Pt  Pt30  1  0.582018  0.250000  0.512245  1
  Pt  Pt31  1  0.917982  0.250000  0.012245  1
