# generated using pymatgen
data_Ce6TcAu7
_symmetry_space_group_name_H-M   'P 1'
_cell_length_a   8.23897832
_cell_length_b   8.23897862
_cell_length_c   8.23898087
_cell_angle_alpha   114.27597879
_cell_angle_beta   114.27598649
_cell_angle_gamma   114.27596196
_symmetry_Int_Tables_number   1
_chemical_formula_structural   Ce6TcAu7
_chemical_formula_sum   'Ce6 Tc1 Au7'
_cell_volume   332.71716841
_cell_formula_units_Z   1
loop_
 _symmetry_equiv_pos_site_id
 _symmetry_equiv_pos_as_xyz
  1  'x, y, z'
loop_
 _atom_site_type_symbol
 _atom_site_label
 _atom_site_symmetry_multiplicity
 _atom_site_fract_x
 _atom_site_fract_y
 _atom_site_fract_z
 _atom_site_occupancy
  Ce  Ce0  1  0.013636  0.374962  0.263046  1
  Ce  Ce1  1  0.374962  0.263046  0.013636  1
  Ce  Ce2  1  0.736954  0.986364  0.625038  1
  Ce  Ce3  1  0.263046  0.013636  0.374962  1
  Ce  Ce4  1  0.625038  0.736954  0.986364  1
  Ce  Ce5  1  0.986364  0.625038  0.736954  1
  Tc  Tc6  1  0.000000  0.000000  0.000000  1
  Au  Au7  1  0.500000  0.500000  0.500000  1
  Au  Au8  1  0.423562  0.923772  0.761075  1
  Au  Au9  1  0.923772  0.761075  0.423562  1
  Au  Au10  1  0.238925  0.576438  0.076228  1
  Au  Au11  1  0.761075  0.423562  0.923772  1
  Au  Au12  1  0.076228  0.238925  0.576438  1
  Au  Au13  1  0.576438  0.076228  0.238925  1
