# generated using pymatgen
data_Y3HoGa12Au
_symmetry_space_group_name_H-M   'P 1'
_cell_length_a   7.53919623
_cell_length_b   7.53919685
_cell_length_c   7.54569600
_cell_angle_alpha   109.48868419
_cell_angle_beta   109.48868584
_cell_angle_gamma   109.45374813
_symmetry_Int_Tables_number   1
_chemical_formula_structural   Y3HoGa12Au
_chemical_formula_sum   'Y3 Ho1 Ga12 Au1'
_cell_volume   330.09116986
_cell_formula_units_Z   1
loop_
 _symmetry_equiv_pos_site_id
 _symmetry_equiv_pos_as_xyz
  1  'x, y, z'
loop_
 _atom_site_type_symbol
 _atom_site_label
 _atom_site_symmetry_multiplicity
 _atom_site_fract_x
 _atom_site_fract_y
 _atom_site_fract_z
 _atom_site_occupancy
  Y  Y0  1  0.500000  0.500000  0.500000  1
  Y  Y1  1  0.000000  0.500000  0.000000  1
  Y  Y2  1  0.500000  0.000000  0.000000  1
  Ho  Ho3  1  0.000000  0.000000  0.500000  1
  Ga  Ga4  1  0.500300  0.750150  0.250150  1
  Ga  Ga5  1  0.499700  0.249850  0.749850  1
  Ga  Ga6  1  0.249850  0.499700  0.749850  1
  Ga  Ga7  1  0.750150  0.500300  0.250150  1
  Ga  Ga8  1  0.750150  0.249850  0.500000  1
  Ga  Ga9  1  0.249850  0.750150  0.500000  1
  Ga  Ga10  1  0.000000  0.304451  0.304796  1
  Ga  Ga11  1  0.000000  0.695549  0.695204  1
  Ga  Ga12  1  0.304451  0.000000  0.304796  1
  Ga  Ga13  1  0.695549  0.000000  0.695204  1
  Ga  Ga14  1  0.304451  0.304451  0.999656  1
  Ga  Ga15  1  0.695549  0.695549  0.000344  1
  Au  Au16  1  0.000000  0.000000  0.000000  1
