# generated using pymatgen
data_Er3NiSn(PtPb)2
_symmetry_space_group_name_H-M   'P 1'
_cell_length_a   7.72676757
_cell_length_b   7.69163895
_cell_length_c   3.77543000
_cell_angle_alpha   90.00000000
_cell_angle_beta   90.00000000
_cell_angle_gamma   119.84972606
_symmetry_Int_Tables_number   1
_chemical_formula_structural   Er3NiSn(PtPb)2
_chemical_formula_sum   'Er3 Ni1 Sn1 Pt2 Pb2'
_cell_volume   194.61192019
_cell_formula_units_Z   1
loop_
 _symmetry_equiv_pos_site_id
 _symmetry_equiv_pos_as_xyz
  1  'x, y, z'
loop_
 _atom_site_type_symbol
 _atom_site_label
 _atom_site_symmetry_multiplicity
 _atom_site_fract_x
 _atom_site_fract_y
 _atom_site_fract_z
 _atom_site_occupancy
  Er  Er0  1  0.401626  0.403922  0.500000  1
  Er  Er1  1  0.598374  0.002296  0.500000  1
  Er  Er2  1  0.000000  0.592920  0.500000  1
  Ni  Ni3  1  0.000000  0.007971  0.500000  1
  Sn  Sn4  1  0.000000  0.252719  0.000000  1
  Pt  Pt5  1  0.671748  0.331725  0.000000  1
  Pt  Pt6  1  0.328252  0.659978  0.000000  1
  Pb  Pb7  1  0.746098  0.747283  0.000000  1
  Pb  Pb8  1  0.253902  0.001185  0.000000  1
