# generated using pymatgen
data_Pr3CdInPb3
_symmetry_space_group_name_H-M   'P 1'
_cell_length_a   6.73257848
_cell_length_b   6.73257879
_cell_length_c   10.69392308
_cell_angle_alpha   90.68385844
_cell_angle_beta   90.68385662
_cell_angle_gamma   102.49045015
_symmetry_Int_Tables_number   1
_chemical_formula_structural   Pr3CdInPb3
_chemical_formula_sum   'Pr6 Cd2 In2 Pb6'
_cell_volume   473.17144416
_cell_formula_units_Z   2
loop_
 _symmetry_equiv_pos_site_id
 _symmetry_equiv_pos_as_xyz
  1  'x, y, z'
loop_
 _atom_site_type_symbol
 _atom_site_label
 _atom_site_symmetry_multiplicity
 _atom_site_fract_x
 _atom_site_fract_y
 _atom_site_fract_z
 _atom_site_occupancy
  Pr  Pr0  1  0.625167  0.625167  0.252266  1
  Pr  Pr1  1  0.374833  0.374833  0.747734  1
  Pr  Pr2  1  0.202737  0.797263  0.500000  1
  Pr  Pr3  1  0.206196  0.793804  0.000000  1
  Pr  Pr4  1  0.797263  0.202737  0.500000  1
  Pr  Pr5  1  0.793804  0.206196  0.000000  1
  Cd  Cd6  1  0.317054  0.317054  0.041880  1
  Cd  Cd7  1  0.682946  0.682946  0.958120  1
  In  In8  1  0.311570  0.311570  0.455942  1
  In  In9  1  0.688430  0.688430  0.544058  1
  Pb  Pb10  1  0.014714  0.014714  0.246592  1
  Pb  Pb11  1  0.985286  0.985286  0.753408  1
  Pb  Pb12  1  0.500283  0.073809  0.247850  1
  Pb  Pb13  1  0.926191  0.499717  0.752150  1
  Pb  Pb14  1  0.499717  0.926191  0.752150  1
  Pb  Pb15  1  0.073809  0.500283  0.247850  1
