# generated using pymatgen
data_Zr10Al2SnBi4Sb
_symmetry_space_group_name_H-M   'P 1'
_cell_length_a   8.82771900
_cell_length_b   8.85893967
_cell_length_c   5.93917000
_cell_angle_alpha   90.00000000
_cell_angle_beta   90.00000000
_cell_angle_gamma   119.88349246
_symmetry_Int_Tables_number   1
_chemical_formula_structural   Zr10Al2SnBi4Sb
_chemical_formula_sum   'Zr10 Al2 Sn1 Bi4 Sb1'
_cell_volume   402.71267742
_cell_formula_units_Z   1
loop_
 _symmetry_equiv_pos_site_id
 _symmetry_equiv_pos_as_xyz
  1  'x, y, z'
loop_
 _atom_site_type_symbol
 _atom_site_label
 _atom_site_symmetry_multiplicity
 _atom_site_fract_x
 _atom_site_fract_y
 _atom_site_fract_z
 _atom_site_occupancy
  Zr  Zr0  1  0.337388  0.674121  0.999619  1
  Zr  Zr1  1  0.663268  0.325879  0.500381  1
  Zr  Zr2  1  0.663268  0.325879  0.999619  1
  Zr  Zr3  1  0.337388  0.674121  0.500381  1
  Zr  Zr4  1  0.270583  0.000000  0.250000  1
  Zr  Zr5  1  0.270103  0.264203  0.750000  1
  Zr  Zr6  1  0.005900  0.735797  0.750000  1
  Zr  Zr7  1  0.992917  0.260886  0.250000  1
  Zr  Zr8  1  0.732031  0.739114  0.250000  1
  Zr  Zr9  1  0.727391  0.000000  0.750000  1
  Al  Al10  1  0.000946  0.000000  0.997581  1
  Al  Al11  1  0.000946  0.000000  0.502419  1
  Sn  Sn12  1  0.385759  0.000000  0.750000  1
  Bi  Bi13  1  0.614995  0.613004  0.750000  1
  Bi  Bi14  1  0.001991  0.386996  0.750000  1
  Bi  Bi15  1  0.998625  0.611772  0.250000  1
  Bi  Bi16  1  0.386853  0.388228  0.250000  1
  Sb  Sb17  1  0.609651  0.000000  0.250000  1
