# generated using pymatgen
data_Y3Pa(CdPd2)2
_symmetry_space_group_name_H-M   'P 1'
_cell_length_a   7.78847598
_cell_length_b   7.78845788
_cell_length_c   3.70705800
_cell_angle_alpha   90.00000000
_cell_angle_beta   90.00000000
_cell_angle_gamma   91.73272763
_symmetry_Int_Tables_number   1
_chemical_formula_structural   Y3Pa(CdPd2)2
_chemical_formula_sum   'Y3 Pa1 Cd2 Pd4'
_cell_volume   224.76812134
_cell_formula_units_Z   1
loop_
 _symmetry_equiv_pos_site_id
 _symmetry_equiv_pos_as_xyz
  1  'x, y, z'
loop_
 _atom_site_type_symbol
 _atom_site_label
 _atom_site_symmetry_multiplicity
 _atom_site_fract_x
 _atom_site_fract_y
 _atom_site_fract_z
 _atom_site_occupancy
  Y  Y0  1  0.827875  0.669329  0.500000  1
  Y  Y1  1  0.169326  0.327870  0.500000  1
  Y  Y2  1  0.673908  0.173909  0.500000  1
  Pa  Pa3  1  0.331419  0.831418  0.500000  1
  Cd  Cd4  1  0.995600  0.000052  0.000000  1
  Cd  Cd5  1  0.500052  0.495601  0.000000  1
  Pd  Pd6  1  0.366594  0.117253  0.000000  1
  Pd  Pd7  1  0.877259  0.377261  0.000000  1
  Pd  Pd8  1  0.140713  0.640712  0.000000  1
  Pd  Pd9  1  0.617254  0.866594  0.000000  1
