# generated using pymatgen
data_Sc6Al6RuRh11
_symmetry_space_group_name_H-M   'P 1'
_cell_length_a   4.43963800
_cell_length_b   6.22117100
_cell_length_c   13.21398600
_cell_angle_alpha   90.00000000
_cell_angle_beta   89.99963318
_cell_angle_gamma   90.00000000
_symmetry_Int_Tables_number   1
_chemical_formula_structural   Sc6Al6RuRh11
_chemical_formula_sum   'Sc6 Al6 Ru1 Rh11'
_cell_volume   364.96695250
_cell_formula_units_Z   1
loop_
 _symmetry_equiv_pos_site_id
 _symmetry_equiv_pos_as_xyz
  1  'x, y, z'
loop_
 _atom_site_type_symbol
 _atom_site_label
 _atom_site_symmetry_multiplicity
 _atom_site_fract_x
 _atom_site_fract_y
 _atom_site_fract_z
 _atom_site_occupancy
  Sc  Sc0  1  0.000000  0.497967  0.000000  1
  Sc  Sc1  1  0.499984  0.000943  0.165079  1
  Sc  Sc2  1  0.999978  0.500388  0.333013  1
  Sc  Sc3  1  0.500000  0.999467  0.500000  1
  Sc  Sc4  1  0.000022  0.500388  0.666988  1
  Sc  Sc5  1  0.500014  0.000943  0.834920  1
  Al  Al6  1  0.000000  0.003561  0.000000  1
  Al  Al7  1  0.499973  0.497987  0.164980  1
  Al  Al8  1  0.999983  0.000105  0.333087  1
  Al  Al9  1  0.500000  0.500098  0.500000  1
  Al  Al10  1  0.000017  0.000105  0.666913  1
  Al  Al11  1  0.500028  0.497987  0.835020  1
  Ru  Ru12  1  0.499999  0.250550  0.000000  1
  Rh  Rh13  1  0.499999  0.749750  0.000000  1
  Rh  Rh14  1  0.999979  0.249614  0.167523  1
  Rh  Rh15  1  0.999981  0.750452  0.167352  1
  Rh  Rh16  1  0.499976  0.250523  0.333810  1
  Rh  Rh17  1  0.499978  0.749352  0.333514  1
  Rh  Rh18  1  0.000000  0.249425  0.500000  1
  Rh  Rh19  1  0.000000  0.750453  0.500000  1
  Rh  Rh20  1  0.500022  0.250523  0.666190  1
  Rh  Rh21  1  0.500020  0.749352  0.666486  1
  Rh  Rh22  1  0.000021  0.249614  0.832477  1
  Rh  Rh23  1  0.000019  0.750452  0.832648  1
