# generated using pymatgen
data_Tm4MgIrPt2
_symmetry_space_group_name_H-M   'P 1'
_cell_length_a   10.77165300
_cell_length_b   10.77165300
_cell_length_c   6.15967200
_cell_angle_alpha   90.00000000
_cell_angle_beta   90.00000000
_cell_angle_gamma   90.00000000
_symmetry_Int_Tables_number   1
_chemical_formula_structural   Tm4MgIrPt2
_chemical_formula_sum   'Tm16 Mg4 Ir4 Pt8'
_cell_volume   714.69755410
_cell_formula_units_Z   4
loop_
 _symmetry_equiv_pos_site_id
 _symmetry_equiv_pos_as_xyz
  1  'x, y, z'
loop_
 _atom_site_type_symbol
 _atom_site_label
 _atom_site_symmetry_multiplicity
 _atom_site_fract_x
 _atom_site_fract_y
 _atom_site_fract_z
 _atom_site_occupancy
  Tm  Tm0  1  0.290295  0.086735  0.375579  1
  Tm  Tm1  1  0.290295  0.913265  0.875579  1
  Tm  Tm2  1  0.709705  0.086735  0.875579  1
  Tm  Tm3  1  0.709705  0.913265  0.375579  1
  Tm  Tm4  1  0.586735  0.790295  0.875579  1
  Tm  Tm5  1  0.586735  0.209705  0.375579  1
  Tm  Tm6  1  0.413265  0.790295  0.375579  1
  Tm  Tm7  1  0.413265  0.209705  0.875579  1
  Tm  Tm8  1  0.209705  0.413265  0.624421  1
  Tm  Tm9  1  0.209705  0.586735  0.124421  1
  Tm  Tm10  1  0.790295  0.413265  0.124421  1
  Tm  Tm11  1  0.790295  0.586735  0.624421  1
  Tm  Tm12  1  0.913265  0.709705  0.124421  1
  Tm  Tm13  1  0.913265  0.290295  0.624421  1
  Tm  Tm14  1  0.086735  0.709705  0.624421  1
  Tm  Tm15  1  0.086735  0.290295  0.124421  1
  Mg  Mg16  1  0.000000  0.000000  0.500000  1
  Mg  Mg17  1  0.000000  0.000000  0.000000  1
  Mg  Mg18  1  0.500000  0.500000  0.000000  1
  Mg  Mg19  1  0.500000  0.500000  0.500000  1
  Ir  Ir20  1  0.500000  0.000000  0.119249  1
  Ir  Ir21  1  0.500000  0.000000  0.619249  1
  Ir  Ir22  1  0.000000  0.500000  0.880751  1
  Ir  Ir23  1  0.000000  0.500000  0.380751  1
  Pt  Pt24  1  0.846843  0.153157  0.250000  1
  Pt  Pt25  1  0.846843  0.846843  0.750000  1
  Pt  Pt26  1  0.153157  0.153157  0.750000  1
  Pt  Pt27  1  0.153157  0.846843  0.250000  1
  Pt  Pt28  1  0.653157  0.346843  0.750000  1
  Pt  Pt29  1  0.653157  0.653157  0.250000  1
  Pt  Pt30  1  0.346843  0.346843  0.250000  1
  Pt  Pt31  1  0.346843  0.653157  0.750000  1
