# generated using pymatgen
data_Dy18Er2Co3Bi8Os
_symmetry_space_group_name_H-M   'P 1'
_cell_length_a   8.01228103
_cell_length_b   8.92581932
_cell_length_c   12.46241467
_cell_angle_alpha   89.96618368
_cell_angle_beta   90.30687835
_cell_angle_gamma   89.92471272
_symmetry_Int_Tables_number   1
_chemical_formula_structural   Dy18Er2Co3Bi8Os
_chemical_formula_sum   'Dy18 Er2 Co3 Bi8 Os1'
_cell_volume   891.25048954
_cell_formula_units_Z   1
loop_
 _symmetry_equiv_pos_site_id
 _symmetry_equiv_pos_as_xyz
  1  'x, y, z'
loop_
 _atom_site_type_symbol
 _atom_site_label
 _atom_site_symmetry_multiplicity
 _atom_site_fract_x
 _atom_site_fract_y
 _atom_site_fract_z
 _atom_site_occupancy
  Dy  Dy0  1  0.846381  0.750157  0.800581  1
  Dy  Dy1  1  0.153114  0.249860  0.198168  1
  Dy  Dy2  1  0.347524  0.249483  0.698589  1
  Dy  Dy3  1  0.654656  0.750381  0.295016  1
  Dy  Dy4  1  0.377434  0.750702  0.693283  1
  Dy  Dy5  1  0.619233  0.249170  0.311432  1
  Dy  Dy6  1  0.880207  0.249864  0.811677  1
  Dy  Dy7  1  0.119419  0.750024  0.186605  1
  Dy  Dy8  1  0.944970  0.750650  0.504082  1
  Dy  Dy9  1  0.050716  0.249456  0.496627  1
  Dy  Dy10  1  0.451523  0.250004  0.997193  1
  Dy  Dy11  1  0.548080  0.750005  0.002483  1
  Dy  Dy12  1  0.175241  0.965992  0.936658  1
  Dy  Dy13  1  0.324725  0.534232  0.436457  1
  Dy  Dy14  1  0.824351  0.035886  0.063197  1
  Dy  Dy15  1  0.676007  0.459326  0.564958  1
  Dy  Dy16  1  0.824292  0.464228  0.063072  1
  Dy  Dy17  1  0.175235  0.534003  0.936838  1
  Er  Er18  1  0.674561  0.041528  0.564647  1
  Er  Er19  1  0.326396  0.964823  0.436680  1
  Co  Co20  1  0.434647  0.249441  0.491185  1
  Co  Co21  1  0.060377  0.249976  0.992065  1
  Co  Co22  1  0.938341  0.749967  0.007327  1
  Bi  Bi23  1  0.570335  0.492005  0.827169  1
  Bi  Bi24  1  0.429417  0.507129  0.173297  1
  Bi  Bi25  1  0.070328  0.507284  0.674296  1
  Bi  Bi26  1  0.429005  0.992692  0.173341  1
  Bi  Bi27  1  0.931484  0.492463  0.325972  1
  Bi  Bi28  1  0.570758  0.008068  0.827196  1
  Bi  Bi29  1  0.932779  0.007496  0.325860  1
  Bi  Bi30  1  0.069295  0.992687  0.674408  1
  Os  Os31  1  0.569168  0.751015  0.509640  1
