# generated using pymatgen
data_Y20TcHg6Os
_symmetry_space_group_name_H-M   'P 1'
_cell_length_a   9.63813200
_cell_length_b   9.63813186
_cell_length_c   9.74219800
_cell_angle_alpha   90.00000000
_cell_angle_beta   90.00000000
_cell_angle_gamma   120.00000047
_symmetry_Int_Tables_number   1
_chemical_formula_structural   Y20TcHg6Os
_chemical_formula_sum   'Y20 Tc1 Hg6 Os1'
_cell_volume   783.74235094
_cell_formula_units_Z   1
loop_
 _symmetry_equiv_pos_site_id
 _symmetry_equiv_pos_as_xyz
  1  'x, y, z'
loop_
 _atom_site_type_symbol
 _atom_site_label
 _atom_site_symmetry_multiplicity
 _atom_site_fract_x
 _atom_site_fract_y
 _atom_site_fract_z
 _atom_site_occupancy
  Y  Y0  1  0.000000  0.000000  0.500076  1
  Y  Y1  1  0.000000  0.000000  0.999924  1
  Y  Y2  1  0.209661  0.790339  0.440805  1
  Y  Y3  1  0.209661  0.419322  0.440805  1
  Y  Y4  1  0.580678  0.790339  0.440805  1
  Y  Y5  1  0.790375  0.209625  0.559421  1
  Y  Y6  1  0.790375  0.580747  0.559421  1
  Y  Y7  1  0.419253  0.209625  0.559421  1
  Y  Y8  1  0.790375  0.209625  0.940579  1
  Y  Y9  1  0.790375  0.580747  0.940579  1
  Y  Y10  1  0.419253  0.209625  0.940579  1
  Y  Y11  1  0.209661  0.790339  0.059195  1
  Y  Y12  1  0.209661  0.419322  0.059195  1
  Y  Y13  1  0.580678  0.790339  0.059195  1
  Y  Y14  1  0.539838  0.460162  0.250000  1
  Y  Y15  1  0.539838  0.079676  0.250000  1
  Y  Y16  1  0.920324  0.460162  0.250000  1
  Y  Y17  1  0.459567  0.540433  0.750000  1
  Y  Y18  1  0.459567  0.919137  0.750000  1
  Y  Y19  1  0.080863  0.540433  0.750000  1
  Tc  Tc20  1  0.333333  0.666667  0.250000  1
  Hg  Hg21  1  0.881328  0.118672  0.250000  1
  Hg  Hg22  1  0.881328  0.762657  0.250000  1
  Hg  Hg23  1  0.237343  0.118672  0.250000  1
  Hg  Hg24  1  0.118329  0.881671  0.750000  1
  Hg  Hg25  1  0.118329  0.236658  0.750000  1
  Hg  Hg26  1  0.763342  0.881671  0.750000  1
  Os  Os27  1  0.666667  0.333333  0.750000  1
