# generated using pymatgen
data_Pr8ZnCuPd23
_symmetry_space_group_name_H-M   'P 1'
_cell_length_a   8.57109400
_cell_length_b   8.53028200
_cell_length_c   8.48044600
_cell_angle_alpha   90.00000000
_cell_angle_beta   90.00000000
_cell_angle_gamma   90.00000000
_symmetry_Int_Tables_number   1
_chemical_formula_structural   Pr8ZnCuPd23
_chemical_formula_sum   'Pr8 Zn1 Cu1 Pd23'
_cell_volume   620.03804718
_cell_formula_units_Z   1
loop_
 _symmetry_equiv_pos_site_id
 _symmetry_equiv_pos_as_xyz
  1  'x, y, z'
loop_
 _atom_site_type_symbol
 _atom_site_label
 _atom_site_symmetry_multiplicity
 _atom_site_fract_x
 _atom_site_fract_y
 _atom_site_fract_z
 _atom_site_occupancy
  Pr  Pr0  1  0.254007  0.248543  0.749595  1
  Pr  Pr1  1  0.249805  0.748696  0.250906  1
  Pr  Pr2  1  0.750195  0.251304  0.250906  1
  Pr  Pr3  1  0.745993  0.751457  0.749595  1
  Pr  Pr4  1  0.750195  0.748696  0.250906  1
  Pr  Pr5  1  0.745993  0.248543  0.749595  1
  Pr  Pr6  1  0.254007  0.751457  0.749595  1
  Pr  Pr7  1  0.249805  0.251304  0.250906  1
  Zn  Zn8  1  0.000000  0.000000  0.000907  1
  Cu  Cu9  1  0.000000  0.500000  0.733700  1
  Pd  Pd10  1  0.500000  0.500000  0.746425  1
  Pd  Pd11  1  0.500000  0.254092  0.499315  1
  Pd  Pd12  1  0.250602  0.500000  0.504174  1
  Pd  Pd13  1  0.500000  0.500000  0.253694  1
  Pd  Pd14  1  0.500000  0.745908  0.499315  1
  Pd  Pd15  1  0.749398  0.500000  0.504174  1
  Pd  Pd16  1  0.000000  0.000000  0.703816  1
  Pd  Pd17  1  0.000000  0.300140  0.990750  1
  Pd  Pd18  1  0.294725  0.000000  0.001097  1
  Pd  Pd19  1  0.000000  0.000000  0.299039  1
  Pd  Pd20  1  0.000000  0.699860  0.990750  1
  Pd  Pd21  1  0.705275  0.000000  0.001097  1
  Pd  Pd22  1  0.500000  0.261164  0.001219  1
  Pd  Pd23  1  0.261299  0.000000  0.499707  1
  Pd  Pd24  1  0.000000  0.265973  0.506049  1
  Pd  Pd25  1  0.500000  0.000000  0.738969  1
  Pd  Pd26  1  0.261413  0.500000  0.997777  1
  Pd  Pd27  1  0.000000  0.500000  0.259519  1
  Pd  Pd28  1  0.500000  0.738836  0.001219  1
  Pd  Pd29  1  0.000000  0.734027  0.506049  1
  Pd  Pd30  1  0.500000  0.000000  0.261748  1
  Pd  Pd31  1  0.738701  0.000000  0.499707  1
  Pd  Pd32  1  0.738587  0.500000  0.997777  1
