# generated using pymatgen
data_Er2Co9Re3P7
_symmetry_space_group_name_H-M   'P 1'
_cell_length_a   9.01298600
_cell_length_b   9.01298650
_cell_length_c   3.70843600
_cell_angle_alpha   90.00000000
_cell_angle_beta   90.00000000
_cell_angle_gamma   119.99999081
_symmetry_Int_Tables_number   1
_chemical_formula_structural   Er2Co9Re3P7
_chemical_formula_sum   'Er2 Co9 Re3 P7'
_cell_volume   260.89086792
_cell_formula_units_Z   1
loop_
 _symmetry_equiv_pos_site_id
 _symmetry_equiv_pos_as_xyz
  1  'x, y, z'
loop_
 _atom_site_type_symbol
 _atom_site_label
 _atom_site_symmetry_multiplicity
 _atom_site_fract_x
 _atom_site_fract_y
 _atom_site_fract_z
 _atom_site_occupancy
  Er  Er0  1  0.666667  0.333333  0.743156  1
  Er  Er1  1  0.333333  0.666667  0.243167  1
  Co  Co2  1  0.062417  0.628633  0.743115  1
  Co  Co3  1  0.371367  0.433785  0.743115  1
  Co  Co4  1  0.566215  0.937583  0.743115  1
  Co  Co5  1  0.945457  0.383223  0.243036  1
  Co  Co6  1  0.616777  0.562234  0.243036  1
  Co  Co7  1  0.437766  0.054543  0.243036  1
  Co  Co8  1  0.279130  0.121482  0.743016  1
  Co  Co9  1  0.878518  0.157649  0.743016  1
  Co  Co10  1  0.842351  0.720870  0.743016  1
  Re  Re11  1  0.780262  0.902272  0.242856  1
  Re  Re12  1  0.097728  0.877990  0.242856  1
  Re  Re13  1  0.122010  0.219738  0.242856  1
  P  P14  1  0.000000  0.000000  0.742894  1
  P  P15  1  0.299958  0.887581  0.743036  1
  P  P16  1  0.112419  0.412377  0.743036  1
  P  P17  1  0.587623  0.700042  0.743036  1
  P  P18  1  0.707402  0.118379  0.243076  1
  P  P19  1  0.881621  0.589022  0.243076  1
  P  P20  1  0.410978  0.292598  0.243076  1
