# generated using pymatgen
data_Pr3Tm2Sn3Cl
_symmetry_space_group_name_H-M   'P 1'
_cell_length_a   9.33604700
_cell_length_b   9.33604549
_cell_length_c   6.68152100
_cell_angle_alpha   90.00000000
_cell_angle_beta   90.00000000
_cell_angle_gamma   119.99999471
_symmetry_Int_Tables_number   1
_chemical_formula_structural   Pr3Tm2Sn3Cl
_chemical_formula_sum   'Pr6 Tm4 Sn6 Cl2'
_cell_volume   504.34994908
_cell_formula_units_Z   2
loop_
 _symmetry_equiv_pos_site_id
 _symmetry_equiv_pos_as_xyz
  1  'x, y, z'
loop_
 _atom_site_type_symbol
 _atom_site_label
 _atom_site_symmetry_multiplicity
 _atom_site_fract_x
 _atom_site_fract_y
 _atom_site_fract_z
 _atom_site_occupancy
  Pr  Pr0  1  0.739135  0.000000  0.750000  1
  Pr  Pr1  1  0.739135  0.739135  0.250000  1
  Pr  Pr2  1  0.000000  0.260865  0.250000  1
  Pr  Pr3  1  0.000000  0.739135  0.750000  1
  Pr  Pr4  1  0.260865  0.260865  0.750000  1
  Pr  Pr5  1  0.260865  0.000000  0.250000  1
  Tm  Tm6  1  0.666667  0.333333  0.000000  1
  Tm  Tm7  1  0.333333  0.666667  0.500000  1
  Tm  Tm8  1  0.666667  0.333333  0.500000  1
  Tm  Tm9  1  0.333333  0.666667  0.000000  1
  Sn  Sn10  1  0.606208  0.606208  0.750000  1
  Sn  Sn11  1  0.000000  0.606208  0.250000  1
  Sn  Sn12  1  0.606208  0.000000  0.250000  1
  Sn  Sn13  1  0.393792  0.000000  0.750000  1
  Sn  Sn14  1  0.000000  0.393792  0.750000  1
  Sn  Sn15  1  0.393792  0.393792  0.250000  1
  Cl  Cl16  1  0.000000  0.000000  0.500000  1
  Cl  Cl17  1  0.000000  0.000000  0.000000  1
