# generated using pymatgen
data_Ac20Si15Te
_symmetry_space_group_name_H-M   'P 1'
_cell_length_a   8.40685863
_cell_length_b   8.39185320
_cell_length_c   16.27721165
_cell_angle_alpha   89.99275227
_cell_angle_beta   84.02629185
_cell_angle_gamma   90.05447427
_symmetry_Int_Tables_number   1
_chemical_formula_structural   Ac20Si15Te
_chemical_formula_sum   'Ac20 Si15 Te1'
_cell_volume   1142.10668719
_cell_formula_units_Z   1
loop_
 _symmetry_equiv_pos_site_id
 _symmetry_equiv_pos_as_xyz
  1  'x, y, z'
loop_
 _atom_site_type_symbol
 _atom_site_label
 _atom_site_symmetry_multiplicity
 _atom_site_fract_x
 _atom_site_fract_y
 _atom_site_fract_z
 _atom_site_occupancy
  Ac  Ac0  1  0.169816  0.514290  0.746372  1
  Ac  Ac1  1  0.873596  0.327993  0.622888  1
  Ac  Ac2  1  0.462717  0.694009  0.895548  1
  Ac  Ac3  1  0.961682  0.811702  0.897561  1
  Ac  Ac4  1  0.187866  0.675070  0.117035  1
  Ac  Ac5  1  0.684093  0.818365  0.117540  1
  Ac  Ac6  1  0.318993  0.182349  0.881861  1
  Ac  Ac7  1  0.148708  0.661222  0.385081  1
  Ac  Ac8  1  0.034721  0.184793  0.102295  1
  Ac  Ac9  1  0.365060  0.164204  0.613834  1
  Ac  Ac10  1  0.832834  0.492899  0.242187  1
  Ac  Ac11  1  0.324246  0.002671  0.249451  1
  Ac  Ac12  1  0.476825  0.313735  0.392776  1
  Ac  Ac13  1  0.818127  0.321616  0.882271  1
  Ac  Ac14  1  0.013583  0.829766  0.604925  1
  Ac  Ac15  1  0.501513  0.687416  0.609635  1
  Ac  Ac16  1  0.989161  0.168865  0.394281  1
  Ac  Ac17  1  0.629790  0.847852  0.383795  1
  Ac  Ac18  1  0.669911  0.993647  0.746558  1
  Ac  Ac19  1  0.534993  0.308417  0.103517  1
  Si  Si20  1  0.450513  0.596136  0.249367  1
  Si  Si21  1  0.224526  0.377614  0.247122  1
  Si  Si22  1  0.553576  0.405998  0.753411  1
  Si  Si23  1  0.627790  0.023802  0.957652  1
  Si  Si24  1  0.051184  0.099637  0.753908  1
  Si  Si25  1  0.772282  0.618554  0.754249  1
  Si  Si26  1  0.725734  0.117382  0.247583  1
  Si  Si27  1  0.283945  0.977748  0.451139  1
  Si  Si28  1  0.946973  0.896598  0.248815  1
  Si  Si29  1  0.373987  0.977250  0.042038  1
  Si  Si30  1  0.717762  0.025044  0.546044  1
  Si  Si31  1  0.127560  0.477003  0.956959  1
  Si  Si32  1  0.217625  0.477457  0.547689  1
  Si  Si33  1  0.874382  0.520081  0.043449  1
  Si  Si34  1  0.271757  0.886914  0.754324  1
  Te  Te35  1  0.782173  0.521899  0.456841  1
