# generated using pymatgen
data_Nd8DyYIr6
_symmetry_space_group_name_H-M   'P 1'
_cell_length_a   11.21165400
_cell_length_b   11.21165400
_cell_length_c   6.53392100
_cell_angle_alpha   90.00000000
_cell_angle_beta   90.00000000
_cell_angle_gamma   90.00000000
_symmetry_Int_Tables_number   1
_chemical_formula_structural   Nd8DyYIr6
_chemical_formula_sum   'Nd16 Dy2 Y2 Ir12'
_cell_volume   821.32161511
_cell_formula_units_Z   2
loop_
 _symmetry_equiv_pos_site_id
 _symmetry_equiv_pos_as_xyz
  1  'x, y, z'
loop_
 _atom_site_type_symbol
 _atom_site_label
 _atom_site_symmetry_multiplicity
 _atom_site_fract_x
 _atom_site_fract_y
 _atom_site_fract_z
 _atom_site_occupancy
  Nd  Nd0  1  0.289442  0.087896  0.380903  1
  Nd  Nd1  1  0.289442  0.912104  0.880903  1
  Nd  Nd2  1  0.710558  0.087896  0.880903  1
  Nd  Nd3  1  0.710558  0.912104  0.380903  1
  Nd  Nd4  1  0.587994  0.789487  0.880889  1
  Nd  Nd5  1  0.587994  0.210513  0.380889  1
  Nd  Nd6  1  0.412006  0.789487  0.380889  1
  Nd  Nd7  1  0.412006  0.210513  0.880889  1
  Nd  Nd8  1  0.210513  0.412006  0.619111  1
  Nd  Nd9  1  0.210513  0.587994  0.119111  1
  Nd  Nd10  1  0.789487  0.412006  0.119111  1
  Nd  Nd11  1  0.789487  0.587994  0.619111  1
  Nd  Nd12  1  0.912104  0.710558  0.119097  1
  Nd  Nd13  1  0.912104  0.289442  0.619097  1
  Nd  Nd14  1  0.087896  0.710558  0.619097  1
  Nd  Nd15  1  0.087896  0.289442  0.119097  1
  Dy  Dy16  1  0.000000  0.000000  0.500000  1
  Dy  Dy17  1  0.000000  0.000000  0.000000  1
  Y  Y18  1  0.500000  0.500000  0.000000  1
  Y  Y19  1  0.500000  0.500000  0.500000  1
  Ir  Ir20  1  0.850629  0.149371  0.250000  1
  Ir  Ir21  1  0.850629  0.850629  0.750000  1
  Ir  Ir22  1  0.149371  0.149371  0.750000  1
  Ir  Ir23  1  0.149371  0.850629  0.250000  1
  Ir  Ir24  1  0.650311  0.349689  0.750000  1
  Ir  Ir25  1  0.650311  0.650311  0.250000  1
  Ir  Ir26  1  0.349689  0.349689  0.250000  1
  Ir  Ir27  1  0.349689  0.650311  0.750000  1
  Ir  Ir28  1  0.500000  0.000000  0.120664  1
  Ir  Ir29  1  0.500000  0.000000  0.620664  1
  Ir  Ir30  1  0.000000  0.500000  0.879336  1
  Ir  Ir31  1  0.000000  0.500000  0.379336  1
