# generated using pymatgen
data_Hf2CuPtRh4
_symmetry_space_group_name_H-M   'P 1'
_cell_length_a   4.01651700
_cell_length_b   5.53201763
_cell_length_c   11.06467810
_cell_angle_alpha   89.32109602
_cell_angle_beta   90.00000000
_cell_angle_gamma   90.00000000
_symmetry_Int_Tables_number   1
_chemical_formula_structural   Hf2CuPtRh4
_chemical_formula_sum   'Hf4 Cu2 Pt2 Rh8'
_cell_volume   245.83372415
_cell_formula_units_Z   2
loop_
 _symmetry_equiv_pos_site_id
 _symmetry_equiv_pos_as_xyz
  1  'x, y, z'
loop_
 _atom_site_type_symbol
 _atom_site_label
 _atom_site_symmetry_multiplicity
 _atom_site_fract_x
 _atom_site_fract_y
 _atom_site_fract_z
 _atom_site_occupancy
  Hf  Hf0  1  0.500000  0.221681  0.627202  1
  Hf  Hf1  1  0.500000  0.778319  0.372798  1
  Hf  Hf2  1  0.500000  0.730271  0.873282  1
  Hf  Hf3  1  0.500000  0.269729  0.126718  1
  Cu  Cu4  1  0.000000  0.500000  0.500000  1
  Cu  Cu5  1  0.000000  0.000000  0.000000  1
  Pt  Pt6  1  0.000000  0.474640  0.749447  1
  Pt  Pt7  1  0.000000  0.525360  0.250553  1
  Rh  Rh8  1  0.500000  0.223745  0.880150  1
  Rh  Rh9  1  0.500000  0.776255  0.119850  1
  Rh  Rh10  1  0.500000  0.725203  0.619210  1
  Rh  Rh11  1  0.500000  0.274797  0.380790  1
  Rh  Rh12  1  0.000000  0.000000  0.500000  1
  Rh  Rh13  1  0.000000  0.500000  0.000000  1
  Rh  Rh14  1  0.000000  0.025172  0.250002  1
  Rh  Rh15  1  0.000000  0.974828  0.749998  1
