# generated using pymatgen
data_Ac2Ni5B2Ir
_symmetry_space_group_name_H-M   'P 1'
_cell_length_a   6.09268404
_cell_length_b   6.23471660
_cell_length_c   6.23471538
_cell_angle_alpha   132.55919814
_cell_angle_beta   106.43411897
_cell_angle_gamma   92.76734703
_symmetry_Int_Tables_number   1
_chemical_formula_structural   Ac2Ni5B2Ir
_chemical_formula_sum   'Ac2 Ni5 B2 Ir1'
_cell_volume   157.40055201
_cell_formula_units_Z   1
loop_
 _symmetry_equiv_pos_site_id
 _symmetry_equiv_pos_as_xyz
  1  'x, y, z'
loop_
 _atom_site_type_symbol
 _atom_site_label
 _atom_site_symmetry_multiplicity
 _atom_site_fract_x
 _atom_site_fract_y
 _atom_site_fract_z
 _atom_site_occupancy
  Ac  Ac0  1  0.822095  0.571418  0.250676  1
  Ac  Ac1  1  0.177905  0.428582  0.749324  1
  Ni  Ni2  1  0.323435  0.493283  0.326730  1
  Ni  Ni3  1  0.676565  0.506717  0.673270  1
  Ni  Ni4  1  0.676565  0.003295  0.169849  1
  Ni  Ni5  1  0.323435  0.996705  0.830151  1
  Ni  Ni6  1  0.000000  0.000000  0.000000  1
  B  B7  1  0.381974  0.134276  0.247700  1
  B  B8  1  0.618026  0.865724  0.752300  1
  Ir  Ir9  1  0.500000  0.000000  0.500000  1
