# generated using pymatgen
data_Nd3Fe5(P3Ir2)2
_symmetry_space_group_name_H-M   'P 1'
_cell_length_a   3.87683700
_cell_length_b   10.98083200
_cell_length_c   12.54158100
_cell_angle_alpha   90.00000000
_cell_angle_beta   90.00000000
_cell_angle_gamma   90.00000000
_symmetry_Int_Tables_number   1
_chemical_formula_structural   Nd3Fe5(P3Ir2)2
_chemical_formula_sum   'Nd6 Fe10 P12 Ir8'
_cell_volume   533.90633777
_cell_formula_units_Z   2
loop_
 _symmetry_equiv_pos_site_id
 _symmetry_equiv_pos_as_xyz
  1  'x, y, z'
loop_
 _atom_site_type_symbol
 _atom_site_label
 _atom_site_symmetry_multiplicity
 _atom_site_fract_x
 _atom_site_fract_y
 _atom_site_fract_z
 _atom_site_occupancy
  Nd  Nd0  1  0.000000  0.500000  0.522450  1
  Nd  Nd1  1  0.500000  0.000000  0.477550  1
  Nd  Nd2  1  0.500000  0.817750  0.195613  1
  Nd  Nd3  1  0.500000  0.182250  0.195613  1
  Nd  Nd4  1  0.000000  0.682250  0.804387  1
  Nd  Nd5  1  0.000000  0.317750  0.804387  1
  Fe  Fe6  1  0.000000  0.500000  0.995284  1
  Fe  Fe7  1  0.500000  0.000000  0.004716  1
  Fe  Fe8  1  0.500000  0.883029  0.717371  1
  Fe  Fe9  1  0.500000  0.116971  0.717371  1
  Fe  Fe10  1  0.000000  0.616971  0.282629  1
  Fe  Fe11  1  0.000000  0.383029  0.282629  1
  Fe  Fe12  1  0.500000  0.332896  0.996629  1
  Fe  Fe13  1  0.500000  0.667104  0.996629  1
  Fe  Fe14  1  0.000000  0.167104  0.003371  1
  Fe  Fe15  1  0.000000  0.832896  0.003371  1
  P  P16  1  0.500000  0.301918  0.625758  1
  P  P17  1  0.500000  0.698082  0.625758  1
  P  P18  1  0.000000  0.198082  0.374242  1
  P  P19  1  0.000000  0.801918  0.374242  1
  P  P20  1  0.500000  0.500000  0.898720  1
  P  P21  1  0.000000  0.000000  0.101280  1
  P  P22  1  0.500000  0.842043  0.902129  1
  P  P23  1  0.500000  0.157957  0.902129  1
  P  P24  1  0.000000  0.657957  0.097871  1
  P  P25  1  0.000000  0.342043  0.097871  1
  P  P26  1  0.500000  0.500000  0.336298  1
  P  P27  1  0.000000  0.000000  0.663702  1
  Ir  Ir28  1  0.500000  0.299210  0.426698  1
  Ir  Ir29  1  0.500000  0.700790  0.426698  1
  Ir  Ir30  1  0.000000  0.200790  0.573302  1
  Ir  Ir31  1  0.000000  0.799210  0.573302  1
  Ir  Ir32  1  0.500000  0.500000  0.153594  1
  Ir  Ir33  1  0.000000  0.000000  0.846406  1
  Ir  Ir34  1  0.500000  0.500000  0.703334  1
  Ir  Ir35  1  0.000000  0.000000  0.296666  1
