# generated using pymatgen
data_La4Sc4Re3B24Ru
_symmetry_space_group_name_H-M   'P 1'
_cell_length_a   3.67791200
_cell_length_b   9.12697611
_cell_length_c   11.63351614
_cell_angle_alpha   90.01747774
_cell_angle_beta   90.00000000
_cell_angle_gamma   90.00000000
_symmetry_Int_Tables_number   1
_chemical_formula_structural   La4Sc4Re3B24Ru
_chemical_formula_sum   'La4 Sc4 Re3 B24 Ru1'
_cell_volume   390.51635202
_cell_formula_units_Z   1
loop_
 _symmetry_equiv_pos_site_id
 _symmetry_equiv_pos_as_xyz
  1  'x, y, z'
loop_
 _atom_site_type_symbol
 _atom_site_label
 _atom_site_symmetry_multiplicity
 _atom_site_fract_x
 _atom_site_fract_y
 _atom_site_fract_z
 _atom_site_occupancy
  La  La0  1  0.000000  0.321297  0.416193  1
  La  La1  1  0.000000  0.678229  0.585538  1
  La  La2  1  0.000000  0.822388  0.083601  1
  La  La3  1  0.000000  0.178143  0.914839  1
  Sc  Sc4  1  0.000000  0.945062  0.368592  1
  Sc  Sc5  1  0.000000  0.055743  0.631539  1
  Sc  Sc6  1  0.000000  0.442460  0.130881  1
  Sc  Sc7  1  0.000000  0.556116  0.868502  1
  Re  Re8  1  0.000000  0.358287  0.683283  1
  Re  Re9  1  0.000000  0.142625  0.184450  1
  Re  Re10  1  0.000000  0.857630  0.816426  1
  B  B11  1  0.500000  0.558680  0.427218  1
  B  B12  1  0.500000  0.441905  0.572442  1
  B  B13  1  0.500000  0.057730  0.072326  1
  B  B14  1  0.500000  0.941948  0.927643  1
  B  B15  1  0.500000  0.754327  0.413300  1
  B  B16  1  0.500000  0.244637  0.585990  1
  B  B17  1  0.500000  0.255288  0.085995  1
  B  B18  1  0.500000  0.744968  0.914112  1
  B  B19  1  0.500000  0.793564  0.265310  1
  B  B20  1  0.500000  0.205581  0.734714  1
  B  B21  1  0.500000  0.294658  0.234936  1
  B  B22  1  0.500000  0.705537  0.765357  1
  B  B23  1  0.500000  0.628234  0.184452  1
  B  B24  1  0.500000  0.372068  0.815911  1
  B  B25  1  0.500000  0.128180  0.316404  1
  B  B26  1  0.500000  0.871768  0.683807  1
  B  B27  1  0.500000  0.984062  0.215532  1
  B  B28  1  0.500000  0.015697  0.784194  1
  B  B29  1  0.500000  0.485368  0.285007  1
  B  B30  1  0.500000  0.516150  0.715455  1
  B  B31  1  0.500000  0.592630  0.024952  1
  B  B32  1  0.500000  0.407253  0.975715  1
  B  B33  1  0.500000  0.092485  0.475264  1
  B  B34  1  0.500000  0.906854  0.524457  1
  Ru  Ru35  1  0.000000  0.642451  0.315664  1
