# generated using pymatgen
data_Be15Nb6Cu3Ir5
_symmetry_space_group_name_H-M   'P 1'
_cell_length_a   7.78861735
_cell_length_b   7.79524116
_cell_length_c   7.79966700
_cell_angle_alpha   59.98122106
_cell_angle_beta   59.95306320
_cell_angle_gamma   59.90589225
_symmetry_Int_Tables_number   1
_chemical_formula_structural   Be15Nb6Cu3Ir5
_chemical_formula_sum   'Be15 Nb6 Cu3 Ir5'
_cell_volume   334.44564141
_cell_formula_units_Z   1
loop_
 _symmetry_equiv_pos_site_id
 _symmetry_equiv_pos_as_xyz
  1  'x, y, z'
loop_
 _atom_site_type_symbol
 _atom_site_label
 _atom_site_symmetry_multiplicity
 _atom_site_fract_x
 _atom_site_fract_y
 _atom_site_fract_z
 _atom_site_occupancy
  Be  Be0  1  0.330029  0.330509  0.326610  1
  Be  Be1  1  0.671166  0.671269  0.671319  1
  Be  Be2  1  0.330029  0.330509  0.012852  1
  Be  Be3  1  0.324549  0.015705  0.329873  1
  Be  Be4  1  0.671166  0.671269  0.986245  1
  Be  Be5  1  0.671599  0.982663  0.672869  1
  Be  Be6  1  0.021226  0.327301  0.325737  1
  Be  Be7  1  0.981169  0.677044  0.670892  1
  Be  Be8  1  0.498796  0.999089  0.001774  1
  Be  Be9  1  0.000544  0.499886  0.498783  1
  Be  Be10  1  0.000544  0.499886  0.000786  1
  Be  Be11  1  0.498796  0.999089  0.500342  1
  Be  Be12  1  0.000850  0.997982  0.500584  1
  Be  Be13  1  0.503556  0.497765  0.999339  1
  Be  Be14  1  0.997815  0.003311  0.999437  1
  Nb  Nb15  1  0.700975  0.298737  0.309478  1
  Nb  Nb16  1  0.297235  0.697741  0.698370  1
  Nb  Nb17  1  0.297235  0.697741  0.306655  1
  Nb  Nb18  1  0.700975  0.298737  0.690811  1
  Nb  Nb19  1  0.303272  0.301008  0.697860  1
  Nb  Nb20  1  0.703158  0.692536  0.302153  1
  Cu  Cu21  1  0.872835  0.373280  0.876943  1
  Cu  Cu22  1  0.627707  0.126304  0.122995  1
  Cu  Cu23  1  0.373990  0.873583  0.876214  1
  Ir  Ir24  1  0.125720  0.126207  0.118879  1
  Ir  Ir25  1  0.869921  0.877811  0.878934  1
  Ir  Ir26  1  0.125720  0.126207  0.629194  1
  Ir  Ir27  1  0.129499  0.629021  0.120741  1
  Ir  Ir28  1  0.869921  0.877811  0.373332  1
