# generated using pymatgen
data_Dy7Er3(Ga2Sb)2
_symmetry_space_group_name_H-M   'P 1'
_cell_length_a   8.67694684
_cell_length_b   8.70238795
_cell_length_c   6.52968000
_cell_angle_alpha   89.99627347
_cell_angle_beta   90.00186188
_cell_angle_gamma   120.09704948
_symmetry_Int_Tables_number   1
_chemical_formula_structural   Dy7Er3(Ga2Sb)2
_chemical_formula_sum   'Dy7 Er3 Ga4 Sb2'
_cell_volume   426.58184014
_cell_formula_units_Z   1
loop_
 _symmetry_equiv_pos_site_id
 _symmetry_equiv_pos_as_xyz
  1  'x, y, z'
loop_
 _atom_site_type_symbol
 _atom_site_label
 _atom_site_symmetry_multiplicity
 _atom_site_fract_x
 _atom_site_fract_y
 _atom_site_fract_z
 _atom_site_occupancy
  Dy  Dy0  1  0.986626  0.750317  0.750119  1
  Dy  Dy1  1  0.986626  0.236309  0.249881  1
  Dy  Dy2  1  0.765434  0.765406  0.249800  1
  Dy  Dy3  1  0.765434  0.000029  0.750200  1
  Dy  Dy4  1  0.236709  0.249199  0.750176  1
  Dy  Dy5  1  0.236709  0.987509  0.249824  1
  Dy  Dy6  1  0.332123  0.666062  0.500000  1
  Er  Er7  1  0.684752  0.342376  0.000000  1
  Er  Er8  1  0.684960  0.342480  0.500000  1
  Er  Er9  1  0.332047  0.666024  0.000000  1
  Ga  Ga10  1  0.001031  0.600885  0.249641  1
  Ga  Ga11  1  0.001031  0.400146  0.750359  1
  Ga  Ga12  1  0.597711  0.601016  0.750499  1
  Ga  Ga13  1  0.597711  0.996694  0.249501  1
  Sb  Sb14  1  0.395548  0.004787  0.750511  1
  Sb  Sb15  1  0.395548  0.390761  0.249489  1
