# generated using pymatgen
data_Ho4Sn6Ir5Rh2
_symmetry_space_group_name_H-M   'P 1'
_cell_length_a   7.59082340
_cell_length_b   7.59082218
_cell_length_c   7.59082260
_cell_angle_alpha   109.49403122
_cell_angle_beta   109.49402880
_cell_angle_gamma   109.42561123
_symmetry_Int_Tables_number   1
_chemical_formula_structural   Ho4Sn6Ir5Rh2
_chemical_formula_sum   'Ho4 Sn6 Ir5 Rh2'
_cell_volume   336.70103525
_cell_formula_units_Z   1
loop_
 _symmetry_equiv_pos_site_id
 _symmetry_equiv_pos_as_xyz
  1  'x, y, z'
loop_
 _atom_site_type_symbol
 _atom_site_label
 _atom_site_symmetry_multiplicity
 _atom_site_fract_x
 _atom_site_fract_y
 _atom_site_fract_z
 _atom_site_occupancy
  Ho  Ho0  1  0.000211  0.999789  0.500000  1
  Ho  Ho1  1  0.000211  0.500211  0.000422  1
  Ho  Ho2  1  0.499789  0.999789  0.999578  1
  Ho  Ho3  1  0.499789  0.500211  0.500000  1
  Sn  Sn4  1  0.686972  0.686972  0.000000  1
  Sn  Sn5  1  0.313934  0.000237  0.313697  1
  Sn  Sn6  1  0.999763  0.313459  0.313697  1
  Sn  Sn7  1  0.313028  0.313028  0.000000  1
  Sn  Sn8  1  0.686541  0.000237  0.686303  1
  Sn  Sn9  1  0.999763  0.686066  0.686303  1
  Ir  Ir10  1  0.750111  0.500078  0.250034  1
  Ir  Ir11  1  0.499922  0.249889  0.749966  1
  Ir  Ir12  1  0.250044  0.500078  0.749966  1
  Ir  Ir13  1  0.250000  0.750000  0.500000  1
  Ir  Ir14  1  0.499922  0.749956  0.250034  1
  Rh  Rh15  1  0.750000  0.250000  0.500000  1
  Rh  Rh16  1  0.000000  0.000000  0.000000  1
