# generated using pymatgen
data_Zr7Fe3Co5Si14W
_symmetry_space_group_name_H-M   'P 1'
_cell_length_a   9.45511809
_cell_length_b   9.45578346
_cell_length_c   9.45503350
_cell_angle_alpha   94.21298974
_cell_angle_beta   94.13625780
_cell_angle_gamma   148.75305782
_symmetry_Int_Tables_number   1
_chemical_formula_structural   Zr7Fe3Co5Si14W
_chemical_formula_sum   'Zr7 Fe3 Co5 Si14 W1'
_cell_volume   422.17427480
_cell_formula_units_Z   1
loop_
 _symmetry_equiv_pos_site_id
 _symmetry_equiv_pos_as_xyz
  1  'x, y, z'
loop_
 _atom_site_type_symbol
 _atom_site_label
 _atom_site_symmetry_multiplicity
 _atom_site_fract_x
 _atom_site_fract_y
 _atom_site_fract_z
 _atom_site_occupancy
  Zr  Zr0  1  0.864395  0.864443  0.727562  1
  Zr  Zr1  1  0.862192  0.138146  0.999944  1
  Zr  Zr2  1  0.138188  0.861438  0.999710  1
  Zr  Zr3  1  0.501502  0.305493  0.803468  1
  Zr  Zr4  1  0.504029  0.696783  0.198697  1
  Zr  Zr5  1  0.694842  0.502007  0.199115  1
  Zr  Zr6  1  0.302367  0.498343  0.803895  1
  Fe  Fe7  1  0.399422  0.898131  0.798547  1
  Fe  Fe8  1  0.102519  0.601526  0.203652  1
  Fe  Fe9  1  0.100867  0.898834  0.497319  1
  Co  Co10  1  0.397385  0.599421  0.497709  1
  Co  Co11  1  0.601072  0.394708  0.498289  1
  Co  Co12  1  0.896379  0.103364  0.497568  1
  Co  Co13  1  0.895268  0.396261  0.793518  1
  Co  Co14  1  0.604299  0.105170  0.208226  1
  Si  Si15  1  0.488552  0.079708  0.592310  1
  Si  Si16  1  0.493755  0.903367  0.407005  1
  Si  Si17  1  0.920030  0.510869  0.408381  1
  Si  Si18  1  0.096350  0.505622  0.593585  1
  Si  Si19  1  0.757835  0.757476  0.006950  1
  Si  Si20  1  0.249279  0.249300  0.006533  1
  Si  Si21  1  0.283516  0.283554  0.568954  1
  Si  Si22  1  0.713052  0.712881  0.423616  1
  Si  Si23  1  0.711283  0.290338  0.000891  1
  Si  Si24  1  0.289526  0.710379  0.001059  1
  Si  Si25  1  0.005702  0.302650  0.302089  1
  Si  Si26  1  0.004520  0.700527  0.694722  1
  Si  Si27  1  0.692843  0.997082  0.695219  1
  Si  Si28  1  0.295190  0.998539  0.301916  1
  W  W29  1  0.133841  0.133638  0.269546  1
