# generated using pymatgen
data_Hf3ZrIn2Co3Cu
_symmetry_space_group_name_H-M   'P 1'
_cell_length_a   7.25478070
_cell_length_b   7.25478064
_cell_length_c   6.58958300
_cell_angle_alpha   90.00000000
_cell_angle_beta   90.00000000
_cell_angle_gamma   90.73123888
_symmetry_Int_Tables_number   1
_chemical_formula_structural   Hf3ZrIn2Co3Cu
_chemical_formula_sum   'Hf6 Zr2 In4 Co6 Cu2'
_cell_volume   346.79365030
_cell_formula_units_Z   2
loop_
 _symmetry_equiv_pos_site_id
 _symmetry_equiv_pos_as_xyz
  1  'x, y, z'
loop_
 _atom_site_type_symbol
 _atom_site_label
 _atom_site_symmetry_multiplicity
 _atom_site_fract_x
 _atom_site_fract_y
 _atom_site_fract_z
 _atom_site_occupancy
  Hf  Hf0  1  0.669459  0.330541  0.500000  1
  Hf  Hf1  1  0.355931  0.644069  0.500000  1
  Hf  Hf2  1  0.668865  0.331135  0.000000  1
  Hf  Hf3  1  0.349484  0.650516  0.000000  1
  Hf  Hf4  1  0.811704  0.841291  0.500000  1
  Hf  Hf5  1  0.158709  0.188296  0.500000  1
  Zr  Zr6  1  0.157191  0.182921  0.000000  1
  Zr  Zr7  1  0.817079  0.842809  0.000000  1
  In  In8  1  0.490113  0.001711  0.250076  1
  In  In9  1  0.490113  0.001711  0.749924  1
  In  In10  1  0.998289  0.509887  0.250076  1
  In  In11  1  0.998289  0.509887  0.749924  1
  Co  Co12  1  0.377097  0.369192  0.246831  1
  Co  Co13  1  0.630808  0.622903  0.753169  1
  Co  Co14  1  0.630808  0.622903  0.246831  1
  Co  Co15  1  0.880815  0.119185  0.744034  1
  Co  Co16  1  0.880815  0.119185  0.255966  1
  Co  Co17  1  0.377097  0.369192  0.753169  1
  Cu  Cu18  1  0.128667  0.871333  0.266760  1
  Cu  Cu19  1  0.128667  0.871333  0.733240  1
