# generated using pymatgen
data_Tb7Ho2ThRu4
_symmetry_space_group_name_H-M   'P 1'
_cell_length_a   6.39222641
_cell_length_b   7.27125987
_cell_length_c   8.60092864
_cell_angle_alpha   96.23208134
_cell_angle_beta   112.21033495
_cell_angle_gamma   90.74899446
_symmetry_Int_Tables_number   1
_chemical_formula_structural   Tb7Ho2ThRu4
_chemical_formula_sum   'Tb7 Ho2 Th1 Ru4'
_cell_volume   367.28186161
_cell_formula_units_Z   1
loop_
 _symmetry_equiv_pos_site_id
 _symmetry_equiv_pos_as_xyz
  1  'x, y, z'
loop_
 _atom_site_type_symbol
 _atom_site_label
 _atom_site_symmetry_multiplicity
 _atom_site_fract_x
 _atom_site_fract_y
 _atom_site_fract_z
 _atom_site_occupancy
  Tb  Tb0  1  0.790405  0.583322  0.810550  1
  Tb  Tb1  1  0.022667  0.085390  0.813090  1
  Tb  Tb2  1  0.208441  0.415529  0.184498  1
  Tb  Tb3  1  0.639650  0.815585  0.435614  1
  Tb  Tb4  1  0.209162  0.684960  0.568555  1
  Tb  Tb5  1  0.358389  0.186804  0.568584  1
  Tb  Tb6  1  0.792661  0.313771  0.434766  1
  Ho  Ho7  1  0.420784  0.747878  0.997577  1
  Ho  Ho8  1  0.578407  0.250304  0.999981  1
  Th  Th9  1  0.985945  0.907647  0.186978  1
  Ru  Ru10  1  0.828642  0.588510  0.219533  1
  Ru  Ru11  1  0.607604  0.925701  0.784030  1
  Ru  Ru12  1  0.177236  0.424020  0.778049  1
  Ru  Ru13  1  0.380008  0.070578  0.218193  1
