# generated using pymatgen
data_LuGeF7
_symmetry_space_group_name_H-M   'P 1'
_cell_length_a   5.41156000
_cell_length_b   5.73457735
_cell_length_c   7.87467462
_cell_angle_alpha   102.73038098
_cell_angle_beta   90.00000000
_cell_angle_gamma   90.00000000
_symmetry_Int_Tables_number   1
_chemical_formula_structural   LuGeF7
_chemical_formula_sum   'Lu2 Ge2 F14'
_cell_volume   238.36758842
_cell_formula_units_Z   2
loop_
 _symmetry_equiv_pos_site_id
 _symmetry_equiv_pos_as_xyz
  1  'x, y, z'
loop_
 _atom_site_type_symbol
 _atom_site_label
 _atom_site_symmetry_multiplicity
 _atom_site_fract_x
 _atom_site_fract_y
 _atom_site_fract_z
 _atom_site_occupancy
  Lu  Lu0  1  0.697211  0.657488  0.690030  1
  Lu  Lu1  1  0.197211  0.342512  0.309970  1
  Ge  Ge2  1  0.709462  0.813320  0.224781  1
  Ge  Ge3  1  0.209462  0.186680  0.775219  1
  F  F4  1  0.887947  0.449813  0.478370  1
  F  F5  1  0.387947  0.550187  0.521630  1
  F  F6  1  0.420714  0.937412  0.774000  1
  F  F7  1  0.920714  0.062588  0.226000  1
  F  F8  1  0.951079  0.973331  0.763209  1
  F  F9  1  0.451079  0.026669  0.236791  1
  F  F10  1  0.004953  0.443737  0.792841  1
  F  F11  1  0.504953  0.556263  0.207159  1
  F  F12  1  0.704239  0.763073  0.988529  1
  F  F13  1  0.204239  0.236927  0.011471  1
  F  F14  1  0.713477  0.873746  0.460998  1
  F  F15  1  0.213477  0.126254  0.539002  1
  F  F16  1  0.487278  0.377963  0.788758  1
  F  F17  1  0.987278  0.622037  0.211242  1
