# generated using pymatgen
data_Tm16MgCd3Ni4
_symmetry_space_group_name_H-M   'P 1'
_cell_length_a   9.45343244
_cell_length_b   9.40552974
_cell_length_c   9.40553000
_cell_angle_alpha   59.99999910
_cell_angle_beta   60.16748058
_cell_angle_gamma   60.16748141
_symmetry_Int_Tables_number   1
_chemical_formula_structural   Tm16MgCd3Ni4
_chemical_formula_sum   'Tm16 Mg1 Cd3 Ni4'
_cell_volume   592.83773268
_cell_formula_units_Z   1
loop_
 _symmetry_equiv_pos_site_id
 _symmetry_equiv_pos_as_xyz
  1  'x, y, z'
loop_
 _atom_site_type_symbol
 _atom_site_label
 _atom_site_symmetry_multiplicity
 _atom_site_fract_x
 _atom_site_fract_y
 _atom_site_fract_z
 _atom_site_occupancy
  Tm  Tm0  1  0.597623  0.596340  0.596340  1
  Tm  Tm1  1  0.597623  0.596340  0.209698  1
  Tm  Tm2  1  0.597623  0.209698  0.596340  1
  Tm  Tm3  1  0.204739  0.598421  0.598421  1
  Tm  Tm4  1  0.060153  0.439330  0.439330  1
  Tm  Tm5  1  0.436958  0.062419  0.062419  1
  Tm  Tm6  1  0.436958  0.062419  0.438204  1
  Tm  Tm7  1  0.060153  0.439330  0.061186  1
  Tm  Tm8  1  0.436958  0.438204  0.062419  1
  Tm  Tm9  1  0.060153  0.061186  0.439330  1
  Tm  Tm10  1  0.184814  0.814344  0.814344  1
  Tm  Tm11  1  0.814611  0.185766  0.185766  1
  Tm  Tm12  1  0.814611  0.185766  0.813857  1
  Tm  Tm13  1  0.184814  0.814344  0.186499  1
  Tm  Tm14  1  0.814611  0.813857  0.185766  1
  Tm  Tm15  1  0.184814  0.186499  0.814344  1
  Mg  Mg16  1  0.522549  0.825817  0.825817  1
  Cd  Cd17  1  0.832361  0.831839  0.831839  1
  Cd  Cd18  1  0.832361  0.831839  0.503960  1
  Cd  Cd19  1  0.832361  0.503960  0.831839  1
  Ni  Ni20  1  0.389288  0.393417  0.393417  1
  Ni  Ni21  1  0.389288  0.393417  0.823879  1
  Ni  Ni22  1  0.389288  0.823879  0.393417  1
  Ni  Ni23  1  0.825287  0.391571  0.391571  1
