# generated using pymatgen
data_Mg4Ni2As6Ir3Ru2
_symmetry_space_group_name_H-M   'P 1'
_cell_length_a   7.00724989
_cell_length_b   6.97726836
_cell_length_c   6.97726686
_cell_angle_alpha   109.11584542
_cell_angle_beta   109.46980219
_cell_angle_gamma   109.46979628
_symmetry_Int_Tables_number   1
_chemical_formula_structural   Mg4Ni2As6Ir3Ru2
_chemical_formula_sum   'Mg4 Ni2 As6 Ir3 Ru2'
_cell_volume   263.75308557
_cell_formula_units_Z   1
loop_
 _symmetry_equiv_pos_site_id
 _symmetry_equiv_pos_as_xyz
  1  'x, y, z'
loop_
 _atom_site_type_symbol
 _atom_site_label
 _atom_site_symmetry_multiplicity
 _atom_site_fract_x
 _atom_site_fract_y
 _atom_site_fract_z
 _atom_site_occupancy
  Mg  Mg0  1  0.000430  0.993381  0.500644  1
  Mg  Mg1  1  0.500000  0.003094  0.996906  1
  Mg  Mg2  1  0.999570  0.499356  0.006619  1
  Mg  Mg3  1  0.500000  0.502478  0.497522  1
  Ni  Ni4  1  0.243334  0.495970  0.748760  1
  Ni  Ni5  1  0.756666  0.251240  0.504030  1
  As  As6  1  0.686896  0.686626  0.993673  1
  As  As7  1  0.310014  0.310717  0.992347  1
  As  As8  1  0.000101  0.680768  0.692784  1
  As  As9  1  0.999899  0.307216  0.319232  1
  As  As10  1  0.689986  0.007653  0.689283  1
  As  As11  1  0.313104  0.006327  0.313374  1
  Ir  Ir12  1  0.500000  0.756422  0.243578  1
  Ir  Ir13  1  0.746553  0.494817  0.253594  1
  Ir  Ir14  1  0.253447  0.746406  0.505183  1
  Ru  Ru15  1  0.000000  0.001541  0.998459  1
  Ru  Ru16  1  0.500000  0.255991  0.744009  1
