# generated using pymatgen
data_CeHo(AlRu)2
_symmetry_space_group_name_H-M   'P 1'
_cell_length_a   7.00177100
_cell_length_b   4.00111400
_cell_length_c   8.20975500
_cell_angle_alpha   90.00000000
_cell_angle_beta   90.00000000
_cell_angle_gamma   90.00000000
_symmetry_Int_Tables_number   1
_chemical_formula_structural   CeHo(AlRu)2
_chemical_formula_sum   'Ce2 Ho2 Al4 Ru4'
_cell_volume   229.99533377
_cell_formula_units_Z   2
loop_
 _symmetry_equiv_pos_site_id
 _symmetry_equiv_pos_as_xyz
  1  'x, y, z'
loop_
 _atom_site_type_symbol
 _atom_site_label
 _atom_site_symmetry_multiplicity
 _atom_site_fract_x
 _atom_site_fract_y
 _atom_site_fract_z
 _atom_site_occupancy
  Ce  Ce0  1  0.032604  0.750000  0.822600  1
  Ce  Ce1  1  0.532604  0.750000  0.677400  1
  Ho  Ho2  1  0.959358  0.250000  0.185542  1
  Ho  Ho3  1  0.459358  0.250000  0.314458  1
  Al  Al4  1  0.869386  0.250000  0.555371  1
  Al  Al5  1  0.369386  0.250000  0.944629  1
  Al  Al6  1  0.134860  0.750000  0.437642  1
  Al  Al7  1  0.634860  0.750000  0.062358  1
  Ru  Ru8  1  0.742573  0.250000  0.868685  1
  Ru  Ru9  1  0.242573  0.250000  0.631315  1
  Ru  Ru10  1  0.261221  0.750000  0.117533  1
  Ru  Ru11  1  0.761221  0.750000  0.382467  1
