# generated using pymatgen
data_Ce4InNi4Au
_symmetry_space_group_name_H-M   'P 1'
_cell_length_a   7.41486900
_cell_length_b   7.41486900
_cell_length_c   3.64781000
_cell_angle_alpha   90.00000000
_cell_angle_beta   90.00000000
_cell_angle_gamma   90.00000000
_symmetry_Int_Tables_number   1
_chemical_formula_structural   Ce4InNi4Au
_chemical_formula_sum   'Ce4 In1 Ni4 Au1'
_cell_volume   200.55762353
_cell_formula_units_Z   1
loop_
 _symmetry_equiv_pos_site_id
 _symmetry_equiv_pos_as_xyz
  1  'x, y, z'
loop_
 _atom_site_type_symbol
 _atom_site_label
 _atom_site_symmetry_multiplicity
 _atom_site_fract_x
 _atom_site_fract_y
 _atom_site_fract_z
 _atom_site_occupancy
  Ce  Ce0  1  0.679148  0.168417  0.500000  1
  Ce  Ce1  1  0.168417  0.320852  0.500000  1
  Ce  Ce2  1  0.831583  0.679148  0.500000  1
  Ce  Ce3  1  0.320852  0.831583  0.500000  1
  In  In4  1  0.500000  0.500000  0.000000  1
  Ni  Ni5  1  0.873205  0.376989  0.000000  1
  Ni  Ni6  1  0.623011  0.873205  0.000000  1
  Ni  Ni7  1  0.126795  0.623011  0.000000  1
  Ni  Ni8  1  0.376989  0.126795  0.000000  1
  Au  Au9  1  0.000000  0.000000  0.000000  1
