# generated using pymatgen
data_Ho7Tm3(InSb2)2
_symmetry_space_group_name_H-M   'P 1'
_cell_length_a   8.91752801
_cell_length_b   8.90336723
_cell_length_c   6.42215700
_cell_angle_alpha   90.00194770
_cell_angle_beta   89.99611079
_cell_angle_gamma   120.05262716
_symmetry_Int_Tables_number   1
_chemical_formula_structural   Ho7Tm3(InSb2)2
_chemical_formula_sum   'Ho7 Tm3 In2 Sb4'
_cell_volume   441.34657896
_cell_formula_units_Z   1
loop_
 _symmetry_equiv_pos_site_id
 _symmetry_equiv_pos_as_xyz
  1  'x, y, z'
loop_
 _atom_site_type_symbol
 _atom_site_label
 _atom_site_symmetry_multiplicity
 _atom_site_fract_x
 _atom_site_fract_y
 _atom_site_fract_z
 _atom_site_occupancy
  Ho  Ho0  1  0.334706  0.669414  0.000000  1
  Ho  Ho1  1  0.237298  0.999938  0.250179  1
  Ho  Ho2  1  0.762639  0.999938  0.749821  1
  Ho  Ho3  1  0.993405  0.238609  0.250053  1
  Ho  Ho4  1  0.754631  0.761394  0.250016  1
  Ho  Ho5  1  0.245204  0.238609  0.749947  1
  Ho  Ho6  1  0.006763  0.761394  0.749984  1
  Tm  Tm7  1  0.665212  0.330422  0.500000  1
  Tm  Tm8  1  0.664952  0.329902  0.000000  1
  Tm  Tm9  1  0.334858  0.669718  0.500000  1
  In  In10  1  0.600027  0.000839  0.250286  1
  In  In11  1  0.400812  0.000839  0.749714  1
  Sb  Sb12  1  0.997287  0.607885  0.250390  1
  Sb  Sb13  1  0.390191  0.391608  0.250544  1
  Sb  Sb14  1  0.610598  0.607885  0.749610  1
  Sb  Sb15  1  0.001417  0.391608  0.749456  1
