# generated using pymatgen
data_YbPa3(SiPd)4
_symmetry_space_group_name_H-M   'P 1'
_cell_length_a   4.33078900
_cell_length_b   7.08470504
_cell_length_c   7.48551100
_cell_angle_alpha   89.87258576
_cell_angle_beta   90.00000000
_cell_angle_gamma   90.00000000
_symmetry_Int_Tables_number   1
_chemical_formula_structural   YbPa3(SiPd)4
_chemical_formula_sum   'Yb1 Pa3 Si4 Pd4'
_cell_volume   229.67259527
_cell_formula_units_Z   1
loop_
 _symmetry_equiv_pos_site_id
 _symmetry_equiv_pos_as_xyz
  1  'x, y, z'
loop_
 _atom_site_type_symbol
 _atom_site_label
 _atom_site_symmetry_multiplicity
 _atom_site_fract_x
 _atom_site_fract_y
 _atom_site_fract_z
 _atom_site_occupancy
  Yb  Yb0  1  0.250000  0.000720  0.291658  1
  Pa  Pa1  1  0.250000  0.498315  0.208545  1
  Pa  Pa2  1  0.750000  0.507592  0.793615  1
  Pa  Pa3  1  0.750000  0.998998  0.701542  1
  Si  Si4  1  0.250000  0.791764  0.909926  1
  Si  Si5  1  0.750000  0.234834  0.087801  1
  Si  Si6  1  0.750000  0.696214  0.404777  1
  Si  Si7  1  0.250000  0.298713  0.599679  1
  Pd  Pd8  1  0.250000  0.701338  0.578319  1
  Pd  Pd9  1  0.750000  0.286391  0.422574  1
  Pd  Pd10  1  0.750000  0.805863  0.080799  1
  Pd  Pd11  1  0.250000  0.179257  0.920766  1
