# generated using pymatgen
data_PrTh4Sn3Cl
_symmetry_space_group_name_H-M   'P 1'
_cell_length_a   9.52615202
_cell_length_b   9.52510843
_cell_length_c   6.58514200
_cell_angle_alpha   90.00000000
_cell_angle_beta   90.00000000
_cell_angle_gamma   119.99637171
_symmetry_Int_Tables_number   1
_chemical_formula_structural   PrTh4Sn3Cl
_chemical_formula_sum   'Pr2 Th8 Sn6 Cl2'
_cell_volume   517.48657702
_cell_formula_units_Z   2
loop_
 _symmetry_equiv_pos_site_id
 _symmetry_equiv_pos_as_xyz
  1  'x, y, z'
loop_
 _atom_site_type_symbol
 _atom_site_label
 _atom_site_symmetry_multiplicity
 _atom_site_fract_x
 _atom_site_fract_y
 _atom_site_fract_z
 _atom_site_occupancy
  Pr  Pr0  1  0.268752  0.268546  0.750000  1
  Pr  Pr1  1  0.268752  0.000206  0.250000  1
  Th  Th2  1  0.669169  0.334584  0.000000  1
  Th  Th3  1  0.336170  0.668085  0.500000  1
  Th  Th4  1  0.669169  0.334584  0.500000  1
  Th  Th5  1  0.336170  0.668085  0.000000  1
  Th  Th6  1  0.728186  0.999308  0.750000  1
  Th  Th7  1  0.728186  0.728877  0.250000  1
  Th  Th8  1  0.999283  0.272002  0.250000  1
  Th  Th9  1  0.999283  0.727281  0.750000  1
  Sn  Sn10  1  0.616175  0.615766  0.750000  1
  Sn  Sn11  1  0.001012  0.617010  0.250000  1
  Sn  Sn12  1  0.616175  0.000410  0.250000  1
  Sn  Sn13  1  0.384249  0.000238  0.750000  1
  Sn  Sn14  1  0.001012  0.384002  0.750000  1
  Sn  Sn15  1  0.384249  0.384011  0.250000  1
  Cl  Cl16  1  0.997004  0.998502  0.500000  1
  Cl  Cl17  1  0.997004  0.998502  0.000000  1
