# generated using pymatgen
data_Hf7Ta3(Si3C)2
_symmetry_space_group_name_H-M   'P 1'
_cell_length_a   7.78734500
_cell_length_b   7.78734560
_cell_length_c   5.46336600
_cell_angle_alpha   90.00000000
_cell_angle_beta   90.00000000
_cell_angle_gamma   120.00000171
_symmetry_Int_Tables_number   1
_chemical_formula_structural   Hf7Ta3(Si3C)2
_chemical_formula_sum   'Hf7 Ta3 Si6 C2'
_cell_volume   286.92592091
_cell_formula_units_Z   1
loop_
 _symmetry_equiv_pos_site_id
 _symmetry_equiv_pos_as_xyz
  1  'x, y, z'
loop_
 _atom_site_type_symbol
 _atom_site_label
 _atom_site_symmetry_multiplicity
 _atom_site_fract_x
 _atom_site_fract_y
 _atom_site_fract_z
 _atom_site_occupancy
  Hf  Hf0  1  0.333333  0.666667  0.000000  1
  Hf  Hf1  1  0.236534  0.000439  0.249605  1
  Hf  Hf2  1  0.763904  0.000439  0.750395  1
  Hf  Hf3  1  0.999561  0.236096  0.249605  1
  Hf  Hf4  1  0.999561  0.763466  0.750395  1
  Hf  Hf5  1  0.763904  0.763466  0.249605  1
  Hf  Hf6  1  0.236534  0.236096  0.750395  1
  Ta  Ta7  1  0.666667  0.333333  0.000000  1
  Ta  Ta8  1  0.666667  0.333333  0.500000  1
  Ta  Ta9  1  0.333333  0.666667  0.500000  1
  Si  Si10  1  0.594597  0.002453  0.255758  1
  Si  Si11  1  0.407857  0.002453  0.744242  1
  Si  Si12  1  0.997547  0.592143  0.255758  1
  Si  Si13  1  0.997547  0.405403  0.744242  1
  Si  Si14  1  0.407857  0.405403  0.255758  1
  Si  Si15  1  0.594597  0.592143  0.744242  1
  C  C16  1  0.000000  0.000000  0.000000  1
  C  C17  1  0.000000  0.000000  0.500000  1
