# generated using pymatgen
data_Ac4AlGaSi2
_symmetry_space_group_name_H-M   'P 1'
_cell_length_a   4.23650100
_cell_length_b   4.73372900
_cell_length_c   11.96283300
_cell_angle_alpha   90.00000000
_cell_angle_beta   90.00000000
_cell_angle_gamma   90.00000000
_symmetry_Int_Tables_number   1
_chemical_formula_structural   Ac4AlGaSi2
_chemical_formula_sum   'Ac4 Al1 Ga1 Si2'
_cell_volume   239.90800805
_cell_formula_units_Z   1
loop_
 _symmetry_equiv_pos_site_id
 _symmetry_equiv_pos_as_xyz
  1  'x, y, z'
loop_
 _atom_site_type_symbol
 _atom_site_label
 _atom_site_symmetry_multiplicity
 _atom_site_fract_x
 _atom_site_fract_y
 _atom_site_fract_z
 _atom_site_occupancy
  Ac  Ac0  1  0.000000  0.000000  0.357556  1
  Ac  Ac1  1  0.000000  0.500000  0.856843  1
  Ac  Ac2  1  0.500000  0.500000  0.138729  1
  Ac  Ac3  1  0.500000  0.000000  0.644870  1
  Al  Al4  1  0.500000  0.500000  0.440146  1
  Ga  Ga5  1  0.000000  0.000000  0.062410  1
  Si  Si6  1  0.000000  0.500000  0.567960  1
  Si  Si7  1  0.500000  0.000000  0.931484  1
