# generated using pymatgen
data_Er16MgCd(HgPd2)2
_symmetry_space_group_name_H-M   'P 1'
_cell_length_a   9.61137493
_cell_length_b   9.61027858
_cell_length_c   9.61106100
_cell_angle_alpha   59.99754306
_cell_angle_beta   60.00117969
_cell_angle_gamma   60.09962455
_symmetry_Int_Tables_number   1
_chemical_formula_structural   Er16MgCd(HgPd2)2
_chemical_formula_sum   'Er16 Mg1 Cd1 Hg2 Pd4'
_cell_volume   628.20234288
_cell_formula_units_Z   1
loop_
 _symmetry_equiv_pos_site_id
 _symmetry_equiv_pos_as_xyz
  1  'x, y, z'
loop_
 _atom_site_type_symbol
 _atom_site_label
 _atom_site_symmetry_multiplicity
 _atom_site_fract_x
 _atom_site_fract_y
 _atom_site_fract_z
 _atom_site_occupancy
  Er  Er0  1  0.353143  0.354378  0.349178  1
  Er  Er1  1  0.353117  0.354418  0.943285  1
  Er  Er2  1  0.362147  0.924649  0.356613  1
  Er  Er3  1  0.931456  0.360784  0.353888  1
  Er  Er4  1  0.812335  0.187422  0.188976  1
  Er  Er5  1  0.189733  0.810584  0.809797  1
  Er  Er6  1  0.189738  0.810590  0.189903  1
  Er  Er7  1  0.812346  0.187432  0.811259  1
  Er  Er8  1  0.189300  0.188444  0.811136  1
  Er  Er9  1  0.810827  0.810501  0.189337  1
  Er  Er10  1  0.933822  0.565291  0.565952  1
  Er  Er11  1  0.565792  0.933188  0.935006  1
  Er  Er12  1  0.565796  0.933176  0.566040  1
  Er  Er13  1  0.933806  0.565295  0.934937  1
  Er  Er14  1  0.566297  0.566366  0.933681  1
  Er  Er15  1  0.935707  0.935126  0.564593  1
  Mg  Mg16  1  0.573917  0.273386  0.576236  1
  Cd  Cd17  1  0.251458  0.579520  0.584505  1
  Hg  Hg18  1  0.585909  0.583173  0.590809  1
  Hg  Hg19  1  0.585930  0.583173  0.240121  1
  Pd  Pd20  1  0.144860  0.142631  0.150474  1
  Pd  Pd21  1  0.144856  0.142656  0.562095  1
  Pd  Pd22  1  0.141753  0.567107  0.145519  1
  Pd  Pd23  1  0.565956  0.140708  0.146654  1
