# generated using pymatgen
data_YbTm3(B4Ru)4
_symmetry_space_group_name_H-M   'P 1'
_cell_length_a   3.52802100
_cell_length_b   5.93487701
_cell_length_c   11.46634796
_cell_angle_alpha   90.06690574
_cell_angle_beta   90.00000000
_cell_angle_gamma   90.00000000
_symmetry_Int_Tables_number   1
_chemical_formula_structural   YbTm3(B4Ru)4
_chemical_formula_sum   'Yb1 Tm3 B16 Ru4'
_cell_volume   240.08648069
_cell_formula_units_Z   1
loop_
 _symmetry_equiv_pos_site_id
 _symmetry_equiv_pos_as_xyz
  1  'x, y, z'
loop_
 _atom_site_type_symbol
 _atom_site_label
 _atom_site_symmetry_multiplicity
 _atom_site_fract_x
 _atom_site_fract_y
 _atom_site_fract_z
 _atom_site_occupancy
  Yb  Yb0  1  0.500000  0.130219  0.149493  1
  Tm  Tm1  1  0.500000  0.871001  0.851081  1
  Tm  Tm2  1  0.500000  0.629484  0.348905  1
  Tm  Tm3  1  0.500000  0.371313  0.649983  1
  B  B4  1  0.000000  0.476820  0.191829  1
  B  B5  1  0.000000  0.524025  0.807644  1
  B  B6  1  0.000000  0.975498  0.308048  1
  B  B7  1  0.000000  0.023291  0.692640  1
  B  B8  1  0.000000  0.289427  0.314250  1
  B  B9  1  0.000000  0.709651  0.686107  1
  B  B10  1  0.000000  0.789343  0.185480  1
  B  B11  1  0.000000  0.209082  0.814578  1
  B  B12  1  0.000000  0.364968  0.470233  1
  B  B13  1  0.000000  0.635427  0.530362  1
  B  B14  1  0.000000  0.864728  0.029929  1
  B  B15  1  0.000000  0.135464  0.969415  1
  B  B16  1  0.000000  0.386809  0.046830  1
  B  B17  1  0.000000  0.612422  0.953057  1
  B  B18  1  0.000000  0.887767  0.452933  1
  B  B19  1  0.000000  0.112895  0.547631  1
  Ru  Ru20  1  0.500000  0.141688  0.409020  1
  Ru  Ru21  1  0.500000  0.858903  0.592785  1
  Ru  Ru22  1  0.500000  0.639944  0.091009  1
  Ru  Ru23  1  0.500000  0.359830  0.906758  1
