# generated using pymatgen
data_Nd4In2Cu3Ru
_symmetry_space_group_name_H-M   'P 1'
_cell_length_a   7.69960123
_cell_length_b   7.69960096
_cell_length_c   3.88213300
_cell_angle_alpha   90.00000000
_cell_angle_beta   90.00000000
_cell_angle_gamma   90.20685621
_symmetry_Int_Tables_number   1
_chemical_formula_structural   Nd4In2Cu3Ru
_chemical_formula_sum   'Nd4 In2 Cu3 Ru1'
_cell_volume   230.14631794
_cell_formula_units_Z   1
loop_
 _symmetry_equiv_pos_site_id
 _symmetry_equiv_pos_as_xyz
  1  'x, y, z'
loop_
 _atom_site_type_symbol
 _atom_site_label
 _atom_site_symmetry_multiplicity
 _atom_site_fract_x
 _atom_site_fract_y
 _atom_site_fract_z
 _atom_site_occupancy
  Nd  Nd0  1  0.687365  0.187365  0.000000  1
  Nd  Nd1  1  0.323856  0.823856  0.000000  1
  Nd  Nd2  1  0.162964  0.318357  0.000000  1
  Nd  Nd3  1  0.818357  0.662964  0.000000  1
  In  In4  1  0.497951  0.498952  0.500000  1
  In  In5  1  0.998952  0.997951  0.500000  1
  Cu  Cu6  1  0.121652  0.621652  0.500000  1
  Cu  Cu7  1  0.387364  0.120045  0.500000  1
  Cu  Cu8  1  0.620045  0.887364  0.500000  1
  Ru  Ru9  1  0.881496  0.381496  0.500000  1
