# generated using pymatgen
data_LuU3Ge4As2Ru7
_symmetry_space_group_name_H-M   'P 1'
_cell_length_a   7.21929263
_cell_length_b   7.18401317
_cell_length_c   7.21133779
_cell_angle_alpha   109.30294092
_cell_angle_beta   109.57103825
_cell_angle_gamma   109.41799231
_symmetry_Int_Tables_number   1
_chemical_formula_structural   LuU3Ge4As2Ru7
_chemical_formula_sum   'Lu1 U3 Ge4 As2 Ru7'
_cell_volume   288.33969930
_cell_formula_units_Z   1
loop_
 _symmetry_equiv_pos_site_id
 _symmetry_equiv_pos_as_xyz
  1  'x, y, z'
loop_
 _atom_site_type_symbol
 _atom_site_label
 _atom_site_symmetry_multiplicity
 _atom_site_fract_x
 _atom_site_fract_y
 _atom_site_fract_z
 _atom_site_occupancy
  Lu  Lu0  1  0.000000  0.502609  0.999016  1
  U  U1  1  0.000000  0.000938  0.496700  1
  U  U2  1  0.499269  0.000839  0.999007  1
  U  U3  1  0.500731  0.501570  0.499738  1
  Ge  Ge4  1  0.000000  0.315520  0.307893  1
  Ge  Ge5  1  0.303072  0.310118  0.998300  1
  Ge  Ge6  1  0.696928  0.007045  0.695228  1
  Ge  Ge7  1  0.000000  0.686743  0.688635  1
  As  As8  1  0.688422  0.684906  0.998730  1
  As  As9  1  0.311578  0.996485  0.310308  1
  Ru  Ru10  1  0.748657  0.246486  0.494237  1
  Ru  Ru11  1  0.744872  0.499527  0.252203  1
  Ru  Ru12  1  0.493227  0.245909  0.748801  1
  Ru  Ru13  1  0.251343  0.497828  0.745580  1
  Ru  Ru14  1  0.255128  0.754655  0.507331  1
  Ru  Ru15  1  0.506773  0.752683  0.255574  1
  Ru  Ru16  1  0.000000  0.996138  0.002719  1
