# generated using pymatgen
data_Rb12Na8Si(SnP4)3
_symmetry_space_group_name_H-M   'P 1'
_cell_length_a   10.70520011
_cell_length_b   10.70519887
_cell_length_c   15.61277601
_cell_angle_alpha   89.97326914
_cell_angle_beta   89.97326895
_cell_angle_gamma   142.96573454
_symmetry_Int_Tables_number   1
_chemical_formula_structural   Rb12Na8Si(SnP4)3
_chemical_formula_sum   'Rb12 Na8 Si1 Sn3 P12'
_cell_volume   1077.64736307
_cell_formula_units_Z   1
loop_
 _symmetry_equiv_pos_site_id
 _symmetry_equiv_pos_as_xyz
  1  'x, y, z'
loop_
 _atom_site_type_symbol
 _atom_site_label
 _atom_site_symmetry_multiplicity
 _atom_site_fract_x
 _atom_site_fract_y
 _atom_site_fract_z
 _atom_site_occupancy
  Rb  Rb0  1  0.934588  0.605815  0.830934  1
  Rb  Rb1  1  0.559421  0.894241  0.323840  1
  Rb  Rb2  1  0.394185  0.065412  0.169066  1
  Rb  Rb3  1  0.059714  0.394008  0.173539  1
  Rb  Rb4  1  0.893079  0.559861  0.321213  1
  Rb  Rb5  1  0.440139  0.106921  0.678787  1
  Rb  Rb6  1  0.605992  0.940286  0.826461  1
  Rb  Rb7  1  0.266796  0.265518  0.317931  1
  Rb  Rb8  1  0.765496  0.763549  0.177319  1
  Rb  Rb9  1  0.236451  0.234504  0.822681  1
  Rb  Rb10  1  0.734482  0.733204  0.682069  1
  Rb  Rb11  1  0.105759  0.440579  0.676160  1
  Na  Na12  1  0.921712  0.078288  0.000000  1
  Na  Na13  1  0.580910  0.419090  0.500000  1
  Na  Na14  1  0.080814  0.919186  0.000000  1
  Na  Na15  1  0.419232  0.580768  0.500000  1
  Na  Na16  1  0.753188  0.246812  0.000000  1
  Na  Na17  1  0.745146  0.254854  0.500000  1
  Na  Na18  1  0.244099  0.755901  0.000000  1
  Na  Na19  1  0.254741  0.745259  0.500000  1
  Si  Si20  1  0.586237  0.413763  0.000000  1
  Sn  Sn21  1  0.912247  0.087753  0.500000  1
  Sn  Sn22  1  0.414810  0.585190  0.000000  1
  Sn  Sn23  1  0.087945  0.912055  0.500000  1
  P  P24  1  0.847011  0.547115  0.088239  1
  P  P25  1  0.452885  0.152989  0.911761  1
  P  P26  1  0.624636  0.939574  0.599825  1
  P  P27  1  0.940228  0.624881  0.599974  1
  P  P28  1  0.126076  0.439731  0.902312  1
  P  P29  1  0.560269  0.873924  0.097688  1
  P  P30  1  0.375119  0.059772  0.400026  1
  P  P31  1  0.201924  0.201768  0.588880  1
  P  P32  1  0.696628  0.680618  0.918403  1
  P  P33  1  0.319382  0.303372  0.081597  1
  P  P34  1  0.060426  0.375364  0.400175  1
  P  P35  1  0.798232  0.798076  0.411120  1
