# generated using pymatgen
data_Ce5Ga2Tc3
_symmetry_space_group_name_H-M   'P 1'
_cell_length_a   8.37331397
_cell_length_b   8.37331434
_cell_length_c   8.37331500
_cell_angle_alpha   109.47122223
_cell_angle_beta   109.47122312
_cell_angle_gamma   109.47122410
_symmetry_Int_Tables_number   1
_chemical_formula_structural   Ce5Ga2Tc3
_chemical_formula_sum   'Ce10 Ga4 Tc6'
_cell_volume   451.92906156
_cell_formula_units_Z   2
loop_
 _symmetry_equiv_pos_site_id
 _symmetry_equiv_pos_as_xyz
  1  'x, y, z'
loop_
 _atom_site_type_symbol
 _atom_site_label
 _atom_site_symmetry_multiplicity
 _atom_site_fract_x
 _atom_site_fract_y
 _atom_site_fract_z
 _atom_site_occupancy
  Ce  Ce0  1  0.786386  0.786386  0.786386  1
  Ce  Ce1  1  0.305613  0.555613  0.750000  1
  Ce  Ce2  1  0.750000  0.305613  0.555613  1
  Ce  Ce3  1  0.555613  0.750000  0.305613  1
  Ce  Ce4  1  0.713614  0.500000  0.000000  1
  Ce  Ce5  1  0.000000  0.713614  0.500000  1
  Ce  Ce6  1  0.500000  0.000000  0.713614  1
  Ce  Ce7  1  0.250000  0.194387  0.944387  1
  Ce  Ce8  1  0.944387  0.250000  0.194387  1
  Ce  Ce9  1  0.194387  0.944387  0.250000  1
  Ga  Ga10  1  0.409742  0.409742  0.409742  1
  Ga  Ga11  1  0.090258  0.500000  0.000000  1
  Ga  Ga12  1  0.000000  0.090258  0.500000  1
  Ga  Ga13  1  0.500000  0.000000  0.090258  1
  Tc  Tc14  1  0.870598  0.120598  0.750000  1
  Tc  Tc15  1  0.750000  0.870598  0.120598  1
  Tc  Tc16  1  0.120598  0.750000  0.870598  1
  Tc  Tc17  1  0.250000  0.629402  0.379402  1
  Tc  Tc18  1  0.379402  0.250000  0.629402  1
  Tc  Tc19  1  0.629402  0.379402  0.250000  1
