# generated using pymatgen
data_YbY(OsO4)2
_symmetry_space_group_name_H-M   'P 1'
_cell_length_a   5.37417359
_cell_length_b   7.71386947
_cell_length_c   7.44413007
_cell_angle_alpha   78.96190534
_cell_angle_beta   90.96148369
_cell_angle_gamma   94.41223956
_symmetry_Int_Tables_number   1
_chemical_formula_structural   YbY(OsO4)2
_chemical_formula_sum   'Yb2 Y2 Os4 O16'
_cell_volume   301.99399819
_cell_formula_units_Z   2
loop_
 _symmetry_equiv_pos_site_id
 _symmetry_equiv_pos_as_xyz
  1  'x, y, z'
loop_
 _atom_site_type_symbol
 _atom_site_label
 _atom_site_symmetry_multiplicity
 _atom_site_fract_x
 _atom_site_fract_y
 _atom_site_fract_z
 _atom_site_occupancy
  Yb  Yb0  1  0.261246  0.116032  0.605713  1
  Yb  Yb1  1  0.738609  0.883859  0.394339  1
  Y  Y2  1  0.189653  0.168031  0.104238  1
  Y  Y3  1  0.810299  0.831962  0.895659  1
  Os  Os4  1  0.249329  0.665296  0.207101  1
  Os  Os5  1  0.750689  0.334731  0.792884  1
  Os  Os6  1  0.715398  0.330483  0.300018  1
  Os  Os7  1  0.284588  0.669530  0.699967  1
  O  O8  1  0.049768  0.471071  0.714986  1
  O  O9  1  0.950293  0.528997  0.285038  1
  O  O10  1  0.637240  0.327945  0.549070  1
  O  O11  1  0.362788  0.672108  0.450919  1
  O  O12  1  0.840946  0.326941  0.051230  1
  O  O13  1  0.159055  0.673013  0.948837  1
  O  O14  1  0.412345  0.442243  0.200279  1
  O  O15  1  0.587638  0.557857  0.799714  1
  O  O16  1  0.056013  0.881457  0.173476  1
  O  O17  1  0.944075  0.118442  0.826561  1
  O  O18  1  0.494339  0.115237  0.316025  1
  O  O19  1  0.505654  0.884727  0.683925  1
  O  O20  1  0.454381  0.200319  0.870888  1
  O  O21  1  0.545612  0.799691  0.129125  1
  O  O22  1  0.975906  0.167616  0.373535  1
  O  O23  1  0.024136  0.832413  0.626473  1
