# generated using pymatgen
data_YEr3ReOsC4
_symmetry_space_group_name_H-M   'P 1'
_cell_length_a   5.07648700
_cell_length_b   6.52254522
_cell_length_c   9.77831592
_cell_angle_alpha   89.60032152
_cell_angle_beta   90.00000000
_cell_angle_gamma   90.00000000
_symmetry_Int_Tables_number   1
_chemical_formula_structural   YEr3ReOsC4
_chemical_formula_sum   'Y2 Er6 Re2 Os2 C8'
_cell_volume   323.76796416
_cell_formula_units_Z   2
loop_
 _symmetry_equiv_pos_site_id
 _symmetry_equiv_pos_as_xyz
  1  'x, y, z'
loop_
 _atom_site_type_symbol
 _atom_site_label
 _atom_site_symmetry_multiplicity
 _atom_site_fract_x
 _atom_site_fract_y
 _atom_site_fract_z
 _atom_site_occupancy
  Y  Y0  1  0.750000  0.969629  0.714122  1
  Y  Y1  1  0.250000  0.030371  0.285878  1
  Er  Er2  1  0.250000  0.676992  0.555674  1
  Er  Er3  1  0.750000  0.323008  0.444326  1
  Er  Er4  1  0.750000  0.821112  0.056283  1
  Er  Er5  1  0.250000  0.178888  0.943717  1
  Er  Er6  1  0.250000  0.531964  0.216150  1
  Er  Er7  1  0.750000  0.468036  0.783850  1
  Re  Re8  1  0.250000  0.721585  0.866273  1
  Re  Re9  1  0.750000  0.278415  0.133727  1
  Os  Os10  1  0.750000  0.775706  0.365665  1
  Os  Os11  1  0.250000  0.224294  0.634335  1
  C  C12  1  0.250000  0.456336  0.760175  1
  C  C13  1  0.750000  0.543664  0.239825  1
  C  C14  1  0.750000  0.043322  0.258589  1
  C  C15  1  0.250000  0.956678  0.741411  1
  C  C16  1  0.250000  0.823034  0.052489  1
  C  C17  1  0.750000  0.176966  0.947511  1
  C  C18  1  0.750000  0.672697  0.551498  1
  C  C19  1  0.250000  0.327303  0.448502  1
