# generated using pymatgen
data_Er4Ga2Sn4Ir7
_symmetry_space_group_name_H-M   'P 1'
_cell_length_a   7.47383654
_cell_length_b   7.48384346
_cell_length_c   7.48384389
_cell_angle_alpha   109.62668931
_cell_angle_beta   109.42054191
_cell_angle_gamma   109.42055265
_symmetry_Int_Tables_number   1
_chemical_formula_structural   Er4Ga2Sn4Ir7
_chemical_formula_sum   'Er4 Ga2 Sn4 Ir7'
_cell_volume   322.01736492
_cell_formula_units_Z   1
loop_
 _symmetry_equiv_pos_site_id
 _symmetry_equiv_pos_as_xyz
  1  'x, y, z'
loop_
 _atom_site_type_symbol
 _atom_site_label
 _atom_site_symmetry_multiplicity
 _atom_site_fract_x
 _atom_site_fract_y
 _atom_site_fract_z
 _atom_site_occupancy
  Er  Er0  1  0.000000  0.990586  0.454317  1
  Er  Er1  1  0.000000  0.545683  0.009414  1
  Er  Er2  1  0.500000  0.990106  0.009894  1
  Er  Er3  1  0.500000  0.490106  0.509894  1
  Ga  Ga4  1  0.662323  0.670027  0.992297  1
  Ga  Ga5  1  0.337677  0.007703  0.329973  1
  Sn  Sn6  1  0.000000  0.321619  0.303669  1
  Sn  Sn7  1  0.291172  0.299479  0.991693  1
  Sn  Sn8  1  0.708828  0.008307  0.700521  1
  Sn  Sn9  1  0.000000  0.696331  0.678381  1
  Ir  Ir10  1  0.753528  0.251264  0.502264  1
  Ir  Ir11  1  0.736421  0.496830  0.239591  1
  Ir  Ir12  1  0.500000  0.248084  0.751916  1
  Ir  Ir13  1  0.246472  0.497736  0.748736  1
  Ir  Ir14  1  0.263579  0.760409  0.503170  1
  Ir  Ir15  1  0.500000  0.748084  0.251916  1
  Ir  Ir16  1  0.000000  0.977646  0.022354  1
