# generated using pymatgen
data_ReTc3(TeBr)4
_symmetry_space_group_name_H-M   'P 1'
_cell_length_a   10.26272329
_cell_length_b   10.26620365
_cell_length_c   11.90107545
_cell_angle_alpha   90.01526707
_cell_angle_beta   90.02200939
_cell_angle_gamma   106.76537139
_symmetry_Int_Tables_number   1
_chemical_formula_structural   ReTc3(TeBr)4
_chemical_formula_sum   'Re3 Tc9 Te12 Br12'
_cell_volume   1200.58994582
_cell_formula_units_Z   3
loop_
 _symmetry_equiv_pos_site_id
 _symmetry_equiv_pos_as_xyz
  1  'x, y, z'
loop_
 _atom_site_type_symbol
 _atom_site_label
 _atom_site_symmetry_multiplicity
 _atom_site_fract_x
 _atom_site_fract_y
 _atom_site_fract_z
 _atom_site_occupancy
  Re  Re0  1  0.110209  0.618770  0.175042  1
  Re  Re1  1  0.174250  0.681340  0.389853  1
  Re  Re2  1  0.131449  0.868870  0.250004  1
  Tc  Tc3  1  0.361318  0.639259  0.249881  1
  Tc  Tc4  1  0.319753  0.826136  0.109212  1
  Tc  Tc5  1  0.382742  0.890416  0.325381  1
  Tc  Tc6  1  0.639397  0.360499  0.749979  1
  Tc  Tc7  1  0.617745  0.109875  0.825001  1
  Tc  Tc8  1  0.680424  0.173980  0.609607  1
  Tc  Tc9  1  0.826075  0.319495  0.890256  1
  Tc  Tc10  1  0.890047  0.382178  0.674931  1
  Tc  Tc11  1  0.868732  0.131240  0.749984  1
  Te  Te12  1  0.295146  0.572715  0.032130  1
  Te  Te13  1  0.427197  0.704437  0.467832  1
  Te  Te14  1  0.341009  0.080165  0.182612  1
  Te  Te15  1  0.573633  0.295250  0.967127  1
  Te  Te16  1  0.704542  0.426334  0.532875  1
  Te  Te17  1  0.659687  0.920769  0.682771  1
  Te  Te18  1  0.917480  0.657825  0.318105  1
  Te  Te19  1  0.804302  0.070660  0.966571  1
  Te  Te20  1  0.929226  0.195468  0.533440  1
  Te  Te21  1  0.079287  0.340224  0.817270  1
  Te  Te22  1  0.069774  0.804899  0.031297  1
  Te  Te23  1  0.195796  0.930953  0.468582  1
  Br  Br24  1  0.484152  0.515805  0.749920  1
  Br  Br25  1  0.436980  0.159185  0.687641  1
  Br  Br26  1  0.420354  0.903139  0.905616  1
  Br  Br27  1  0.516024  0.483800  0.250043  1
  Br  Br28  1  0.579943  0.097101  0.405892  1
  Br  Br29  1  0.562764  0.840883  0.187646  1
  Br  Br30  1  0.840959  0.563016  0.812345  1
  Br  Br31  1  0.903777  0.420688  0.095088  1
  Br  Br32  1  0.973575  0.026219  0.250053  1
  Br  Br33  1  0.097273  0.579985  0.593232  1
  Br  Br34  1  0.026799  0.973166  0.749838  1
  Br  Br35  1  0.158181  0.435253  0.312942  1
