# generated using pymatgen
data_Yb5PdRh2
_symmetry_space_group_name_H-M   'P 1'
_cell_length_a   7.47625600
_cell_length_b   7.47625600
_cell_length_c   13.54560700
_cell_angle_alpha   90.00000000
_cell_angle_beta   90.00000000
_cell_angle_gamma   90.00000000
_symmetry_Int_Tables_number   1
_chemical_formula_structural   Yb5PdRh2
_chemical_formula_sum   'Yb20 Pd4 Rh8'
_cell_volume   757.12362707
_cell_formula_units_Z   4
loop_
 _symmetry_equiv_pos_site_id
 _symmetry_equiv_pos_as_xyz
  1  'x, y, z'
loop_
 _atom_site_type_symbol
 _atom_site_label
 _atom_site_symmetry_multiplicity
 _atom_site_fract_x
 _atom_site_fract_y
 _atom_site_fract_z
 _atom_site_occupancy
  Yb  Yb0  1  0.167749  0.170611  0.112097  1
  Yb  Yb1  1  0.670610  0.332251  0.112097  1
  Yb  Yb2  1  0.329389  0.667749  0.112097  1
  Yb  Yb3  1  0.832251  0.829389  0.112097  1
  Yb  Yb4  1  0.500000  0.000000  0.247161  1
  Yb  Yb5  1  0.000000  0.500000  0.252839  1
  Yb  Yb6  1  0.170611  0.167749  0.387903  1
  Yb  Yb7  1  0.667749  0.329389  0.387903  1
  Yb  Yb8  1  0.332251  0.670610  0.387903  1
  Yb  Yb9  1  0.829389  0.832251  0.387903  1
  Yb  Yb10  1  0.832251  0.170611  0.612097  1
  Yb  Yb11  1  0.329389  0.332251  0.612097  1
  Yb  Yb12  1  0.670610  0.667749  0.612097  1
  Yb  Yb13  1  0.167749  0.829389  0.612097  1
  Yb  Yb14  1  0.500000  0.000000  0.747161  1
  Yb  Yb15  1  0.000000  0.500000  0.752839  1
  Yb  Yb16  1  0.829389  0.167749  0.887903  1
  Yb  Yb17  1  0.332251  0.329389  0.887903  1
  Yb  Yb18  1  0.667749  0.670610  0.887903  1
  Yb  Yb19  1  0.170611  0.832251  0.887903  1
  Pd  Pd20  1  0.500000  0.000000  0.001012  1
  Pd  Pd21  1  0.000000  0.500000  0.498988  1
  Pd  Pd22  1  0.500000  0.000000  0.501012  1
  Pd  Pd23  1  0.000000  0.500000  0.998988  1
  Rh  Rh24  1  0.869809  0.130192  0.250000  1
  Rh  Rh25  1  0.369808  0.369808  0.250000  1
  Rh  Rh26  1  0.630192  0.630192  0.250000  1
  Rh  Rh27  1  0.130192  0.869809  0.250000  1
  Rh  Rh28  1  0.130192  0.130192  0.750000  1
  Rh  Rh29  1  0.630192  0.369808  0.750000  1
  Rh  Rh30  1  0.369808  0.630192  0.750000  1
  Rh  Rh31  1  0.869809  0.869809  0.750000  1
