# generated using pymatgen
data_Sm2ScBe2Rh5
_symmetry_space_group_name_H-M   'P 1'
_cell_length_a   9.85092000
_cell_length_b   9.85092000
_cell_length_c   3.33017700
_cell_angle_alpha   90.00000000
_cell_angle_beta   90.00000000
_cell_angle_gamma   90.00000000
_symmetry_Int_Tables_number   1
_chemical_formula_structural   Sm2ScBe2Rh5
_chemical_formula_sum   'Sm4 Sc2 Be4 Rh10'
_cell_volume   323.16245693
_cell_formula_units_Z   2
loop_
 _symmetry_equiv_pos_site_id
 _symmetry_equiv_pos_as_xyz
  1  'x, y, z'
loop_
 _atom_site_type_symbol
 _atom_site_label
 _atom_site_symmetry_multiplicity
 _atom_site_fract_x
 _atom_site_fract_y
 _atom_site_fract_z
 _atom_site_occupancy
  Sm  Sm0  1  0.824353  0.324353  0.000000  1
  Sm  Sm1  1  0.324353  0.175647  0.000000  1
  Sm  Sm2  1  0.675647  0.824353  0.000000  1
  Sm  Sm3  1  0.175647  0.675647  0.000000  1
  Sc  Sc4  1  0.000000  0.000000  0.000000  1
  Sc  Sc5  1  0.500000  0.500000  0.000000  1
  Be  Be6  1  0.621142  0.121142  0.000000  1
  Be  Be7  1  0.121142  0.378858  0.000000  1
  Be  Be8  1  0.878858  0.621142  0.000000  1
  Be  Be9  1  0.378858  0.878858  0.000000  1
  Rh  Rh10  1  0.069202  0.217926  0.500000  1
  Rh  Rh11  1  0.217926  0.930798  0.500000  1
  Rh  Rh12  1  0.782074  0.069202  0.500000  1
  Rh  Rh13  1  0.930798  0.782074  0.500000  1
  Rh  Rh14  1  0.430798  0.717926  0.500000  1
  Rh  Rh15  1  0.569202  0.282074  0.500000  1
  Rh  Rh16  1  0.717926  0.569202  0.500000  1
  Rh  Rh17  1  0.282074  0.430798  0.500000  1
  Rh  Rh18  1  0.500000  0.000000  0.500000  1
  Rh  Rh19  1  0.000000  0.500000  0.500000  1
