# generated using pymatgen
data_Pr2Tm3Bi3Pb
_symmetry_space_group_name_H-M   'P 1'
_cell_length_a   8.39099400
_cell_length_b   8.37231200
_cell_length_c   15.66446200
_cell_angle_alpha   90.00000000
_cell_angle_beta   90.00000000
_cell_angle_gamma   90.00000000
_symmetry_Int_Tables_number   1
_chemical_formula_structural   Pr2Tm3Bi3Pb
_chemical_formula_sum   'Pr8 Tm12 Bi12 Pb4'
_cell_volume   1100.46009392
_cell_formula_units_Z   4
loop_
 _symmetry_equiv_pos_site_id
 _symmetry_equiv_pos_as_xyz
  1  'x, y, z'
loop_
 _atom_site_type_symbol
 _atom_site_label
 _atom_site_symmetry_multiplicity
 _atom_site_fract_x
 _atom_site_fract_y
 _atom_site_fract_z
 _atom_site_occupancy
  Pr  Pr0  1  0.474740  0.678811  0.595512  1
  Pr  Pr1  1  0.974740  0.821189  0.904488  1
  Pr  Pr2  1  0.525260  0.321189  0.095512  1
  Pr  Pr3  1  0.025260  0.178811  0.404488  1
  Pr  Pr4  1  0.525260  0.321189  0.404488  1
  Pr  Pr5  1  0.025260  0.178811  0.095512  1
  Pr  Pr6  1  0.474740  0.678811  0.904488  1
  Pr  Pr7  1  0.974740  0.821189  0.595512  1
  Tm  Tm8  1  0.644477  0.147777  0.624991  1
  Tm  Tm9  1  0.144477  0.352223  0.875009  1
  Tm  Tm10  1  0.355523  0.852223  0.124991  1
  Tm  Tm11  1  0.855523  0.647777  0.375009  1
  Tm  Tm12  1  0.355523  0.852223  0.375009  1
  Tm  Tm13  1  0.855523  0.647777  0.124991  1
  Tm  Tm14  1  0.644477  0.147777  0.875009  1
  Tm  Tm15  1  0.144477  0.352223  0.624991  1
  Tm  Tm16  1  0.811822  0.503789  0.750000  1
  Tm  Tm17  1  0.311822  0.996211  0.750000  1
  Tm  Tm18  1  0.188178  0.496211  0.250000  1
  Tm  Tm19  1  0.688178  0.003789  0.250000  1
  Bi  Bi20  1  0.704782  0.955737  0.452888  1
  Bi  Bi21  1  0.204782  0.544263  0.047112  1
  Bi  Bi22  1  0.295218  0.044263  0.952888  1
  Bi  Bi23  1  0.795218  0.455737  0.547112  1
  Bi  Bi24  1  0.295218  0.044263  0.547112  1
  Bi  Bi25  1  0.795218  0.455737  0.952888  1
  Bi  Bi26  1  0.704782  0.955737  0.047112  1
  Bi  Bi27  1  0.204782  0.544263  0.452888  1
  Bi  Bi28  1  0.447443  0.367208  0.750000  1
  Bi  Bi29  1  0.947443  0.132792  0.750000  1
  Bi  Bi30  1  0.552557  0.632792  0.250000  1
  Bi  Bi31  1  0.052557  0.867208  0.250000  1
  Pb  Pb32  1  0.660342  0.843506  0.750000  1
  Pb  Pb33  1  0.160342  0.656494  0.750000  1
  Pb  Pb34  1  0.339658  0.156494  0.250000  1
  Pb  Pb35  1  0.839658  0.343506  0.250000  1
