# generated using pymatgen
data_La4Cu3SiI2
_symmetry_space_group_name_H-M   'P 1'
_cell_length_a   4.25273700
_cell_length_b   4.25273651
_cell_length_c   17.43518400
_cell_angle_alpha   90.00000000
_cell_angle_beta   90.00000000
_cell_angle_gamma   119.99999604
_symmetry_Int_Tables_number   1
_chemical_formula_structural   La4Cu3SiI2
_chemical_formula_sum   'La4 Cu3 Si1 I2'
_cell_volume   273.08269824
_cell_formula_units_Z   1
loop_
 _symmetry_equiv_pos_site_id
 _symmetry_equiv_pos_as_xyz
  1  'x, y, z'
loop_
 _atom_site_type_symbol
 _atom_site_label
 _atom_site_symmetry_multiplicity
 _atom_site_fract_x
 _atom_site_fract_y
 _atom_site_fract_z
 _atom_site_occupancy
  La  La0  1  0.000000  0.000000  0.106368  1
  La  La1  1  0.000000  0.000000  0.893282  1
  La  La2  1  0.000000  0.000000  0.613251  1
  La  La3  1  0.000000  0.000000  0.387196  1
  Cu  Cu4  1  0.666667  0.333333  0.500288  1
  Cu  Cu5  1  0.666667  0.333333  0.000066  1
  Cu  Cu6  1  0.333333  0.666667  0.999471  1
  Si  Si7  1  0.333333  0.666667  0.501149  1
  I  I8  1  0.333333  0.666667  0.250661  1
  I  I9  1  0.666667  0.333333  0.748267  1
