# generated using pymatgen
data_Pr3BiPd4F28
_symmetry_space_group_name_H-M   'P 1'
_cell_length_a   5.67248201
_cell_length_b   9.21283904
_cell_length_c   12.25952700
_cell_angle_alpha   61.96211955
_cell_angle_beta   90.23573983
_cell_angle_gamma   89.94117905
_symmetry_Int_Tables_number   1
_chemical_formula_structural   Pr3BiPd4F28
_chemical_formula_sum   'Pr3 Bi1 Pd4 F28'
_cell_volume   565.47881922
_cell_formula_units_Z   1
loop_
 _symmetry_equiv_pos_site_id
 _symmetry_equiv_pos_as_xyz
  1  'x, y, z'
loop_
 _atom_site_type_symbol
 _atom_site_label
 _atom_site_symmetry_multiplicity
 _atom_site_fract_x
 _atom_site_fract_y
 _atom_site_fract_z
 _atom_site_occupancy
  Pr  Pr0  1  0.261362  0.191056  0.736194  1
  Pr  Pr1  1  0.238689  0.189496  0.235101  1
  Pr  Pr2  1  0.739327  0.810179  0.264541  1
  Bi  Bi3  1  0.766869  0.816834  0.761819  1
  Pd  Pd4  1  0.756135  0.273955  0.957013  1
  Pd  Pd5  1  0.257926  0.727379  0.544131  1
  Pd  Pd6  1  0.241767  0.727521  0.039988  1
  Pd  Pd7  1  0.744296  0.271590  0.459178  1
  F  F8  1  0.431258  0.708058  0.915507  1
  F  F9  1  0.934230  0.291970  0.584097  1
  F  F10  1  0.568730  0.292775  0.082478  1
  F  F11  1  0.067889  0.707304  0.418514  1
  F  F12  1  0.454597  0.281394  0.541226  1
  F  F13  1  0.948258  0.720219  0.956879  1
  F  F14  1  0.547600  0.716568  0.462171  1
  F  F15  1  0.047508  0.283767  0.037930  1
  F  F16  1  0.762613  0.512534  0.860684  1
  F  F17  1  0.266358  0.487520  0.639854  1
  F  F18  1  0.231816  0.488499  0.136366  1
  F  F19  1  0.735420  0.510344  0.362990  1
  F  F20  1  0.759302  0.033672  0.048772  1
  F  F21  1  0.259930  0.966214  0.452562  1
  F  F22  1  0.242297  0.966957  0.948792  1
  F  F23  1  0.741799  0.030755  0.550822  1
  F  F24  1  0.971016  0.730425  0.630826  1
  F  F25  1  0.469112  0.270132  0.870499  1
  F  F26  1  0.029265  0.269473  0.372222  1
  F  F27  1  0.526520  0.727995  0.129092  1
  F  F28  1  0.055846  0.742531  0.168501  1
  F  F29  1  0.558142  0.257327  0.330718  1
  F  F30  1  0.939129  0.258229  0.828124  1
  F  F31  1  0.443626  0.742952  0.672800  1
  F  F32  1  0.403578  0.966961  0.229593  1
  F  F33  1  0.904245  0.033276  0.270308  1
  F  F34  1  0.603763  0.028090  0.771126  1
  F  F35  1  0.089783  0.966047  0.728587  1
