# generated using pymatgen
data_Tb9DySi5Sb
_symmetry_space_group_name_H-M   'P 1'
_cell_length_a   8.56500600
_cell_length_b   8.59278637
_cell_length_c   6.43323200
_cell_angle_alpha   89.99781293
_cell_angle_beta   89.99992642
_cell_angle_gamma   119.89614151
_symmetry_Int_Tables_number   1
_chemical_formula_structural   Tb9DySi5Sb
_chemical_formula_sum   'Tb9 Dy1 Si5 Sb1'
_cell_volume   410.46401582
_cell_formula_units_Z   1
loop_
 _symmetry_equiv_pos_site_id
 _symmetry_equiv_pos_as_xyz
  1  'x, y, z'
loop_
 _atom_site_type_symbol
 _atom_site_label
 _atom_site_symmetry_multiplicity
 _atom_site_fract_x
 _atom_site_fract_y
 _atom_site_fract_z
 _atom_site_occupancy
  Tb  Tb0  1  0.988275  0.747488  0.749899  1
  Tb  Tb1  1  0.998674  0.243485  0.250105  1
  Tb  Tb2  1  0.755273  0.756417  0.250100  1
  Tb  Tb3  1  0.764855  0.000070  0.749919  1
  Tb  Tb4  1  0.240821  0.252435  0.749928  1
  Tb  Tb5  1  0.242090  0.000065  0.250060  1
  Tb  Tb6  1  0.674166  0.342855  0.003746  1
  Tb  Tb7  1  0.331324  0.657174  0.496276  1
  Tb  Tb8  1  0.331291  0.657118  0.003727  1
  Dy  Dy9  1  0.674278  0.342978  0.496254  1
  Si  Si10  1  0.393505  0.391643  0.250274  1
  Si  Si11  1  0.001248  0.608042  0.250325  1
  Si  Si12  1  0.998682  0.394034  0.749714  1
  Si  Si13  1  0.604914  0.605640  0.749715  1
  Si  Si14  1  0.606280  0.000260  0.250227  1
  Sb  Sb15  1  0.394319  0.000296  0.749733  1
