# generated using pymatgen
data_Sm8Ti3Si16Mo9
_symmetry_space_group_name_H-M   'P 1'
_cell_length_a   6.98270635
_cell_length_b   6.98270591
_cell_length_c   12.96519314
_cell_angle_alpha   89.98055929
_cell_angle_beta   90.01944042
_cell_angle_gamma   89.83305592
_symmetry_Int_Tables_number   1
_chemical_formula_structural   Sm8Ti3Si16Mo9
_chemical_formula_sum   'Sm8 Ti3 Si16 Mo9'
_cell_volume   632.15652853
_cell_formula_units_Z   1
loop_
 _symmetry_equiv_pos_site_id
 _symmetry_equiv_pos_as_xyz
  1  'x, y, z'
loop_
 _atom_site_type_symbol
 _atom_site_label
 _atom_site_symmetry_multiplicity
 _atom_site_fract_x
 _atom_site_fract_y
 _atom_site_fract_z
 _atom_site_occupancy
  Sm  Sm0  1  0.338738  0.003614  0.468387  1
  Sm  Sm1  1  0.495010  0.838054  0.718886  1
  Sm  Sm2  1  0.501031  0.162379  0.217191  1
  Sm  Sm3  1  0.838054  0.495010  0.281114  1
  Sm  Sm4  1  0.162379  0.501031  0.782809  1
  Sm  Sm5  1  0.660550  0.997462  0.968602  1
  Sm  Sm6  1  0.003614  0.338738  0.531613  1
  Sm  Sm7  1  0.997462  0.660550  0.031398  1
  Ti  Ti8  1  0.171829  0.830754  0.248289  1
  Ti  Ti9  1  0.830754  0.171829  0.751711  1
  Ti  Ti10  1  0.669521  0.669521  0.500000  1
  Si  Si11  1  0.198677  0.126212  0.686026  1
  Si  Si12  1  0.377063  0.694738  0.936787  1
  Si  Si13  1  0.625838  0.300690  0.436147  1
  Si  Si14  1  0.694738  0.377063  0.063213  1
  Si  Si15  1  0.300690  0.625838  0.563853  1
  Si  Si16  1  0.798371  0.874635  0.186614  1
  Si  Si17  1  0.126212  0.198677  0.313974  1
  Si  Si18  1  0.874635  0.798371  0.813386  1
  Si  Si19  1  0.284884  0.964072  0.061216  1
  Si  Si20  1  0.540370  0.788100  0.313494  1
  Si  Si21  1  0.458104  0.213627  0.814722  1
  Si  Si22  1  0.788100  0.540370  0.686506  1
  Si  Si23  1  0.213627  0.458104  0.185278  1
  Si  Si24  1  0.713423  0.041538  0.563653  1
  Si  Si25  1  0.964072  0.284884  0.938784  1
  Si  Si26  1  0.041538  0.713423  0.436347  1
  Mo  Mo27  1  0.331305  0.331305  0.000000  1
  Mo  Mo28  1  0.156845  0.004111  0.873296  1
  Mo  Mo29  1  0.492356  0.666771  0.126049  1
  Mo  Mo30  1  0.508250  0.339865  0.625285  1
  Mo  Mo31  1  0.666771  0.492356  0.873951  1
  Mo  Mo32  1  0.339865  0.508250  0.374715  1
  Mo  Mo33  1  0.839826  0.991387  0.374840  1
  Mo  Mo34  1  0.004111  0.156845  0.126704  1
  Mo  Mo35  1  0.991387  0.839826  0.625160  1
