# generated using pymatgen
data_Ca2GaPd14
_symmetry_space_group_name_H-M   'P 1'
_cell_length_a   8.95869400
_cell_length_b   8.95869400
_cell_length_c   7.14560600
_cell_angle_alpha   90.00000000
_cell_angle_beta   90.00000000
_cell_angle_gamma   90.00000000
_symmetry_Int_Tables_number   1
_chemical_formula_structural   Ca2GaPd14
_chemical_formula_sum   'Ca4 Ga2 Pd28'
_cell_volume   573.49346250
_cell_formula_units_Z   2
loop_
 _symmetry_equiv_pos_site_id
 _symmetry_equiv_pos_as_xyz
  1  'x, y, z'
loop_
 _atom_site_type_symbol
 _atom_site_label
 _atom_site_symmetry_multiplicity
 _atom_site_fract_x
 _atom_site_fract_y
 _atom_site_fract_z
 _atom_site_occupancy
  Ca  Ca0  1  0.500000  0.000000  0.940030  1
  Ca  Ca1  1  0.000000  0.500000  0.059970  1
  Ca  Ca2  1  0.000000  0.000000  0.500000  1
  Ca  Ca3  1  0.500000  0.500000  0.500000  1
  Ga  Ga4  1  0.500000  0.000000  0.453258  1
  Ga  Ga5  1  0.000000  0.500000  0.546742  1
  Pd  Pd6  1  0.327773  0.827773  0.624677  1
  Pd  Pd7  1  0.327773  0.172227  0.624677  1
  Pd  Pd8  1  0.672227  0.827773  0.624677  1
  Pd  Pd9  1  0.672227  0.172227  0.624677  1
  Pd  Pd10  1  0.172227  0.672227  0.375323  1
  Pd  Pd11  1  0.172227  0.327773  0.375323  1
  Pd  Pd12  1  0.827773  0.672227  0.375323  1
  Pd  Pd13  1  0.827773  0.327773  0.375323  1
  Pd  Pd14  1  0.500000  0.765146  0.254549  1
  Pd  Pd15  1  0.500000  0.234854  0.254549  1
  Pd  Pd16  1  0.265146  0.000000  0.254549  1
  Pd  Pd17  1  0.734854  0.000000  0.254549  1
  Pd  Pd18  1  0.000000  0.734854  0.745451  1
  Pd  Pd19  1  0.000000  0.265146  0.745451  1
  Pd  Pd20  1  0.234854  0.500000  0.745451  1
  Pd  Pd21  1  0.765146  0.500000  0.745451  1
  Pd  Pd22  1  0.500000  0.348152  0.857269  1
  Pd  Pd23  1  0.500000  0.651848  0.857269  1
  Pd  Pd24  1  0.848152  0.000000  0.857269  1
  Pd  Pd25  1  0.151848  0.000000  0.857269  1
  Pd  Pd26  1  0.000000  0.151848  0.142731  1
  Pd  Pd27  1  0.000000  0.848152  0.142731  1
  Pd  Pd28  1  0.651848  0.500000  0.142731  1
  Pd  Pd29  1  0.348152  0.500000  0.142731  1
  Pd  Pd30  1  0.250000  0.750000  0.000000  1
  Pd  Pd31  1  0.250000  0.250000  0.000000  1
  Pd  Pd32  1  0.750000  0.750000  0.000000  1
  Pd  Pd33  1  0.750000  0.250000  0.000000  1
