# generated using pymatgen
data_Dy5Ge5P7Ir3Rh16
_symmetry_space_group_name_H-M   'P 1'
_cell_length_a   12.91764094
_cell_length_b   12.91439743
_cell_length_c   3.93978400
_cell_angle_alpha   90.00000000
_cell_angle_beta   90.00000000
_cell_angle_gamma   119.93863849
_symmetry_Int_Tables_number   1
_chemical_formula_structural   Dy5Ge5P7Ir3Rh16
_chemical_formula_sum   'Dy5 Ge5 P7 Ir3 Rh16'
_cell_volume   569.54573077
_cell_formula_units_Z   1
loop_
 _symmetry_equiv_pos_site_id
 _symmetry_equiv_pos_as_xyz
  1  'x, y, z'
loop_
 _atom_site_type_symbol
 _atom_site_label
 _atom_site_symmetry_multiplicity
 _atom_site_fract_x
 _atom_site_fract_y
 _atom_site_fract_z
 _atom_site_occupancy
  Dy  Dy0  1  0.328782  0.660133  0.500000  1
  Dy  Dy1  1  0.665758  0.334044  0.500000  1
  Dy  Dy2  1  0.002080  0.818283  0.000000  1
  Dy  Dy3  1  0.180320  0.181994  0.000000  1
  Dy  Dy4  1  0.817378  0.999214  0.000000  1
  Ge  Ge5  1  0.998974  0.634147  0.500000  1
  Ge  Ge6  1  0.364006  0.364396  0.500000  1
  Ge  Ge7  1  0.636154  0.001544  0.500000  1
  Ge  Ge8  1  0.520185  0.677703  0.000000  1
  Ge  Ge9  1  0.322160  0.838961  0.000000  1
  P  P10  1  0.160343  0.477433  0.000000  1
  P  P11  1  0.481443  0.173877  0.000000  1
  P  P12  1  0.690625  0.518298  0.000000  1
  P  P13  1  0.825199  0.309523  0.000000  1
  P  P14  1  0.995475  0.178084  0.500000  1
  P  P15  1  0.824383  0.819229  0.500000  1
  P  P16  1  0.180043  0.002513  0.500000  1
  Ir  Ir17  1  0.279660  0.007893  0.000000  1
  Ir  Ir18  1  0.823225  0.205007  0.500000  1
  Ir  Ir19  1  0.000606  0.001866  0.500000  1
  Rh  Rh20  1  0.522092  0.870919  0.000000  1
  Rh  Rh21  1  0.133440  0.640686  0.000000  1
  Rh  Rh22  1  0.345005  0.479341  0.000000  1
  Rh  Rh23  1  0.495778  0.364326  0.000000  1
  Rh  Rh24  1  0.867126  0.503892  0.000000  1
  Rh  Rh25  1  0.635404  0.133782  0.000000  1
  Rh  Rh26  1  0.006984  0.450033  0.500000  1
  Rh  Rh27  1  0.549455  0.557098  0.500000  1
  Rh  Rh28  1  0.443158  0.995690  0.500000  1
  Rh  Rh29  1  0.996057  0.278314  0.000000  1
  Rh  Rh30  1  0.729826  0.720382  0.000000  1
  Rh  Rh31  1  0.639091  0.809453  0.500000  1
  Rh  Rh32  1  0.191146  0.825317  0.500000  1
  Rh  Rh33  1  0.169913  0.369270  0.500000  1
  Rh  Rh34  1  0.381672  0.178995  0.500000  1
  Rh  Rh35  1  0.797054  0.618360  0.500000  1
