# generated using pymatgen
data_Sr2CePtO6
_symmetry_space_group_name_H-M   'P 1'
_cell_length_a   5.86211724
_cell_length_b   5.94313800
_cell_length_c   8.33084661
_cell_angle_alpha   90.00000000
_cell_angle_beta   90.52422789
_cell_angle_gamma   90.00000000
_symmetry_Int_Tables_number   1
_chemical_formula_structural   Sr2CePtO6
_chemical_formula_sum   'Sr4 Ce2 Pt2 O12'
_cell_volume   290.22931351
_cell_formula_units_Z   2
loop_
 _symmetry_equiv_pos_site_id
 _symmetry_equiv_pos_as_xyz
  1  'x, y, z'
loop_
 _atom_site_type_symbol
 _atom_site_label
 _atom_site_symmetry_multiplicity
 _atom_site_fract_x
 _atom_site_fract_y
 _atom_site_fract_z
 _atom_site_occupancy
  Sr  Sr0  1  0.010993  0.039630  0.249014  1
  Sr  Sr1  1  0.489006  0.539631  0.250986  1
  Sr  Sr2  1  0.510994  0.460370  0.749013  1
  Sr  Sr3  1  0.989006  0.960370  0.750987  1
  Ce  Ce4  1  0.500001  0.000000  0.000000  1
  Ce  Ce5  1  0.000000  0.500000  0.500000  1
  Pt  Pt6  1  0.000000  0.500000  0.000000  1
  Pt  Pt7  1  0.500001  0.000000  0.500000  1
  O  O8  1  0.275593  0.296229  0.040307  1
  O  O9  1  0.200437  0.776348  0.040832  1
  O  O10  1  0.924171  0.480406  0.238544  1
  O  O11  1  0.575828  0.980406  0.261457  1
  O  O12  1  0.299562  0.276348  0.459168  1
  O  O13  1  0.224406  0.796229  0.459693  1
  O  O14  1  0.775594  0.203770  0.540306  1
  O  O15  1  0.700438  0.723651  0.540831  1
  O  O16  1  0.424171  0.019594  0.738544  1
  O  O17  1  0.075829  0.519595  0.761456  1
  O  O18  1  0.799563  0.223652  0.959168  1
  O  O19  1  0.724407  0.703770  0.959694  1
