# generated using pymatgen
data_Re(Cl2F)2
_symmetry_space_group_name_H-M   'P 1'
_cell_length_a   6.67638890
_cell_length_b   6.67638971
_cell_length_c   6.67638967
_cell_angle_alpha   104.53066757
_cell_angle_beta   104.52380931
_cell_angle_gamma   119.88887688
_symmetry_Int_Tables_number   1
_chemical_formula_structural   Re(Cl2F)2
_chemical_formula_sum   'Re1 Cl4 F2'
_cell_volume   223.32022813
_cell_formula_units_Z   1
loop_
 _symmetry_equiv_pos_site_id
 _symmetry_equiv_pos_as_xyz
  1  'x, y, z'
loop_
 _atom_site_type_symbol
 _atom_site_label
 _atom_site_symmetry_multiplicity
 _atom_site_fract_x
 _atom_site_fract_y
 _atom_site_fract_z
 _atom_site_occupancy
  Re  Re0  1  0.000000  0.000000  0.000000  1
  Cl  Cl1  1  0.000000  0.280738  0.280738  1
  Cl  Cl2  1  0.000000  0.719262  0.719262  1
  Cl  Cl3  1  0.280722  0.000000  0.280722  1
  Cl  Cl4  1  0.719278  0.000000  0.719278  1
  F  F5  1  0.278747  0.278747  0.000000  1
  F  F6  1  0.721253  0.721253  0.000000  1
