# generated using pymatgen
data_Hf8Ti11ReSi16
_symmetry_space_group_name_H-M   'P 1'
_cell_length_a   6.58622602
_cell_length_b   6.73613281
_cell_length_c   12.91287600
_cell_angle_alpha   90.00000000
_cell_angle_beta   90.00000000
_cell_angle_gamma   89.97652315
_symmetry_Int_Tables_number   1
_chemical_formula_structural   Hf8Ti11ReSi16
_chemical_formula_sum   'Hf8 Ti11 Re1 Si16'
_cell_volume   572.88864636
_cell_formula_units_Z   1
loop_
 _symmetry_equiv_pos_site_id
 _symmetry_equiv_pos_as_xyz
  1  'x, y, z'
loop_
 _atom_site_type_symbol
 _atom_site_label
 _atom_site_symmetry_multiplicity
 _atom_site_fract_x
 _atom_site_fract_y
 _atom_site_fract_z
 _atom_site_occupancy
  Hf  Hf0  1  0.998669  0.173948  0.093670  1
  Hf  Hf1  1  0.004216  0.827507  0.904754  1
  Hf  Hf2  1  0.502171  0.673994  0.905453  1
  Hf  Hf3  1  0.004216  0.827507  0.595246  1
  Hf  Hf4  1  0.499887  0.326157  0.093868  1
  Hf  Hf5  1  0.998669  0.173948  0.406330  1
  Hf  Hf6  1  0.499887  0.326157  0.406132  1
  Hf  Hf7  1  0.502171  0.673994  0.594547  1
  Ti  Ti8  1  0.163758  0.493315  0.750000  1
  Ti  Ti9  1  0.835181  0.505051  0.250000  1
  Ti  Ti10  1  0.336006  0.995450  0.250000  1
  Ti  Ti11  1  0.335182  0.171275  0.624807  1
  Ti  Ti12  1  0.663280  0.827748  0.374877  1
  Ti  Ti13  1  0.163297  0.672252  0.374884  1
  Ti  Ti14  1  0.663280  0.827748  0.125123  1
  Ti  Ti15  1  0.835361  0.328029  0.624895  1
  Ti  Ti16  1  0.335182  0.171275  0.875193  1
  Ti  Ti17  1  0.835361  0.328029  0.875105  1
  Ti  Ti18  1  0.163297  0.672252  0.125116  1
  Re  Re19  1  0.662859  0.005119  0.750000  1
  Si  Si20  1  0.035935  0.117606  0.750000  1
  Si  Si21  1  0.961046  0.881545  0.250000  1
  Si  Si22  1  0.461387  0.618334  0.250000  1
  Si  Si23  1  0.536643  0.381608  0.750000  1
  Si  Si24  1  0.298263  0.862054  0.750000  1
  Si  Si25  1  0.703584  0.135828  0.250000  1
  Si  Si26  1  0.203064  0.363565  0.250000  1
  Si  Si27  1  0.798358  0.636721  0.750000  1
  Si  Si28  1  0.169937  0.462871  0.538690  1
  Si  Si29  1  0.829945  0.538524  0.461132  1
  Si  Si30  1  0.329992  0.961805  0.461400  1
  Si  Si31  1  0.829945  0.538524  0.038868  1
  Si  Si32  1  0.670021  0.037791  0.539401  1
  Si  Si33  1  0.169937  0.462871  0.961310  1
  Si  Si34  1  0.670021  0.037791  0.960599  1
  Si  Si35  1  0.329992  0.961805  0.038600  1
