# generated using pymatgen
data_Tm4Fe2MoRu5
_symmetry_space_group_name_H-M   'P 1'
_cell_length_a   5.40104573
_cell_length_b   5.12362892
_cell_length_c   8.84646000
_cell_angle_alpha   90.00000000
_cell_angle_beta   90.00000000
_cell_angle_gamma   121.03348739
_symmetry_Int_Tables_number   1
_chemical_formula_structural   Tm4Fe2MoRu5
_chemical_formula_sum   'Tm4 Fe2 Mo1 Ru5'
_cell_volume   209.76741122
_cell_formula_units_Z   1
loop_
 _symmetry_equiv_pos_site_id
 _symmetry_equiv_pos_as_xyz
  1  'x, y, z'
loop_
 _atom_site_type_symbol
 _atom_site_label
 _atom_site_symmetry_multiplicity
 _atom_site_fract_x
 _atom_site_fract_y
 _atom_site_fract_z
 _atom_site_occupancy
  Tm  Tm0  1  0.673433  0.344653  0.561746  1
  Tm  Tm1  1  0.331761  0.665451  0.431450  1
  Tm  Tm2  1  0.331761  0.665451  0.068550  1
  Tm  Tm3  1  0.673433  0.344653  0.938254  1
  Fe  Fe4  1  0.830458  0.661950  0.250000  1
  Fe  Fe5  1  0.829375  0.169455  0.250000  1
  Mo  Mo6  1  0.156851  0.314913  0.750000  1
  Ru  Ru7  1  0.001518  0.008346  0.491603  1
  Ru  Ru8  1  0.001518  0.008346  0.008397  1
  Ru  Ru9  1  0.170209  0.821015  0.750000  1
  Ru  Ru10  1  0.646877  0.819547  0.750000  1
  Ru  Ru11  1  0.352809  0.176218  0.250000  1
