# generated using pymatgen
data_Hf3Ti3Re2(Si3Ru2)2
_symmetry_space_group_name_H-M   'P 1'
_cell_length_a   7.52036102
_cell_length_b   7.52209739
_cell_length_c   7.52036153
_cell_angle_alpha   126.89486373
_cell_angle_beta   124.59576058
_cell_angle_gamma   80.31501450
_symmetry_Int_Tables_number   1
_chemical_formula_structural   Hf3Ti3Re2(Si3Ru2)2
_chemical_formula_sum   'Hf3 Ti3 Re2 Si6 Ru4'
_cell_volume   270.26352512
_cell_formula_units_Z   1
loop_
 _symmetry_equiv_pos_site_id
 _symmetry_equiv_pos_as_xyz
  1  'x, y, z'
loop_
 _atom_site_type_symbol
 _atom_site_label
 _atom_site_symmetry_multiplicity
 _atom_site_fract_x
 _atom_site_fract_y
 _atom_site_fract_z
 _atom_site_occupancy
  Hf  Hf0  1  0.241605  0.903969  0.162364  1
  Hf  Hf1  1  0.964844  0.491659  0.026814  1
  Hf  Hf2  1  0.035178  0.053746  0.518568  1
  Ti  Ti3  1  0.437608  0.474544  0.536936  1
  Ti  Ti4  1  0.758553  0.927864  0.669311  1
  Ti  Ti5  1  0.558002  0.108210  0.050207  1
  Re  Re6  1  0.508283  0.246963  0.754951  1
  Re  Re7  1  0.992012  0.246963  0.238681  1
  Si  Si8  1  0.777465  0.553343  0.275879  1
  Si  Si9  1  0.180367  0.159242  0.001724  1
  Si  Si10  1  0.657518  0.159242  0.478874  1
  Si  Si11  1  0.356123  0.821275  0.515624  1
  Si  Si12  1  0.224686  0.485360  0.760674  1
  Si  Si13  1  0.805652  0.821275  0.965152  1
  Ru  Ru14  1  0.838037  0.495052  0.587491  1
  Ru  Ru15  1  0.592152  0.749227  0.084871  1
  Ru  Ru16  1  0.407560  0.495052  0.157013  1
  Ru  Ru17  1  0.164356  0.749227  0.657076  1
