# generated using pymatgen
data_Ta2BeNb2Co4As3
_symmetry_space_group_name_H-M   'P 1'
_cell_length_a   3.68147500
_cell_length_b   6.25984043
_cell_length_c   7.14556955
_cell_angle_alpha   90.00116976
_cell_angle_beta   90.00000000
_cell_angle_gamma   90.00000000
_symmetry_Int_Tables_number   1
_chemical_formula_structural   Ta2BeNb2Co4As3
_chemical_formula_sum   'Ta2 Be1 Nb2 Co4 As3'
_cell_volume   164.67283754
_cell_formula_units_Z   1
loop_
 _symmetry_equiv_pos_site_id
 _symmetry_equiv_pos_as_xyz
  1  'x, y, z'
loop_
 _atom_site_type_symbol
 _atom_site_label
 _atom_site_symmetry_multiplicity
 _atom_site_fract_x
 _atom_site_fract_y
 _atom_site_fract_z
 _atom_site_occupancy
  Ta  Ta0  1  0.750000  0.497377  0.827823  1
  Ta  Ta1  1  0.750000  0.961376  0.692128  1
  Be  Be2  1  0.250000  0.773989  0.881708  1
  Nb  Nb3  1  0.250000  0.533976  0.166700  1
  Nb  Nb4  1  0.250000  0.023075  0.319878  1
  Co  Co5  1  0.250000  0.650210  0.574209  1
  Co  Co6  1  0.750000  0.353451  0.439654  1
  Co  Co7  1  0.750000  0.853476  0.046799  1
  Co  Co8  1  0.250000  0.132026  0.933254  1
  As  As9  1  0.750000  0.225683  0.117123  1
  As  As10  1  0.750000  0.725210  0.376363  1
  As  As11  1  0.250000  0.270150  0.624360  1
