# generated using pymatgen
data_ErSe27
_symmetry_space_group_name_H-M   'P 1'
_cell_length_a   15.74304254
_cell_length_b   15.73697170
_cell_length_c   15.73221288
_cell_angle_alpha   119.06431909
_cell_angle_beta   119.10387491
_cell_angle_gamma   119.12474001
_symmetry_Int_Tables_number   1
_chemical_formula_structural   ErSe27
_chemical_formula_sum   'Er1 Se27'
_cell_volume   958.93619673
_cell_formula_units_Z   1
loop_
 _symmetry_equiv_pos_site_id
 _symmetry_equiv_pos_as_xyz
  1  'x, y, z'
loop_
 _atom_site_type_symbol
 _atom_site_label
 _atom_site_symmetry_multiplicity
 _atom_site_fract_x
 _atom_site_fract_y
 _atom_site_fract_z
 _atom_site_occupancy
  Er  Er0  1  0.459894  0.459145  0.459432  1
  Se  Se1  1  0.980336  0.597526  0.597485  1
  Se  Se2  1  0.597150  0.597265  0.980006  1
  Se  Se3  1  0.597861  0.980748  0.597901  1
  Se  Se4  1  0.261390  0.887737  0.749167  1
  Se  Se5  1  0.887241  0.748742  0.260904  1
  Se  Se6  1  0.749889  0.262127  0.888343  1
  Se  Se7  1  0.887533  0.261403  0.749042  1
  Se  Se8  1  0.261726  0.749569  0.888074  1
  Se  Se9  1  0.748860  0.887498  0.261062  1
  Se  Se10  1  0.056732  0.592021  0.398427  1
  Se  Se11  1  0.591910  0.398557  0.056919  1
  Se  Se12  1  0.398778  0.056993  0.592249  1
  Se  Se13  1  0.591511  0.056610  0.398164  1
  Se  Se14  1  0.057199  0.399000  0.592423  1
  Se  Se15  1  0.398706  0.592280  0.057084  1
  Se  Se16  1  0.390894  0.775029  0.632292  1
  Se  Se17  1  0.774661  0.632027  0.390970  1
  Se  Se18  1  0.631885  0.390441  0.774307  1
  Se  Se19  1  0.774729  0.390936  0.632090  1
  Se  Se20  1  0.390712  0.632211  0.774624  1
  Se  Se21  1  0.631992  0.774798  0.390983  1
  Se  Se22  1  0.174471  0.436017  0.435783  1
  Se  Se23  1  0.436796  0.436864  0.175967  1
  Se  Se24  1  0.435653  0.174365  0.435488  1
  Se  Se25  1  0.034948  0.920899  0.921073  1
  Se  Se26  1  0.922115  0.921770  0.035406  1
  Se  Se27  1  0.921524  0.034522  0.921434  1
