# generated using pymatgen
data_CeTh7(Si3Ir)4
_symmetry_space_group_name_H-M   'P 1'
_cell_length_a   8.21328803
_cell_length_b   8.19161900
_cell_length_c   8.42194200
_cell_angle_alpha   90.00000000
_cell_angle_beta   90.00000000
_cell_angle_gamma   119.91275989
_symmetry_Int_Tables_number   1
_chemical_formula_structural   CeTh7(Si3Ir)4
_chemical_formula_sum   'Ce1 Th7 Si12 Ir4'
_cell_volume   491.14619998
_cell_formula_units_Z   1
loop_
 _symmetry_equiv_pos_site_id
 _symmetry_equiv_pos_as_xyz
  1  'x, y, z'
loop_
 _atom_site_type_symbol
 _atom_site_label
 _atom_site_symmetry_multiplicity
 _atom_site_fract_x
 _atom_site_fract_y
 _atom_site_fract_z
 _atom_site_occupancy
  Ce  Ce0  1  0.999629  0.499814  0.750000  1
  Th  Th1  1  0.000050  0.000025  0.250000  1
  Th  Th2  1  0.999974  0.999987  0.750000  1
  Th  Th3  1  0.499966  0.500053  0.250000  1
  Th  Th4  1  0.499966  0.999912  0.250000  1
  Th  Th5  1  0.000141  0.500070  0.250000  1
  Th  Th6  1  0.500060  0.500024  0.750000  1
  Th  Th7  1  0.500060  0.000036  0.750000  1
  Si  Si8  1  0.165504  0.832293  0.501659  1
  Si  Si9  1  0.165504  0.333211  0.501659  1
  Si  Si10  1  0.669649  0.834824  0.499420  1
  Si  Si11  1  0.834521  0.167686  0.501252  1
  Si  Si12  1  0.834521  0.666834  0.501252  1
  Si  Si13  1  0.330364  0.165182  0.499200  1
  Si  Si14  1  0.834521  0.167686  0.998748  1
  Si  Si15  1  0.834521  0.666834  0.998748  1
  Si  Si16  1  0.330364  0.165182  0.000800  1
  Si  Si17  1  0.165504  0.832293  0.998341  1
  Si  Si18  1  0.165504  0.333211  0.998341  1
  Si  Si19  1  0.669649  0.834824  0.000580  1
  Ir  Ir20  1  0.335907  0.667955  0.499831  1
  Ir  Ir21  1  0.664110  0.332054  0.499818  1
  Ir  Ir22  1  0.664110  0.332054  0.000182  1
  Ir  Ir23  1  0.335907  0.667955  0.000169  1
