# generated using pymatgen
data_CeThZn17
_symmetry_space_group_name_H-M   'P 1'
_cell_length_a   6.85000384
_cell_length_b   6.85000200
_cell_length_c   6.85000233
_cell_angle_alpha   82.76840717
_cell_angle_beta   82.76841455
_cell_angle_gamma   82.76840386
_symmetry_Int_Tables_number   1
_chemical_formula_structural   CeThZn17
_chemical_formula_sum   'Ce1 Th1 Zn17'
_cell_volume   314.34299594
_cell_formula_units_Z   1
loop_
 _symmetry_equiv_pos_site_id
 _symmetry_equiv_pos_as_xyz
  1  'x, y, z'
loop_
 _atom_site_type_symbol
 _atom_site_label
 _atom_site_symmetry_multiplicity
 _atom_site_fract_x
 _atom_site_fract_y
 _atom_site_fract_z
 _atom_site_occupancy
  Ce  Ce0  1  0.664485  0.664485  0.664485  1
  Th  Th1  1  0.337047  0.337047  0.337047  1
  Zn  Zn2  1  0.706269  0.294728  0.998514  1
  Zn  Zn3  1  0.998514  0.706269  0.294728  1
  Zn  Zn4  1  0.294728  0.998514  0.706269  1
  Zn  Zn5  1  0.998514  0.294728  0.706269  1
  Zn  Zn6  1  0.706269  0.998514  0.294728  1
  Zn  Zn7  1  0.294728  0.706269  0.998514  1
  Zn  Zn8  1  0.351606  0.840273  0.351606  1
  Zn  Zn9  1  0.351606  0.351606  0.840273  1
  Zn  Zn10  1  0.840273  0.351606  0.351606  1
  Zn  Zn11  1  0.649215  0.158959  0.649215  1
  Zn  Zn12  1  0.649215  0.649215  0.158959  1
  Zn  Zn13  1  0.158959  0.649215  0.649215  1
  Zn  Zn14  1  0.999265  0.999265  0.500971  1
  Zn  Zn15  1  0.500971  0.999265  0.999265  1
  Zn  Zn16  1  0.999265  0.500971  0.999265  1
  Zn  Zn17  1  0.899707  0.899707  0.899707  1
  Zn  Zn18  1  0.099365  0.099365  0.099365  1
