# generated using pymatgen
data_Dy6Fe2Si24Os5Ru
_symmetry_space_group_name_H-M   'P 1'
_cell_length_a   10.05670964
_cell_length_b   10.05670862
_cell_length_c   8.07663900
_cell_angle_alpha   89.99910852
_cell_angle_beta   89.99910146
_cell_angle_gamma   132.61187394
_symmetry_Int_Tables_number   1
_chemical_formula_structural   Dy6Fe2Si24Os5Ru
_chemical_formula_sum   'Dy6 Fe2 Si24 Os5 Ru1'
_cell_volume   601.16649831
_cell_formula_units_Z   1
loop_
 _symmetry_equiv_pos_site_id
 _symmetry_equiv_pos_as_xyz
  1  'x, y, z'
loop_
 _atom_site_type_symbol
 _atom_site_label
 _atom_site_symmetry_multiplicity
 _atom_site_fract_x
 _atom_site_fract_y
 _atom_site_fract_z
 _atom_site_occupancy
  Dy  Dy0  1  0.497452  0.497452  0.499785  1
  Dy  Dy1  1  0.997813  0.997813  0.999942  1
  Dy  Dy2  1  0.501764  0.002016  0.749860  1
  Dy  Dy3  1  0.997954  0.498181  0.250164  1
  Dy  Dy4  1  0.498181  0.997954  0.250164  1
  Dy  Dy5  1  0.002016  0.501764  0.749860  1
  Fe  Fe6  1  0.875751  0.875751  0.371852  1
  Fe  Fe7  1  0.373790  0.373790  0.128728  1
  Si  Si8  1  0.796461  0.204545  0.500030  1
  Si  Si9  1  0.296622  0.703865  0.000509  1
  Si  Si10  1  0.204545  0.796461  0.500030  1
  Si  Si11  1  0.703865  0.296622  0.000509  1
  Si  Si12  1  0.332658  0.332658  0.840576  1
  Si  Si13  1  0.667749  0.667749  0.174260  1
  Si  Si14  1  0.166561  0.166561  0.324456  1
  Si  Si15  1  0.830661  0.830661  0.658561  1
  Si  Si16  1  0.121906  0.887751  0.728385  1
  Si  Si17  1  0.106707  0.879810  0.273202  1
  Si  Si18  1  0.604562  0.378421  0.227227  1
  Si  Si19  1  0.622956  0.389534  0.771671  1
  Si  Si20  1  0.879810  0.106707  0.273202  1
  Si  Si21  1  0.887751  0.121906  0.728385  1
  Si  Si22  1  0.389534  0.622956  0.771671  1
  Si  Si23  1  0.378421  0.604562  0.227227  1
  Si  Si24  1  0.345233  0.111919  0.504105  1
  Si  Si25  1  0.886371  0.659243  0.491177  1
  Si  Si26  1  0.386025  0.158761  0.010355  1
  Si  Si27  1  0.844853  0.612529  0.994955  1
  Si  Si28  1  0.659243  0.886371  0.491177  1
  Si  Si29  1  0.111919  0.345233  0.504105  1
  Si  Si30  1  0.612529  0.844853  0.994955  1
  Si  Si31  1  0.158761  0.386025  0.010355  1
  Os  Os32  1  0.670668  0.331642  0.497517  1
  Os  Os33  1  0.170726  0.830986  0.002351  1
  Os  Os34  1  0.331642  0.670668  0.497517  1
  Os  Os35  1  0.830986  0.170726  0.002351  1
  Os  Os36  1  0.127286  0.127286  0.624865  1
  Ru  Ru37  1  0.628266  0.628266  0.873957  1
