# generated using pymatgen
data_Dy2Y2FeSi4Ir
_symmetry_space_group_name_H-M   'P 1'
_cell_length_a   5.67914517
_cell_length_b   5.67914428
_cell_length_c   10.01917326
_cell_angle_alpha   63.09561912
_cell_angle_beta   63.09562201
_cell_angle_gamma   43.16671123
_symmetry_Int_Tables_number   1
_chemical_formula_structural   Dy2Y2FeSi4Ir
_chemical_formula_sum   'Dy2 Y2 Fe1 Si4 Ir1'
_cell_volume   193.13047222
_cell_formula_units_Z   1
loop_
 _symmetry_equiv_pos_site_id
 _symmetry_equiv_pos_as_xyz
  1  'x, y, z'
loop_
 _atom_site_type_symbol
 _atom_site_label
 _atom_site_symmetry_multiplicity
 _atom_site_fract_x
 _atom_site_fract_y
 _atom_site_fract_z
 _atom_site_occupancy
  Dy  Dy0  1  0.005032  0.005032  0.323391  1
  Dy  Dy1  1  0.996818  0.996818  0.673873  1
  Y  Y2  1  0.813873  0.813873  0.107455  1
  Y  Y3  1  0.186222  0.186222  0.890851  1
  Fe  Fe4  1  0.272867  0.272867  0.378213  1
  Si  Si5  1  0.652098  0.652098  0.431169  1
  Si  Si6  1  0.357043  0.357043  0.559127  1
  Si  Si7  1  0.499636  0.499636  0.128512  1
  Si  Si8  1  0.489787  0.489787  0.878926  1
  Ir  Ir9  1  0.726624  0.726624  0.628482  1
