# generated using pymatgen
data_LaGdSb5
_symmetry_space_group_name_H-M   'P 1'
_cell_length_a   4.31385600
_cell_length_b   13.49555872
_cell_length_c   15.14614700
_cell_angle_alpha   78.42038616
_cell_angle_beta   90.00000000
_cell_angle_gamma   90.00000000
_symmetry_Int_Tables_number   1
_chemical_formula_structural   LaGdSb5
_chemical_formula_sum   'La4 Gd4 Sb20'
_cell_volume   863.82978553
_cell_formula_units_Z   4
loop_
 _symmetry_equiv_pos_site_id
 _symmetry_equiv_pos_as_xyz
  1  'x, y, z'
loop_
 _atom_site_type_symbol
 _atom_site_label
 _atom_site_symmetry_multiplicity
 _atom_site_fract_x
 _atom_site_fract_y
 _atom_site_fract_z
 _atom_site_occupancy
  La  La0  1  0.250000  0.949397  0.367329  1
  La  La1  1  0.750000  0.050603  0.632671  1
  La  La2  1  0.250000  0.666148  0.856172  1
  La  La3  1  0.750000  0.333852  0.143828  1
  Gd  Gd4  1  0.250000  0.663713  0.577033  1
  Gd  Gd5  1  0.750000  0.336287  0.422967  1
  Gd  Gd6  1  0.250000  0.397593  0.769371  1
  Gd  Gd7  1  0.750000  0.602407  0.230629  1
  Sb  Sb8  1  0.250000  0.425597  0.555789  1
  Sb  Sb9  1  0.750000  0.574403  0.444211  1
  Sb  Sb10  1  0.250000  0.714244  0.067572  1
  Sb  Sb11  1  0.750000  0.285756  0.932428  1
  Sb  Sb12  1  0.250000  0.419073  0.971595  1
  Sb  Sb13  1  0.750000  0.580927  0.028405  1
  Sb  Sb14  1  0.250000  0.858481  0.671936  1
  Sb  Sb15  1  0.750000  0.141519  0.328064  1
  Sb  Sb16  1  0.250000  0.144906  0.184373  1
  Sb  Sb17  1  0.750000  0.855094  0.815627  1
  Sb  Sb18  1  0.250000  0.702832  0.355011  1
  Sb  Sb19  1  0.750000  0.297168  0.644989  1
  Sb  Sb20  1  0.250000  0.149221  0.773992  1
  Sb  Sb21  1  0.750000  0.850779  0.226008  1
  Sb  Sb22  1  0.250000  0.425871  0.268619  1
  Sb  Sb23  1  0.750000  0.574129  0.731381  1
  Sb  Sb24  1  0.250000  0.154827  0.475637  1
  Sb  Sb25  1  0.750000  0.845173  0.524363  1
  Sb  Sb26  1  0.250000  0.961839  0.116769  1
  Sb  Sb27  1  0.750000  0.038161  0.883231  1
