# generated using pymatgen
data_Tb3Y3(PtRh8)2
_symmetry_space_group_name_H-M   'P 1'
_cell_length_a   5.29887200
_cell_length_b   5.29887170
_cell_length_c   17.56844800
_cell_angle_alpha   90.00000000
_cell_angle_beta   90.00000000
_cell_angle_gamma   119.99998936
_symmetry_Int_Tables_number   1
_chemical_formula_structural   Tb3Y3(PtRh8)2
_chemical_formula_sum   'Tb3 Y3 Pt2 Rh16'
_cell_volume   427.19967064
_cell_formula_units_Z   1
loop_
 _symmetry_equiv_pos_site_id
 _symmetry_equiv_pos_as_xyz
  1  'x, y, z'
loop_
 _atom_site_type_symbol
 _atom_site_label
 _atom_site_symmetry_multiplicity
 _atom_site_fract_x
 _atom_site_fract_y
 _atom_site_fract_z
 _atom_site_occupancy
  Tb  Tb0  1  0.333333  0.666667  0.957067  1
  Tb  Tb1  1  0.333333  0.666667  0.749996  1
  Tb  Tb2  1  0.666667  0.333333  0.250000  1
  Y  Y3  1  0.666667  0.333333  0.042926  1
  Y  Y4  1  0.666667  0.333333  0.457077  1
  Y  Y5  1  0.333333  0.666667  0.542926  1
  Pt  Pt6  1  0.000000  0.000000  0.500000  1
  Pt  Pt7  1  0.000000  0.000000  0.000005  1
  Rh  Rh8  1  0.167690  0.832310  0.373459  1
  Rh  Rh9  1  0.167690  0.335381  0.373459  1
  Rh  Rh10  1  0.664619  0.832310  0.373459  1
  Rh  Rh11  1  0.832366  0.167634  0.626539  1
  Rh  Rh12  1  0.832366  0.664731  0.626539  1
  Rh  Rh13  1  0.335269  0.167634  0.626539  1
  Rh  Rh14  1  0.832338  0.167662  0.873453  1
  Rh  Rh15  1  0.832338  0.664675  0.873453  1
  Rh  Rh16  1  0.335325  0.167662  0.873453  1
  Rh  Rh17  1  0.167702  0.832298  0.126550  1
  Rh  Rh18  1  0.167702  0.335405  0.126550  1
  Rh  Rh19  1  0.664595  0.832298  0.126550  1
  Rh  Rh20  1  0.333333  0.666667  0.250012  1
  Rh  Rh21  1  0.666667  0.333333  0.750003  1
  Rh  Rh22  1  0.000000  0.000000  0.250003  1
  Rh  Rh23  1  0.000000  0.000000  0.749982  1
