# generated using pymatgen
data_Bi3RuRh3PbO14
_symmetry_space_group_name_H-M   'P 1'
_cell_length_a   7.34706246
_cell_length_b   7.37216648
_cell_length_c   7.37216622
_cell_angle_alpha   59.78691858
_cell_angle_beta   59.67183802
_cell_angle_gamma   59.67183137
_symmetry_Int_Tables_number   1
_chemical_formula_structural   Bi3RuRh3PbO14
_chemical_formula_sum   'Bi3 Ru1 Rh3 Pb1 O14'
_cell_volume   280.49145358
_cell_formula_units_Z   1
loop_
 _symmetry_equiv_pos_site_id
 _symmetry_equiv_pos_as_xyz
  1  'x, y, z'
loop_
 _atom_site_type_symbol
 _atom_site_label
 _atom_site_symmetry_multiplicity
 _atom_site_fract_x
 _atom_site_fract_y
 _atom_site_fract_z
 _atom_site_occupancy
  Bi  Bi0  1  0.125000  0.125000  0.625000  1
  Bi  Bi1  1  0.125000  0.625000  0.125000  1
  Bi  Bi2  1  0.125000  0.125000  0.125000  1
  Ru  Ru3  1  0.625000  0.625000  0.625000  1
  Rh  Rh4  1  0.625000  0.625000  0.125000  1
  Rh  Rh5  1  0.625000  0.125000  0.625000  1
  Rh  Rh6  1  0.125000  0.625000  0.625000  1
  Pb  Pb7  1  0.625000  0.125000  0.125000  1
  O  O8  1  0.244689  0.251249  0.251249  1
  O  O9  1  0.005311  0.998751  0.998751  1
  O  O10  1  0.545801  0.950713  0.547342  1
  O  O11  1  0.291744  0.705892  0.292681  1
  O  O12  1  0.545801  0.547342  0.950713  1
  O  O13  1  0.951716  0.546234  0.546234  1
  O  O14  1  0.543730  0.956642  0.956642  1
  O  O15  1  0.958256  0.957319  0.544108  1
  O  O16  1  0.958256  0.544108  0.957319  1
  O  O17  1  0.706270  0.293358  0.293358  1
  O  O18  1  0.298284  0.703766  0.703766  1
  O  O19  1  0.704199  0.299287  0.702658  1
  O  O20  1  0.291744  0.292681  0.705892  1
  O  O21  1  0.704199  0.702658  0.299287  1
