# generated using pymatgen
data_Li12Ca6Cd4N
_symmetry_space_group_name_H-M   'P 1'
_cell_length_a   8.82239100
_cell_length_b   8.82239222
_cell_length_c   8.82239100
_cell_angle_alpha   109.47121784
_cell_angle_beta   109.47122064
_cell_angle_gamma   109.47122432
_symmetry_Int_Tables_number   1
_chemical_formula_structural   Li12Ca6Cd4N
_chemical_formula_sum   'Li12 Ca6 Cd4 N1'
_cell_volume   528.61206144
_cell_formula_units_Z   1
loop_
 _symmetry_equiv_pos_site_id
 _symmetry_equiv_pos_as_xyz
  1  'x, y, z'
loop_
 _atom_site_type_symbol
 _atom_site_label
 _atom_site_symmetry_multiplicity
 _atom_site_fract_x
 _atom_site_fract_y
 _atom_site_fract_z
 _atom_site_occupancy
  Li  Li0  1  0.679778  0.339890  0.339890  1
  Li  Li1  1  0.339890  0.000000  0.660110  1
  Li  Li2  1  0.339890  0.679778  0.339890  1
  Li  Li3  1  0.339890  0.339890  0.679778  1
  Li  Li4  1  0.339890  0.660110  0.000000  1
  Li  Li5  1  0.000000  0.339890  0.660110  1
  Li  Li6  1  0.000000  0.660110  0.339890  1
  Li  Li7  1  0.660110  0.660110  0.320222  1
  Li  Li8  1  0.660110  0.000000  0.339890  1
  Li  Li9  1  0.660110  0.339890  0.000000  1
  Li  Li10  1  0.660110  0.320222  0.660110  1
  Li  Li11  1  0.320222  0.660110  0.660110  1
  Ca  Ca12  1  0.000000  0.240317  0.240317  1
  Ca  Ca13  1  0.240317  0.000000  0.240317  1
  Ca  Ca14  1  0.759683  0.000000  0.759683  1
  Ca  Ca15  1  0.759683  0.759683  0.000000  1
  Ca  Ca16  1  0.240317  0.240317  0.000000  1
  Ca  Ca17  1  0.000000  0.759683  0.759683  1
  Cd  Cd18  1  0.500000  0.500000  0.500000  1
  Cd  Cd19  1  0.500000  0.000000  0.000000  1
  Cd  Cd20  1  0.000000  0.500000  0.000000  1
  Cd  Cd21  1  0.000000  0.000000  0.500000  1
  N  N22  1  0.000000  0.000000  0.000000  1
