# generated using pymatgen
data_Be2Nb3CoRu4
_symmetry_space_group_name_H-M   'P 1'
_cell_length_a   9.25465500
_cell_length_b   9.25465500
_cell_length_c   3.16329600
_cell_angle_alpha   90.00000000
_cell_angle_beta   90.00000000
_cell_angle_gamma   90.00000000
_symmetry_Int_Tables_number   1
_chemical_formula_structural   Be2Nb3CoRu4
_chemical_formula_sum   'Be4 Nb6 Co2 Ru8'
_cell_volume   270.93199769
_cell_formula_units_Z   2
loop_
 _symmetry_equiv_pos_site_id
 _symmetry_equiv_pos_as_xyz
  1  'x, y, z'
loop_
 _atom_site_type_symbol
 _atom_site_label
 _atom_site_symmetry_multiplicity
 _atom_site_fract_x
 _atom_site_fract_y
 _atom_site_fract_z
 _atom_site_occupancy
  Be  Be0  1  0.610605  0.889395  0.000000  1
  Be  Be1  1  0.389395  0.110605  0.000000  1
  Be  Be2  1  0.110605  0.610605  0.000000  1
  Be  Be3  1  0.889395  0.389395  0.000000  1
  Nb  Nb4  1  0.823724  0.676276  0.000000  1
  Nb  Nb5  1  0.176276  0.323724  0.000000  1
  Nb  Nb6  1  0.323724  0.823724  0.000000  1
  Nb  Nb7  1  0.676276  0.176276  0.000000  1
  Nb  Nb8  1  0.500000  0.500000  0.000000  1
  Nb  Nb9  1  0.000000  0.000000  0.000000  1
  Co  Co10  1  0.500000  0.000000  0.500000  1
  Co  Co11  1  0.000000  0.500000  0.500000  1
  Ru  Ru12  1  0.565121  0.718881  0.500000  1
  Ru  Ru13  1  0.434879  0.281119  0.500000  1
  Ru  Ru14  1  0.065121  0.781119  0.500000  1
  Ru  Ru15  1  0.934879  0.218881  0.500000  1
  Ru  Ru16  1  0.281119  0.565121  0.500000  1
  Ru  Ru17  1  0.718881  0.434879  0.500000  1
  Ru  Ru18  1  0.218881  0.065121  0.500000  1
  Ru  Ru19  1  0.781119  0.934879  0.500000  1
