# generated using pymatgen
data_Tm6UO12
_symmetry_space_group_name_H-M   'P 1'
_cell_length_a   6.48345810
_cell_length_b   6.48345803
_cell_length_c   6.48345861
_cell_angle_alpha   99.07490702
_cell_angle_beta   99.07490885
_cell_angle_gamma   99.07490117
_symmetry_Int_Tables_number   1
_chemical_formula_structural   Tm6UO12
_chemical_formula_sum   'Tm6 U1 O12'
_cell_volume   261.05258764
_cell_formula_units_Z   1
loop_
 _symmetry_equiv_pos_site_id
 _symmetry_equiv_pos_as_xyz
  1  'x, y, z'
loop_
 _atom_site_type_symbol
 _atom_site_label
 _atom_site_symmetry_multiplicity
 _atom_site_fract_x
 _atom_site_fract_y
 _atom_site_fract_z
 _atom_site_occupancy
  Tm  Tm0  1  0.389956  0.675874  0.854168  1
  Tm  Tm1  1  0.854168  0.389956  0.675874  1
  Tm  Tm2  1  0.675874  0.854168  0.389956  1
  Tm  Tm3  1  0.610044  0.324126  0.145832  1
  Tm  Tm4  1  0.145832  0.610044  0.324126  1
  Tm  Tm5  1  0.324126  0.145832  0.610044  1
  U  U6  1  0.000000  0.000000  0.000000  1
  O  O7  1  0.177669  0.426489  0.587329  1
  O  O8  1  0.587329  0.177669  0.426489  1
  O  O9  1  0.426489  0.587329  0.177669  1
  O  O10  1  0.822331  0.573511  0.412671  1
  O  O11  1  0.412671  0.822331  0.573511  1
  O  O12  1  0.573511  0.412671  0.822331  1
  O  O13  1  0.918259  0.048215  0.688320  1
  O  O14  1  0.951785  0.311680  0.081741  1
  O  O15  1  0.311680  0.081741  0.951785  1
  O  O16  1  0.081741  0.951785  0.311680  1
  O  O17  1  0.048215  0.688320  0.918259  1
  O  O18  1  0.688320  0.918259  0.048215  1
