# generated using pymatgen
data_HfZr5(Bi2Sb)2
_symmetry_space_group_name_H-M   'P 1'
_cell_length_a   5.72064648
_cell_length_b   5.72064657
_cell_length_c   14.52168200
_cell_angle_alpha   90.00000000
_cell_angle_beta   90.00000000
_cell_angle_gamma   141.13924476
_symmetry_Int_Tables_number   1
_chemical_formula_structural   HfZr5(Bi2Sb)2
_chemical_formula_sum   'Hf1 Zr5 Bi4 Sb2'
_cell_volume   298.17575497
_cell_formula_units_Z   1
loop_
 _symmetry_equiv_pos_site_id
 _symmetry_equiv_pos_as_xyz
  1  'x, y, z'
loop_
 _atom_site_type_symbol
 _atom_site_label
 _atom_site_symmetry_multiplicity
 _atom_site_fract_x
 _atom_site_fract_y
 _atom_site_fract_z
 _atom_site_occupancy
  Hf  Hf0  1  0.610706  0.389294  0.750000  1
  Zr  Zr1  1  0.927011  0.072989  0.886432  1
  Zr  Zr2  1  0.073650  0.926350  0.112692  1
  Zr  Zr3  1  0.073650  0.926350  0.387308  1
  Zr  Zr4  1  0.927011  0.072989  0.613568  1
  Zr  Zr5  1  0.388283  0.611717  0.250000  1
  Bi  Bi6  1  0.358163  0.641837  0.450438  1
  Bi  Bi7  1  0.642335  0.357665  0.550510  1
  Bi  Bi8  1  0.642335  0.357665  0.949490  1
  Bi  Bi9  1  0.358163  0.641837  0.049562  1
  Sb  Sb10  1  0.323372  0.676628  0.750000  1
  Sb  Sb11  1  0.675320  0.324680  0.250000  1
