# generated using pymatgen
data_SmTmU(AlRu)3
_symmetry_space_group_name_H-M   'P 1'
_cell_length_a   6.88924517
_cell_length_b   6.84998467
_cell_length_c   4.06331200
_cell_angle_alpha   90.00000000
_cell_angle_beta   90.00000000
_cell_angle_gamma   116.46372667
_symmetry_Int_Tables_number   1
_chemical_formula_structural   SmTmU(AlRu)3
_chemical_formula_sum   'Sm1 Tm1 U1 Al3 Ru3'
_cell_volume   171.66018206
_cell_formula_units_Z   1
loop_
 _symmetry_equiv_pos_site_id
 _symmetry_equiv_pos_as_xyz
  1  'x, y, z'
loop_
 _atom_site_type_symbol
 _atom_site_label
 _atom_site_symmetry_multiplicity
 _atom_site_fract_x
 _atom_site_fract_y
 _atom_site_fract_z
 _atom_site_occupancy
  Sm  Sm0  1  0.419386  0.006814  0.500000  1
  Tm  Tm1  1  0.008251  0.417145  0.500000  1
  U  U2  1  0.607706  0.606724  0.500000  1
  Al  Al3  1  0.757007  0.023554  0.000000  1
  Al  Al4  1  0.020074  0.750353  0.000000  1
  Al  Al5  1  0.208567  0.212641  0.000000  1
  Ru  Ru6  1  0.379515  0.637721  0.000000  1
  Ru  Ru7  1  0.638953  0.381837  0.000000  1
  Ru  Ru8  1  0.960540  0.963212  0.500000  1
