# generated using pymatgen
data_Li4Dy2Y2SnSb3
_symmetry_space_group_name_H-M   'P 1'
_cell_length_a   9.45538600
_cell_length_b   9.45198008
_cell_length_c   7.05716100
_cell_angle_alpha   89.99811328
_cell_angle_beta   90.00000000
_cell_angle_gamma   120.01191365
_symmetry_Int_Tables_number   1
_chemical_formula_structural   Li4Dy2Y2SnSb3
_chemical_formula_sum   'Li8 Dy4 Y4 Sn2 Sb6'
_cell_volume   546.14827706
_cell_formula_units_Z   2
loop_
 _symmetry_equiv_pos_site_id
 _symmetry_equiv_pos_as_xyz
  1  'x, y, z'
loop_
 _atom_site_type_symbol
 _atom_site_label
 _atom_site_symmetry_multiplicity
 _atom_site_fract_x
 _atom_site_fract_y
 _atom_site_fract_z
 _atom_site_occupancy
  Li  Li0  1  0.167000  0.333999  0.274310  1
  Li  Li1  1  0.166982  0.832932  0.274358  1
  Li  Li2  1  0.665950  0.832932  0.274358  1
  Li  Li3  1  0.833005  0.666009  0.774407  1
  Li  Li4  1  0.833013  0.167073  0.774341  1
  Li  Li5  1  0.334059  0.167073  0.774341  1
  Li  Li6  1  0.333335  0.666672  0.693037  1
  Li  Li7  1  0.666665  0.333330  0.192921  1
  Dy  Dy8  1  0.491524  0.508489  0.994121  1
  Dy  Dy9  1  0.016964  0.508489  0.994121  1
  Dy  Dy10  1  0.999994  0.999989  0.501136  1
  Dy  Dy11  1  0.000003  0.000005  0.001122  1
  Y  Y12  1  0.508588  0.017174  0.494187  1
  Y  Y13  1  0.508570  0.491464  0.494120  1
  Y  Y14  1  0.982895  0.491464  0.494120  1
  Y  Y15  1  0.491448  0.982896  0.994170  1
  Sn  Sn16  1  0.333296  0.666592  0.258576  1
  Sn  Sn17  1  0.666685  0.333368  0.759298  1
  Sb  Sb18  1  0.166325  0.332649  0.737914  1
  Sb  Sb19  1  0.166229  0.833650  0.737655  1
  Sb  Sb20  1  0.667423  0.833650  0.737655  1
  Sb  Sb21  1  0.833707  0.667415  0.237124  1
  Sb  Sb22  1  0.833772  0.166343  0.237300  1
  Sb  Sb23  1  0.332570  0.166343  0.237300  1
