# generated using pymatgen
data_Lu12InCo4Pt
_symmetry_space_group_name_H-M   'P 1'
_cell_length_a   8.14362383
_cell_length_b   8.14362365
_cell_length_c   8.14362404
_cell_angle_alpha   111.04525521
_cell_angle_beta   111.05733878
_cell_angle_gamma   106.35528837
_symmetry_Int_Tables_number   1
_chemical_formula_structural   Lu12InCo4Pt
_chemical_formula_sum   'Lu12 In1 Co4 Pt1'
_cell_volume   414.83318916
_cell_formula_units_Z   1
loop_
 _symmetry_equiv_pos_site_id
 _symmetry_equiv_pos_as_xyz
  1  'x, y, z'
loop_
 _atom_site_type_symbol
 _atom_site_label
 _atom_site_symmetry_multiplicity
 _atom_site_fract_x
 _atom_site_fract_y
 _atom_site_fract_z
 _atom_site_occupancy
  Lu  Lu0  1  0.419064  0.219867  0.199198  1
  Lu  Lu1  1  0.580936  0.780133  0.800802  1
  Lu  Lu2  1  0.020669  0.219867  0.800802  1
  Lu  Lu3  1  0.979331  0.780133  0.199198  1
  Lu  Lu4  1  0.185767  0.287517  0.473284  1
  Lu  Lu5  1  0.814233  0.712483  0.526716  1
  Lu  Lu6  1  0.185767  0.712483  0.898251  1
  Lu  Lu7  1  0.814233  0.287517  0.101749  1
  Lu  Lu8  1  0.314982  0.619587  0.304604  1
  Lu  Lu9  1  0.685018  0.380413  0.695396  1
  Lu  Lu10  1  0.314982  0.010378  0.695396  1
  Lu  Lu11  1  0.685018  0.989622  0.304604  1
  In  In12  1  0.500000  0.500000  0.000000  1
  Co  Co13  1  0.377199  0.000000  0.377199  1
  Co  Co14  1  0.622801  0.000000  0.622801  1
  Co  Co15  1  0.112491  0.612491  0.500000  1
  Co  Co16  1  0.887509  0.387509  0.500000  1
  Pt  Pt17  1  0.000000  0.000000  0.000000  1
