# generated using pymatgen
data_Y8Si13Pt3
_symmetry_space_group_name_H-M   'P 1'
_cell_length_a   8.13552500
_cell_length_b   8.13552497
_cell_length_c   8.13952100
_cell_angle_alpha   90.00000000
_cell_angle_beta   90.00000000
_cell_angle_gamma   120.00000419
_symmetry_Int_Tables_number   1
_chemical_formula_structural   Y8Si13Pt3
_chemical_formula_sum   'Y8 Si13 Pt3'
_cell_volume   466.55261474
_cell_formula_units_Z   1
loop_
 _symmetry_equiv_pos_site_id
 _symmetry_equiv_pos_as_xyz
  1  'x, y, z'
loop_
 _atom_site_type_symbol
 _atom_site_label
 _atom_site_symmetry_multiplicity
 _atom_site_fract_x
 _atom_site_fract_y
 _atom_site_fract_z
 _atom_site_occupancy
  Y  Y0  1  0.000000  0.000000  0.252359  1
  Y  Y1  1  0.000000  0.000000  0.747801  1
  Y  Y2  1  0.996509  0.498253  0.252931  1
  Y  Y3  1  0.501747  0.498253  0.252931  1
  Y  Y4  1  0.502191  0.004382  0.746973  1
  Y  Y5  1  0.501747  0.003491  0.252931  1
  Y  Y6  1  0.502191  0.497809  0.746973  1
  Y  Y7  1  0.995618  0.497809  0.746973  1
  Si  Si8  1  0.166105  0.332210  0.000531  1
  Si  Si9  1  0.667790  0.833895  0.000531  1
  Si  Si10  1  0.166366  0.332732  0.499954  1
  Si  Si11  1  0.331629  0.165815  0.999458  1
  Si  Si12  1  0.166105  0.833895  0.000531  1
  Si  Si13  1  0.667268  0.833634  0.499954  1
  Si  Si14  1  0.834185  0.668371  0.999458  1
  Si  Si15  1  0.331218  0.165609  0.500149  1
  Si  Si16  1  0.166366  0.833634  0.499954  1
  Si  Si17  1  0.834391  0.668782  0.500149  1
  Si  Si18  1  0.834185  0.165815  0.999458  1
  Si  Si19  1  0.834391  0.165609  0.500149  1
  Si  Si20  1  0.666667  0.333333  0.498969  1
  Pt  Pt21  1  0.333333  0.666667  0.999680  1
  Pt  Pt22  1  0.333333  0.666667  0.500790  1
  Pt  Pt23  1  0.666667  0.333333  0.000413  1
