# generated using pymatgen
data_Lu3Ga3PtAu2
_symmetry_space_group_name_H-M   'P 1'
_cell_length_a   7.43357500
_cell_length_b   7.43357530
_cell_length_c   3.71626700
_cell_angle_alpha   90.00000000
_cell_angle_beta   90.00000000
_cell_angle_gamma   119.99998533
_symmetry_Int_Tables_number   1
_chemical_formula_structural   Lu3Ga3PtAu2
_chemical_formula_sum   'Lu3 Ga3 Pt1 Au2'
_cell_volume   177.84148545
_cell_formula_units_Z   1
loop_
 _symmetry_equiv_pos_site_id
 _symmetry_equiv_pos_as_xyz
  1  'x, y, z'
loop_
 _atom_site_type_symbol
 _atom_site_label
 _atom_site_symmetry_multiplicity
 _atom_site_fract_x
 _atom_site_fract_y
 _atom_site_fract_z
 _atom_site_occupancy
  Lu  Lu0  1  0.602759  0.590973  0.000000  1
  Lu  Lu1  1  0.409027  0.011786  0.000000  1
  Lu  Lu2  1  0.988214  0.397241  0.000000  1
  Ga  Ga3  1  0.268303  0.266246  0.500000  1
  Ga  Ga4  1  0.733754  0.002059  0.500000  1
  Ga  Ga5  1  0.997941  0.731697  0.500000  1
  Pt  Pt6  1  0.666667  0.333333  0.500000  1
  Au  Au7  1  0.000000  0.000000  0.000000  1
  Au  Au8  1  0.333333  0.666667  0.500000  1
