# generated using pymatgen
data_Hf18Ta2Re6GeP
_symmetry_space_group_name_H-M   'P 1'
_cell_length_a   8.67169800
_cell_length_b   8.67169871
_cell_length_c   8.60060200
_cell_angle_alpha   90.00000000
_cell_angle_beta   90.00000000
_cell_angle_gamma   120.00000494
_symmetry_Int_Tables_number   1
_chemical_formula_structural   Hf18Ta2Re6GeP
_chemical_formula_sum   'Hf18 Ta2 Re6 Ge1 P1'
_cell_volume   560.10285417
_cell_formula_units_Z   1
loop_
 _symmetry_equiv_pos_site_id
 _symmetry_equiv_pos_as_xyz
  1  'x, y, z'
loop_
 _atom_site_type_symbol
 _atom_site_label
 _atom_site_symmetry_multiplicity
 _atom_site_fract_x
 _atom_site_fract_y
 _atom_site_fract_z
 _atom_site_occupancy
  Hf  Hf0  1  0.195431  0.804569  0.453829  1
  Hf  Hf1  1  0.195431  0.390863  0.453829  1
  Hf  Hf2  1  0.609137  0.804569  0.453829  1
  Hf  Hf3  1  0.802495  0.197505  0.549068  1
  Hf  Hf4  1  0.802495  0.604991  0.549068  1
  Hf  Hf5  1  0.395009  0.197505  0.549068  1
  Hf  Hf6  1  0.802495  0.197505  0.950932  1
  Hf  Hf7  1  0.802495  0.604991  0.950932  1
  Hf  Hf8  1  0.395009  0.197505  0.950932  1
  Hf  Hf9  1  0.195431  0.804569  0.046171  1
  Hf  Hf10  1  0.195431  0.390863  0.046171  1
  Hf  Hf11  1  0.609137  0.804569  0.046171  1
  Hf  Hf12  1  0.539691  0.460309  0.250000  1
  Hf  Hf13  1  0.539691  0.079382  0.250000  1
  Hf  Hf14  1  0.920618  0.460309  0.250000  1
  Hf  Hf15  1  0.460467  0.539533  0.750000  1
  Hf  Hf16  1  0.460467  0.920935  0.750000  1
  Hf  Hf17  1  0.079065  0.539533  0.750000  1
  Ta  Ta18  1  0.000000  0.000000  0.499720  1
  Ta  Ta19  1  0.000000  0.000000  0.000280  1
  Re  Re20  1  0.887535  0.112465  0.250000  1
  Re  Re21  1  0.887535  0.775071  0.250000  1
  Re  Re22  1  0.224929  0.112465  0.250000  1
  Re  Re23  1  0.112089  0.887911  0.750000  1
  Re  Re24  1  0.112089  0.224178  0.750000  1
  Re  Re25  1  0.775822  0.887911  0.750000  1
  Ge  Ge26  1  0.333333  0.666667  0.250000  1
  P  P27  1  0.666667  0.333333  0.750000  1
