# generated using pymatgen
data_Tm12Tc2Ni3Bi
_symmetry_space_group_name_H-M   'P 1'
_cell_length_a   8.27974720
_cell_length_b   8.27978200
_cell_length_c   8.27974731
_cell_angle_alpha   111.08494680
_cell_angle_beta   111.95569981
_cell_angle_gamma   105.44755705
_symmetry_Int_Tables_number   1
_chemical_formula_structural   Tm12Tc2Ni3Bi
_chemical_formula_sum   'Tm12 Tc2 Ni3 Bi1'
_cell_volume   435.32173717
_cell_formula_units_Z   1
loop_
 _symmetry_equiv_pos_site_id
 _symmetry_equiv_pos_as_xyz
  1  'x, y, z'
loop_
 _atom_site_type_symbol
 _atom_site_label
 _atom_site_symmetry_multiplicity
 _atom_site_fract_x
 _atom_site_fract_y
 _atom_site_fract_z
 _atom_site_occupancy
  Tm  Tm0  1  0.270554  0.182032  0.452589  1
  Tm  Tm1  1  0.725309  0.819843  0.545153  1
  Tm  Tm2  1  0.274690  0.819843  0.094533  1
  Tm  Tm3  1  0.729443  0.182032  0.911479  1
  Tm  Tm4  1  0.619421  0.306878  0.301142  1
  Tm  Tm5  1  0.380581  0.681721  0.687458  1
  Tm  Tm6  1  0.005736  0.306878  0.687457  1
  Tm  Tm7  1  0.994262  0.681721  0.301140  1
  Tm  Tm8  1  0.222768  0.415301  0.192534  1
  Tm  Tm9  1  0.779566  0.582619  0.803052  1
  Tm  Tm10  1  0.220434  0.023488  0.803054  1
  Tm  Tm11  1  0.777229  0.969768  0.192539  1
  Tc  Tc12  1  0.000003  0.379061  0.379058  1
  Tc  Tc13  1  0.999998  0.000133  0.000135  1
  Ni  Ni14  1  0.999999  0.652078  0.652079  1
  Ni  Ni15  1  0.384948  0.884123  0.499174  1
  Ni  Ni16  1  0.615061  0.114224  0.499163  1
  Bi  Bi17  1  0.499999  0.498261  0.998262  1
