# generated using pymatgen
data_Gd3Tm3TcSn2
_symmetry_space_group_name_H-M   'P 1'
_cell_length_a   8.10444200
_cell_length_b   8.10444093
_cell_length_c   4.36586200
_cell_angle_alpha   90.00000000
_cell_angle_beta   90.00000000
_cell_angle_gamma   119.99999619
_symmetry_Int_Tables_number   1
_chemical_formula_structural   Gd3Tm3TcSn2
_chemical_formula_sum   'Gd3 Tm3 Tc1 Sn2'
_cell_volume   248.34008890
_cell_formula_units_Z   1
loop_
 _symmetry_equiv_pos_site_id
 _symmetry_equiv_pos_as_xyz
  1  'x, y, z'
loop_
 _atom_site_type_symbol
 _atom_site_label
 _atom_site_symmetry_multiplicity
 _atom_site_fract_x
 _atom_site_fract_y
 _atom_site_fract_z
 _atom_site_occupancy
  Gd  Gd0  1  0.397904  0.000000  0.000000  1
  Gd  Gd1  1  0.000000  0.397904  0.000000  1
  Gd  Gd2  1  0.602096  0.602095  0.000000  1
  Tm  Tm3  1  0.762359  0.000000  0.500000  1
  Tm  Tm4  1  0.237641  0.237641  0.500000  1
  Tm  Tm5  1  0.000000  0.762360  0.500000  1
  Tc  Tc6  1  0.000000  0.000000  0.000000  1
  Sn  Sn7  1  0.666666  0.333334  0.500000  1
  Sn  Sn8  1  0.333334  0.666667  0.500000  1
