# generated using pymatgen
data_La5DyTl5InO18
_symmetry_space_group_name_H-M   'P 1'
_cell_length_a   6.75923497
_cell_length_b   6.75554048
_cell_length_c   12.57412088
_cell_angle_alpha   90.11688678
_cell_angle_beta   89.81120176
_cell_angle_gamma   120.00421757
_symmetry_Int_Tables_number   1
_chemical_formula_structural   La5DyTl5InO18
_chemical_formula_sum   'La5 Dy1 Tl5 In1 O18'
_cell_volume   497.21594376
_cell_formula_units_Z   1
loop_
 _symmetry_equiv_pos_site_id
 _symmetry_equiv_pos_as_xyz
  1  'x, y, z'
loop_
 _atom_site_type_symbol
 _atom_site_label
 _atom_site_symmetry_multiplicity
 _atom_site_fract_x
 _atom_site_fract_y
 _atom_site_fract_z
 _atom_site_occupancy
  La  La0  1  0.336068  0.670589  0.238368  1
  La  La1  1  0.995893  0.000464  0.263015  1
  La  La2  1  0.997501  0.999851  0.764091  1
  La  La3  1  0.337498  0.669930  0.729792  1
  La  La4  1  0.667502  0.329923  0.730359  1
  Dy  Dy5  1  0.665824  0.329313  0.229990  1
  Tl  Tl6  1  0.996700  0.664060  0.493211  1
  Tl  Tl7  1  0.999848  0.335503  0.998250  1
  Tl  Tl8  1  0.336657  0.332765  0.493204  1
  Tl  Tl9  1  0.665273  0.663557  0.998403  1
  Tl  Tl10  1  0.335033  0.000889  0.998139  1
  In  In11  1  0.667337  0.003504  0.493664  1
  O  O12  1  0.003542  0.690707  0.665564  1
  O  O13  1  0.981965  0.629455  0.323075  1
  O  O14  1  0.999607  0.357298  0.824762  1
  O  O15  1  0.990997  0.314916  0.172803  1
  O  O16  1  0.334023  0.667346  0.027332  1
  O  O17  1  0.983841  0.000287  0.464800  1
  O  O18  1  0.348681  0.682204  0.512382  1
  O  O19  1  0.999519  0.999891  0.969895  1
  O  O20  1  0.309445  0.312695  0.665496  1
  O  O21  1  0.370284  0.352280  0.323109  1
  O  O22  1  0.322218  0.009765  0.172649  1
  O  O23  1  0.643500  0.641267  0.824871  1
  O  O24  1  0.685846  0.675869  0.173023  1
  O  O25  1  0.357125  0.001234  0.824593  1
  O  O26  1  0.666941  0.318230  0.525292  1
  O  O27  1  0.666647  0.332450  0.032433  1
  O  O28  1  0.644825  0.017803  0.323935  1
  O  O29  1  0.689859  0.995957  0.666071  1
