# generated using pymatgen
data_Ce4Pr3Nd3Ru4
_symmetry_space_group_name_H-M   'P 1'
_cell_length_a   9.15932765
_cell_length_b   9.17057899
_cell_length_c   7.17385762
_cell_angle_alpha   85.69059400
_cell_angle_beta   85.78773532
_cell_angle_gamma   41.79895030
_symmetry_Int_Tables_number   1
_chemical_formula_structural   Ce4Pr3Nd3Ru4
_chemical_formula_sum   'Ce4 Pr3 Nd3 Ru4'
_cell_volume   400.35613093
_cell_formula_units_Z   1
loop_
 _symmetry_equiv_pos_site_id
 _symmetry_equiv_pos_as_xyz
  1  'x, y, z'
loop_
 _atom_site_type_symbol
 _atom_site_label
 _atom_site_symmetry_multiplicity
 _atom_site_fract_x
 _atom_site_fract_y
 _atom_site_fract_z
 _atom_site_occupancy
  Ce  Ce0  1  0.005394  0.812667  0.901545  1
  Ce  Ce1  1  0.187372  0.994584  0.597085  1
  Ce  Ce2  1  0.995437  0.186591  0.098781  1
  Ce  Ce3  1  0.811603  0.006131  0.401517  1
  Pr  Pr4  1  0.350172  0.219217  0.827135  1
  Pr  Pr5  1  0.781511  0.649665  0.672695  1
  Pr  Pr6  1  0.649554  0.781111  0.173113  1
  Nd  Nd7  1  0.219295  0.350614  0.327521  1
  Nd  Nd8  1  0.576467  0.423816  0.749676  1
  Nd  Nd9  1  0.423445  0.576064  0.250336  1
  Ru  Ru10  1  0.140740  0.646396  0.597733  1
  Ru  Ru11  1  0.351595  0.859764  0.901245  1
  Ru  Ru12  1  0.861317  0.352779  0.402372  1
  Ru  Ru13  1  0.646096  0.140600  0.099246  1
