# generated using pymatgen
data_Ac7Y13Pb16
_symmetry_space_group_name_H-M   'P 1'
_cell_length_a   8.57042049
_cell_length_b   8.64194259
_cell_length_c   16.36756100
_cell_angle_alpha   90.04025052
_cell_angle_beta   89.61005048
_cell_angle_gamma   90.40108248
_symmetry_Int_Tables_number   1
_chemical_formula_structural   Ac7Y13Pb16
_chemical_formula_sum   'Ac7 Y13 Pb16'
_cell_volume   1212.20670813
_cell_formula_units_Z   1
loop_
 _symmetry_equiv_pos_site_id
 _symmetry_equiv_pos_as_xyz
  1  'x, y, z'
loop_
 _atom_site_type_symbol
 _atom_site_label
 _atom_site_symmetry_multiplicity
 _atom_site_fract_x
 _atom_site_fract_y
 _atom_site_fract_z
 _atom_site_occupancy
  Ac  Ac0  1  0.522949  0.321444  0.401154  1
  Ac  Ac1  1  0.475592  0.678304  0.904147  1
  Ac  Ac2  1  0.978201  0.822367  0.596126  1
  Ac  Ac3  1  0.976176  0.824965  0.904638  1
  Ac  Ac4  1  0.477868  0.677228  0.596149  1
  Ac  Ac5  1  0.523672  0.320539  0.096803  1
  Ac  Ac6  1  0.020703  0.177136  0.403502  1
  Y  Y7  1  0.864810  0.657499  0.123206  1
  Y  Y8  1  0.361572  0.842173  0.375638  1
  Y  Y9  1  0.634472  0.157765  0.878631  1
  Y  Y10  1  0.136455  0.341489  0.623838  1
  Y  Y11  1  0.132401  0.340496  0.878715  1
  Y  Y12  1  0.637754  0.158258  0.623103  1
  Y  Y13  1  0.363131  0.844692  0.122575  1
  Y  Y14  1  0.863609  0.657000  0.374012  1
  Y  Y15  1  0.030621  0.176528  0.101546  1
  Y  Y16  1  0.699488  0.994918  0.247833  1
  Y  Y17  1  0.197971  0.503836  0.247705  1
  Y  Y18  1  0.801861  0.494487  0.750479  1
  Y  Y19  1  0.301239  0.006457  0.751054  1
  Pb  Pb20  1  0.059302  0.868109  0.248227  1
  Pb  Pb21  1  0.558078  0.635380  0.248794  1
  Pb  Pb22  1  0.441296  0.364812  0.751269  1
  Pb  Pb23  1  0.940281  0.134708  0.750475  1
  Pb  Pb24  1  0.841511  0.348720  0.244997  1
  Pb  Pb25  1  0.328991  0.144443  0.248473  1
  Pb  Pb26  1  0.665164  0.856093  0.750155  1
  Pb  Pb27  1  0.164951  0.645302  0.750112  1
  Pb  Pb28  1  0.801146  0.456602  0.955327  1
  Pb  Pb29  1  0.302533  0.045428  0.545214  1
  Pb  Pb30  1  0.710979  0.964845  0.047751  1
  Pb  Pb31  1  0.197549  0.543895  0.453558  1
  Pb  Pb32  1  0.196002  0.537099  0.046516  1
  Pb  Pb33  1  0.696335  0.952969  0.453933  1
  Pb  Pb34  1  0.292587  0.048592  0.959901  1
  Pb  Pb35  1  0.802748  0.455418  0.544447  1
