# generated using pymatgen
data_Ho5(ThAu5)2
_symmetry_space_group_name_H-M   'P 1'
_cell_length_a   8.79517529
_cell_length_b   8.79517462
_cell_length_c   10.41334900
_cell_angle_alpha   90.00000000
_cell_angle_beta   90.00000000
_cell_angle_gamma   107.16230334
_symmetry_Int_Tables_number   1
_chemical_formula_structural   Ho5(ThAu5)2
_chemical_formula_sum   'Ho10 Th4 Au20'
_cell_volume   769.65780428
_cell_formula_units_Z   2
loop_
 _symmetry_equiv_pos_site_id
 _symmetry_equiv_pos_as_xyz
  1  'x, y, z'
loop_
 _atom_site_type_symbol
 _atom_site_label
 _atom_site_symmetry_multiplicity
 _atom_site_fract_x
 _atom_site_fract_y
 _atom_site_fract_z
 _atom_site_occupancy
  Ho  Ho0  1  0.694646  0.305354  0.000000  1
  Ho  Ho1  1  0.305354  0.694646  0.000000  1
  Ho  Ho2  1  0.805354  0.194646  0.500000  1
  Ho  Ho3  1  0.194646  0.805354  0.500000  1
  Ho  Ho4  1  0.000000  0.000000  0.000000  1
  Ho  Ho5  1  0.500000  0.500000  0.500000  1
  Ho  Ho6  1  0.000191  0.500191  0.250000  1
  Ho  Ho7  1  0.999809  0.499809  0.750000  1
  Ho  Ho8  1  0.499809  0.999809  0.750000  1
  Ho  Ho9  1  0.500191  0.000191  0.250000  1
  Th  Th10  1  0.308337  0.308337  0.190093  1
  Th  Th11  1  0.691663  0.691663  0.809907  1
  Th  Th12  1  0.191663  0.191663  0.690093  1
  Th  Th13  1  0.808337  0.808337  0.309907  1
  Au  Au14  1  0.858745  0.150661  0.207914  1
  Au  Au15  1  0.141255  0.849339  0.792086  1
  Au  Au16  1  0.641255  0.349339  0.707914  1
  Au  Au17  1  0.650661  0.358745  0.292086  1
  Au  Au18  1  0.358745  0.650661  0.292086  1
  Au  Au19  1  0.349339  0.641255  0.707914  1
  Au  Au20  1  0.849339  0.141255  0.792086  1
  Au  Au21  1  0.150661  0.858745  0.207914  1
  Au  Au22  1  0.939444  0.645765  0.004818  1
  Au  Au23  1  0.060556  0.354235  0.995182  1
  Au  Au24  1  0.560556  0.854235  0.504818  1
  Au  Au25  1  0.145765  0.439444  0.495182  1
  Au  Au26  1  0.439444  0.145765  0.495182  1
  Au  Au27  1  0.854235  0.560556  0.504818  1
  Au  Au28  1  0.354235  0.060556  0.995182  1
  Au  Au29  1  0.645765  0.939444  0.004818  1
  Au  Au30  1  0.100521  0.100521  0.399867  1
  Au  Au31  1  0.899479  0.899479  0.600133  1
  Au  Au32  1  0.399479  0.399479  0.899867  1
  Au  Au33  1  0.600521  0.600521  0.100133  1
