# generated using pymatgen
data_BCl9
_symmetry_space_group_name_H-M   'P 1'
_cell_length_a   7.48290764
_cell_length_b   10.12378287
_cell_length_c   13.94852097
_cell_angle_alpha   107.62608759
_cell_angle_beta   111.56874382
_cell_angle_gamma   89.33918325
_symmetry_Int_Tables_number   1
_chemical_formula_structural   BCl9
_chemical_formula_sum   'B2 Cl18'
_cell_volume   930.59523501
_cell_formula_units_Z   2
loop_
 _symmetry_equiv_pos_site_id
 _symmetry_equiv_pos_as_xyz
  1  'x, y, z'
loop_
 _atom_site_type_symbol
 _atom_site_label
 _atom_site_symmetry_multiplicity
 _atom_site_fract_x
 _atom_site_fract_y
 _atom_site_fract_z
 _atom_site_occupancy
  B  B0  1  0.500734  0.753551  0.822460  1
  B  B1  1  0.499266  0.246449  0.177540  1
  Cl  Cl2  1  0.779673  0.821395  0.492590  1
  Cl  Cl3  1  0.220327  0.178605  0.507410  1
  Cl  Cl4  1  0.084517  0.553599  0.169521  1
  Cl  Cl5  1  0.915483  0.446401  0.830479  1
  Cl  Cl6  1  0.821136  0.796959  0.207714  1
  Cl  Cl7  1  0.178864  0.203041  0.792286  1
  Cl  Cl8  1  0.398775  0.664585  0.683299  1
  Cl  Cl9  1  0.601225  0.335415  0.316701  1
  Cl  Cl10  1  0.350732  0.087554  0.727686  1
  Cl  Cl11  1  0.649268  0.912446  0.272314  1
  Cl  Cl12  1  0.371016  0.755722  0.904436  1
  Cl  Cl13  1  0.628984  0.244278  0.095564  1
  Cl  Cl14  1  0.689229  0.437503  0.872196  1
  Cl  Cl15  1  0.310771  0.562497  0.127804  1
  Cl  Cl16  1  0.145082  0.222657  0.367982  1
  Cl  Cl17  1  0.854918  0.777343  0.632018  1
  Cl  Cl18  1  0.265487  0.159498  0.118491  1
  Cl  Cl19  1  0.734513  0.840502  0.881509  1
