# generated using pymatgen
data_Ce2Be2CdRh5
_symmetry_space_group_name_H-M   'P 1'
_cell_length_a   9.82978600
_cell_length_b   9.82978600
_cell_length_c   3.33669400
_cell_angle_alpha   90.00000000
_cell_angle_beta   90.00000000
_cell_angle_gamma   90.00000000
_symmetry_Int_Tables_number   1
_chemical_formula_structural   Ce2Be2CdRh5
_chemical_formula_sum   'Ce4 Be4 Cd2 Rh10'
_cell_volume   322.40703274
_cell_formula_units_Z   2
loop_
 _symmetry_equiv_pos_site_id
 _symmetry_equiv_pos_as_xyz
  1  'x, y, z'
loop_
 _atom_site_type_symbol
 _atom_site_label
 _atom_site_symmetry_multiplicity
 _atom_site_fract_x
 _atom_site_fract_y
 _atom_site_fract_z
 _atom_site_occupancy
  Ce  Ce0  1  0.822210  0.322210  0.000000  1
  Ce  Ce1  1  0.322210  0.177790  0.000000  1
  Ce  Ce2  1  0.677790  0.822210  0.000000  1
  Ce  Ce3  1  0.177790  0.677790  0.000000  1
  Be  Be4  1  0.619332  0.119332  0.000000  1
  Be  Be5  1  0.119332  0.380668  0.000000  1
  Be  Be6  1  0.880668  0.619332  0.000000  1
  Be  Be7  1  0.380668  0.880668  0.000000  1
  Cd  Cd8  1  0.000000  0.000000  0.000000  1
  Cd  Cd9  1  0.500000  0.500000  0.000000  1
  Rh  Rh10  1  0.072298  0.222245  0.500000  1
  Rh  Rh11  1  0.222245  0.927702  0.500000  1
  Rh  Rh12  1  0.777755  0.072298  0.500000  1
  Rh  Rh13  1  0.927702  0.777755  0.500000  1
  Rh  Rh14  1  0.427702  0.722245  0.500000  1
  Rh  Rh15  1  0.572298  0.277755  0.500000  1
  Rh  Rh16  1  0.722245  0.572298  0.500000  1
  Rh  Rh17  1  0.277755  0.427702  0.500000  1
  Rh  Rh18  1  0.500000  0.000000  0.500000  1
  Rh  Rh19  1  0.000000  0.500000  0.500000  1
