# generated using pymatgen
data_PrTa9S16
_symmetry_space_group_name_H-M   'P 1'
_cell_length_a   6.66424100
_cell_length_b   6.66424038
_cell_length_c   13.24868800
_cell_angle_alpha   90.00000000
_cell_angle_beta   90.00000000
_cell_angle_gamma   120.00000803
_symmetry_Int_Tables_number   1
_chemical_formula_structural   PrTa9S16
_chemical_formula_sum   'Pr1 Ta9 S16'
_cell_volume   509.57113287
_cell_formula_units_Z   1
loop_
 _symmetry_equiv_pos_site_id
 _symmetry_equiv_pos_as_xyz
  1  'x, y, z'
loop_
 _atom_site_type_symbol
 _atom_site_label
 _atom_site_symmetry_multiplicity
 _atom_site_fract_x
 _atom_site_fract_y
 _atom_site_fract_z
 _atom_site_occupancy
  Pr  Pr0  1  0.000000  0.000000  0.500000  1
  Ta  Ta1  1  0.505200  0.494800  0.768184  1
  Ta  Ta2  1  0.010399  0.505200  0.231816  1
  Ta  Ta3  1  0.494800  0.989601  0.231816  1
  Ta  Ta4  1  0.505200  0.010399  0.768184  1
  Ta  Ta5  1  0.989601  0.494800  0.768184  1
  Ta  Ta6  1  0.494800  0.505200  0.231816  1
  Ta  Ta7  1  0.000000  0.000000  0.765211  1
  Ta  Ta8  1  0.000000  0.000000  0.234789  1
  Ta  Ta9  1  0.000000  0.000000  0.000000  1
  S  S10  1  0.828828  0.171172  0.350246  1
  S  S11  1  0.828828  0.657656  0.350246  1
  S  S12  1  0.342344  0.171172  0.350246  1
  S  S13  1  0.665749  0.832875  0.885866  1
  S  S14  1  0.171172  0.342344  0.649754  1
  S  S15  1  0.167125  0.832875  0.885866  1
  S  S16  1  0.167125  0.334251  0.885866  1
  S  S17  1  0.832875  0.167125  0.114134  1
  S  S18  1  0.334251  0.167125  0.114134  1
  S  S19  1  0.657656  0.828828  0.649754  1
  S  S20  1  0.333333  0.666667  0.111093  1
  S  S21  1  0.666667  0.333333  0.645967  1
  S  S22  1  0.666667  0.333333  0.888907  1
  S  S23  1  0.333333  0.666667  0.354033  1
  S  S24  1  0.832875  0.665749  0.114134  1
  S  S25  1  0.171172  0.828828  0.649754  1
