# generated using pymatgen
data_Sm3Eu6DySn8
_symmetry_space_group_name_H-M   'P 1'
_cell_length_a   8.10718400
_cell_length_b   8.69349920
_cell_length_c   16.60533200
_cell_angle_alpha   89.90399401
_cell_angle_beta   90.00000000
_cell_angle_gamma   90.00000000
_symmetry_Int_Tables_number   1
_chemical_formula_structural   Sm3Eu6DySn8
_chemical_formula_sum   'Sm6 Eu12 Dy2 Sn16'
_cell_volume   1170.33879635
_cell_formula_units_Z   2
loop_
 _symmetry_equiv_pos_site_id
 _symmetry_equiv_pos_as_xyz
  1  'x, y, z'
loop_
 _atom_site_type_symbol
 _atom_site_label
 _atom_site_symmetry_multiplicity
 _atom_site_fract_x
 _atom_site_fract_y
 _atom_site_fract_z
 _atom_site_occupancy
  Sm  Sm0  1  0.674785  0.168617  0.622513  1
  Sm  Sm1  1  0.174785  0.331383  0.877487  1
  Sm  Sm2  1  0.325137  0.832054  0.121275  1
  Sm  Sm3  1  0.825137  0.667946  0.378725  1
  Sm  Sm4  1  0.324285  0.832028  0.378054  1
  Sm  Sm5  1  0.824285  0.667972  0.121946  1
  Eu  Eu6  1  0.508797  0.686020  0.593376  1
  Eu  Eu7  1  0.008797  0.813980  0.906624  1
  Eu  Eu8  1  0.492110  0.313925  0.092769  1
  Eu  Eu9  1  0.992110  0.186075  0.407231  1
  Eu  Eu10  1  0.491145  0.313542  0.407071  1
  Eu  Eu11  1  0.991145  0.186458  0.092929  1
  Eu  Eu12  1  0.507916  0.686354  0.906549  1
  Eu  Eu13  1  0.007916  0.813646  0.593451  1
  Eu  Eu14  1  0.838502  0.511638  0.750569  1
  Eu  Eu15  1  0.338502  0.988362  0.749431  1
  Eu  Eu16  1  0.160927  0.488777  0.250531  1
  Eu  Eu17  1  0.660927  0.011223  0.249469  1
  Dy  Dy18  1  0.675681  0.167371  0.876873  1
  Dy  Dy19  1  0.175681  0.332629  0.623127  1
  Sn  Sn20  1  0.663391  0.964965  0.459165  1
  Sn  Sn21  1  0.163391  0.535035  0.040835  1
  Sn  Sn22  1  0.337069  0.036915  0.958268  1
  Sn  Sn23  1  0.837069  0.463085  0.541732  1
  Sn  Sn24  1  0.331750  0.039048  0.540695  1
  Sn  Sn25  1  0.831750  0.460952  0.959305  1
  Sn  Sn26  1  0.668344  0.965182  0.038907  1
  Sn  Sn27  1  0.168344  0.534818  0.461093  1
  Sn  Sn28  1  0.471506  0.372737  0.749504  1
  Sn  Sn29  1  0.971506  0.127263  0.750496  1
  Sn  Sn30  1  0.528758  0.625134  0.250208  1
  Sn  Sn31  1  0.028758  0.874866  0.249792  1
  Sn  Sn32  1  0.723921  0.878593  0.750753  1
  Sn  Sn33  1  0.223921  0.621407  0.749247  1
  Sn  Sn34  1  0.275978  0.123382  0.249657  1
  Sn  Sn35  1  0.775978  0.376618  0.250343  1
