# generated using pymatgen
data_Pr2Nd4CoI10
_symmetry_space_group_name_H-M   'P 1'
_cell_length_a   7.99318958
_cell_length_b   10.03059040
_cell_length_c   9.96696700
_cell_angle_alpha   106.87672565
_cell_angle_beta   96.38245046
_cell_angle_gamma   104.87022015
_symmetry_Int_Tables_number   1
_chemical_formula_structural   Pr2Nd4CoI10
_chemical_formula_sum   'Pr2 Nd4 Co1 I10'
_cell_volume   724.04333987
_cell_formula_units_Z   1
loop_
 _symmetry_equiv_pos_site_id
 _symmetry_equiv_pos_as_xyz
  1  'x, y, z'
loop_
 _atom_site_type_symbol
 _atom_site_label
 _atom_site_symmetry_multiplicity
 _atom_site_fract_x
 _atom_site_fract_y
 _atom_site_fract_z
 _atom_site_occupancy
  Pr  Pr0  1  0.886036  0.957901  0.230427  1
  Pr  Pr1  1  0.113964  0.042099  0.769573  1
  Nd  Nd2  1  0.033167  0.714407  0.914650  1
  Nd  Nd3  1  0.966833  0.285593  0.085350  1
  Nd  Nd4  1  0.654153  0.876399  0.834504  1
  Nd  Nd5  1  0.345847  0.123601  0.165496  1
  Co  Co6  1  0.000000  0.000000  0.000000  1
  I  I7  1  0.652227  0.551416  0.730779  1
  I  I8  1  0.347773  0.448584  0.269221  1
  I  I9  1  0.745339  0.915752  0.543055  1
  I  I10  1  0.254661  0.084248  0.456945  1
  I  I11  1  0.085181  0.370472  0.819229  1
  I  I12  1  0.914819  0.629528  0.180771  1
  I  I13  1  0.454148  0.815902  0.092618  1
  I  I14  1  0.545852  0.184098  0.907382  1
  I  I15  1  0.225026  0.745625  0.656549  1
  I  I16  1  0.774974  0.254375  0.343451  1
