# generated using pymatgen
data_Nd8Tm11ScPb16
_symmetry_space_group_name_H-M   'P 1'
_cell_length_a   8.22444500
_cell_length_b   8.32877835
_cell_length_c   15.67064400
_cell_angle_alpha   90.00000000
_cell_angle_beta   90.00000000
_cell_angle_gamma   90.01655836
_symmetry_Int_Tables_number   1
_chemical_formula_structural   Nd8Tm11ScPb16
_chemical_formula_sum   'Nd8 Tm11 Sc1 Pb16'
_cell_volume   1073.43247871
_cell_formula_units_Z   1
loop_
 _symmetry_equiv_pos_site_id
 _symmetry_equiv_pos_as_xyz
  1  'x, y, z'
loop_
 _atom_site_type_symbol
 _atom_site_label
 _atom_site_symmetry_multiplicity
 _atom_site_fract_x
 _atom_site_fract_y
 _atom_site_fract_z
 _atom_site_occupancy
  Nd  Nd0  1  0.473898  0.677419  0.597159  1
  Nd  Nd1  1  0.973986  0.822425  0.902995  1
  Nd  Nd2  1  0.526697  0.321625  0.097827  1
  Nd  Nd3  1  0.025670  0.176757  0.402186  1
  Nd  Nd4  1  0.526697  0.321625  0.402173  1
  Nd  Nd5  1  0.025670  0.176757  0.097814  1
  Nd  Nd6  1  0.473898  0.677419  0.902841  1
  Nd  Nd7  1  0.973986  0.822425  0.597005  1
  Tm  Tm8  1  0.634113  0.158030  0.622485  1
  Tm  Tm9  1  0.134163  0.341990  0.877241  1
  Tm  Tm10  1  0.366885  0.842742  0.123493  1
  Tm  Tm11  1  0.865591  0.658401  0.376552  1
  Tm  Tm12  1  0.366885  0.842742  0.376507  1
  Tm  Tm13  1  0.865591  0.658401  0.123448  1
  Tm  Tm14  1  0.634113  0.158030  0.877515  1
  Tm  Tm15  1  0.134163  0.341990  0.622759  1
  Tm  Tm16  1  0.800250  0.494096  0.750000  1
  Tm  Tm17  1  0.300347  0.005789  0.750000  1
  Tm  Tm18  1  0.199338  0.506212  0.250000  1
  Sc  Sc19  1  0.699769  0.993616  0.250000  1
  Pb  Pb20  1  0.705311  0.959567  0.454707  1
  Pb  Pb21  1  0.205336  0.540814  0.043800  1
  Pb  Pb22  1  0.294851  0.040973  0.956821  1
  Pb  Pb23  1  0.794770  0.459226  0.543199  1
  Pb  Pb24  1  0.294851  0.040973  0.543179  1
  Pb  Pb25  1  0.794770  0.459226  0.956801  1
  Pb  Pb26  1  0.705311  0.959567  0.045293  1
  Pb  Pb27  1  0.205336  0.540814  0.456200  1
  Pb  Pb28  1  0.438457  0.371192  0.750000  1
  Pb  Pb29  1  0.938373  0.128790  0.750000  1
  Pb  Pb30  1  0.562688  0.631197  0.250000  1
  Pb  Pb31  1  0.057903  0.873186  0.250000  1
  Pb  Pb32  1  0.663214  0.848798  0.750000  1
  Pb  Pb33  1  0.162980  0.651604  0.750000  1
  Pb  Pb34  1  0.338872  0.150062  0.250000  1
  Pb  Pb35  1  0.835272  0.345518  0.250000  1
