# generated using pymatgen
data_Tb2PrTl9
_symmetry_space_group_name_H-M   'P 1'
_cell_length_a   4.76924300
_cell_length_b   4.76924300
_cell_length_c   14.66374400
_cell_angle_alpha   90.00000000
_cell_angle_beta   90.00000000
_cell_angle_gamma   90.00000000
_symmetry_Int_Tables_number   1
_chemical_formula_structural   Tb2PrTl9
_chemical_formula_sum   'Tb2 Pr1 Tl9'
_cell_volume   333.53681093
_cell_formula_units_Z   1
loop_
 _symmetry_equiv_pos_site_id
 _symmetry_equiv_pos_as_xyz
  1  'x, y, z'
loop_
 _atom_site_type_symbol
 _atom_site_label
 _atom_site_symmetry_multiplicity
 _atom_site_fract_x
 _atom_site_fract_y
 _atom_site_fract_z
 _atom_site_occupancy
  Tb  Tb0  1  0.000000  0.000000  0.336133  1
  Tb  Tb1  1  0.000000  0.000000  0.663867  1
  Pr  Pr2  1  0.000000  0.000000  0.000000  1
  Tl  Tl3  1  0.500000  0.500000  0.000000  1
  Tl  Tl4  1  0.500000  0.500000  0.334920  1
  Tl  Tl5  1  0.500000  0.500000  0.665080  1
  Tl  Tl6  1  0.500000  0.000000  0.171737  1
  Tl  Tl7  1  0.500000  0.000000  0.500000  1
  Tl  Tl8  1  0.500000  0.000000  0.828263  1
  Tl  Tl9  1  0.000000  0.500000  0.171737  1
  Tl  Tl10  1  0.000000  0.500000  0.500000  1
  Tl  Tl11  1  0.000000  0.500000  0.828263  1
