# generated using pymatgen
data_DyHo3Tm(In2Ni)2
_symmetry_space_group_name_H-M   'P 1'
_cell_length_a   3.59122800
_cell_length_b   7.95176438
_cell_length_c   17.89795406
_cell_angle_alpha   89.98591908
_cell_angle_beta   90.00000000
_cell_angle_gamma   90.00000000
_symmetry_Int_Tables_number   1
_chemical_formula_structural   DyHo3Tm(In2Ni)2
_chemical_formula_sum   'Dy2 Ho6 Tm2 In8 Ni4'
_cell_volume   511.10467962
_cell_formula_units_Z   2
loop_
 _symmetry_equiv_pos_site_id
 _symmetry_equiv_pos_as_xyz
  1  'x, y, z'
loop_
 _atom_site_type_symbol
 _atom_site_label
 _atom_site_symmetry_multiplicity
 _atom_site_fract_x
 _atom_site_fract_y
 _atom_site_fract_z
 _atom_site_occupancy
  Dy  Dy0  1  0.000000  0.500000  0.500000  1
  Dy  Dy1  1  0.000000  0.000000  0.000000  1
  Ho  Ho2  1  0.000000  0.746134  0.279391  1
  Ho  Ho3  1  0.000000  0.253866  0.720609  1
  Ho  Ho4  1  0.000000  0.753866  0.778088  1
  Ho  Ho5  1  0.000000  0.246134  0.221912  1
  Ho  Ho6  1  0.000000  0.617672  0.088553  1
  Ho  Ho7  1  0.000000  0.382328  0.911447  1
  Tm  Tm8  1  0.000000  0.882858  0.588694  1
  Tm  Tm9  1  0.000000  0.117142  0.411306  1
  In  In10  1  0.500000  0.704687  0.930817  1
  In  In11  1  0.500000  0.295313  0.069183  1
  In  In12  1  0.500000  0.797511  0.432401  1
  In  In13  1  0.500000  0.202489  0.567599  1
  In  In14  1  0.500000  0.574262  0.651483  1
  In  In15  1  0.500000  0.425738  0.348517  1
  In  In16  1  0.500000  0.926864  0.152684  1
  In  In17  1  0.500000  0.073136  0.847316  1
  Ni  Ni18  1  0.500000  0.524959  0.196251  1
  Ni  Ni19  1  0.500000  0.475041  0.803749  1
  Ni  Ni20  1  0.500000  0.975132  0.694678  1
  Ni  Ni21  1  0.500000  0.024868  0.305322  1
