# generated using pymatgen
data_Sm4Ga18RuPt3Rh2
_symmetry_space_group_name_H-M   'P 1'
_cell_length_a   7.67170689
_cell_length_b   7.67170699
_cell_length_c   9.60232009
_cell_angle_alpha   89.93931732
_cell_angle_beta   89.93931417
_cell_angle_gamma   119.73486677
_symmetry_Int_Tables_number   1
_chemical_formula_structural   Sm4Ga18RuPt3Rh2
_chemical_formula_sum   'Sm4 Ga18 Ru1 Pt3 Rh2'
_cell_volume   490.73151579
_cell_formula_units_Z   1
loop_
 _symmetry_equiv_pos_site_id
 _symmetry_equiv_pos_as_xyz
  1  'x, y, z'
loop_
 _atom_site_type_symbol
 _atom_site_label
 _atom_site_symmetry_multiplicity
 _atom_site_fract_x
 _atom_site_fract_y
 _atom_site_fract_z
 _atom_site_occupancy
  Sm  Sm0  1  0.998082  0.667892  0.249886  1
  Sm  Sm1  1  0.003650  0.333649  0.750556  1
  Sm  Sm2  1  0.666351  0.996350  0.249444  1
  Sm  Sm3  1  0.332108  0.001918  0.750114  1
  Ga  Ga4  1  0.123287  0.125048  0.250525  1
  Ga  Ga5  1  0.874952  0.876713  0.749475  1
  Ga  Ga6  1  0.000598  0.330094  0.080512  1
  Ga  Ga7  1  0.998966  0.670416  0.918990  1
  Ga  Ga8  1  0.994197  0.664215  0.577958  1
  Ga  Ga9  1  0.335785  0.005803  0.422042  1
  Ga  Ga10  1  0.993944  0.329918  0.422427  1
  Ga  Ga11  1  0.670082  0.006056  0.577573  1
  Ga  Ga12  1  0.669906  0.999402  0.919488  1
  Ga  Ga13  1  0.329584  0.001034  0.081010  1
  Ga  Ga14  1  0.333296  0.327977  0.562349  1
  Ga  Ga15  1  0.672023  0.666704  0.437651  1
  Ga  Ga16  1  0.670943  0.670941  0.065877  1
  Ga  Ga17  1  0.329059  0.329057  0.934123  1
  Ga  Ga18  1  0.339466  0.540637  0.250456  1
  Ga  Ga19  1  0.659509  0.453868  0.745458  1
  Ga  Ga20  1  0.546132  0.340491  0.254542  1
  Ga  Ga21  1  0.459363  0.660534  0.749544  1
  Ru  Ru22  1  0.671034  0.328966  0.500000  1
  Pt  Pt23  1  0.670739  0.329261  0.000000  1
  Pt  Pt24  1  0.328863  0.671137  0.000000  1
  Pt  Pt25  1  0.328094  0.671906  0.500000  1
  Rh  Rh26  1  0.000135  0.999865  0.000000  1
  Rh  Rh27  1  0.999853  0.000147  0.500000  1
