# generated using pymatgen
data_ScU(PaH6)2
_symmetry_space_group_name_H-M   'P 1'
_cell_length_a   6.46076100
_cell_length_b   6.44639100
_cell_length_c   6.44639100
_cell_angle_alpha   90.00000000
_cell_angle_beta   90.00000000
_cell_angle_gamma   90.00000000
_symmetry_Int_Tables_number   1
_chemical_formula_structural   ScU(PaH6)2
_chemical_formula_sum   'Sc2 U2 Pa4 H24'
_cell_volume   268.48310582
_cell_formula_units_Z   2
loop_
 _symmetry_equiv_pos_site_id
 _symmetry_equiv_pos_as_xyz
  1  'x, y, z'
loop_
 _atom_site_type_symbol
 _atom_site_label
 _atom_site_symmetry_multiplicity
 _atom_site_fract_x
 _atom_site_fract_y
 _atom_site_fract_z
 _atom_site_occupancy
  Sc  Sc0  1  0.000000  0.000000  0.000000  1
  Sc  Sc1  1  0.500000  0.500000  0.500000  1
  U  U2  1  0.250000  0.000000  0.500000  1
  U  U3  1  0.750000  0.000000  0.500000  1
  Pa  Pa4  1  0.000000  0.500000  0.250372  1
  Pa  Pa5  1  0.000000  0.500000  0.749628  1
  Pa  Pa6  1  0.500000  0.750372  0.000000  1
  Pa  Pa7  1  0.500000  0.249628  0.000000  1
  H  H8  1  0.000000  0.151739  0.298069  1
  H  H9  1  0.500000  0.201931  0.651739  1
  H  H10  1  0.500000  0.798069  0.348261  1
  H  H11  1  0.797334  0.652013  0.500000  1
  H  H12  1  0.202666  0.652013  0.500000  1
  H  H13  1  0.348129  0.500000  0.797467  1
  H  H14  1  0.651871  0.500000  0.797467  1
  H  H15  1  0.297334  0.000000  0.152013  1
  H  H16  1  0.151871  0.297467  0.000000  1
  H  H17  1  0.848129  0.702533  0.000000  1
  H  H18  1  0.297334  0.000000  0.847987  1
  H  H19  1  0.848129  0.297467  0.000000  1
  H  H20  1  0.702666  0.000000  0.152013  1
  H  H21  1  0.702666  0.000000  0.847987  1
  H  H22  1  0.151871  0.702533  0.000000  1
  H  H23  1  0.000000  0.848261  0.701931  1
  H  H24  1  0.000000  0.151739  0.701931  1
  H  H25  1  0.000000  0.848261  0.298069  1
  H  H26  1  0.651871  0.500000  0.202533  1
  H  H27  1  0.348129  0.500000  0.202533  1
  H  H28  1  0.797334  0.347987  0.500000  1
  H  H29  1  0.202666  0.347987  0.500000  1
  H  H30  1  0.500000  0.798069  0.651739  1
  H  H31  1  0.500000  0.201931  0.348261  1
