# generated using pymatgen
data_ZnIn(BiO3)4
_symmetry_space_group_name_H-M   'P 1'
_cell_length_a   4.99714700
_cell_length_b   9.98988000
_cell_length_c   10.15402900
_cell_angle_alpha   90.00001147
_cell_angle_beta   90.00000000
_cell_angle_gamma   89.99974745
_symmetry_Int_Tables_number   1
_chemical_formula_structural   ZnIn(BiO3)4
_chemical_formula_sum   'Zn2 In2 Bi8 O24'
_cell_volume   506.89825490
_cell_formula_units_Z   2
loop_
 _symmetry_equiv_pos_site_id
 _symmetry_equiv_pos_as_xyz
  1  'x, y, z'
loop_
 _atom_site_type_symbol
 _atom_site_label
 _atom_site_symmetry_multiplicity
 _atom_site_fract_x
 _atom_site_fract_y
 _atom_site_fract_z
 _atom_site_occupancy
  Zn  Zn0  1  0.003556  0.999945  0.999999  1
  Zn  Zn1  1  0.503538  0.250044  0.500000  1
  In  In2  1  0.995886  0.500953  0.000000  1
  In  In3  1  0.495880  0.749050  0.500000  1
  Bi  Bi4  1  0.999573  0.005699  0.332370  1
  Bi  Bi5  1  0.000087  0.494006  0.333953  1
  Bi  Bi6  1  0.999573  0.005699  0.667630  1
  Bi  Bi7  1  0.000087  0.494006  0.666047  1
  Bi  Bi8  1  0.499579  0.244303  0.167627  1
  Bi  Bi9  1  0.500090  0.755994  0.166049  1
  Bi  Bi10  1  0.499579  0.244303  0.832373  1
  Bi  Bi11  1  0.500090  0.755993  0.833951  1
  O  O12  1  0.204910  0.401668  0.500000  1
  O  O13  1  0.185789  0.902797  0.500000  1
  O  O14  1  0.299733  0.150784  0.000000  1
  O  O15  1  0.310613  0.653340  0.000000  1
  O  O16  1  0.685793  0.347208  0.000000  1
  O  O17  1  0.704907  0.848330  0.000000  1
  O  O18  1  0.799729  0.099215  0.500000  1
  O  O19  1  0.810610  0.596666  0.500000  1
  O  O20  1  0.193004  0.400153  0.166346  1
  O  O21  1  0.190786  0.907324  0.165461  1
  O  O22  1  0.193004  0.400153  0.833654  1
  O  O23  1  0.190786  0.907324  0.834539  1
  O  O24  1  0.311259  0.154439  0.337636  1
  O  O25  1  0.305048  0.652607  0.330140  1
  O  O26  1  0.311259  0.154439  0.662364  1
  O  O27  1  0.305048  0.652607  0.669861  1
  O  O28  1  0.690783  0.342674  0.334539  1
  O  O29  1  0.693003  0.849849  0.333653  1
  O  O30  1  0.690783  0.342674  0.665461  1
  O  O31  1  0.693004  0.849849  0.666347  1
  O  O32  1  0.811262  0.095560  0.162359  1
  O  O33  1  0.805050  0.597395  0.169859  1
  O  O34  1  0.811262  0.095559  0.837641  1
  O  O35  1  0.805051  0.597396  0.830141  1
