# generated using pymatgen
data_Sc9Co8Si20Tc
_symmetry_space_group_name_H-M   'P 1'
_cell_length_a   11.96805970
_cell_length_b   11.96805970
_cell_length_c   3.93969900
_cell_angle_alpha   90.00000000
_cell_angle_beta   90.00000000
_cell_angle_gamma   90.33023468
_symmetry_Int_Tables_number   1
_chemical_formula_structural   Sc9Co8Si20Tc
_chemical_formula_sum   'Sc9 Co8 Si20 Tc1'
_cell_volume   564.29125792
_cell_formula_units_Z   1
loop_
 _symmetry_equiv_pos_site_id
 _symmetry_equiv_pos_as_xyz
  1  'x, y, z'
loop_
 _atom_site_type_symbol
 _atom_site_label
 _atom_site_symmetry_multiplicity
 _atom_site_fract_x
 _atom_site_fract_y
 _atom_site_fract_z
 _atom_site_occupancy
  Sc  Sc0  1  0.998382  0.997975  0.000000  1
  Sc  Sc1  1  0.497975  0.498382  0.000000  1
  Sc  Sc2  1  0.175000  0.324624  0.500000  1
  Sc  Sc3  1  0.824624  0.675000  0.500000  1
  Sc  Sc4  1  0.325470  0.825470  0.500000  1
  Sc  Sc5  1  0.883853  0.383853  0.500000  1
  Sc  Sc6  1  0.391738  0.114854  0.500000  1
  Sc  Sc7  1  0.614854  0.891738  0.500000  1
  Sc  Sc8  1  0.110257  0.610257  0.500000  1
  Co  Co9  1  0.520462  0.251092  0.000000  1
  Co  Co10  1  0.254052  0.472827  0.000000  1
  Co  Co11  1  0.743877  0.516640  0.000000  1
  Co  Co12  1  0.476711  0.745989  0.000000  1
  Co  Co13  1  0.972827  0.754052  0.000000  1
  Co  Co14  1  0.016640  0.243877  0.000000  1
  Co  Co15  1  0.751092  0.020462  0.000000  1
  Co  Co16  1  0.245989  0.976711  0.000000  1
  Si  Si17  1  0.574368  0.074368  0.000000  1
  Si  Si18  1  0.066598  0.429908  0.000000  1
  Si  Si19  1  0.929908  0.566598  0.000000  1
  Si  Si20  1  0.434585  0.934585  0.000000  1
  Si  Si21  1  0.195678  0.157102  0.000000  1
  Si  Si22  1  0.156591  0.801976  0.000000  1
  Si  Si23  1  0.834098  0.191719  0.000000  1
  Si  Si24  1  0.800374  0.842001  0.000000  1
  Si  Si25  1  0.301976  0.656591  0.000000  1
  Si  Si26  1  0.691719  0.334098  0.000000  1
  Si  Si27  1  0.657102  0.695678  0.000000  1
  Si  Si28  1  0.342001  0.300374  0.000000  1
  Si  Si29  1  0.009353  0.159217  0.500000  1
  Si  Si30  1  0.164409  0.003214  0.500000  1
  Si  Si31  1  0.831642  0.029870  0.500000  1
  Si  Si32  1  0.004741  0.831781  0.500000  1
  Si  Si33  1  0.503214  0.664409  0.500000  1
  Si  Si34  1  0.529870  0.331642  0.500000  1
  Si  Si35  1  0.659217  0.509353  0.500000  1
  Si  Si36  1  0.331781  0.504741  0.500000  1
  Tc  Tc37  1  0.676973  0.176973  0.500000  1
