# generated using pymatgen
data_Bi3MoO7
_symmetry_space_group_name_H-M   'P 1'
_cell_length_a   6.66075518
_cell_length_b   7.05233093
_cell_length_c   7.67836042
_cell_angle_alpha   106.66511810
_cell_angle_beta   89.20536340
_cell_angle_gamma   103.25101610
_symmetry_Int_Tables_number   1
_chemical_formula_structural   Bi3MoO7
_chemical_formula_sum   'Bi6 Mo2 O14'
_cell_volume   335.81212149
_cell_formula_units_Z   2
loop_
 _symmetry_equiv_pos_site_id
 _symmetry_equiv_pos_as_xyz
  1  'x, y, z'
loop_
 _atom_site_type_symbol
 _atom_site_label
 _atom_site_symmetry_multiplicity
 _atom_site_fract_x
 _atom_site_fract_y
 _atom_site_fract_z
 _atom_site_occupancy
  Bi  Bi0  1  0.475733  0.992880  0.262466  1
  Bi  Bi1  1  0.524267  0.007120  0.737534  1
  Bi  Bi2  1  0.263381  0.510556  0.877740  1
  Bi  Bi3  1  0.736619  0.489444  0.122260  1
  Bi  Bi4  1  0.745131  0.551134  0.645637  1
  Bi  Bi5  1  0.254869  0.448866  0.354363  1
  Mo  Mo6  1  0.000000  0.000000  0.500000  1
  Mo  Mo7  1  0.000000  0.000000  0.000000  1
  O  O8  1  0.467063  0.627269  0.182478  1
  O  O9  1  0.532937  0.372731  0.817522  1
  O  O10  1  0.265684  0.950670  0.937999  1
  O  O11  1  0.734316  0.049330  0.062001  1
  O  O12  1  0.283533  0.951417  0.522204  1
  O  O13  1  0.716467  0.048583  0.477796  1
  O  O14  1  0.532721  0.338941  0.354234  1
  O  O15  1  0.467279  0.661059  0.645766  1
  O  O16  1  0.889972  0.690165  0.955853  1
  O  O17  1  0.110028  0.309835  0.044147  1
  O  O18  1  0.091113  0.293067  0.625177  1
  O  O19  1  0.908887  0.706933  0.374823  1
  O  O20  1  0.900274  0.920904  0.728822  1
  O  O21  1  0.099726  0.079096  0.271178  1
