# generated using pymatgen
data_Ac2TbSm(AsPt)4
_symmetry_space_group_name_H-M   'P 1'
_cell_length_a   4.40016400
_cell_length_b   4.40016504
_cell_length_c   16.25181400
_cell_angle_alpha   90.00000000
_cell_angle_beta   90.00000000
_cell_angle_gamma   119.99999222
_symmetry_Int_Tables_number   1
_chemical_formula_structural   Ac2TbSm(AsPt)4
_chemical_formula_sum   'Ac2 Tb1 Sm1 As4 Pt4'
_cell_volume   272.50240415
_cell_formula_units_Z   1
loop_
 _symmetry_equiv_pos_site_id
 _symmetry_equiv_pos_as_xyz
  1  'x, y, z'
loop_
 _atom_site_type_symbol
 _atom_site_label
 _atom_site_symmetry_multiplicity
 _atom_site_fract_x
 _atom_site_fract_y
 _atom_site_fract_z
 _atom_site_occupancy
  Ac  Ac0  1  0.000000  0.000000  0.248457  1
  Ac  Ac1  1  0.000000  0.000000  0.751543  1
  Tb  Tb2  1  0.000000  0.000000  0.000000  1
  Sm  Sm3  1  0.000000  0.000000  0.500000  1
  As  As4  1  0.333333  0.666667  0.888064  1
  As  As5  1  0.666667  0.333333  0.111936  1
  As  As6  1  0.666667  0.333333  0.385650  1
  As  As7  1  0.333333  0.666667  0.614350  1
  Pt  Pt8  1  0.333333  0.666667  0.378002  1
  Pt  Pt9  1  0.666667  0.333333  0.621998  1
  Pt  Pt10  1  0.666667  0.333333  0.883142  1
  Pt  Pt11  1  0.333333  0.666667  0.116858  1
