# generated using pymatgen
data_Lu6OsRh
_symmetry_space_group_name_H-M   'P 1'
_cell_length_a   7.19552000
_cell_length_b   8.90125100
_cell_length_c   6.22907700
_cell_angle_alpha   90.00000000
_cell_angle_beta   90.00000000
_cell_angle_gamma   90.00000000
_symmetry_Int_Tables_number   1
_chemical_formula_structural   Lu6OsRh
_chemical_formula_sum   'Lu12 Os2 Rh2'
_cell_volume   398.96696003
_cell_formula_units_Z   2
loop_
 _symmetry_equiv_pos_site_id
 _symmetry_equiv_pos_as_xyz
  1  'x, y, z'
loop_
 _atom_site_type_symbol
 _atom_site_label
 _atom_site_symmetry_multiplicity
 _atom_site_fract_x
 _atom_site_fract_y
 _atom_site_fract_z
 _atom_site_occupancy
  Lu  Lu0  1  0.676359  0.057884  0.333263  1
  Lu  Lu1  1  0.176359  0.442116  0.166737  1
  Lu  Lu2  1  0.322002  0.565162  0.674351  1
  Lu  Lu3  1  0.822002  0.934838  0.825649  1
  Lu  Lu4  1  0.322002  0.934838  0.674351  1
  Lu  Lu5  1  0.822002  0.565162  0.825649  1
  Lu  Lu6  1  0.676359  0.442116  0.333263  1
  Lu  Lu7  1  0.176359  0.057884  0.166737  1
  Lu  Lu8  1  0.538278  0.250000  0.873597  1
  Lu  Lu9  1  0.038278  0.250000  0.626403  1
  Lu  Lu10  1  0.464579  0.750000  0.123705  1
  Lu  Lu11  1  0.964579  0.750000  0.376295  1
  Os  Os12  1  0.114817  0.750000  0.965487  1
  Os  Os13  1  0.614817  0.750000  0.534513  1
  Rh  Rh14  1  0.885604  0.250000  0.040941  1
  Rh  Rh15  1  0.385604  0.250000  0.459059  1
