# generated using pymatgen
data_TbEr(PaPd6)2
_symmetry_space_group_name_H-M   'P 1'
_cell_length_a   5.77543100
_cell_length_b   5.77543078
_cell_length_c   9.63705700
_cell_angle_alpha   90.00000000
_cell_angle_beta   90.00000000
_cell_angle_gamma   119.99999552
_symmetry_Int_Tables_number   1
_chemical_formula_structural   TbEr(PaPd6)2
_chemical_formula_sum   'Tb1 Er1 Pa2 Pd12'
_cell_volume   278.38373786
_cell_formula_units_Z   1
loop_
 _symmetry_equiv_pos_site_id
 _symmetry_equiv_pos_as_xyz
  1  'x, y, z'
loop_
 _atom_site_type_symbol
 _atom_site_label
 _atom_site_symmetry_multiplicity
 _atom_site_fract_x
 _atom_site_fract_y
 _atom_site_fract_z
 _atom_site_occupancy
  Tb  Tb0  1  0.000000  0.000000  0.000000  1
  Er  Er1  1  0.000000  0.000000  0.500000  1
  Pa  Pa2  1  0.333333  0.666667  0.250094  1
  Pa  Pa3  1  0.666667  0.333333  0.749906  1
  Pd  Pd4  1  0.500000  0.500000  0.500000  1
  Pd  Pd5  1  0.500000  0.000000  0.500000  1
  Pd  Pd6  1  0.000000  0.500000  0.500000  1
  Pd  Pd7  1  0.500000  0.500000  0.000000  1
  Pd  Pd8  1  0.500000  0.000000  0.000000  1
  Pd  Pd9  1  0.000000  0.500000  0.000000  1
  Pd  Pd10  1  0.827920  0.172080  0.248668  1
  Pd  Pd11  1  0.827920  0.655837  0.248668  1
  Pd  Pd12  1  0.344163  0.172080  0.248668  1
  Pd  Pd13  1  0.172080  0.827920  0.751332  1
  Pd  Pd14  1  0.172080  0.344163  0.751332  1
  Pd  Pd15  1  0.655837  0.827920  0.751332  1
