# generated using pymatgen
data_Sr18Fe2AsP13O56
_symmetry_space_group_name_H-M   'P 1'
_cell_length_a   9.10326038
_cell_length_b   9.11067092
_cell_length_c   18.24422000
_cell_angle_alpha   71.87664773
_cell_angle_beta   71.86479863
_cell_angle_gamma   72.50649152
_symmetry_Int_Tables_number   1
_chemical_formula_structural   Sr18Fe2AsP13O56
_chemical_formula_sum   'Sr18 Fe2 As1 P13 O56'
_cell_volume   1331.37664046
_cell_formula_units_Z   1
loop_
 _symmetry_equiv_pos_site_id
 _symmetry_equiv_pos_as_xyz
  1  'x, y, z'
loop_
 _atom_site_type_symbol
 _atom_site_label
 _atom_site_symmetry_multiplicity
 _atom_site_fract_x
 _atom_site_fract_y
 _atom_site_fract_z
 _atom_site_occupancy
  Sr  Sr0  1  0.279364  0.836892  0.632910  1
  Sr  Sr1  1  0.165703  0.721437  0.862241  1
  Sr  Sr2  1  0.720718  0.163999  0.364850  1
  Sr  Sr3  1  0.831904  0.277436  0.134225  1
  Sr  Sr4  1  0.719242  0.713204  0.587828  1
  Sr  Sr5  1  0.288028  0.276897  0.909931  1
  Sr  Sr6  1  0.278429  0.286638  0.412682  1
  Sr  Sr7  1  0.707528  0.718740  0.089697  1
  Sr  Sr8  1  0.268140  0.847902  0.139019  1
  Sr  Sr9  1  0.154589  0.731631  0.360137  1
  Sr  Sr10  1  0.732380  0.154218  0.859223  1
  Sr  Sr11  1  0.842307  0.269040  0.639318  1
  Sr  Sr12  1  0.496844  0.043140  0.746488  1
  Sr  Sr13  1  0.964592  0.501703  0.749205  1
  Sr  Sr14  1  0.500976  0.963478  0.250371  1
  Sr  Sr15  1  0.038976  0.494474  0.252146  1
  Sr  Sr16  1  0.504922  0.504588  0.485767  1
  Sr  Sr17  1  0.509739  0.503576  0.984546  1
  Fe  Fe18  1  0.999616  0.998957  0.499905  1
  Fe  Fe19  1  0.997871  0.003058  0.998600  1
  As  As20  1  0.106170  0.588915  0.058884  1
  P  P21  1  0.408086  0.895500  0.441384  1
  P  P22  1  0.896415  0.408807  0.940925  1
  P  P23  1  0.593286  0.105124  0.557200  1
  P  P24  1  0.881904  0.895741  0.203434  1
  P  P25  1  0.103182  0.116237  0.296569  1
  P  P26  1  0.117490  0.105335  0.794146  1
  P  P27  1  0.895947  0.882381  0.703315  1
  P  P28  1  0.115880  0.593018  0.550982  1
  P  P29  1  0.406222  0.885104  0.947898  1
  P  P30  1  0.885153  0.406472  0.449207  1
  P  P31  1  0.592029  0.117353  0.050088  1
  P  P32  1  0.472266  0.527117  0.254938  1
  P  P33  1  0.529594  0.474096  0.752092  1
  O  O34  1  0.499591  0.787683  0.504601  1
  O  O35  1  0.224696  0.490831  0.987877  1
  O  O36  1  0.502867  0.212385  0.493363  1
  O  O37  1  0.789571  0.500433  0.004288  1
  O  O38  1  0.425463  0.519855  0.830868  1
  O  O39  1  0.471792  0.593816  0.679653  1
  O  O40  1  0.588966  0.468178  0.182218  1
  O  O41  1  0.522335  0.425427  0.333255  1
  O  O42  1  0.022740  0.762172  0.509067  1
  O  O43  1  0.237493  0.977762  0.990107  1
  O  O44  1  0.977684  0.237617  0.490944  1
  O  O45  1  0.761703  0.025340  0.008540  1
  O  O46  1  0.029301  0.490909  0.882719  1
  O  O47  1  0.509414  0.972550  0.614379  1
  O  O48  1  0.957176  0.501787  0.123686  1
  O  O49  1  0.490466  0.028836  0.383781  1
  O  O50  1  0.012565  0.499127  0.395545  1
  O  O51  1  0.501202  0.988872  0.105106  1
  O  O52  1  0.987371  0.501522  0.604864  1
  O  O53  1  0.497584  0.012362  0.892255  1
  O  O54  1  0.789169  0.010608  0.748037  1
  O  O55  1  0.989122  0.210331  0.749328  1
  O  O56  1  0.209709  0.988618  0.251497  1
  O  O57  1  0.010032  0.789178  0.248291  1
  O  O58  1  0.525317  0.297605  0.763865  1
  O  O59  1  0.709860  0.469690  0.735059  1
  O  O60  1  0.467331  0.708248  0.235718  1
  O  O61  1  0.295396  0.519882  0.270499  1
  O  O62  1  0.974790  0.981156  0.118392  1
  O  O63  1  0.017956  0.023210  0.381485  1
  O  O64  1  0.025032  0.021354  0.879303  1
  O  O65  1  0.981446  0.975037  0.618336  1
  O  O66  1  0.489133  0.775523  0.014672  1
  O  O67  1  0.224395  0.512570  0.482953  1
  O  O68  1  0.512256  0.222862  0.981492  1
  O  O69  1  0.772543  0.487594  0.516128  1
  O  O70  1  0.215268  0.208573  0.802147  1
  O  O71  1  0.794868  0.783571  0.694506  1
  O  O72  1  0.782715  0.795259  0.194404  1
  O  O73  1  0.205182  0.213754  0.305819  1
  O  O74  1  0.792248  0.389133  0.893223  1
  O  O75  1  0.614320  0.206292  0.605462  1
  O  O76  1  0.220265  0.607512  0.112399  1
  O  O77  1  0.389076  0.792317  0.393091  1
  O  O78  1  0.770681  0.028600  0.244588  1
  O  O79  1  0.970059  0.226931  0.255971  1
  O  O80  1  0.229378  0.971804  0.753754  1
  O  O81  1  0.029240  0.771842  0.744271  1
  O  O82  1  0.786567  0.388322  0.399050  1
  O  O83  1  0.608442  0.221406  0.097625  1
  O  O84  1  0.217346  0.611020  0.599394  1
  O  O85  1  0.386206  0.782937  0.900115  1
  O  O86  1  0.009844  0.770934  0.006916  1
  O  O87  1  0.239314  0.980471  0.486871  1
  O  O88  1  0.981339  0.240259  0.986409  1
  O  O89  1  0.761489  0.018720  0.511467  1
