# generated using pymatgen
data_Lu6HfCo17P12
_symmetry_space_group_name_H-M   'P 1'
_cell_length_a   3.67105500
_cell_length_b   10.52312300
_cell_length_c   12.18635700
_cell_angle_alpha   90.00000000
_cell_angle_beta   90.00000000
_cell_angle_gamma   90.00000000
_symmetry_Int_Tables_number   1
_chemical_formula_structural   Lu6HfCo17P12
_chemical_formula_sum   'Lu6 Hf1 Co17 P12'
_cell_volume   470.77071009
_cell_formula_units_Z   1
loop_
 _symmetry_equiv_pos_site_id
 _symmetry_equiv_pos_as_xyz
  1  'x, y, z'
loop_
 _atom_site_type_symbol
 _atom_site_label
 _atom_site_symmetry_multiplicity
 _atom_site_fract_x
 _atom_site_fract_y
 _atom_site_fract_z
 _atom_site_occupancy
  Lu  Lu0  1  0.000000  0.500000  0.529520  1
  Lu  Lu1  1  0.500000  0.000000  0.476196  1
  Lu  Lu2  1  0.500000  0.822328  0.207580  1
  Lu  Lu3  1  0.500000  0.177672  0.207580  1
  Lu  Lu4  1  0.000000  0.681803  0.796190  1
  Lu  Lu5  1  0.000000  0.318197  0.796190  1
  Hf  Hf6  1  0.500000  0.500000  0.155052  1
  Co  Co7  1  0.000000  0.000000  0.835461  1
  Co  Co8  1  0.500000  0.500000  0.702706  1
  Co  Co9  1  0.000000  0.000000  0.296742  1
  Co  Co10  1  0.000000  0.500000  0.984341  1
  Co  Co11  1  0.500000  0.000000  0.013993  1
  Co  Co12  1  0.500000  0.327336  0.988541  1
  Co  Co13  1  0.500000  0.672664  0.988541  1
  Co  Co14  1  0.000000  0.161916  0.001744  1
  Co  Co15  1  0.000000  0.838084  0.001744  1
  Co  Co16  1  0.500000  0.294727  0.434726  1
  Co  Co17  1  0.500000  0.705273  0.434726  1
  Co  Co18  1  0.000000  0.201691  0.570198  1
  Co  Co19  1  0.000000  0.798309  0.570198  1
  Co  Co20  1  0.500000  0.879139  0.706804  1
  Co  Co21  1  0.500000  0.120861  0.706804  1
  Co  Co22  1  0.000000  0.623730  0.295753  1
  Co  Co23  1  0.000000  0.376270  0.295753  1
  P  P24  1  0.500000  0.500000  0.880590  1
  P  P25  1  0.000000  0.000000  0.117827  1
  P  P26  1  0.500000  0.500000  0.363348  1
  P  P27  1  0.000000  0.000000  0.652152  1
  P  P28  1  0.500000  0.311405  0.618704  1
  P  P29  1  0.500000  0.688595  0.618704  1
  P  P30  1  0.000000  0.186623  0.385506  1
  P  P31  1  0.000000  0.813377  0.385506  1
  P  P32  1  0.500000  0.851400  0.887405  1
  P  P33  1  0.500000  0.148600  0.887405  1
  P  P34  1  0.000000  0.665698  0.102884  1
  P  P35  1  0.000000  0.334302  0.102884  1
