# generated using pymatgen
data_K4PPt8
_symmetry_space_group_name_H-M   'P 1'
_cell_length_a   10.22934655
_cell_length_b   10.22934604
_cell_length_c   10.42762539
_cell_angle_alpha   81.89294032
_cell_angle_beta   81.89294110
_cell_angle_gamma   32.00807945
_symmetry_Int_Tables_number   1
_chemical_formula_structural   K4PPt8
_chemical_formula_sum   'K8 P2 Pt16'
_cell_volume   572.08960040
_cell_formula_units_Z   2
loop_
 _symmetry_equiv_pos_site_id
 _symmetry_equiv_pos_as_xyz
  1  'x, y, z'
loop_
 _atom_site_type_symbol
 _atom_site_label
 _atom_site_symmetry_multiplicity
 _atom_site_fract_x
 _atom_site_fract_y
 _atom_site_fract_z
 _atom_site_occupancy
  K  K0  1  0.479613  0.479613  0.832543  1
  K  K1  1  0.520387  0.520387  0.167457  1
  K  K2  1  0.281694  0.281694  0.900743  1
  K  K3  1  0.718306  0.718306  0.099257  1
  K  K4  1  0.220342  0.220342  0.598056  1
  K  K5  1  0.779658  0.779658  0.401944  1
  K  K6  1  0.040694  0.040694  0.657949  1
  K  K7  1  0.959306  0.959306  0.342051  1
  P  P8  1  0.665382  0.665382  0.769223  1
  P  P9  1  0.334618  0.334618  0.230777  1
  Pt  Pt10  1  0.779685  0.779685  0.731967  1
  Pt  Pt11  1  0.220315  0.220315  0.268033  1
  Pt  Pt12  1  0.622496  0.622496  0.582042  1
  Pt  Pt13  1  0.377504  0.377504  0.417958  1
  Pt  Pt14  1  0.500000  0.500000  0.500000  1
  Pt  Pt15  1  0.000000  0.000000  0.000000  1
  Pt  Pt16  1  0.111453  0.111453  0.143899  1
  Pt  Pt17  1  0.888547  0.888547  0.856101  1
  Pt  Pt18  1  0.859457  0.360109  0.369580  1
  Pt  Pt19  1  0.639891  0.140543  0.630420  1
  Pt  Pt20  1  0.140543  0.639891  0.630420  1
  Pt  Pt21  1  0.360109  0.859457  0.369580  1
  Pt  Pt22  1  0.120915  0.647136  0.082757  1
  Pt  Pt23  1  0.352864  0.879085  0.917243  1
  Pt  Pt24  1  0.879085  0.352864  0.917243  1
  Pt  Pt25  1  0.647136  0.120915  0.082757  1
