# generated using pymatgen
data_Zr6AlZn5N2
_symmetry_space_group_name_H-M   'P 1'
_cell_length_a   8.63435902
_cell_length_b   8.63440098
_cell_length_c   8.64974900
_cell_angle_alpha   59.94123174
_cell_angle_beta   59.94117792
_cell_angle_gamma   59.88096385
_symmetry_Int_Tables_number   1
_chemical_formula_structural   Zr6AlZn5N2
_chemical_formula_sum   'Zr12 Al2 Zn10 N4'
_cell_volume   455.16909977
_cell_formula_units_Z   2
loop_
 _symmetry_equiv_pos_site_id
 _symmetry_equiv_pos_as_xyz
  1  'x, y, z'
loop_
 _atom_site_type_symbol
 _atom_site_label
 _atom_site_symmetry_multiplicity
 _atom_site_fract_x
 _atom_site_fract_y
 _atom_site_fract_z
 _atom_site_occupancy
  Zr  Zr0  1  0.814100  0.186039  0.185505  1
  Zr  Zr1  1  0.186039  0.814101  0.185507  1
  Zr  Zr2  1  0.814362  0.814363  0.185638  1
  Zr  Zr3  1  0.186038  0.814102  0.814354  1
  Zr  Zr4  1  0.814102  0.186039  0.814354  1
  Zr  Zr5  1  0.186106  0.186105  0.813893  1
  Zr  Zr6  1  0.435900  0.063961  0.064495  1
  Zr  Zr7  1  0.063961  0.435899  0.064493  1
  Zr  Zr8  1  0.435638  0.435637  0.064362  1
  Zr  Zr9  1  0.063962  0.435898  0.435646  1
  Zr  Zr10  1  0.435898  0.063961  0.435646  1
  Zr  Zr11  1  0.063894  0.063895  0.436107  1
  Al  Al12  1  0.125000  0.625000  0.625000  1
  Al  Al13  1  0.625000  0.125000  0.625000  1
  Zn  Zn14  1  0.419432  0.419432  0.746256  1
  Zn  Zn15  1  0.419433  0.419432  0.414880  1
  Zn  Zn16  1  0.744156  0.421190  0.417327  1
  Zn  Zn17  1  0.421194  0.744150  0.417327  1
  Zn  Zn18  1  0.830568  0.830568  0.503744  1
  Zn  Zn19  1  0.830567  0.830568  0.835120  1
  Zn  Zn20  1  0.505844  0.828810  0.832673  1
  Zn  Zn21  1  0.828806  0.505850  0.832673  1
  Zn  Zn22  1  0.625000  0.625000  0.125000  1
  Zn  Zn23  1  0.625000  0.625000  0.625000  1
  N  N24  1  0.125000  0.125000  0.625000  1
  N  N25  1  0.125000  0.125000  0.125000  1
  N  N26  1  0.625000  0.125000  0.125000  1
  N  N27  1  0.125000  0.625000  0.125000  1
