# generated using pymatgen
data_Ca3Ho(Al3Pd)6
_symmetry_space_group_name_H-M   'P 1'
_cell_length_a   7.66073203
_cell_length_b   7.65781536
_cell_length_c   9.51435500
_cell_angle_alpha   90.00000000
_cell_angle_beta   90.00000000
_cell_angle_gamma   119.57094866
_symmetry_Int_Tables_number   1
_chemical_formula_structural   Ca3Ho(Al3Pd)6
_chemical_formula_sum   'Ca3 Ho1 Al18 Pd6'
_cell_volume   485.45232752
_cell_formula_units_Z   1
loop_
 _symmetry_equiv_pos_site_id
 _symmetry_equiv_pos_as_xyz
  1  'x, y, z'
loop_
 _atom_site_type_symbol
 _atom_site_label
 _atom_site_symmetry_multiplicity
 _atom_site_fract_x
 _atom_site_fract_y
 _atom_site_fract_z
 _atom_site_occupancy
  Ca  Ca0  1  0.995035  0.669460  0.250000  1
  Ca  Ca1  1  0.003906  0.330249  0.750000  1
  Ca  Ca2  1  0.671146  0.996325  0.250000  1
  Ho  Ho3  1  0.330309  0.003083  0.750000  1
  Al  Al4  1  0.132637  0.132293  0.250000  1
  Al  Al5  1  0.871840  0.869107  0.750000  1
  Al  Al6  1  0.001183  0.334854  0.075071  1
  Al  Al7  1  0.999582  0.665219  0.922234  1
  Al  Al8  1  0.999582  0.665219  0.577766  1
  Al  Al9  1  0.334684  0.000456  0.425168  1
  Al  Al10  1  0.001183  0.334854  0.424929  1
  Al  Al11  1  0.665231  0.999701  0.577494  1
  Al  Al12  1  0.665231  0.999701  0.922506  1
  Al  Al13  1  0.334684  0.000456  0.074832  1
  Al  Al14  1  0.332814  0.332061  0.558223  1
  Al  Al15  1  0.666290  0.666282  0.446180  1
  Al  Al16  1  0.666290  0.666282  0.053820  1
  Al  Al17  1  0.332814  0.332061  0.941777  1
  Al  Al18  1  0.339988  0.546212  0.250000  1
  Al  Al19  1  0.655852  0.451982  0.750000  1
  Al  Al20  1  0.543832  0.339902  0.250000  1
  Al  Al21  1  0.456080  0.664345  0.750000  1
  Pd  Pd22  1  0.670780  0.327935  0.999417  1
  Pd  Pd23  1  0.328328  0.671761  0.998985  1
  Pd  Pd24  1  0.328328  0.671761  0.501015  1
  Pd  Pd25  1  0.670780  0.327935  0.500583  1
  Pd  Pd26  1  0.000798  0.000252  0.999197  1
  Pd  Pd27  1  0.000798  0.000252  0.500803  1
