# generated using pymatgen
data_Ba3Ca2(TiN3)2
_symmetry_space_group_name_H-M   'P 1'
_cell_length_a   6.31480068
_cell_length_b   6.31480042
_cell_length_c   14.06453947
_cell_angle_alpha   81.35962131
_cell_angle_beta   81.35962103
_cell_angle_gamma   67.47794192
_symmetry_Int_Tables_number   1
_chemical_formula_structural   Ba3Ca2(TiN3)2
_chemical_formula_sum   'Ba6 Ca4 Ti4 N12'
_cell_volume   509.54834674
_cell_formula_units_Z   2
loop_
 _symmetry_equiv_pos_site_id
 _symmetry_equiv_pos_as_xyz
  1  'x, y, z'
loop_
 _atom_site_type_symbol
 _atom_site_label
 _atom_site_symmetry_multiplicity
 _atom_site_fract_x
 _atom_site_fract_y
 _atom_site_fract_z
 _atom_site_occupancy
  Ba  Ba0  1  0.600798  0.399202  0.750000  1
  Ba  Ba1  1  0.399202  0.600798  0.250000  1
  Ba  Ba2  1  0.204392  0.687747  0.988106  1
  Ba  Ba3  1  0.312253  0.795608  0.511894  1
  Ba  Ba4  1  0.795608  0.312253  0.011894  1
  Ba  Ba5  1  0.687747  0.204392  0.488106  1
  Ca  Ca6  1  0.914081  0.782202  0.719258  1
  Ca  Ca7  1  0.217798  0.085919  0.780742  1
  Ca  Ca8  1  0.085919  0.217798  0.280742  1
  Ca  Ca9  1  0.782202  0.914081  0.219258  1
  Ti  Ti10  1  0.075400  0.363594  0.582850  1
  Ti  Ti11  1  0.636406  0.924600  0.917150  1
  Ti  Ti12  1  0.924600  0.636406  0.417150  1
  Ti  Ti13  1  0.363594  0.075400  0.082850  1
  N  N14  1  0.016877  0.090237  0.633024  1
  N  N15  1  0.909763  0.983123  0.866976  1
  N  N16  1  0.983123  0.909763  0.366976  1
  N  N17  1  0.090237  0.016877  0.133024  1
  N  N18  1  0.792075  0.629683  0.553999  1
  N  N19  1  0.370317  0.207925  0.946001  1
  N  N20  1  0.207925  0.370317  0.446001  1
  N  N21  1  0.629683  0.792075  0.053999  1
  N  N22  1  0.229991  0.437445  0.671791  1
  N  N23  1  0.562555  0.770009  0.828209  1
  N  N24  1  0.770009  0.562555  0.328209  1
  N  N25  1  0.437445  0.229991  0.171791  1
