# generated using pymatgen
data_RbPtRhSe4
_symmetry_space_group_name_H-M   'P 1'
_cell_length_a   6.56907900
_cell_length_b   7.60540900
_cell_length_c   16.02197400
_cell_angle_alpha   90.00000000
_cell_angle_beta   90.00000000
_cell_angle_gamma   90.00000000
_symmetry_Int_Tables_number   1
_chemical_formula_structural   RbPtRhSe4
_chemical_formula_sum   'Rb4 Pt4 Rh4 Se16'
_cell_volume   800.46635352
_cell_formula_units_Z   4
loop_
 _symmetry_equiv_pos_site_id
 _symmetry_equiv_pos_as_xyz
  1  'x, y, z'
loop_
 _atom_site_type_symbol
 _atom_site_label
 _atom_site_symmetry_multiplicity
 _atom_site_fract_x
 _atom_site_fract_y
 _atom_site_fract_z
 _atom_site_occupancy
  Rb  Rb0  1  0.350074  0.000000  0.000000  1
  Rb  Rb1  1  0.649926  0.500000  0.500000  1
  Rb  Rb2  1  0.019888  0.000000  0.500000  1
  Rb  Rb3  1  0.980112  0.500000  0.000000  1
  Pt  Pt4  1  0.500000  0.250000  0.250000  1
  Pt  Pt5  1  0.500000  0.750000  0.750000  1
  Pt  Pt6  1  0.500000  0.750000  0.250000  1
  Pt  Pt7  1  0.500000  0.250000  0.750000  1
  Rh  Rh8  1  0.002339  0.000000  0.251235  1
  Rh  Rh9  1  0.002339  0.000000  0.748765  1
  Rh  Rh10  1  0.997661  0.500000  0.248765  1
  Rh  Rh11  1  0.997661  0.500000  0.751235  1
  Se  Se12  1  0.836523  0.251685  0.329394  1
  Se  Se13  1  0.836523  0.748315  0.670606  1
  Se  Se14  1  0.163477  0.751685  0.170606  1
  Se  Se15  1  0.163477  0.248315  0.829394  1
  Se  Se16  1  0.163477  0.248315  0.170606  1
  Se  Se17  1  0.163477  0.751685  0.829394  1
  Se  Se18  1  0.836523  0.748315  0.329394  1
  Se  Se19  1  0.836523  0.251685  0.670606  1
  Se  Se20  1  0.673518  0.000000  0.171820  1
  Se  Se21  1  0.673518  0.000000  0.828180  1
  Se  Se22  1  0.326482  0.500000  0.328180  1
  Se  Se23  1  0.326482  0.500000  0.671820  1
  Se  Se24  1  0.335768  0.000000  0.329185  1
  Se  Se25  1  0.335768  0.000000  0.670815  1
  Se  Se26  1  0.664232  0.500000  0.170815  1
  Se  Se27  1  0.664232  0.500000  0.829185  1
