# generated using pymatgen
data_Ta6Zn6S
_symmetry_space_group_name_H-M   'P 1'
_cell_length_a   8.32059146
_cell_length_b   8.32059074
_cell_length_c   8.32059100
_cell_angle_alpha   60.00000296
_cell_angle_beta   60.00000580
_cell_angle_gamma   60.00000103
_symmetry_Int_Tables_number   1
_chemical_formula_structural   Ta6Zn6S
_chemical_formula_sum   'Ta12 Zn12 S2'
_cell_volume   407.33109918
_cell_formula_units_Z   2
loop_
 _symmetry_equiv_pos_site_id
 _symmetry_equiv_pos_as_xyz
  1  'x, y, z'
loop_
 _atom_site_type_symbol
 _atom_site_label
 _atom_site_symmetry_multiplicity
 _atom_site_fract_x
 _atom_site_fract_y
 _atom_site_fract_z
 _atom_site_occupancy
  Ta  Ta0  1  0.296088  0.703912  0.703912  1
  Ta  Ta1  1  0.296088  0.296088  0.703912  1
  Ta  Ta2  1  0.546088  0.953912  0.546088  1
  Ta  Ta3  1  0.953912  0.546088  0.546088  1
  Ta  Ta4  1  0.546088  0.953912  0.953912  1
  Ta  Ta5  1  0.703912  0.296088  0.296088  1
  Ta  Ta6  1  0.953912  0.546088  0.953912  1
  Ta  Ta7  1  0.296088  0.703912  0.296088  1
  Ta  Ta8  1  0.546088  0.546088  0.953912  1
  Ta  Ta9  1  0.703912  0.296088  0.703912  1
  Ta  Ta10  1  0.703912  0.703912  0.296088  1
  Ta  Ta11  1  0.953912  0.953912  0.546088  1
  Zn  Zn12  1  0.915270  0.254192  0.915270  1
  Zn  Zn13  1  0.334730  0.995808  0.334730  1
  Zn  Zn14  1  0.334730  0.334730  0.334730  1
  Zn  Zn15  1  0.995808  0.334730  0.334730  1
  Zn  Zn16  1  0.915270  0.915270  0.254192  1
  Zn  Zn17  1  0.254192  0.915270  0.915270  1
  Zn  Zn18  1  0.334730  0.334730  0.995808  1
  Zn  Zn19  1  0.125000  0.125000  0.625000  1
  Zn  Zn20  1  0.915270  0.915270  0.915270  1
  Zn  Zn21  1  0.125000  0.625000  0.125000  1
  Zn  Zn22  1  0.125000  0.125000  0.125000  1
  Zn  Zn23  1  0.625000  0.125000  0.125000  1
  S  S24  1  0.750000  0.750000  0.750000  1
  S  S25  1  0.500000  0.500000  0.500000  1
