# generated using pymatgen
data_Li8P4Pd11Pt
_symmetry_space_group_name_H-M   'P 1'
_cell_length_a   7.17913828
_cell_length_b   7.17913828
_cell_length_c   7.17354122
_cell_angle_alpha   89.92326460
_cell_angle_beta   90.07673540
_cell_angle_gamma   89.71852425
_symmetry_Int_Tables_number   1
_chemical_formula_structural   Li8P4Pd11Pt
_chemical_formula_sum   'Li8 P4 Pd11 Pt1'
_cell_volume   369.71937599
_cell_formula_units_Z   1
loop_
 _symmetry_equiv_pos_site_id
 _symmetry_equiv_pos_as_xyz
  1  'x, y, z'
loop_
 _atom_site_type_symbol
 _atom_site_label
 _atom_site_symmetry_multiplicity
 _atom_site_fract_x
 _atom_site_fract_y
 _atom_site_fract_z
 _atom_site_occupancy
  Li  Li0  1  0.290446  0.291122  0.290703  1
  Li  Li1  1  0.039604  0.460068  0.542952  1
  Li  Li2  1  0.541122  0.040446  0.459297  1
  Li  Li3  1  0.461437  0.540769  0.040021  1
  Li  Li4  1  0.206156  0.708605  0.791086  1
  Li  Li5  1  0.958605  0.956156  0.958914  1
  Li  Li6  1  0.790769  0.211437  0.709979  1
  Li  Li7  1  0.710068  0.789604  0.207048  1
  P  P8  1  0.872635  0.377794  0.123745  1
  P  P9  1  0.375250  0.125250  0.875000  1
  P  P10  1  0.627794  0.622635  0.626255  1
  P  P11  1  0.125208  0.875208  0.375000  1
  Pd  Pd12  1  0.175332  0.074953  0.624422  1
  Pd  Pd13  1  0.423738  0.374778  0.673460  1
  Pd  Pd14  1  0.077254  0.624770  0.175258  1
  Pd  Pd15  1  0.924716  0.125205  0.323307  1
  Pd  Pd16  1  0.324953  0.925332  0.125578  1
  Pd  Pd17  1  0.673697  0.423697  0.375000  1
  Pd  Pd18  1  0.574486  0.874072  0.826054  1
  Pd  Pd19  1  0.624778  0.173738  0.076540  1
  Pd  Pd20  1  0.375205  0.674716  0.426693  1
  Pd  Pd21  1  0.874770  0.827254  0.574742  1
  Pd  Pd22  1  0.124072  0.324486  0.923946  1
  Pt  Pt23  1  0.827907  0.577907  0.875000  1
