# generated using pymatgen
data_Gd10ZnGePb6
_symmetry_space_group_name_H-M   'P 1'
_cell_length_a   9.29272000
_cell_length_b   9.29272035
_cell_length_c   6.72757500
_cell_angle_alpha   90.00000000
_cell_angle_beta   90.00000000
_cell_angle_gamma   119.99999874
_symmetry_Int_Tables_number   1
_chemical_formula_structural   Gd10ZnGePb6
_chemical_formula_sum   'Gd10 Zn1 Ge1 Pb6'
_cell_volume   503.12384995
_cell_formula_units_Z   1
loop_
 _symmetry_equiv_pos_site_id
 _symmetry_equiv_pos_as_xyz
  1  'x, y, z'
loop_
 _atom_site_type_symbol
 _atom_site_label
 _atom_site_symmetry_multiplicity
 _atom_site_fract_x
 _atom_site_fract_y
 _atom_site_fract_z
 _atom_site_occupancy
  Gd  Gd0  1  0.256120  0.000000  0.237806  1
  Gd  Gd1  1  0.743880  0.000000  0.762194  1
  Gd  Gd2  1  0.000000  0.256120  0.237806  1
  Gd  Gd3  1  0.000000  0.743880  0.762194  1
  Gd  Gd4  1  0.743880  0.743880  0.237806  1
  Gd  Gd5  1  0.256120  0.256120  0.762194  1
  Gd  Gd6  1  0.333333  0.666667  0.000000  1
  Gd  Gd7  1  0.666667  0.333333  0.000000  1
  Gd  Gd8  1  0.666667  0.333333  0.500000  1
  Gd  Gd9  1  0.333333  0.666667  0.500000  1
  Zn  Zn10  1  0.000000  0.000000  0.500000  1
  Ge  Ge11  1  0.000000  0.000000  0.000000  1
  Pb  Pb12  1  0.609844  0.000000  0.251642  1
  Pb  Pb13  1  0.390156  0.000000  0.748358  1
  Pb  Pb14  1  0.000000  0.609844  0.251642  1
  Pb  Pb15  1  0.000000  0.390156  0.748358  1
  Pb  Pb16  1  0.390156  0.390156  0.251642  1
  Pb  Pb17  1  0.609844  0.609844  0.748358  1
