# generated using pymatgen
data_ErTm3(TcC2)2
_symmetry_space_group_name_H-M   'P 1'
_cell_length_a   5.02935100
_cell_length_b   6.50812100
_cell_length_c   9.74492400
_cell_angle_alpha   90.00000000
_cell_angle_beta   90.00000000
_cell_angle_gamma   90.00000000
_symmetry_Int_Tables_number   1
_chemical_formula_structural   ErTm3(TcC2)2
_chemical_formula_sum   'Er2 Tm6 Tc4 C8'
_cell_volume   318.96719665
_cell_formula_units_Z   2
loop_
 _symmetry_equiv_pos_site_id
 _symmetry_equiv_pos_as_xyz
  1  'x, y, z'
loop_
 _atom_site_type_symbol
 _atom_site_label
 _atom_site_symmetry_multiplicity
 _atom_site_fract_x
 _atom_site_fract_y
 _atom_site_fract_z
 _atom_site_occupancy
  Er  Er0  1  0.250000  0.465643  0.217135  1
  Er  Er1  1  0.750000  0.034357  0.717135  1
  Tm  Tm2  1  0.750000  0.534377  0.782697  1
  Tm  Tm3  1  0.250000  0.965623  0.282697  1
  Tm  Tm4  1  0.750000  0.675974  0.441776  1
  Tm  Tm5  1  0.250000  0.824026  0.941776  1
  Tm  Tm6  1  0.750000  0.175330  0.058210  1
  Tm  Tm7  1  0.250000  0.324670  0.558210  1
  Tc  Tc8  1  0.250000  0.283391  0.868344  1
  Tc  Tc9  1  0.250000  0.783331  0.631776  1
  Tc  Tc10  1  0.750000  0.216609  0.368344  1
  Tc  Tc11  1  0.750000  0.716669  0.131776  1
  C  C12  1  0.250000  0.675336  0.447616  1
  C  C13  1  0.250000  0.551129  0.759005  1
  C  C14  1  0.750000  0.448776  0.241161  1
  C  C15  1  0.750000  0.824664  0.947616  1
  C  C16  1  0.250000  0.051224  0.741161  1
  C  C17  1  0.250000  0.173966  0.052282  1
  C  C18  1  0.750000  0.326034  0.552282  1
  C  C19  1  0.750000  0.948871  0.259005  1
