# generated using pymatgen
data_CeY2Er(Al3Rh)6
_symmetry_space_group_name_H-M   'P 1'
_cell_length_a   7.56436002
_cell_length_b   7.56456548
_cell_length_c   9.49131900
_cell_angle_alpha   90.00000000
_cell_angle_beta   90.00000000
_cell_angle_gamma   119.40724739
_symmetry_Int_Tables_number   1
_chemical_formula_structural   CeY2Er(Al3Rh)6
_chemical_formula_sum   'Ce1 Y2 Er1 Al18 Rh6'
_cell_volume   473.12570114
_cell_formula_units_Z   1
loop_
 _symmetry_equiv_pos_site_id
 _symmetry_equiv_pos_as_xyz
  1  'x, y, z'
loop_
 _atom_site_type_symbol
 _atom_site_label
 _atom_site_symmetry_multiplicity
 _atom_site_fract_x
 _atom_site_fract_y
 _atom_site_fract_z
 _atom_site_occupancy
  Ce  Ce0  1  0.005097  0.328280  0.250000  1
  Y  Y1  1  0.994105  0.670666  0.750000  1
  Y  Y2  1  0.672251  0.995304  0.750000  1
  Er  Er3  1  0.327520  0.005305  0.250000  1
  Al  Al4  1  0.128486  0.127186  0.750000  1
  Al  Al5  1  0.869157  0.868959  0.250000  1
  Al  Al6  1  0.001738  0.335687  0.576604  1
  Al  Al7  1  0.999504  0.666530  0.425364  1
  Al  Al8  1  0.999504  0.666530  0.074636  1
  Al  Al9  1  0.335339  0.000623  0.926001  1
  Al  Al10  1  0.001738  0.335687  0.923396  1
  Al  Al11  1  0.662135  0.997574  0.074836  1
  Al  Al12  1  0.662135  0.997574  0.425164  1
  Al  Al13  1  0.335339  0.000623  0.573999  1
  Al  Al14  1  0.334909  0.333194  0.050053  1
  Al  Al15  1  0.667031  0.667067  0.948651  1
  Al  Al16  1  0.667031  0.667067  0.551349  1
  Al  Al17  1  0.334909  0.333194  0.449947  1
  Al  Al18  1  0.340997  0.551112  0.750000  1
  Al  Al19  1  0.658449  0.450598  0.250000  1
  Al  Al20  1  0.548837  0.339281  0.750000  1
  Al  Al21  1  0.452188  0.660667  0.250000  1
  Rh  Rh22  1  0.671962  0.328209  0.499623  1
  Rh  Rh23  1  0.328396  0.672317  0.499546  1
  Rh  Rh24  1  0.328396  0.672317  0.000454  1
  Rh  Rh25  1  0.671962  0.328209  0.000377  1
  Rh  Rh26  1  0.000440  0.000121  0.499148  1
  Rh  Rh27  1  0.000440  0.000121  0.000852  1
