# generated using pymatgen
data_Ta12Al8OsAu3C4
_symmetry_space_group_name_H-M   'P 1'
_cell_length_a   8.42795056
_cell_length_b   8.42795033
_cell_length_c   8.42794840
_cell_angle_alpha   59.53277603
_cell_angle_beta   59.53278020
_cell_angle_gamma   59.53277878
_symmetry_Int_Tables_number   1
_chemical_formula_structural   Ta12Al8OsAu3C4
_chemical_formula_sum   'Ta12 Al8 Os1 Au3 C4'
_cell_volume   418.80542021
_cell_formula_units_Z   1
loop_
 _symmetry_equiv_pos_site_id
 _symmetry_equiv_pos_as_xyz
  1  'x, y, z'
loop_
 _atom_site_type_symbol
 _atom_site_label
 _atom_site_symmetry_multiplicity
 _atom_site_fract_x
 _atom_site_fract_y
 _atom_site_fract_z
 _atom_site_occupancy
  Ta  Ta0  1  0.571137  0.929847  0.571137  1
  Ta  Ta1  1  0.320153  0.678863  0.678863  1
  Ta  Ta2  1  0.689775  0.316574  0.316574  1
  Ta  Ta3  1  0.316574  0.689775  0.316574  1
  Ta  Ta4  1  0.678863  0.678863  0.320153  1
  Ta  Ta5  1  0.316574  0.316574  0.689775  1
  Ta  Ta6  1  0.571137  0.571137  0.929847  1
  Ta  Ta7  1  0.929847  0.571137  0.571137  1
  Ta  Ta8  1  0.560225  0.933426  0.933426  1
  Ta  Ta9  1  0.933426  0.933426  0.560225  1
  Ta  Ta10  1  0.678863  0.320153  0.678863  1
  Ta  Ta11  1  0.933426  0.560225  0.933426  1
  Al  Al12  1  0.911580  0.911580  0.911580  1
  Al  Al13  1  0.997947  0.330794  0.330794  1
  Al  Al14  1  0.330794  0.997947  0.330794  1
  Al  Al15  1  0.330794  0.330794  0.997947  1
  Al  Al16  1  0.919206  0.252053  0.919206  1
  Al  Al17  1  0.919206  0.919206  0.252053  1
  Al  Al18  1  0.252053  0.919206  0.919206  1
  Al  Al19  1  0.338420  0.338420  0.338420  1
  Os  Os20  1  0.125000  0.125000  0.125000  1
  Au  Au21  1  0.625000  0.125000  0.125000  1
  Au  Au22  1  0.125000  0.625000  0.125000  1
  Au  Au23  1  0.125000  0.125000  0.625000  1
  C  C24  1  0.625000  0.625000  0.625000  1
  C  C25  1  0.125000  0.625000  0.625000  1
  C  C26  1  0.625000  0.125000  0.625000  1
  C  C27  1  0.625000  0.625000  0.125000  1
