# generated using pymatgen
data_LuZr5(PbC2)2
_symmetry_space_group_name_H-M   'P 1'
_cell_length_a   3.39261700
_cell_length_b   3.39261718
_cell_length_c   20.35132100
_cell_angle_alpha   90.00000000
_cell_angle_beta   90.00000000
_cell_angle_gamma   119.99998853
_symmetry_Int_Tables_number   1
_chemical_formula_structural   LuZr5(PbC2)2
_chemical_formula_sum   'Lu1 Zr5 Pb2 C4'
_cell_volume   202.85839117
_cell_formula_units_Z   1
loop_
 _symmetry_equiv_pos_site_id
 _symmetry_equiv_pos_as_xyz
  1  'x, y, z'
loop_
 _atom_site_type_symbol
 _atom_site_label
 _atom_site_symmetry_multiplicity
 _atom_site_fract_x
 _atom_site_fract_y
 _atom_site_fract_z
 _atom_site_occupancy
  Lu  Lu0  1  0.333334  0.666667  0.124554  1
  Zr  Zr1  1  0.000000  0.000000  0.996895  1
  Zr  Zr2  1  0.333334  0.666667  0.378017  1
  Zr  Zr3  1  0.000000  0.000000  0.502514  1
  Zr  Zr4  1  0.666666  0.333334  0.626712  1
  Zr  Zr5  1  0.666666  0.333334  0.870766  1
  Pb  Pb6  1  0.000000  0.000000  0.254837  1
  Pb  Pb7  1  0.000000  0.000000  0.749252  1
  C  C8  1  0.666666  0.333334  0.064054  1
  C  C9  1  0.666666  0.333334  0.433943  1
  C  C10  1  0.333334  0.666667  0.570841  1
  C  C11  1  0.333334  0.666667  0.927613  1
