# generated using pymatgen
data_Ho3Tm(Ga2Ag)4
_symmetry_space_group_name_H-M   'P 1'
_cell_length_a   4.37056800
_cell_length_b   6.93696535
_cell_length_c   10.23813862
_cell_angle_alpha   90.00354884
_cell_angle_beta   90.00000000
_cell_angle_gamma   90.00000000
_symmetry_Int_Tables_number   1
_chemical_formula_structural   Ho3Tm(Ga2Ag)4
_chemical_formula_sum   'Ho3 Tm1 Ga8 Ag4'
_cell_volume   310.40478771
_cell_formula_units_Z   1
loop_
 _symmetry_equiv_pos_site_id
 _symmetry_equiv_pos_as_xyz
  1  'x, y, z'
loop_
 _atom_site_type_symbol
 _atom_site_label
 _atom_site_symmetry_multiplicity
 _atom_site_fract_x
 _atom_site_fract_y
 _atom_site_fract_z
 _atom_site_occupancy
  Ho  Ho0  1  0.250000  0.779054  0.824681  1
  Ho  Ho1  1  0.750000  0.220888  0.175409  1
  Ho  Ho2  1  0.750000  0.720741  0.324496  1
  Tm  Tm3  1  0.250000  0.279217  0.675510  1
  Ga  Ga4  1  0.250000  0.928925  0.154585  1
  Ga  Ga5  1  0.750000  0.070784  0.845423  1
  Ga  Ga6  1  0.750000  0.570760  0.654631  1
  Ga  Ga7  1  0.250000  0.429211  0.345344  1
  Ga  Ga8  1  0.250000  0.701400  0.535877  1
  Ga  Ga9  1  0.750000  0.298922  0.464163  1
  Ga  Ga10  1  0.750000  0.798835  0.036046  1
  Ga  Ga11  1  0.250000  0.200868  0.964183  1
  Ag  Ag12  1  0.250000  0.544930  0.095714  1
  Ag  Ag13  1  0.750000  0.455084  0.904303  1
  Ag  Ag14  1  0.750000  0.955445  0.595577  1
  Ag  Ag15  1  0.250000  0.044936  0.404058  1
