# generated using pymatgen
data_Er2TcB8Ru
_symmetry_space_group_name_H-M   'P 1'
_cell_length_a   3.56264500
_cell_length_b   5.94318459
_cell_length_c   11.49660853
_cell_angle_alpha   90.19454176
_cell_angle_beta   90.00000000
_cell_angle_gamma   90.00000000
_symmetry_Int_Tables_number   1
_chemical_formula_structural   Er2TcB8Ru
_chemical_formula_sum   'Er4 Tc2 B16 Ru2'
_cell_volume   243.42154137
_cell_formula_units_Z   2
loop_
 _symmetry_equiv_pos_site_id
 _symmetry_equiv_pos_as_xyz
  1  'x, y, z'
loop_
 _atom_site_type_symbol
 _atom_site_label
 _atom_site_symmetry_multiplicity
 _atom_site_fract_x
 _atom_site_fract_y
 _atom_site_fract_z
 _atom_site_occupancy
  Er  Er0  1  0.000000  0.628936  0.351295  1
  Er  Er1  1  0.000000  0.371064  0.648705  1
  Er  Er2  1  0.000000  0.129401  0.150772  1
  Er  Er3  1  0.000000  0.870599  0.849228  1
  Tc  Tc4  1  0.000000  0.633678  0.088521  1
  Tc  Tc5  1  0.000000  0.366322  0.911479  1
  B  B6  1  0.500000  0.790574  0.185466  1
  B  B7  1  0.500000  0.209426  0.814534  1
  B  B8  1  0.500000  0.290548  0.314844  1
  B  B9  1  0.500000  0.709452  0.685156  1
  B  B10  1  0.500000  0.865344  0.031045  1
  B  B11  1  0.500000  0.134656  0.968955  1
  B  B12  1  0.500000  0.364496  0.469488  1
  B  B13  1  0.500000  0.635504  0.530512  1
  B  B14  1  0.500000  0.887309  0.452804  1
  B  B15  1  0.500000  0.112691  0.547196  1
  B  B16  1  0.500000  0.387136  0.047382  1
  B  B17  1  0.500000  0.612864  0.952618  1
  B  B18  1  0.500000  0.977196  0.307932  1
  B  B19  1  0.500000  0.022804  0.692068  1
  B  B20  1  0.500000  0.478504  0.193015  1
  B  B21  1  0.500000  0.521496  0.806985  1
  Ru  Ru22  1  0.000000  0.141058  0.407727  1
  Ru  Ru23  1  0.000000  0.858942  0.592273  1
