# generated using pymatgen
data_Ho3Fe3CoP6Ru5
_symmetry_space_group_name_H-M   'P 1'
_cell_length_a   3.84092600
_cell_length_b   10.72775300
_cell_length_c   12.49256400
_cell_angle_alpha   90.00000000
_cell_angle_beta   90.00000000
_cell_angle_gamma   90.00000000
_symmetry_Int_Tables_number   1
_chemical_formula_structural   Ho3Fe3CoP6Ru5
_chemical_formula_sum   'Ho6 Fe6 Co2 P12 Ru10'
_cell_volume   514.74992104
_cell_formula_units_Z   2
loop_
 _symmetry_equiv_pos_site_id
 _symmetry_equiv_pos_as_xyz
  1  'x, y, z'
loop_
 _atom_site_type_symbol
 _atom_site_label
 _atom_site_symmetry_multiplicity
 _atom_site_fract_x
 _atom_site_fract_y
 _atom_site_fract_z
 _atom_site_occupancy
  Ho  Ho0  1  0.000000  0.500000  0.528041  1
  Ho  Ho1  1  0.500000  0.000000  0.471959  1
  Ho  Ho2  1  0.500000  0.821995  0.199745  1
  Ho  Ho3  1  0.500000  0.178005  0.199745  1
  Ho  Ho4  1  0.000000  0.678005  0.800255  1
  Ho  Ho5  1  0.000000  0.321995  0.800255  1
  Fe  Fe6  1  0.000000  0.500000  0.984503  1
  Fe  Fe7  1  0.500000  0.000000  0.015497  1
  Fe  Fe8  1  0.500000  0.330785  0.991704  1
  Fe  Fe9  1  0.500000  0.669215  0.991704  1
  Fe  Fe10  1  0.000000  0.169215  0.008296  1
  Fe  Fe11  1  0.000000  0.830785  0.008296  1
  Co  Co12  1  0.500000  0.500000  0.700583  1
  Co  Co13  1  0.000000  0.000000  0.299417  1
  P  P14  1  0.500000  0.314291  0.618402  1
  P  P15  1  0.500000  0.685709  0.618402  1
  P  P16  1  0.000000  0.185709  0.381598  1
  P  P17  1  0.000000  0.814291  0.381598  1
  P  P18  1  0.500000  0.500000  0.884102  1
  P  P19  1  0.000000  0.000000  0.115898  1
  P  P20  1  0.500000  0.846029  0.902649  1
  P  P21  1  0.500000  0.153971  0.902649  1
  P  P22  1  0.000000  0.653971  0.097351  1
  P  P23  1  0.000000  0.346029  0.097351  1
  P  P24  1  0.500000  0.500000  0.334920  1
  P  P25  1  0.000000  0.000000  0.665080  1
  Ru  Ru26  1  0.500000  0.297929  0.427784  1
  Ru  Ru27  1  0.500000  0.702071  0.427784  1
  Ru  Ru28  1  0.000000  0.202071  0.572216  1
  Ru  Ru29  1  0.000000  0.797929  0.572216  1
  Ru  Ru30  1  0.500000  0.875157  0.718113  1
  Ru  Ru31  1  0.500000  0.124843  0.718113  1
  Ru  Ru32  1  0.000000  0.624843  0.281887  1
  Ru  Ru33  1  0.000000  0.375157  0.281887  1
  Ru  Ru34  1  0.500000  0.500000  0.145825  1
  Ru  Ru35  1  0.000000  0.000000  0.854175  1
