# generated using pymatgen
data_Er6Co17Si12Os
_symmetry_space_group_name_H-M   'P 1'
_cell_length_a   3.78370700
_cell_length_b   10.64927100
_cell_length_c   12.35768900
_cell_angle_alpha   90.00000000
_cell_angle_beta   90.00000000
_cell_angle_gamma   90.00000000
_symmetry_Int_Tables_number   1
_chemical_formula_structural   Er6Co17Si12Os
_chemical_formula_sum   'Er6 Co17 Si12 Os1'
_cell_volume   497.93727558
_cell_formula_units_Z   1
loop_
 _symmetry_equiv_pos_site_id
 _symmetry_equiv_pos_as_xyz
  1  'x, y, z'
loop_
 _atom_site_type_symbol
 _atom_site_label
 _atom_site_symmetry_multiplicity
 _atom_site_fract_x
 _atom_site_fract_y
 _atom_site_fract_z
 _atom_site_occupancy
  Er  Er0  1  0.750000  0.250000  0.473640  1
  Er  Er1  1  0.250000  0.750000  0.526073  1
  Er  Er2  1  0.250000  0.933466  0.794006  1
  Er  Er3  1  0.250000  0.566534  0.794006  1
  Er  Er4  1  0.750000  0.066095  0.203479  1
  Er  Er5  1  0.750000  0.433905  0.203479  1
  Co  Co6  1  0.750000  0.750000  0.152580  1
  Co  Co7  1  0.250000  0.250000  0.304815  1
  Co  Co8  1  0.750000  0.750000  0.695533  1
  Co  Co9  1  0.750000  0.250000  0.020095  1
  Co  Co10  1  0.250000  0.750000  0.979914  1
  Co  Co11  1  0.250000  0.421034  0.009088  1
  Co  Co12  1  0.250000  0.078966  0.009088  1
  Co  Co13  1  0.750000  0.582782  0.994033  1
  Co  Co14  1  0.750000  0.917218  0.994033  1
  Co  Co15  1  0.250000  0.448708  0.569065  1
  Co  Co16  1  0.250000  0.051292  0.569065  1
  Co  Co17  1  0.750000  0.551811  0.428695  1
  Co  Co18  1  0.750000  0.948189  0.428695  1
  Co  Co19  1  0.250000  0.867001  0.291836  1
  Co  Co20  1  0.250000  0.632999  0.291836  1
  Co  Co21  1  0.750000  0.131274  0.708430  1
  Co  Co22  1  0.750000  0.368726  0.708430  1
  Si  Si23  1  0.250000  0.250000  0.119885  1
  Si  Si24  1  0.750000  0.750000  0.880964  1
  Si  Si25  1  0.250000  0.250000  0.658153  1
  Si  Si26  1  0.750000  0.750000  0.338678  1
  Si  Si27  1  0.250000  0.445946  0.384551  1
  Si  Si28  1  0.250000  0.054054  0.384551  1
  Si  Si29  1  0.750000  0.554061  0.613437  1
  Si  Si30  1  0.750000  0.945939  0.613437  1
  Si  Si31  1  0.250000  0.895109  0.106924  1
  Si  Si32  1  0.250000  0.604891  0.106924  1
  Si  Si33  1  0.750000  0.099407  0.895776  1
  Si  Si34  1  0.750000  0.400593  0.895776  1
  Os  Os35  1  0.250000  0.250000  0.851025  1
