# generated using pymatgen
data_Er4Tm2TcBi2
_symmetry_space_group_name_H-M   'P 1'
_cell_length_a   8.21280614
_cell_length_b   8.21280493
_cell_length_c   4.26637700
_cell_angle_alpha   90.00000000
_cell_angle_beta   90.00000000
_cell_angle_gamma   119.98895230
_symmetry_Int_Tables_number   1
_chemical_formula_structural   Er4Tm2TcBi2
_chemical_formula_sum   'Er4 Tm2 Tc1 Bi2'
_cell_volume   249.24202850
_cell_formula_units_Z   1
loop_
 _symmetry_equiv_pos_site_id
 _symmetry_equiv_pos_as_xyz
  1  'x, y, z'
loop_
 _atom_site_type_symbol
 _atom_site_label
 _atom_site_symmetry_multiplicity
 _atom_site_fract_x
 _atom_site_fract_y
 _atom_site_fract_z
 _atom_site_occupancy
  Er  Er0  1  0.768079  0.768079  0.500000  1
  Er  Er1  1  0.610521  0.000213  0.000000  1
  Er  Er2  1  0.000213  0.610521  0.000000  1
  Er  Er3  1  0.389116  0.389116  0.000000  1
  Tm  Tm4  1  0.231631  0.000077  0.500000  1
  Tm  Tm5  1  0.000077  0.231631  0.500000  1
  Tc  Tc6  1  0.000794  0.000794  0.000000  1
  Bi  Bi7  1  0.332908  0.666658  0.500000  1
  Bi  Bi8  1  0.666658  0.332908  0.500000  1
