# generated using pymatgen
data_Dy4HoCo2Os
_symmetry_space_group_name_H-M   'P 1'
_cell_length_a   8.62771695
_cell_length_b   8.62771760
_cell_length_c   8.62771600
_cell_angle_alpha   131.37711245
_cell_angle_beta   131.37711985
_cell_angle_gamma   71.21460439
_symmetry_Int_Tables_number   1
_chemical_formula_structural   Dy4HoCo2Os
_chemical_formula_sum   'Dy8 Ho2 Co4 Os2'
_cell_volume   354.00257895
_cell_formula_units_Z   2
loop_
 _symmetry_equiv_pos_site_id
 _symmetry_equiv_pos_as_xyz
  1  'x, y, z'
loop_
 _atom_site_type_symbol
 _atom_site_label
 _atom_site_symmetry_multiplicity
 _atom_site_fract_x
 _atom_site_fract_y
 _atom_site_fract_z
 _atom_site_occupancy
  Dy  Dy0  1  0.678806  0.535275  0.500000  1
  Dy  Dy1  1  0.464725  0.964725  0.143531  1
  Dy  Dy2  1  0.821194  0.321194  0.856469  1
  Dy  Dy3  1  0.535275  0.035275  0.856469  1
  Dy  Dy4  1  0.035275  0.178806  0.500000  1
  Dy  Dy5  1  0.321194  0.464725  0.500000  1
  Dy  Dy6  1  0.178806  0.678806  0.143531  1
  Dy  Dy7  1  0.964725  0.821194  0.500000  1
  Ho  Ho8  1  0.000000  0.000000  0.000000  1
  Ho  Ho9  1  0.500000  0.500000  0.000000  1
  Co  Co10  1  0.112156  0.612156  0.724311  1
  Co  Co11  1  0.887844  0.387844  0.275689  1
  Co  Co12  1  0.612156  0.887844  0.500000  1
  Co  Co13  1  0.387844  0.112156  0.500000  1
  Os  Os14  1  0.250000  0.250000  0.000000  1
  Os  Os15  1  0.750000  0.750000  0.000000  1
