# generated using pymatgen
data_Ca4Pr16Ir11Ru
_symmetry_space_group_name_H-M   'P 1'
_cell_length_a   11.31790600
_cell_length_b   11.31790600
_cell_length_c   6.53598900
_cell_angle_alpha   90.00000000
_cell_angle_beta   90.00000000
_cell_angle_gamma   90.00000000
_symmetry_Int_Tables_number   1
_chemical_formula_structural   Ca4Pr16Ir11Ru
_chemical_formula_sum   'Ca4 Pr16 Ir11 Ru1'
_cell_volume   837.22748628
_cell_formula_units_Z   1
loop_
 _symmetry_equiv_pos_site_id
 _symmetry_equiv_pos_as_xyz
  1  'x, y, z'
loop_
 _atom_site_type_symbol
 _atom_site_label
 _atom_site_symmetry_multiplicity
 _atom_site_fract_x
 _atom_site_fract_y
 _atom_site_fract_z
 _atom_site_occupancy
  Ca  Ca0  1  0.000000  0.000000  0.498907  1
  Ca  Ca1  1  0.000000  0.000000  0.998829  1
  Ca  Ca2  1  0.500000  0.500000  0.998829  1
  Ca  Ca3  1  0.500000  0.500000  0.498907  1
  Pr  Pr4  1  0.290522  0.088908  0.382881  1
  Pr  Pr5  1  0.290637  0.911184  0.885147  1
  Pr  Pr6  1  0.709363  0.088816  0.885147  1
  Pr  Pr7  1  0.709478  0.911092  0.382881  1
  Pr  Pr8  1  0.588816  0.790637  0.885147  1
  Pr  Pr9  1  0.588908  0.209478  0.382881  1
  Pr  Pr10  1  0.411092  0.790522  0.382881  1
  Pr  Pr11  1  0.411184  0.209363  0.885147  1
  Pr  Pr12  1  0.210926  0.410009  0.617103  1
  Pr  Pr13  1  0.210825  0.589574  0.116449  1
  Pr  Pr14  1  0.789175  0.410426  0.116449  1
  Pr  Pr15  1  0.789074  0.589991  0.617103  1
  Pr  Pr16  1  0.910426  0.710825  0.116449  1
  Pr  Pr17  1  0.910009  0.289074  0.617103  1
  Pr  Pr18  1  0.089991  0.710926  0.617103  1
  Pr  Pr19  1  0.089574  0.289175  0.116449  1
  Ir  Ir20  1  0.843706  0.157044  0.250147  1
  Ir  Ir21  1  0.843846  0.843125  0.749234  1
  Ir  Ir22  1  0.156154  0.156875  0.749234  1
  Ir  Ir23  1  0.156294  0.842956  0.250147  1
  Ir  Ir24  1  0.656875  0.343846  0.749234  1
  Ir  Ir25  1  0.657044  0.656294  0.250147  1
  Ir  Ir26  1  0.342956  0.343706  0.250147  1
  Ir  Ir27  1  0.343125  0.656154  0.749234  1
  Ir  Ir28  1  0.500000  0.000000  0.616429  1
  Ir  Ir29  1  0.000000  0.500000  0.884731  1
  Ir  Ir30  1  0.000000  0.500000  0.385566  1
  Ru  Ru31  1  0.500000  0.000000  0.113961  1
