# generated using pymatgen
data_DyHo11(TmRh3)2
_symmetry_space_group_name_H-M   'P 1'
_cell_length_a   9.73251202
_cell_length_b   9.73263179
_cell_length_c   6.15193200
_cell_angle_alpha   89.99871878
_cell_angle_beta   90.00320909
_cell_angle_gamma   119.99219795
_symmetry_Int_Tables_number   1
_chemical_formula_structural   DyHo11(TmRh3)2
_chemical_formula_sum   'Dy1 Ho11 Tm2 Rh6'
_cell_volume   504.69794663
_cell_formula_units_Z   1
loop_
 _symmetry_equiv_pos_site_id
 _symmetry_equiv_pos_as_xyz
  1  'x, y, z'
loop_
 _atom_site_type_symbol
 _atom_site_label
 _atom_site_symmetry_multiplicity
 _atom_site_fract_x
 _atom_site_fract_y
 _atom_site_fract_z
 _atom_site_occupancy
  Dy  Dy0  1  0.123783  0.876224  0.253434  1
  Ho  Ho1  1  0.752242  0.876180  0.253706  1
  Ho  Ho2  1  0.123825  0.247769  0.253707  1
  Ho  Ho3  1  0.876194  0.123818  0.753713  1
  Ho  Ho4  1  0.247697  0.123934  0.753715  1
  Ho  Ho5  1  0.876087  0.752308  0.753701  1
  Ho  Ho6  1  0.540803  0.459175  0.447681  1
  Ho  Ho7  1  0.918331  0.459097  0.447560  1
  Ho  Ho8  1  0.540895  0.081671  0.447550  1
  Ho  Ho9  1  0.459194  0.540785  0.947574  1
  Ho  Ho10  1  0.081625  0.540723  0.947483  1
  Ho  Ho11  1  0.459263  0.918378  0.947499  1
  Tm  Tm12  1  0.333361  0.666631  0.456698  1
  Tm  Tm13  1  0.666672  0.333329  0.956647  1
  Rh  Rh14  1  0.809518  0.190504  0.180435  1
  Rh  Rh15  1  0.381168  0.190744  0.180429  1
  Rh  Rh16  1  0.809248  0.618822  0.180423  1
  Rh  Rh17  1  0.190552  0.809441  0.680708  1
  Rh  Rh18  1  0.619030  0.809487  0.680448  1
  Rh  Rh19  1  0.190512  0.380977  0.680431  1
