# generated using pymatgen
data_Yb2Co4B4Ir
_symmetry_space_group_name_H-M   'P 1'
_cell_length_a   7.17339922
_cell_length_b   5.89523781
_cell_length_c   5.46041369
_cell_angle_alpha   78.24848565
_cell_angle_beta   53.57107117
_cell_angle_gamma   48.18042856
_symmetry_Int_Tables_number   1
_chemical_formula_structural   Yb2Co4B4Ir
_chemical_formula_sum   'Yb2 Co4 B4 Ir1'
_cell_volume   131.14917803
_cell_formula_units_Z   1
loop_
 _symmetry_equiv_pos_site_id
 _symmetry_equiv_pos_as_xyz
  1  'x, y, z'
loop_
 _atom_site_type_symbol
 _atom_site_label
 _atom_site_symmetry_multiplicity
 _atom_site_fract_x
 _atom_site_fract_y
 _atom_site_fract_z
 _atom_site_occupancy
  Yb  Yb0  1  0.852788  0.852786  0.147213  1
  Yb  Yb1  1  0.147213  0.147212  0.852788  1
  Co  Co2  1  0.499999  0.500001  0.000000  1
  Co  Co3  1  0.249999  0.250001  0.250000  1
  Co  Co4  1  0.000000  0.000000  0.500001  1
  Co  Co5  1  0.750000  0.750001  0.750000  1
  B  B6  1  0.462518  0.799460  0.200539  1
  B  B7  1  0.200539  0.537482  0.462517  1
  B  B8  1  0.799462  0.462516  0.537483  1
  B  B9  1  0.537483  0.200538  0.799462  1
  Ir  Ir10  1  0.500001  0.499999  0.500000  1
