# generated using pymatgen
data_ZnCo3P4(PbO8)2
_symmetry_space_group_name_H-M   'P 1'
_cell_length_a   5.10987375
_cell_length_b   8.77395076
_cell_length_c   9.47375258
_cell_angle_alpha   113.86543003
_cell_angle_beta   102.56755213
_cell_angle_gamma   92.57055725
_symmetry_Int_Tables_number   1
_chemical_formula_structural   ZnCo3P4(PbO8)2
_chemical_formula_sum   'Zn1 Co3 P4 Pb2 O16'
_cell_volume   374.89613815
_cell_formula_units_Z   1
loop_
 _symmetry_equiv_pos_site_id
 _symmetry_equiv_pos_as_xyz
  1  'x, y, z'
loop_
 _atom_site_type_symbol
 _atom_site_label
 _atom_site_symmetry_multiplicity
 _atom_site_fract_x
 _atom_site_fract_y
 _atom_site_fract_z
 _atom_site_occupancy
  Zn  Zn0  1  0.843220  0.084441  0.299801  1
  Co  Co1  1  0.387468  0.608856  0.414892  1
  Co  Co2  1  0.612458  0.391229  0.585109  1
  Co  Co3  1  0.155385  0.914071  0.699674  1
  P  P4  1  0.895550  0.720489  0.311105  1
  P  P5  1  0.104099  0.279699  0.688615  1
  P  P6  1  0.686607  0.787918  0.805713  1
  P  P7  1  0.313791  0.212105  0.194623  1
  Pb  Pb8  1  0.225331  0.732011  0.040473  1
  Pb  Pb9  1  0.774573  0.267839  0.959428  1
  O  O10  1  0.978898  0.878785  0.287795  1
  O  O11  1  0.021582  0.121566  0.712358  1
  O  O12  1  0.976094  0.565485  0.185177  1
  O  O13  1  0.023675  0.434922  0.814625  1
  O  O14  1  0.592183  0.704435  0.308765  1
  O  O15  1  0.407717  0.295620  0.691188  1
  O  O16  1  0.079742  0.736066  0.476139  1
  O  O17  1  0.920310  0.264418  0.523471  1
  O  O18  1  0.578144  0.631864  0.637786  1
  O  O19  1  0.422092  0.368399  0.362469  1
  O  O20  1  0.000904  0.167432  0.166121  1
  O  O21  1  0.999672  0.832671  0.834343  1
  O  O22  1  0.451497  0.061974  0.207201  1
  O  O23  1  0.640240  0.741863  0.938434  1
  O  O24  1  0.359480  0.257820  0.061634  1
  O  O25  1  0.549289  0.938017  0.793061  1
