# generated using pymatgen
data_Ho4Ga16Ir2Ru
_symmetry_space_group_name_H-M   'P 1'
_cell_length_a   6.13019200
_cell_length_b   6.13019200
_cell_length_c   11.19397300
_cell_angle_alpha   90.00000000
_cell_angle_beta   90.00000000
_cell_angle_gamma   90.00000000
_symmetry_Int_Tables_number   1
_chemical_formula_structural   Ho4Ga16Ir2Ru
_chemical_formula_sum   'Ho4 Ga16 Ir2 Ru1'
_cell_volume   420.66115415
_cell_formula_units_Z   1
loop_
 _symmetry_equiv_pos_site_id
 _symmetry_equiv_pos_as_xyz
  1  'x, y, z'
loop_
 _atom_site_type_symbol
 _atom_site_label
 _atom_site_symmetry_multiplicity
 _atom_site_fract_x
 _atom_site_fract_y
 _atom_site_fract_z
 _atom_site_occupancy
  Ho  Ho0  1  0.000000  0.500000  0.193423  1
  Ho  Ho1  1  0.000000  0.500000  0.806577  1
  Ho  Ho2  1  0.500000  0.000000  0.806577  1
  Ho  Ho3  1  0.500000  0.000000  0.193423  1
  Ga  Ga4  1  0.000000  0.000000  0.221358  1
  Ga  Ga5  1  0.000000  0.000000  0.778642  1
  Ga  Ga6  1  0.500000  0.500000  0.194998  1
  Ga  Ga7  1  0.500000  0.500000  0.805002  1
  Ga  Ga8  1  0.286180  0.286180  0.000000  1
  Ga  Ga9  1  0.713820  0.713820  0.000000  1
  Ga  Ga10  1  0.286180  0.713820  0.000000  1
  Ga  Ga11  1  0.713820  0.286180  0.000000  1
  Ga  Ga12  1  0.248373  0.248373  0.378813  1
  Ga  Ga13  1  0.751627  0.751627  0.378813  1
  Ga  Ga14  1  0.248373  0.751627  0.621187  1
  Ga  Ga15  1  0.751627  0.248373  0.621187  1
  Ga  Ga16  1  0.751627  0.751627  0.621187  1
  Ga  Ga17  1  0.248373  0.248373  0.621187  1
  Ga  Ga18  1  0.248373  0.751627  0.378813  1
  Ga  Ga19  1  0.751627  0.248373  0.378813  1
  Ir  Ir20  1  0.000000  0.500000  0.500000  1
  Ir  Ir21  1  0.500000  0.000000  0.500000  1
  Ru  Ru22  1  0.000000  0.000000  0.000000  1
