# generated using pymatgen
data_Ti4ReSi3C
_symmetry_space_group_name_H-M   'P 1'
_cell_length_a   7.40071700
_cell_length_b   7.40071681
_cell_length_c   5.14333300
_cell_angle_alpha   90.00000000
_cell_angle_beta   90.00000000
_cell_angle_gamma   119.99999637
_symmetry_Int_Tables_number   1
_chemical_formula_structural   Ti4ReSi3C
_chemical_formula_sum   'Ti8 Re2 Si6 C2'
_cell_volume   243.96238722
_cell_formula_units_Z   2
loop_
 _symmetry_equiv_pos_site_id
 _symmetry_equiv_pos_as_xyz
  1  'x, y, z'
loop_
 _atom_site_type_symbol
 _atom_site_label
 _atom_site_symmetry_multiplicity
 _atom_site_fract_x
 _atom_site_fract_y
 _atom_site_fract_z
 _atom_site_occupancy
  Ti  Ti0  1  0.666667  0.333333  0.500000  1
  Ti  Ti1  1  0.333333  0.666667  0.500000  1
  Ti  Ti2  1  0.231244  0.000000  0.252690  1
  Ti  Ti3  1  0.768756  0.000000  0.747310  1
  Ti  Ti4  1  0.000000  0.231244  0.252690  1
  Ti  Ti5  1  0.000000  0.768756  0.747310  1
  Ti  Ti6  1  0.768756  0.768756  0.252690  1
  Ti  Ti7  1  0.231244  0.231244  0.747310  1
  Re  Re8  1  0.333333  0.666667  0.000000  1
  Re  Re9  1  0.666667  0.333333  0.000000  1
  Si  Si10  1  0.593344  0.000000  0.238381  1
  Si  Si11  1  0.406656  0.000000  0.761619  1
  Si  Si12  1  0.000000  0.593344  0.238381  1
  Si  Si13  1  0.000000  0.406656  0.761619  1
  Si  Si14  1  0.406656  0.406656  0.238381  1
  Si  Si15  1  0.593344  0.593344  0.761619  1
  C  C16  1  0.000000  0.000000  0.000000  1
  C  C17  1  0.000000  0.000000  0.500000  1
