# generated using pymatgen
data_Y3CoCu5Ni7B2
_symmetry_space_group_name_H-M   'P 1'
_cell_length_a   5.03298209
_cell_length_b   5.00078623
_cell_length_c   10.88012500
_cell_angle_alpha   89.99627577
_cell_angle_beta   90.00601991
_cell_angle_gamma   119.96864905
_symmetry_Int_Tables_number   1
_chemical_formula_structural   Y3CoCu5Ni7B2
_chemical_formula_sum   'Y3 Co1 Cu5 Ni7 B2'
_cell_volume   237.22764745
_cell_formula_units_Z   1
loop_
 _symmetry_equiv_pos_site_id
 _symmetry_equiv_pos_as_xyz
  1  'x, y, z'
loop_
 _atom_site_type_symbol
 _atom_site_label
 _atom_site_symmetry_multiplicity
 _atom_site_fract_x
 _atom_site_fract_y
 _atom_site_fract_z
 _atom_site_occupancy
  Y  Y0  1  0.000003  0.000018  0.001423  1
  Y  Y1  1  0.999996  0.999987  0.323443  1
  Y  Y2  1  0.000004  0.000000  0.672756  1
  Co  Co3  1  0.000031  0.499979  0.127359  1
  Cu  Cu4  1  0.500002  0.999996  0.499792  1
  Cu  Cu5  1  0.328750  0.661605  0.315950  1
  Cu  Cu6  1  0.671260  0.338369  0.315950  1
  Cu  Cu7  1  0.668413  0.336875  0.684048  1
  Cu  Cu8  1  0.331564  0.663127  0.684048  1
  Ni  Ni9  1  0.499969  0.499976  0.499972  1
  Ni  Ni10  1  0.999988  0.500015  0.499942  1
  Ni  Ni11  1  0.500033  0.000006  0.130283  1
  Ni  Ni12  1  0.500032  0.500001  0.130179  1
  Ni  Ni13  1  0.499954  0.000011  0.870863  1
  Ni  Ni14  1  0.499963  0.500012  0.871003  1
  Ni  Ni15  1  0.999960  0.500025  0.870176  1
  B  B16  1  0.327834  0.663895  0.001404  1
  B  B17  1  0.672146  0.336103  0.001405  1
