# generated using pymatgen
data_Tb5NdDy10Cd4IrPt3
_symmetry_space_group_name_H-M   'P 1'
_cell_length_a   9.71369503
_cell_length_b   9.68353584
_cell_length_c   9.68056500
_cell_angle_alpha   60.01014470
_cell_angle_beta   60.11275606
_cell_angle_gamma   60.04316025
_symmetry_Int_Tables_number   1
_chemical_formula_structural   Tb5NdDy10Cd4IrPt3
_chemical_formula_sum   'Tb5 Nd1 Dy10 Cd4 Ir1 Pt3'
_cell_volume   644.68552814
_cell_formula_units_Z   1
loop_
 _symmetry_equiv_pos_site_id
 _symmetry_equiv_pos_as_xyz
  1  'x, y, z'
loop_
 _atom_site_type_symbol
 _atom_site_label
 _atom_site_symmetry_multiplicity
 _atom_site_fract_x
 _atom_site_fract_y
 _atom_site_fract_z
 _atom_site_occupancy
  Tb  Tb0  1  0.937558  0.560964  0.564034  1
  Tb  Tb1  1  0.562895  0.937398  0.938065  1
  Tb  Tb2  1  0.562895  0.937398  0.561642  1
  Tb  Tb3  1  0.937558  0.560964  0.937445  1
  Tb  Tb4  1  0.566646  0.562895  0.935230  1
  Nd  Nd5  1  0.935894  0.935451  0.564327  1
  Dy  Dy6  1  0.353067  0.348923  0.347118  1
  Dy  Dy7  1  0.353067  0.348923  0.950892  1
  Dy  Dy8  1  0.356081  0.946829  0.348545  1
  Dy  Dy9  1  0.939939  0.355491  0.352285  1
  Dy  Dy10  1  0.807867  0.189912  0.188233  1
  Dy  Dy11  1  0.191766  0.810112  0.809846  1
  Dy  Dy12  1  0.191766  0.810112  0.188278  1
  Dy  Dy13  1  0.807867  0.189912  0.813990  1
  Dy  Dy14  1  0.191819  0.189599  0.809292  1
  Dy  Dy15  1  0.808672  0.815021  0.188154  1
  Cd  Cd16  1  0.580946  0.581444  0.582069  1
  Cd  Cd17  1  0.580946  0.581444  0.255540  1
  Cd  Cd18  1  0.578104  0.256317  0.582789  1
  Cd  Cd19  1  0.257844  0.578069  0.582043  1
  Ir  Ir20  1  0.572732  0.141742  0.142763  1
  Pt  Pt21  1  0.141971  0.144722  0.143272  1
  Pt  Pt22  1  0.141971  0.144722  0.570034  1
  Pt  Pt23  1  0.140137  0.571632  0.144114  1
