# generated using pymatgen
data_ErZrB6Ir
_symmetry_space_group_name_H-M   'P 1'
_cell_length_a   3.53975900
_cell_length_b   9.11645000
_cell_length_c   11.40247700
_cell_angle_alpha   90.00000000
_cell_angle_beta   90.00000000
_cell_angle_gamma   90.00000000
_symmetry_Int_Tables_number   1
_chemical_formula_structural   ErZrB6Ir
_chemical_formula_sum   'Er4 Zr4 B24 Ir4'
_cell_volume   367.95834254
_cell_formula_units_Z   4
loop_
 _symmetry_equiv_pos_site_id
 _symmetry_equiv_pos_as_xyz
  1  'x, y, z'
loop_
 _atom_site_type_symbol
 _atom_site_label
 _atom_site_symmetry_multiplicity
 _atom_site_fract_x
 _atom_site_fract_y
 _atom_site_fract_z
 _atom_site_occupancy
  Er  Er0  1  0.500000  0.322094  0.412857  1
  Er  Er1  1  0.500000  0.677906  0.587143  1
  Er  Er2  1  0.500000  0.177906  0.912857  1
  Er  Er3  1  0.500000  0.822094  0.087143  1
  Zr  Zr4  1  0.500000  0.445685  0.125720  1
  Zr  Zr5  1  0.500000  0.554315  0.874280  1
  Zr  Zr6  1  0.500000  0.054315  0.625720  1
  Zr  Zr7  1  0.500000  0.945685  0.374280  1
  B  B8  1  0.000000  0.104630  0.471502  1
  B  B9  1  0.000000  0.895370  0.528498  1
  B  B10  1  0.000000  0.395370  0.971502  1
  B  B11  1  0.000000  0.604630  0.028498  1
  B  B12  1  0.000000  0.131479  0.317035  1
  B  B13  1  0.000000  0.868521  0.682965  1
  B  B14  1  0.000000  0.368521  0.817035  1
  B  B15  1  0.000000  0.631479  0.182965  1
  B  B16  1  0.000000  0.052421  0.065620  1
  B  B17  1  0.000000  0.947579  0.934380  1
  B  B18  1  0.000000  0.447579  0.565620  1
  B  B19  1  0.000000  0.552421  0.434380  1
  B  B20  1  0.000000  0.479410  0.287903  1
  B  B21  1  0.000000  0.520590  0.712097  1
  B  B22  1  0.000000  0.020590  0.787903  1
  B  B23  1  0.000000  0.979410  0.212097  1
  B  B24  1  0.000000  0.252168  0.080007  1
  B  B25  1  0.000000  0.747832  0.919993  1
  B  B26  1  0.000000  0.247832  0.580007  1
  B  B27  1  0.000000  0.752168  0.419993  1
  B  B28  1  0.000000  0.297541  0.237563  1
  B  B29  1  0.000000  0.702459  0.762437  1
  B  B30  1  0.000000  0.202459  0.737563  1
  B  B31  1  0.000000  0.797541  0.262437  1
  Ir  Ir32  1  0.500000  0.141798  0.179218  1
  Ir  Ir33  1  0.500000  0.858202  0.820782  1
  Ir  Ir34  1  0.500000  0.358202  0.679218  1
  Ir  Ir35  1  0.500000  0.641798  0.320782  1
