# generated using pymatgen
data_Lu6Sc2Nb12Si15Sb
_symmetry_space_group_name_H-M   'P 1'
_cell_length_a   6.82334591
_cell_length_b   7.01685287
_cell_length_c   13.36543532
_cell_angle_alpha   89.96353717
_cell_angle_beta   90.42001678
_cell_angle_gamma   90.05868692
_symmetry_Int_Tables_number   1
_chemical_formula_structural   Lu6Sc2Nb12Si15Sb
_chemical_formula_sum   'Lu6 Sc2 Nb12 Si15 Sb1'
_cell_volume   639.89819432
_cell_formula_units_Z   1
loop_
 _symmetry_equiv_pos_site_id
 _symmetry_equiv_pos_as_xyz
  1  'x, y, z'
loop_
 _atom_site_type_symbol
 _atom_site_label
 _atom_site_symmetry_multiplicity
 _atom_site_fract_x
 _atom_site_fract_y
 _atom_site_fract_z
 _atom_site_occupancy
  Lu  Lu0  1  0.494684  0.670419  0.598621  1
  Lu  Lu1  1  0.000533  0.827038  0.904874  1
  Lu  Lu2  1  0.498636  0.326908  0.092694  1
  Lu  Lu3  1  0.014164  0.182618  0.400456  1
  Lu  Lu4  1  0.498024  0.332513  0.403485  1
  Lu  Lu5  1  0.998678  0.172829  0.093680  1
  Sc  Sc6  1  0.501339  0.676200  0.903945  1
  Sc  Sc7  1  0.005332  0.820033  0.602721  1
  Nb  Nb8  1  0.655514  0.182766  0.631091  1
  Nb  Nb9  1  0.160178  0.325320  0.875578  1
  Nb  Nb10  1  0.337665  0.825019  0.124022  1
  Nb  Nb11  1  0.847818  0.658999  0.370064  1
  Nb  Nb12  1  0.333384  0.824374  0.373528  1
  Nb  Nb13  1  0.837372  0.672725  0.123986  1
  Nb  Nb14  1  0.662846  0.174531  0.875107  1
  Nb  Nb15  1  0.160613  0.328799  0.627499  1
  Nb  Nb16  1  0.835801  0.495232  0.750570  1
  Nb  Nb17  1  0.335360  0.005544  0.750768  1
  Nb  Nb18  1  0.164003  0.505831  0.248589  1
  Nb  Nb19  1  0.664601  0.991569  0.245081  1
  Si  Si20  1  0.165491  0.535621  0.039157  1
  Si  Si21  1  0.336482  0.032342  0.958057  1
  Si  Si22  1  0.834323  0.465834  0.540802  1
  Si  Si23  1  0.314877  0.036846  0.543391  1
  Si  Si24  1  0.829421  0.467274  0.958634  1
  Si  Si25  1  0.664452  0.961620  0.038431  1
  Si  Si26  1  0.168419  0.540399  0.463322  1
  Si  Si27  1  0.455201  0.383859  0.754759  1
  Si  Si28  1  0.957686  0.117535  0.750025  1
  Si  Si29  1  0.541898  0.620286  0.248609  1
  Si  Si30  1  0.041448  0.881143  0.247932  1
  Si  Si31  1  0.702813  0.866715  0.751680  1
  Si  Si32  1  0.202898  0.633157  0.752870  1
  Si  Si33  1  0.299645  0.131895  0.247533  1
  Si  Si34  1  0.795857  0.364264  0.246626  1
  Sb  Sb35  1  0.682542  0.961939  0.461816  1
