# generated using pymatgen
data_Tb12CeLu3(CdCo)4
_symmetry_space_group_name_H-M   'P 1'
_cell_length_a   9.55641659
_cell_length_b   9.54381198
_cell_length_c   9.37965241
_cell_angle_alpha   60.53090379
_cell_angle_beta   60.47653987
_cell_angle_gamma   59.73910943
_symmetry_Int_Tables_number   1
_chemical_formula_structural   Tb12CeLu3(CdCo)4
_chemical_formula_sum   'Tb12 Ce1 Lu3 Cd4 Co4'
_cell_volume   608.24306001
_cell_formula_units_Z   1
loop_
 _symmetry_equiv_pos_site_id
 _symmetry_equiv_pos_as_xyz
  1  'x, y, z'
loop_
 _atom_site_type_symbol
 _atom_site_label
 _atom_site_symmetry_multiplicity
 _atom_site_fract_x
 _atom_site_fract_y
 _atom_site_fract_z
 _atom_site_occupancy
  Tb  Tb0  1  0.435485  0.055554  0.066012  1
  Tb  Tb1  1  0.809604  0.188410  0.811417  1
  Tb  Tb2  1  0.434433  0.054485  0.444865  1
  Tb  Tb3  1  0.595885  0.216480  0.593251  1
  Tb  Tb4  1  0.816602  0.815518  0.183327  1
  Tb  Tb5  1  0.216296  0.596028  0.594388  1
  Tb  Tb6  1  0.808800  0.189884  0.189741  1
  Tb  Tb7  1  0.054746  0.435813  0.443697  1
  Tb  Tb8  1  0.189442  0.809192  0.188283  1
  Tb  Tb9  1  0.600524  0.599787  0.208744  1
  Tb  Tb10  1  0.181509  0.179726  0.819045  1
  Tb  Tb11  1  0.055905  0.436436  0.065670  1
  Ce  Ce12  1  0.431708  0.432851  0.067465  1
  Lu  Lu13  1  0.598338  0.600424  0.592438  1
  Lu  Lu14  1  0.189971  0.808214  0.810659  1
  Lu  Lu15  1  0.061189  0.061241  0.440359  1
  Cd  Cd16  1  0.830658  0.830472  0.509245  1
  Cd  Cd17  1  0.832149  0.831250  0.829259  1
  Cd  Cd18  1  0.507717  0.832629  0.828866  1
  Cd  Cd19  1  0.832609  0.509020  0.828786  1
  Co  Co20  1  0.400966  0.400806  0.349746  1
  Co  Co21  1  0.825497  0.387690  0.394199  1
  Co  Co22  1  0.387922  0.825303  0.394643  1
  Co  Co23  1  0.402048  0.402787  0.845892  1
