# generated using pymatgen
data_Ta6Mn5Si6Ru
_symmetry_space_group_name_H-M   'P 1'
_cell_length_a   7.29136864
_cell_length_b   7.31673334
_cell_length_c   7.29407981
_cell_angle_alpha   127.84621833
_cell_angle_beta   122.08278817
_cell_angle_gamma   81.60816567
_symmetry_Int_Tables_number   1
_chemical_formula_structural   Ta6Mn5Si6Ru
_chemical_formula_sum   'Ta6 Mn5 Si6 Ru1'
_cell_volume   250.76209541
_cell_formula_units_Z   1
loop_
 _symmetry_equiv_pos_site_id
 _symmetry_equiv_pos_as_xyz
  1  'x, y, z'
loop_
 _atom_site_type_symbol
 _atom_site_label
 _atom_site_symmetry_multiplicity
 _atom_site_fract_x
 _atom_site_fract_y
 _atom_site_fract_z
 _atom_site_occupancy
  Ta  Ta0  1  0.558261  0.103073  0.051488  1
  Ta  Ta1  1  0.452939  0.489952  0.543705  1
  Ta  Ta2  1  0.964850  0.494351  0.021828  1
  Ta  Ta3  1  0.028808  0.060604  0.522225  1
  Ta  Ta4  1  0.749657  0.914002  0.661599  1
  Ta  Ta5  1  0.249755  0.914137  0.168492  1
  Mn  Mn6  1  0.846991  0.494809  0.591179  1
  Mn  Mn7  1  0.591201  0.742948  0.087469  1
  Mn  Mn8  1  0.407487  0.497868  0.153160  1
  Mn  Mn9  1  0.499589  0.250696  0.750589  1
  Mn  Mn10  1  0.999711  0.249833  0.250970  1
  Si  Si11  1  0.339171  0.829035  0.500607  1
  Si  Si12  1  0.661491  0.159438  0.488562  1
  Si  Si13  1  0.827137  0.828406  0.988953  1
  Si  Si14  1  0.172411  0.167679  0.003471  1
  Si  Si15  1  0.768758  0.524839  0.248670  1
  Si  Si16  1  0.228692  0.477744  0.758556  1
  Ru  Ru17  1  0.153092  0.742584  0.650479  1
