# generated using pymatgen
data_Eu6Mg2Cd21Sb
_symmetry_space_group_name_H-M   'P 1'
_cell_length_a   10.25690526
_cell_length_b   10.25690592
_cell_length_c   10.21625600
_cell_angle_alpha   60.13101442
_cell_angle_beta   60.13101231
_cell_angle_gamma   60.01031853
_symmetry_Int_Tables_number   1
_chemical_formula_structural   Eu6Mg2Cd21Sb
_chemical_formula_sum   'Eu6 Mg2 Cd21 Sb1'
_cell_volume   761.55392508
_cell_formula_units_Z   1
loop_
 _symmetry_equiv_pos_site_id
 _symmetry_equiv_pos_as_xyz
  1  'x, y, z'
loop_
 _atom_site_type_symbol
 _atom_site_label
 _atom_site_symmetry_multiplicity
 _atom_site_fract_x
 _atom_site_fract_y
 _atom_site_fract_z
 _atom_site_occupancy
  Eu  Eu0  1  0.783218  0.783218  0.216782  1
  Eu  Eu1  1  0.215509  0.784491  0.218692  1
  Eu  Eu2  1  0.784491  0.215509  0.218692  1
  Eu  Eu3  1  0.216782  0.216782  0.783218  1
  Eu  Eu4  1  0.784491  0.215509  0.781308  1
  Eu  Eu5  1  0.215509  0.784491  0.781308  1
  Mg  Mg6  1  0.500000  0.500000  0.000000  1
  Mg  Mg7  1  0.500000  0.500000  0.500000  1
  Cd  Cd8  1  0.831119  0.831119  0.505800  1
  Cd  Cd9  1  0.829840  0.502256  0.833952  1
  Cd  Cd10  1  0.502256  0.829840  0.833952  1
  Cd  Cd11  1  0.831119  0.831119  0.831961  1
  Cd  Cd12  1  0.168881  0.168881  0.494200  1
  Cd  Cd13  1  0.170160  0.497744  0.166048  1
  Cd  Cd14  1  0.497744  0.170160  0.166048  1
  Cd  Cd15  1  0.168881  0.168881  0.168039  1
  Cd  Cd16  1  0.620275  0.620275  0.135421  1
  Cd  Cd17  1  0.620119  0.136049  0.621915  1
  Cd  Cd18  1  0.136049  0.620119  0.621915  1
  Cd  Cd19  1  0.620275  0.620275  0.624027  1
  Cd  Cd20  1  0.379725  0.379725  0.864579  1
  Cd  Cd21  1  0.379881  0.863951  0.378085  1
  Cd  Cd22  1  0.863951  0.379881  0.378085  1
  Cd  Cd23  1  0.379725  0.379725  0.375973  1
  Cd  Cd24  1  0.000000  0.000000  0.500000  1
  Cd  Cd25  1  0.500000  0.000000  0.500000  1
  Cd  Cd26  1  0.000000  0.500000  0.500000  1
  Cd  Cd27  1  0.000000  0.500000  0.000000  1
  Cd  Cd28  1  0.500000  0.000000  0.000000  1
  Sb  Sb29  1  0.000000  0.000000  0.000000  1
