# generated using pymatgen
data_La5Pr(PtI3)2
_symmetry_space_group_name_H-M   'P 1'
_cell_length_a   11.06318415
_cell_length_b   11.05142046
_cell_length_c   11.05142009
_cell_angle_alpha   109.28766128
_cell_angle_beta   109.39519763
_cell_angle_gamma   109.68779030
_symmetry_Int_Tables_number   1
_chemical_formula_structural   La5Pr(PtI3)2
_chemical_formula_sum   'La10 Pr2 Pt4 I12'
_cell_volume   1040.68790462
_cell_formula_units_Z   2
loop_
 _symmetry_equiv_pos_site_id
 _symmetry_equiv_pos_as_xyz
  1  'x, y, z'
loop_
 _atom_site_type_symbol
 _atom_site_label
 _atom_site_symmetry_multiplicity
 _atom_site_fract_x
 _atom_site_fract_y
 _atom_site_fract_z
 _atom_site_occupancy
  La  La0  1  0.460870  0.480180  0.229151  1
  La  La1  1  0.747840  0.229869  0.268479  1
  La  La2  1  0.752160  0.020639  0.482030  1
  La  La3  1  0.230409  0.460912  0.481560  1
  La  La4  1  0.269591  0.751151  0.230503  1
  La  La5  1  0.039130  0.268280  0.019310  1
  La  La6  1  0.019930  0.038624  0.269584  1
  La  La7  1  0.480070  0.749654  0.018693  1
  La  La8  1  0.478940  0.229715  0.458959  1
  La  La9  1  0.021060  0.480019  0.750775  1
  Pr  Pr10  1  0.269581  0.019908  0.039102  1
  Pr  Pr11  1  0.230419  0.269520  0.750326  1
  Pt  Pt12  1  0.249808  0.250120  0.249633  1
  Pt  Pt13  1  0.500240  0.999413  0.249789  1
  Pt  Pt14  1  0.999760  0.249550  0.499173  1
  Pt  Pt15  1  0.250192  0.499825  0.000311  1
  I  I16  1  0.250430  0.759928  0.741819  1
  I  I17  1  0.517442  0.508676  0.758902  1
  I  I18  1  0.982558  0.741460  0.991234  1
  I  I19  1  0.740524  0.249578  0.759039  1
  I  I20  1  0.992181  0.982915  0.742013  1
  I  I21  1  0.249570  0.991389  0.509498  1
  I  I22  1  0.759476  0.518515  0.509054  1
  I  I23  1  0.507819  0.249832  0.990734  1
  I  I24  1  0.758796  0.741419  0.250005  1
  I  I25  1  0.741204  0.991209  0.982623  1
  I  I26  1  0.991046  0.508829  0.249917  1
  I  I27  1  0.508954  0.758871  0.517783  1
