# generated using pymatgen
data_DyHo5Al24NiOs6Ru
_symmetry_space_group_name_H-M   'P 1'
_cell_length_a   8.81668700
_cell_length_b   8.81953659
_cell_length_c   9.54859500
_cell_angle_alpha   90.00000000
_cell_angle_beta   90.00000000
_cell_angle_gamma   120.01068797
_symmetry_Int_Tables_number   1
_chemical_formula_structural   DyHo5Al24NiOs6Ru
_chemical_formula_sum   'Dy1 Ho5 Al24 Ni1 Os6 Ru1'
_cell_volume   642.94601833
_cell_formula_units_Z   1
loop_
 _symmetry_equiv_pos_site_id
 _symmetry_equiv_pos_as_xyz
  1  'x, y, z'
loop_
 _atom_site_type_symbol
 _atom_site_label
 _atom_site_symmetry_multiplicity
 _atom_site_fract_x
 _atom_site_fract_y
 _atom_site_fract_z
 _atom_site_occupancy
  Dy  Dy0  1  0.387811  0.193906  0.749461  1
  Ho  Ho1  1  0.194013  0.806003  0.250488  1
  Ho  Ho2  1  0.194013  0.388010  0.250488  1
  Ho  Ho3  1  0.612148  0.806074  0.250511  1
  Ho  Ho4  1  0.805814  0.194133  0.749460  1
  Ho  Ho5  1  0.805814  0.611680  0.749460  1
  Al  Al6  1  0.560567  0.439534  0.250174  1
  Al  Al7  1  0.560567  0.121033  0.250174  1
  Al  Al8  1  0.878906  0.439454  0.250175  1
  Al  Al9  1  0.439413  0.560898  0.749827  1
  Al  Al10  1  0.439413  0.878515  0.749827  1
  Al  Al11  1  0.121162  0.560581  0.749820  1
  Al  Al12  1  0.323362  0.161681  0.423166  1
  Al  Al13  1  0.838350  0.161690  0.423369  1
  Al  Al14  1  0.838350  0.676661  0.423369  1
  Al  Al15  1  0.676525  0.838262  0.576537  1
  Al  Al16  1  0.161669  0.838123  0.576515  1
  Al  Al17  1  0.161669  0.323546  0.576515  1
  Al  Al18  1  0.676994  0.838496  0.922574  1
  Al  Al19  1  0.161430  0.838332  0.922574  1
  Al  Al20  1  0.161430  0.323097  0.922574  1
  Al  Al21  1  0.322929  0.161465  0.077753  1
  Al  Al22  1  0.838572  0.161451  0.077536  1
  Al  Al23  1  0.838572  0.677123  0.077536  1
  Al  Al24  1  0.666801  0.333400  0.516774  1
  Al  Al25  1  0.333398  0.666700  0.483205  1
  Al  Al26  1  0.333426  0.666714  0.015815  1
  Al  Al27  1  0.666771  0.333385  0.984191  1
  Al  Al28  1  0.000061  0.000030  0.254981  1
  Al  Al29  1  0.999493  0.999747  0.745080  1
  Ni  Ni30  1  0.999988  0.999994  0.499980  1
  Os  Os31  1  0.500078  0.500157  0.499856  1
  Os  Os32  1  0.500078  0.999921  0.499856  1
  Os  Os33  1  0.000101  0.500051  0.499913  1
  Os  Os34  1  0.500059  0.500168  0.000149  1
  Os  Os35  1  0.500059  0.999891  0.000149  1
  Os  Os36  1  0.000120  0.500060  0.000097  1
  Ru  Ru37  1  0.000076  0.000038  0.000070  1
