# generated using pymatgen
data_NaAl3In2F12
_symmetry_space_group_name_H-M   'P 1'
_cell_length_a   7.12239000
_cell_length_b   7.20731034
_cell_length_c   10.05052402
_cell_angle_alpha   88.64504385
_cell_angle_beta   90.00000000
_cell_angle_gamma   90.00000000
_symmetry_Int_Tables_number   1
_chemical_formula_structural   NaAl3In2F12
_chemical_formula_sum   'Na2 Al6 In4 F24'
_cell_volume   515.78205515
_cell_formula_units_Z   2
loop_
 _symmetry_equiv_pos_site_id
 _symmetry_equiv_pos_as_xyz
  1  'x, y, z'
loop_
 _atom_site_type_symbol
 _atom_site_label
 _atom_site_symmetry_multiplicity
 _atom_site_fract_x
 _atom_site_fract_y
 _atom_site_fract_z
 _atom_site_occupancy
  Na  Na0  1  0.750000  0.774580  0.246155  1
  Na  Na1  1  0.250000  0.225420  0.753845  1
  Al  Al2  1  0.000000  0.500000  0.000000  1
  Al  Al3  1  0.250000  0.716166  0.732977  1
  Al  Al4  1  0.750000  0.283834  0.267023  1
  Al  Al5  1  0.500000  0.000000  0.500000  1
  Al  Al6  1  0.500000  0.500000  0.000000  1
  Al  Al7  1  0.000000  0.000000  0.500000  1
  In  In8  1  0.250000  0.551801  0.375402  1
  In  In9  1  0.250000  0.976672  0.093308  1
  In  In10  1  0.750000  0.448199  0.624598  1
  In  In11  1  0.750000  0.023328  0.906692  1
  F  F12  1  0.434762  0.816567  0.623537  1
  F  F13  1  0.028359  0.837442  0.369146  1
  F  F14  1  0.471100  0.274774  0.929879  1
  F  F15  1  0.971641  0.162558  0.630854  1
  F  F16  1  0.934762  0.183433  0.376463  1
  F  F17  1  0.250000  0.500468  0.052506  1
  F  F18  1  0.435131  0.608461  0.838267  1
  F  F19  1  0.250000  0.070729  0.485904  1
  F  F20  1  0.971100  0.725226  0.070121  1
  F  F21  1  0.250000  0.511276  0.634793  1
  F  F22  1  0.028900  0.274774  0.929879  1
  F  F23  1  0.564869  0.391539  0.161733  1
  F  F24  1  0.935131  0.391539  0.161733  1
  F  F25  1  0.750000  0.499532  0.947494  1
  F  F26  1  0.065238  0.816567  0.623537  1
  F  F27  1  0.250000  0.918238  0.832647  1
  F  F28  1  0.750000  0.081762  0.167353  1
  F  F29  1  0.471641  0.837442  0.369146  1
  F  F30  1  0.750000  0.488724  0.365207  1
  F  F31  1  0.528359  0.162558  0.630854  1
  F  F32  1  0.565238  0.183433  0.376463  1
  F  F33  1  0.064869  0.608461  0.838267  1
  F  F34  1  0.750000  0.929271  0.514096  1
  F  F35  1  0.528900  0.725226  0.070121  1
