# generated using pymatgen
data_LaPr7(Si3Pd)4
_symmetry_space_group_name_H-M   'P 1'
_cell_length_a   8.29260363
_cell_length_b   8.29260435
_cell_length_c   8.65058200
_cell_angle_alpha   90.00000000
_cell_angle_beta   90.00000000
_cell_angle_gamma   119.82535025
_symmetry_Int_Tables_number   1
_chemical_formula_structural   LaPr7(Si3Pd)4
_chemical_formula_sum   'La1 Pr7 Si12 Pd4'
_cell_volume   516.08285786
_cell_formula_units_Z   1
loop_
 _symmetry_equiv_pos_site_id
 _symmetry_equiv_pos_as_xyz
  1  'x, y, z'
loop_
 _atom_site_type_symbol
 _atom_site_label
 _atom_site_symmetry_multiplicity
 _atom_site_fract_x
 _atom_site_fract_y
 _atom_site_fract_z
 _atom_site_occupancy
  La  La0  1  0.499103  0.500897  0.750000  1
  Pr  Pr1  1  0.500941  0.499059  0.250000  1
  Pr  Pr2  1  0.001915  0.500943  0.750000  1
  Pr  Pr3  1  0.998040  0.498923  0.250000  1
  Pr  Pr4  1  0.499057  0.998085  0.750000  1
  Pr  Pr5  1  0.501077  0.001960  0.250000  1
  Pr  Pr6  1  0.000008  0.999992  0.750000  1
  Pr  Pr7  1  0.999963  0.000037  0.250000  1
  Si  Si8  1  0.834583  0.165417  0.001298  1
  Si  Si9  1  0.165388  0.834612  0.998983  1
  Si  Si10  1  0.330645  0.164661  0.001548  1
  Si  Si11  1  0.165388  0.834612  0.501017  1
  Si  Si12  1  0.669416  0.835376  0.999496  1
  Si  Si13  1  0.834583  0.165417  0.498702  1
  Si  Si14  1  0.835339  0.669355  0.001548  1
  Si  Si15  1  0.669416  0.835376  0.500504  1
  Si  Si16  1  0.164624  0.330584  0.999496  1
  Si  Si17  1  0.330645  0.164661  0.498452  1
  Si  Si18  1  0.164624  0.330584  0.500504  1
  Si  Si19  1  0.835339  0.669355  0.498452  1
  Pd  Pd20  1  0.666515  0.333485  0.996465  1
  Pd  Pd21  1  0.333439  0.666561  0.004585  1
  Pd  Pd22  1  0.333439  0.666561  0.495415  1
  Pd  Pd23  1  0.666515  0.333485  0.503535  1
