# generated using pymatgen
data_Li2Ac3MgTl2In
_symmetry_space_group_name_H-M   'P 1'
_cell_length_a   7.85556376
_cell_length_b   8.06090403
_cell_length_c   5.08596700
_cell_angle_alpha   90.00000000
_cell_angle_beta   90.00000000
_cell_angle_gamma   120.86853790
_symmetry_Int_Tables_number   1
_chemical_formula_structural   Li2Ac3MgTl2In
_chemical_formula_sum   'Li2 Ac3 Mg1 Tl2 In1'
_cell_volume   276.43779724
_cell_formula_units_Z   1
loop_
 _symmetry_equiv_pos_site_id
 _symmetry_equiv_pos_as_xyz
  1  'x, y, z'
loop_
 _atom_site_type_symbol
 _atom_site_label
 _atom_site_symmetry_multiplicity
 _atom_site_fract_x
 _atom_site_fract_y
 _atom_site_fract_z
 _atom_site_occupancy
  Li  Li0  1  0.775972  0.770516  0.500000  1
  Li  Li1  1  0.224028  0.994544  0.500000  1
  Ac  Ac2  1  0.000000  0.567202  0.000000  1
  Ac  Ac3  1  0.425970  0.432498  0.000000  1
  Ac  Ac4  1  0.574030  0.006527  0.000000  1
  Mg  Mg5  1  0.000000  0.223190  0.500000  1
  Tl  Tl6  1  0.665670  0.340259  0.500000  1
  Tl  Tl7  1  0.334330  0.674590  0.500000  1
  In  In8  1  0.000000  0.990675  0.000000  1
