# generated using pymatgen
data_TiAl7Ru8
_symmetry_space_group_name_H-M   'P 1'
_cell_length_a   6.02189901
_cell_length_b   6.01630700
_cell_length_c   6.02169400
_cell_angle_alpha   90.00173326
_cell_angle_beta   90.00384389
_cell_angle_gamma   89.99872375
_symmetry_Int_Tables_number   1
_chemical_formula_structural   TiAl7Ru8
_chemical_formula_sum   'Ti1 Al7 Ru8'
_cell_volume   218.16352343
_cell_formula_units_Z   1
loop_
 _symmetry_equiv_pos_site_id
 _symmetry_equiv_pos_as_xyz
  1  'x, y, z'
loop_
 _atom_site_type_symbol
 _atom_site_label
 _atom_site_symmetry_multiplicity
 _atom_site_fract_x
 _atom_site_fract_y
 _atom_site_fract_z
 _atom_site_occupancy
  Ti  Ti0  1  0.999930  0.749891  0.499955  1
  Al  Al1  1  0.000080  0.250117  0.000087  1
  Al  Al2  1  0.000098  0.749899  0.000105  1
  Al  Al3  1  0.499972  0.250118  0.499892  1
  Al  Al4  1  0.499894  0.749899  0.499901  1
  Al  Al5  1  0.499903  0.250118  0.000100  1
  Al  Al6  1  0.499992  0.749871  0.000081  1
  Al  Al7  1  0.000109  0.250126  0.499903  1
  Ru  Ru8  1  0.251358  0.498652  0.248643  1
  Ru  Ru9  1  0.251367  0.001356  0.248642  1
  Ru  Ru10  1  0.748657  0.498624  0.248648  1
  Ru  Ru11  1  0.748658  0.001377  0.248645  1
  Ru  Ru12  1  0.251345  0.498641  0.751342  1
  Ru  Ru13  1  0.251342  0.001336  0.751327  1
  Ru  Ru14  1  0.748636  0.498601  0.751373  1
  Ru  Ru15  1  0.748656  0.001373  0.751352  1
