# generated using pymatgen
data_Pr5Ag3(PRh3)4
_symmetry_space_group_name_H-M   'P 1'
_cell_length_a   4.12776300
_cell_length_b   4.12776300
_cell_length_c   24.95846600
_cell_angle_alpha   90.00000000
_cell_angle_beta   90.00000000
_cell_angle_gamma   90.00000000
_symmetry_Int_Tables_number   1
_chemical_formula_structural   Pr5Ag3(PRh3)4
_chemical_formula_sum   'Pr5 Ag3 P4 Rh12'
_cell_volume   425.25301056
_cell_formula_units_Z   1
loop_
 _symmetry_equiv_pos_site_id
 _symmetry_equiv_pos_as_xyz
  1  'x, y, z'
loop_
 _atom_site_type_symbol
 _atom_site_label
 _atom_site_symmetry_multiplicity
 _atom_site_fract_x
 _atom_site_fract_y
 _atom_site_fract_z
 _atom_site_occupancy
  Pr  Pr0  1  0.000000  0.000000  0.888106  1
  Pr  Pr1  1  0.000000  0.000000  0.111894  1
  Pr  Pr2  1  0.000000  0.000000  0.307137  1
  Pr  Pr3  1  0.000000  0.000000  0.500000  1
  Pr  Pr4  1  0.000000  0.000000  0.692863  1
  Ag  Ag5  1  0.500000  0.500000  0.500000  1
  Ag  Ag6  1  0.500000  0.000000  0.000000  1
  Ag  Ag7  1  0.000000  0.500000  0.000000  1
  P  P8  1  0.500000  0.500000  0.165637  1
  P  P9  1  0.500000  0.500000  0.371937  1
  P  P10  1  0.500000  0.500000  0.628063  1
  P  P11  1  0.500000  0.500000  0.834363  1
  Rh  Rh12  1  0.500000  0.500000  0.924636  1
  Rh  Rh13  1  0.500000  0.500000  0.075364  1
  Rh  Rh14  1  0.500000  0.500000  0.283742  1
  Rh  Rh15  1  0.500000  0.500000  0.716258  1
  Rh  Rh16  1  0.500000  0.000000  0.209401  1
  Rh  Rh17  1  0.500000  0.000000  0.413377  1
  Rh  Rh18  1  0.500000  0.000000  0.586623  1
  Rh  Rh19  1  0.500000  0.000000  0.790599  1
  Rh  Rh20  1  0.000000  0.500000  0.209401  1
  Rh  Rh21  1  0.000000  0.500000  0.413377  1
  Rh  Rh22  1  0.000000  0.500000  0.586623  1
  Rh  Rh23  1  0.000000  0.500000  0.790599  1
