# generated using pymatgen
data_Tm20(PtRh3)3
_symmetry_space_group_name_H-M   'P 1'
_cell_length_a   10.81923104
_cell_length_b   10.81923111
_cell_length_c   6.27533700
_cell_angle_alpha   89.98410806
_cell_angle_beta   89.98410765
_cell_angle_gamma   90.19625608
_symmetry_Int_Tables_number   1
_chemical_formula_structural   Tm20(PtRh3)3
_chemical_formula_sum   'Tm20 Pt3 Rh9'
_cell_volume   734.55998202
_cell_formula_units_Z   1
loop_
 _symmetry_equiv_pos_site_id
 _symmetry_equiv_pos_as_xyz
  1  'x, y, z'
loop_
 _atom_site_type_symbol
 _atom_site_label
 _atom_site_symmetry_multiplicity
 _atom_site_fract_x
 _atom_site_fract_y
 _atom_site_fract_z
 _atom_site_occupancy
  Tm  Tm0  1  0.293236  0.086532  0.372356  1
  Tm  Tm1  1  0.292700  0.909721  0.876416  1
  Tm  Tm2  1  0.706130  0.088756  0.874161  1
  Tm  Tm3  1  0.704901  0.911032  0.373866  1
  Tm  Tm4  1  0.585703  0.791001  0.877288  1
  Tm  Tm5  1  0.586175  0.208980  0.377247  1
  Tm  Tm6  1  0.410914  0.790963  0.377452  1
  Tm  Tm7  1  0.413490  0.208965  0.876894  1
  Tm  Tm8  1  0.208999  0.414297  0.622712  1
  Tm  Tm9  1  0.209037  0.589086  0.122548  1
  Tm  Tm10  1  0.791020  0.413825  0.122753  1
  Tm  Tm11  1  0.791035  0.586510  0.623106  1
  Tm  Tm12  1  0.913468  0.706764  0.127644  1
  Tm  Tm13  1  0.911244  0.293870  0.625839  1
  Tm  Tm14  1  0.090279  0.707300  0.623584  1
  Tm  Tm15  1  0.088968  0.295099  0.126134  1
  Tm  Tm16  1  0.000947  0.998239  0.499654  1
  Tm  Tm17  1  0.001761  0.999053  0.000346  1
  Tm  Tm18  1  0.499746  0.499830  0.000428  1
  Tm  Tm19  1  0.500170  0.500254  0.499572  1
  Pt  Pt20  1  0.846253  0.153747  0.250000  1
  Pt  Pt21  1  0.845071  0.845464  0.750147  1
  Pt  Pt22  1  0.154536  0.154929  0.749853  1
  Rh  Rh23  1  0.153240  0.846760  0.250000  1
  Rh  Rh24  1  0.654324  0.345676  0.750000  1
  Rh  Rh25  1  0.654888  0.654464  0.249525  1
  Rh  Rh26  1  0.345536  0.345112  0.250475  1
  Rh  Rh27  1  0.346249  0.653751  0.750000  1
  Rh  Rh28  1  0.499899  0.999836  0.122094  1
  Rh  Rh29  1  0.499964  0.000042  0.623268  1
  Rh  Rh30  1  0.999958  0.500036  0.876732  1
  Rh  Rh31  1  0.000164  0.500101  0.377906  1
