# generated using pymatgen
data_La13Nd7Ir11Ru
_symmetry_space_group_name_H-M   'P 1'
_cell_length_a   11.40056409
_cell_length_b   11.36813199
_cell_length_c   6.63093246
_cell_angle_alpha   90.00875923
_cell_angle_beta   90.09794667
_cell_angle_gamma   89.93280252
_symmetry_Int_Tables_number   1
_chemical_formula_structural   La13Nd7Ir11Ru
_chemical_formula_sum   'La13 Nd7 Ir11 Ru1'
_cell_volume   859.38766109
_cell_formula_units_Z   1
loop_
 _symmetry_equiv_pos_site_id
 _symmetry_equiv_pos_as_xyz
  1  'x, y, z'
loop_
 _atom_site_type_symbol
 _atom_site_label
 _atom_site_symmetry_multiplicity
 _atom_site_fract_x
 _atom_site_fract_y
 _atom_site_fract_z
 _atom_site_occupancy
  La  La0  1  0.708350  0.911106  0.385806  1
  La  La1  1  0.588455  0.793838  0.890010  1
  La  La2  1  0.589231  0.207094  0.386438  1
  La  La3  1  0.409241  0.793248  0.386358  1
  La  La4  1  0.410582  0.205442  0.890008  1
  La  La5  1  0.209782  0.407971  0.613824  1
  La  La6  1  0.209678  0.591549  0.113300  1
  La  La7  1  0.790446  0.408296  0.113493  1
  La  La8  1  0.790399  0.591587  0.614645  1
  La  La9  1  0.909809  0.709381  0.113233  1
  La  La10  1  0.908710  0.290043  0.614822  1
  La  La11  1  0.091652  0.710064  0.614134  1
  La  La12  1  0.090887  0.290139  0.114013  1
  Nd  Nd13  1  0.291479  0.088607  0.385460  1
  Nd  Nd14  1  0.291668  0.911532  0.887678  1
  Nd  Nd15  1  0.708374  0.089525  0.887744  1
  Nd  Nd16  1  0.000919  0.000584  0.499378  1
  Nd  Nd17  1  0.000190  0.999843  0.998361  1
  Nd  Nd18  1  0.500016  0.499992  0.997735  1
  Nd  Nd19  1  0.499666  0.500069  0.498059  1
  Ir  Ir20  1  0.847900  0.154405  0.250433  1
  Ir  Ir21  1  0.847076  0.846655  0.750133  1
  Ir  Ir22  1  0.152579  0.153463  0.750683  1
  Ir  Ir23  1  0.152560  0.846359  0.250877  1
  Ir  Ir24  1  0.653847  0.346719  0.749515  1
  Ir  Ir25  1  0.654167  0.652643  0.249961  1
  Ir  Ir26  1  0.345937  0.346755  0.249772  1
  Ir  Ir27  1  0.346037  0.653124  0.749540  1
  Ir  Ir28  1  0.499715  0.000237  0.616980  1
  Ir  Ir29  1  0.999919  0.500180  0.881735  1
  Ir  Ir30  1  0.000074  0.499818  0.382006  1
  Ru  Ru31  1  0.500655  0.999737  0.113868  1
