# generated using pymatgen
data_Dy5Mo3P12(Ir3Rh5)2
_symmetry_space_group_name_H-M   'P 1'
_cell_length_a   12.69768701
_cell_length_b   12.69554286
_cell_length_c   3.94751600
_cell_angle_alpha   90.00000000
_cell_angle_beta   90.00000000
_cell_angle_gamma   120.00980681
_symmetry_Int_Tables_number   1
_chemical_formula_structural   Dy5Mo3P12(Ir3Rh5)2
_chemical_formula_sum   'Dy5 Mo3 P12 Ir6 Rh10'
_cell_volume   551.04554915
_cell_formula_units_Z   1
loop_
 _symmetry_equiv_pos_site_id
 _symmetry_equiv_pos_as_xyz
  1  'x, y, z'
loop_
 _atom_site_type_symbol
 _atom_site_label
 _atom_site_symmetry_multiplicity
 _atom_site_fract_x
 _atom_site_fract_y
 _atom_site_fract_z
 _atom_site_occupancy
  Dy  Dy0  1  0.333321  0.666765  0.500000  1
  Dy  Dy1  1  0.666850  0.333419  0.500000  1
  Dy  Dy2  1  0.999989  0.812535  0.000000  1
  Dy  Dy3  1  0.187443  0.187521  0.000000  1
  Dy  Dy4  1  0.812506  0.999993  0.000000  1
  Mo  Mo5  1  0.000195  0.452259  0.500000  1
  Mo  Mo6  1  0.548296  0.548227  0.500000  1
  Mo  Mo7  1  0.451941  0.999614  0.500000  1
  P  P8  1  0.999945  0.637507  0.500000  1
  P  P9  1  0.362448  0.362556  0.500000  1
  P  P10  1  0.637624  0.000202  0.500000  1
  P  P11  1  0.516345  0.682318  0.000000  1
  P  P12  1  0.317178  0.833548  0.000000  1
  P  P13  1  0.166407  0.483580  0.000000  1
  P  P14  1  0.483082  0.166269  0.000000  1
  P  P15  1  0.682437  0.516329  0.000000  1
  P  P16  1  0.833604  0.316952  0.000000  1
  P  P17  1  0.000276  0.177366  0.500000  1
  P  P18  1  0.822801  0.823103  0.500000  1
  P  P19  1  0.177434  0.000079  0.500000  1
  Ir  Ir20  1  0.867713  0.511317  0.000000  1
  Ir  Ir21  1  0.643495  0.132167  0.000000  1
  Ir  Ir22  1  0.999904  0.284031  0.000000  1
  Ir  Ir23  1  0.716176  0.716115  0.000000  1
  Ir  Ir24  1  0.283960  0.999962  0.000000  1
  Ir  Ir25  1  0.000170  0.000093  0.500000  1
  Rh  Rh26  1  0.512262  0.868627  0.000000  1
  Rh  Rh27  1  0.131088  0.643404  0.000000  1
  Rh  Rh28  1  0.356237  0.487262  0.000000  1
  Rh  Rh29  1  0.487821  0.356361  0.000000  1
  Rh  Rh30  1  0.624310  0.802966  0.500000  1
  Rh  Rh31  1  0.197027  0.821265  0.500000  1
  Rh  Rh32  1  0.178438  0.375937  0.500000  1
  Rh  Rh33  1  0.375936  0.178555  0.500000  1
  Rh  Rh34  1  0.803640  0.625342  0.500000  1
  Rh  Rh35  1  0.821704  0.196453  0.500000  1
