# generated using pymatgen
data_Ho3Lu3Si2Os
_symmetry_space_group_name_H-M   'P 1'
_cell_length_a   7.61073700
_cell_length_b   7.61073624
_cell_length_c   4.30562900
_cell_angle_alpha   90.00000000
_cell_angle_beta   90.00000000
_cell_angle_gamma   119.99999894
_symmetry_Int_Tables_number   1
_chemical_formula_structural   Ho3Lu3Si2Os
_chemical_formula_sum   'Ho3 Lu3 Si2 Os1'
_cell_volume   215.98352649
_cell_formula_units_Z   1
loop_
 _symmetry_equiv_pos_site_id
 _symmetry_equiv_pos_as_xyz
  1  'x, y, z'
loop_
 _atom_site_type_symbol
 _atom_site_label
 _atom_site_symmetry_multiplicity
 _atom_site_fract_x
 _atom_site_fract_y
 _atom_site_fract_z
 _atom_site_occupancy
  Ho  Ho0  1  0.401768  0.000000  0.000000  1
  Ho  Ho1  1  0.000000  0.401768  0.000000  1
  Ho  Ho2  1  0.598232  0.598232  0.000000  1
  Lu  Lu3  1  0.748544  0.000000  0.499999  1
  Lu  Lu4  1  0.251456  0.251456  0.499999  1
  Lu  Lu5  1  0.000000  0.748544  0.499999  1
  Si  Si6  1  0.666667  0.333334  0.499999  1
  Si  Si7  1  0.333334  0.666667  0.499999  1
  Os  Os8  1  0.000000  0.000000  0.000000  1
