# generated using pymatgen
data_Dy3HoGa18(RuPt2)2
_symmetry_space_group_name_H-M   'P 1'
_cell_length_a   7.64310007
_cell_length_b   7.64305015
_cell_length_c   9.50928000
_cell_angle_alpha   90.00343706
_cell_angle_beta   89.99833621
_cell_angle_gamma   119.77417613
_symmetry_Int_Tables_number   1
_chemical_formula_structural   Dy3HoGa18(RuPt2)2
_chemical_formula_sum   'Dy3 Ho1 Ga18 Ru2 Pt4'
_cell_volume   482.16789566
_cell_formula_units_Z   1
loop_
 _symmetry_equiv_pos_site_id
 _symmetry_equiv_pos_as_xyz
  1  'x, y, z'
loop_
 _atom_site_type_symbol
 _atom_site_label
 _atom_site_symmetry_multiplicity
 _atom_site_fract_x
 _atom_site_fract_y
 _atom_site_fract_z
 _atom_site_occupancy
  Dy  Dy0  1  0.673551  0.997775  0.250336  1
  Dy  Dy1  1  0.002223  0.326435  0.749665  1
  Dy  Dy2  1  0.997760  0.673548  0.249756  1
  Ho  Ho3  1  0.326418  0.002238  0.750245  1
  Ga  Ga4  1  0.864284  0.864248  0.750002  1
  Ga  Ga5  1  0.135777  0.135768  0.249998  1
  Ga  Ga6  1  0.662060  0.667857  0.432274  1
  Ga  Ga7  1  0.337948  0.332085  0.932213  1
  Ga  Ga8  1  0.667856  0.662049  0.067740  1
  Ga  Ga9  1  0.332152  0.337881  0.567769  1
  Ga  Ga10  1  0.449943  0.660922  0.746762  1
  Ga  Ga11  1  0.550035  0.339097  0.246779  1
  Ga  Ga12  1  0.660855  0.449898  0.753226  1
  Ga  Ga13  1  0.339100  0.550037  0.253235  1
  Ga  Ga14  1  0.994082  0.335674  0.081941  1
  Ga  Ga15  1  0.005999  0.664408  0.581959  1
  Ga  Ga16  1  0.335669  0.994088  0.418124  1
  Ga  Ga17  1  0.664258  0.005925  0.918021  1
  Ga  Ga18  1  0.994696  0.658206  0.918463  1
  Ga  Ga19  1  0.005350  0.341853  0.418521  1
  Ga  Ga20  1  0.658091  0.994652  0.581519  1
  Ga  Ga21  1  0.341862  0.005361  0.081457  1
  Ru  Ru22  1  0.328348  0.671681  0.500030  1
  Ru  Ru23  1  0.671653  0.328295  0.999969  1
  Pt  Pt24  1  0.000333  0.999689  0.500021  1
  Pt  Pt25  1  0.999707  0.000321  0.999978  1
  Pt  Pt26  1  0.671596  0.328379  0.500015  1
  Pt  Pt27  1  0.328393  0.671630  0.999983  1
