# generated using pymatgen
data_Er8SiPd23Pt
_symmetry_space_group_name_H-M   'P 1'
_cell_length_a   8.29303500
_cell_length_b   8.29791800
_cell_length_c   8.29791800
_cell_angle_alpha   90.00000000
_cell_angle_beta   90.00000000
_cell_angle_gamma   90.00000000
_symmetry_Int_Tables_number   1
_chemical_formula_structural   Er8SiPd23Pt
_chemical_formula_sum   'Er8 Si1 Pd23 Pt1'
_cell_volume   571.02059986
_cell_formula_units_Z   1
loop_
 _symmetry_equiv_pos_site_id
 _symmetry_equiv_pos_as_xyz
  1  'x, y, z'
loop_
 _atom_site_type_symbol
 _atom_site_label
 _atom_site_symmetry_multiplicity
 _atom_site_fract_x
 _atom_site_fract_y
 _atom_site_fract_z
 _atom_site_occupancy
  Er  Er0  1  0.253671  0.253356  0.253356  1
  Er  Er1  1  0.746248  0.746118  0.746118  1
  Er  Er2  1  0.746248  0.746118  0.253882  1
  Er  Er3  1  0.746248  0.253882  0.746118  1
  Er  Er4  1  0.253671  0.253356  0.746644  1
  Er  Er5  1  0.253671  0.746644  0.253356  1
  Er  Er6  1  0.253671  0.746644  0.746644  1
  Er  Er7  1  0.746248  0.253882  0.253882  1
  Si  Si8  1  0.000864  0.000000  0.000000  1
  Pd  Pd9  1  0.257114  0.500000  0.000000  1
  Pd  Pd10  1  0.742681  0.500000  0.000000  1
  Pd  Pd11  1  0.999959  0.257311  0.500000  1
  Pd  Pd12  1  0.499905  0.257308  0.000000  1
  Pd  Pd13  1  0.999959  0.742689  0.500000  1
  Pd  Pd14  1  0.499905  0.742692  0.000000  1
  Pd  Pd15  1  0.499905  0.000000  0.257308  1
  Pd  Pd16  1  0.257114  0.000000  0.500000  1
  Pd  Pd17  1  0.499905  0.000000  0.742692  1
  Pd  Pd18  1  0.742681  0.000000  0.500000  1
  Pd  Pd19  1  0.999959  0.500000  0.257311  1
  Pd  Pd20  1  0.999959  0.500000  0.742689  1
  Pd  Pd21  1  0.252080  0.500000  0.500000  1
  Pd  Pd22  1  0.748012  0.500000  0.500000  1
  Pd  Pd23  1  0.500060  0.252103  0.500000  1
  Pd  Pd24  1  0.500060  0.747897  0.500000  1
  Pd  Pd25  1  0.500060  0.500000  0.252103  1
  Pd  Pd26  1  0.500060  0.500000  0.747897  1
  Pd  Pd27  1  0.720976  0.000000  0.000000  1
  Pd  Pd28  1  0.999721  0.280172  0.000000  1
  Pd  Pd29  1  0.999721  0.719828  0.000000  1
  Pd  Pd30  1  0.999721  0.000000  0.280172  1
  Pd  Pd31  1  0.999721  0.000000  0.719828  1
  Pt  Pt32  1  0.280218  0.000000  0.000000  1
