# generated using pymatgen
data_Pr6Dy3HoPb6
_symmetry_space_group_name_H-M   'P 1'
_cell_length_a   9.32052500
_cell_length_b   9.32052488
_cell_length_c   6.81453100
_cell_angle_alpha   90.00000000
_cell_angle_beta   90.00000000
_cell_angle_gamma   120.00000397
_symmetry_Int_Tables_number   1
_chemical_formula_structural   Pr6Dy3HoPb6
_chemical_formula_sum   'Pr6 Dy3 Ho1 Pb6'
_cell_volume   512.68112853
_cell_formula_units_Z   1
loop_
 _symmetry_equiv_pos_site_id
 _symmetry_equiv_pos_as_xyz
  1  'x, y, z'
loop_
 _atom_site_type_symbol
 _atom_site_label
 _atom_site_symmetry_multiplicity
 _atom_site_fract_x
 _atom_site_fract_y
 _atom_site_fract_z
 _atom_site_occupancy
  Pr  Pr0  1  0.239815  0.999958  0.250039  1
  Pr  Pr1  1  0.239815  0.239857  0.749961  1
  Pr  Pr2  1  0.000042  0.760185  0.749961  1
  Pr  Pr3  1  0.000042  0.239857  0.250039  1
  Pr  Pr4  1  0.760143  0.760185  0.250039  1
  Pr  Pr5  1  0.760143  0.999958  0.749961  1
  Dy  Dy6  1  0.333333  0.666667  0.000000  1
  Dy  Dy7  1  0.666667  0.333333  0.500000  1
  Dy  Dy8  1  0.666667  0.333333  0.000000  1
  Ho  Ho9  1  0.333333  0.666667  0.500000  1
  Pb  Pb10  1  0.600839  0.999865  0.250110  1
  Pb  Pb11  1  0.600839  0.600974  0.749890  1
  Pb  Pb12  1  0.000135  0.399161  0.749890  1
  Pb  Pb13  1  0.000135  0.600974  0.250110  1
  Pb  Pb14  1  0.399026  0.399161  0.250110  1
  Pb  Pb15  1  0.399026  0.999865  0.749890  1
