# generated using pymatgen
data_Tm8Ti11Si16W
_symmetry_space_group_name_H-M   'P 1'
_cell_length_a   6.98880416
_cell_length_b   6.98880373
_cell_length_c   12.84578556
_cell_angle_alpha   89.98167546
_cell_angle_beta   90.01832346
_cell_angle_gamma   90.06416711
_symmetry_Int_Tables_number   1
_chemical_formula_structural   Tm8Ti11Si16W
_chemical_formula_sum   'Tm8 Ti11 Si16 W1'
_cell_volume   627.43113579
_cell_formula_units_Z   1
loop_
 _symmetry_equiv_pos_site_id
 _symmetry_equiv_pos_as_xyz
  1  'x, y, z'
loop_
 _atom_site_type_symbol
 _atom_site_label
 _atom_site_symmetry_multiplicity
 _atom_site_fract_x
 _atom_site_fract_y
 _atom_site_fract_z
 _atom_site_occupancy
  Tm  Tm0  1  0.340875  0.002752  0.467109  1
  Tm  Tm1  1  0.497514  0.840245  0.717612  1
  Tm  Tm2  1  0.500749  0.159125  0.215636  1
  Tm  Tm3  1  0.840245  0.497514  0.282388  1
  Tm  Tm4  1  0.159125  0.500749  0.784364  1
  Tm  Tm5  1  0.657874  0.998755  0.967216  1
  Tm  Tm6  1  0.002752  0.340875  0.532891  1
  Tm  Tm7  1  0.998755  0.657874  0.032784  1
  Ti  Ti8  1  0.173861  0.827414  0.249485  1
  Ti  Ti9  1  0.827414  0.173861  0.750515  1
  Ti  Ti10  1  0.673045  0.673045  0.500000  1
  Ti  Ti11  1  0.153175  0.008440  0.876370  1
  Ti  Ti12  1  0.492234  0.651046  0.124339  1
  Ti  Ti13  1  0.506813  0.349243  0.626168  1
  Ti  Ti14  1  0.651046  0.492234  0.875661  1
  Ti  Ti15  1  0.349243  0.506813  0.373832  1
  Ti  Ti16  1  0.848607  0.992737  0.375721  1
  Ti  Ti17  1  0.008440  0.153175  0.123630  1
  Ti  Ti18  1  0.992737  0.848607  0.624279  1
  Si  Si19  1  0.202700  0.131521  0.683666  1
  Si  Si20  1  0.368745  0.701337  0.933471  1
  Si  Si21  1  0.631606  0.297107  0.433481  1
  Si  Si22  1  0.701337  0.368745  0.066529  1
  Si  Si23  1  0.297107  0.631606  0.566519  1
  Si  Si24  1  0.797278  0.868616  0.183452  1
  Si  Si25  1  0.131521  0.202700  0.316334  1
  Si  Si26  1  0.868616  0.797278  0.816548  1
  Si  Si27  1  0.291835  0.953995  0.064735  1
  Si  Si28  1  0.546326  0.792822  0.314798  1
  Si  Si29  1  0.453056  0.207237  0.815543  1
  Si  Si30  1  0.792822  0.546326  0.685202  1
  Si  Si31  1  0.207237  0.453056  0.184457  1
  Si  Si32  1  0.707681  0.047050  0.565076  1
  Si  Si33  1  0.953995  0.291835  0.935265  1
  Si  Si34  1  0.047050  0.707681  0.434924  1
  W  W35  1  0.326585  0.326585  0.000000  1
