# generated using pymatgen
data_Ta10BeGa2P3
_symmetry_space_group_name_H-M   'P 1'
_cell_length_a   7.54693129
_cell_length_b   7.54693013
_cell_length_c   7.55689800
_cell_angle_alpha   128.21877364
_cell_angle_beta   128.21876669
_cell_angle_gamma   76.17447866
_symmetry_Int_Tables_number   1
_chemical_formula_structural   Ta10BeGa2P3
_chemical_formula_sum   'Ta10 Be1 Ga2 P3'
_cell_volume   258.36466345
_cell_formula_units_Z   1
loop_
 _symmetry_equiv_pos_site_id
 _symmetry_equiv_pos_as_xyz
  1  'x, y, z'
loop_
 _atom_site_type_symbol
 _atom_site_label
 _atom_site_symmetry_multiplicity
 _atom_site_fract_x
 _atom_site_fract_y
 _atom_site_fract_z
 _atom_site_occupancy
  Ta  Ta0  1  0.022367  0.191574  0.500000  1
  Ta  Ta1  1  0.695531  0.514753  0.500000  1
  Ta  Ta2  1  0.511832  0.016665  0.821022  1
  Ta  Ta3  1  0.190811  0.695643  0.178978  1
  Ta  Ta4  1  0.985247  0.804469  0.500000  1
  Ta  Ta5  1  0.308426  0.477633  0.500000  1
  Ta  Ta6  1  0.483335  0.988168  0.178978  1
  Ta  Ta7  1  0.804357  0.309189  0.821022  1
  Ta  Ta8  1  0.002280  0.999476  0.001756  1
  Ta  Ta9  1  0.500524  0.497720  0.998244  1
  Be  Be10  1  0.372842  0.127158  0.500000  1
  Ga  Ga11  1  0.748872  0.751128  0.000000  1
  Ga  Ga12  1  0.248872  0.251128  0.000000  1
  P  P13  1  0.621299  0.878701  0.500000  1
  P  P14  1  0.863153  0.359748  0.222900  1
  P  P15  1  0.140252  0.636847  0.777100  1
