# generated using pymatgen
data_HfAg4Te3O14
_symmetry_space_group_name_H-M   'P 1'
_cell_length_a   7.47856850
_cell_length_b   7.47856817
_cell_length_c   7.39378249
_cell_angle_alpha   120.39136702
_cell_angle_beta   118.80191921
_cell_angle_gamma   91.34718469
_symmetry_Int_Tables_number   1
_chemical_formula_structural   HfAg4Te3O14
_chemical_formula_sum   'Hf1 Ag4 Te3 O14'
_cell_volume   292.38795490
_cell_formula_units_Z   1
loop_
 _symmetry_equiv_pos_site_id
 _symmetry_equiv_pos_as_xyz
  1  'x, y, z'
loop_
 _atom_site_type_symbol
 _atom_site_label
 _atom_site_symmetry_multiplicity
 _atom_site_fract_x
 _atom_site_fract_y
 _atom_site_fract_z
 _atom_site_occupancy
  Hf  Hf0  1  0.500000  0.000000  0.000000  1
  Ag  Ag1  1  0.000000  0.500000  0.500000  1
  Ag  Ag2  1  0.500000  0.000000  0.500000  1
  Ag  Ag3  1  0.000000  0.500000  0.000000  1
  Ag  Ag4  1  0.000000  0.000000  0.500000  1
  Te  Te5  1  0.500000  0.500000  0.000000  1
  Te  Te6  1  0.000000  0.000000  0.000000  1
  Te  Te7  1  0.500000  0.500000  0.500000  1
  O  O8  1  0.547967  0.418863  0.729212  1
  O  O9  1  0.456096  0.194955  0.872233  1
  O  O10  1  0.822723  0.083863  0.127767  1
  O  O11  1  0.189650  0.318755  0.270788  1
  O  O12  1  0.452033  0.581137  0.270788  1
  O  O13  1  0.543904  0.805045  0.127767  1
  O  O14  1  0.177277  0.916137  0.872233  1
  O  O15  1  0.810350  0.681245  0.729212  1
  O  O16  1  0.590201  0.262936  0.353138  1
  O  O17  1  0.409799  0.737064  0.646862  1
  O  O18  1  0.179280  0.405933  0.767455  1
  O  O19  1  0.820720  0.594067  0.232545  1
  O  O20  1  0.861523  0.088175  0.767455  1
  O  O21  1  0.138477  0.911825  0.232545  1
