# generated using pymatgen
data_Tm6Mn2Al21(SiOs2)3
_symmetry_space_group_name_H-M   'P 1'
_cell_length_a   8.65588300
_cell_length_b   8.65588449
_cell_length_c   9.54758200
_cell_angle_alpha   90.00000000
_cell_angle_beta   90.00000000
_cell_angle_gamma   119.99999813
_symmetry_Int_Tables_number   1
_chemical_formula_structural   Tm6Mn2Al21(SiOs2)3
_chemical_formula_sum   'Tm6 Mn2 Al21 Si3 Os6'
_cell_volume   619.50792526
_cell_formula_units_Z   1
loop_
 _symmetry_equiv_pos_site_id
 _symmetry_equiv_pos_as_xyz
  1  'x, y, z'
loop_
 _atom_site_type_symbol
 _atom_site_label
 _atom_site_symmetry_multiplicity
 _atom_site_fract_x
 _atom_site_fract_y
 _atom_site_fract_z
 _atom_site_occupancy
  Tm  Tm0  1  0.196331  0.392661  0.248898  1
  Tm  Tm1  1  0.803394  0.606790  0.751499  1
  Tm  Tm2  1  0.607339  0.803669  0.248898  1
  Tm  Tm3  1  0.393210  0.196606  0.751499  1
  Tm  Tm4  1  0.196331  0.803669  0.248898  1
  Tm  Tm5  1  0.803394  0.196606  0.751499  1
  Mn  Mn6  1  0.000000  0.000000  0.999360  1
  Mn  Mn7  1  0.000000  0.000000  0.499512  1
  Al  Al8  1  0.333333  0.666667  0.479104  1
  Al  Al9  1  0.160698  0.321396  0.573675  1
  Al  Al10  1  0.838731  0.677461  0.423345  1
  Al  Al11  1  0.678604  0.839302  0.573675  1
  Al  Al12  1  0.838533  0.677066  0.076832  1
  Al  Al13  1  0.322539  0.161269  0.423345  1
  Al  Al14  1  0.161575  0.323150  0.923087  1
  Al  Al15  1  0.160698  0.839302  0.573675  1
  Al  Al16  1  0.322934  0.161467  0.076832  1
  Al  Al17  1  0.838731  0.161269  0.423345  1
  Al  Al18  1  0.676850  0.838425  0.923087  1
  Al  Al19  1  0.838533  0.161467  0.076832  1
  Al  Al20  1  0.161575  0.838425  0.923087  1
  Al  Al21  1  0.563874  0.127747  0.249073  1
  Al  Al22  1  0.436664  0.873330  0.748188  1
  Al  Al23  1  0.872253  0.436126  0.249073  1
  Al  Al24  1  0.126670  0.563336  0.748188  1
  Al  Al25  1  0.563874  0.436126  0.249073  1
  Al  Al26  1  0.436664  0.563336  0.748188  1
  Al  Al27  1  0.000000  0.000000  0.249782  1
  Al  Al28  1  0.000000  0.000000  0.749324  1
  Si  Si29  1  0.333333  0.666667  0.037890  1
  Si  Si30  1  0.666667  0.333333  0.962632  1
  Si  Si31  1  0.666667  0.333333  0.539001  1
  Os  Os32  1  0.499916  0.999831  0.998609  1
  Os  Os33  1  0.000169  0.500084  0.998609  1
  Os  Os34  1  0.504255  0.008511  0.501258  1
  Os  Os35  1  0.499916  0.500084  0.998609  1
  Os  Os36  1  0.991489  0.495745  0.501258  1
  Os  Os37  1  0.504255  0.495745  0.501258  1
