# generated using pymatgen
data_Nd8Ag3Os
_symmetry_space_group_name_H-M   'P 1'
_cell_length_a   10.47553000
_cell_length_b   10.47552129
_cell_length_c   7.28603400
_cell_angle_alpha   90.00000000
_cell_angle_beta   90.00000000
_cell_angle_gamma   120.00011000
_symmetry_Int_Tables_number   1
_chemical_formula_structural   Nd8Ag3Os
_chemical_formula_sum   'Nd16 Ag6 Os2'
_cell_volume   692.42540330
_cell_formula_units_Z   2
loop_
 _symmetry_equiv_pos_site_id
 _symmetry_equiv_pos_as_xyz
  1  'x, y, z'
loop_
 _atom_site_type_symbol
 _atom_site_label
 _atom_site_symmetry_multiplicity
 _atom_site_fract_x
 _atom_site_fract_y
 _atom_site_fract_z
 _atom_site_occupancy
  Nd  Nd0  1  0.827133  0.654267  0.479615  1
  Nd  Nd1  1  0.345733  0.172868  0.479614  1
  Nd  Nd2  1  0.827135  0.172866  0.479613  1
  Nd  Nd3  1  0.172867  0.345733  0.979615  1
  Nd  Nd4  1  0.654267  0.827132  0.979614  1
  Nd  Nd5  1  0.172865  0.827134  0.979613  1
  Nd  Nd6  1  0.666667  0.333334  0.169952  1
  Nd  Nd7  1  0.333333  0.666666  0.669952  1
  Nd  Nd8  1  0.536720  0.073436  0.798836  1
  Nd  Nd9  1  0.926563  0.463280  0.798837  1
  Nd  Nd10  1  0.536719  0.463281  0.798837  1
  Nd  Nd11  1  0.463280  0.926564  0.298836  1
  Nd  Nd12  1  0.073437  0.536720  0.298837  1
  Nd  Nd13  1  0.463281  0.536719  0.298837  1
  Nd  Nd14  1  0.000000  0.000001  0.770692  1
  Nd  Nd15  1  0.000000  0.999999  0.270692  1
  Ag  Ag16  1  0.833247  0.666493  0.042831  1
  Ag  Ag17  1  0.333508  0.166753  0.042830  1
  Ag  Ag18  1  0.833247  0.166752  0.042829  1
  Ag  Ag19  1  0.166753  0.333507  0.542831  1
  Ag  Ag20  1  0.666492  0.833247  0.542830  1
  Ag  Ag21  1  0.166753  0.833248  0.542829  1
  Os  Os22  1  0.666667  0.333333  0.558633  1
  Os  Os23  1  0.333333  0.666667  0.058633  1
