# generated using pymatgen
data_Tm3LuFe(CoSi2)5
_symmetry_space_group_name_H-M   'P 1'
_cell_length_a   7.79586503
_cell_length_b   7.79492147
_cell_length_c   5.43131744
_cell_angle_alpha   71.09922126
_cell_angle_beta   71.08371982
_cell_angle_gamma   93.81883873
_symmetry_Int_Tables_number   1
_chemical_formula_structural   Tm3LuFe(CoSi2)5
_chemical_formula_sum   'Tm3 Lu1 Fe1 Co5 Si10'
_cell_volume   289.90975518
_cell_formula_units_Z   1
loop_
 _symmetry_equiv_pos_site_id
 _symmetry_equiv_pos_as_xyz
  1  'x, y, z'
loop_
 _atom_site_type_symbol
 _atom_site_label
 _atom_site_symmetry_multiplicity
 _atom_site_fract_x
 _atom_site_fract_y
 _atom_site_fract_z
 _atom_site_occupancy
  Tm  Tm0  1  0.129870  0.403990  0.737369  1
  Tm  Tm1  1  0.596092  0.870006  0.762620  1
  Tm  Tm2  1  0.870022  0.596660  0.261728  1
  Lu  Lu3  1  0.403624  0.129726  0.237904  1
  Fe  Fe4  1  0.996902  0.003306  0.749930  1
  Co  Co5  1  0.541670  0.262736  0.628137  1
  Co  Co6  1  0.262644  0.541256  0.124961  1
  Co  Co7  1  0.458879  0.737804  0.374885  1
  Co  Co8  1  0.004038  0.996485  0.249866  1
  Co  Co9  1  0.736452  0.457709  0.872793  1
  Si  Si10  1  0.772007  0.227515  0.250312  1
  Si  Si11  1  0.225634  0.774646  0.749839  1
  Si  Si12  1  0.511122  0.487808  0.250553  1
  Si  Si13  1  0.488188  0.511415  0.750065  1
  Si  Si14  1  0.212765  0.787593  0.250079  1
  Si  Si15  1  0.788862  0.211280  0.749494  1
  Si  Si16  1  0.737944  0.932416  0.165637  1
  Si  Si17  1  0.931606  0.737106  0.667433  1
  Si  Si18  1  0.263104  0.068542  0.832312  1
  Si  Si19  1  0.068575  0.262003  0.334085  1
