# generated using pymatgen
data_Ti7VAs5Se
_symmetry_space_group_name_H-M   'P 1'
_cell_length_a   7.31054301
_cell_length_b   7.31054340
_cell_length_c   18.66248700
_cell_angle_alpha   90.00000000
_cell_angle_beta   90.00000000
_cell_angle_gamma   152.08252020
_symmetry_Int_Tables_number   1
_chemical_formula_structural   Ti7VAs5Se
_chemical_formula_sum   'Ti14 V2 As10 Se2'
_cell_volume   466.98150242
_cell_formula_units_Z   2
loop_
 _symmetry_equiv_pos_site_id
 _symmetry_equiv_pos_as_xyz
  1  'x, y, z'
loop_
 _atom_site_type_symbol
 _atom_site_label
 _atom_site_symmetry_multiplicity
 _atom_site_fract_x
 _atom_site_fract_y
 _atom_site_fract_z
 _atom_site_occupancy
  Ti  Ti0  1  0.061507  0.938493  0.750000  1
  Ti  Ti1  1  0.938493  0.061507  0.250000  1
  Ti  Ti2  1  0.732768  0.267232  0.160764  1
  Ti  Ti3  1  0.267232  0.732768  0.839236  1
  Ti  Ti4  1  0.267232  0.732768  0.660764  1
  Ti  Ti5  1  0.732768  0.267232  0.339236  1
  Ti  Ti6  1  0.533982  0.466018  0.113508  1
  Ti  Ti7  1  0.466018  0.533982  0.886492  1
  Ti  Ti8  1  0.466018  0.533982  0.613508  1
  Ti  Ti9  1  0.533982  0.466018  0.386492  1
  Ti  Ti10  1  0.665035  0.334965  0.972689  1
  Ti  Ti11  1  0.334965  0.665035  0.027311  1
  Ti  Ti12  1  0.334965  0.665035  0.472689  1
  Ti  Ti13  1  0.665035  0.334965  0.527311  1
  V  V14  1  0.000000  0.000000  0.000000  1
  V  V15  1  0.000000  0.000000  0.500000  1
  As  As16  1  0.699537  0.300463  0.750000  1
  As  As17  1  0.300463  0.699537  0.250000  1
  As  As18  1  0.902102  0.097898  0.115978  1
  As  As19  1  0.097898  0.902102  0.884022  1
  As  As20  1  0.097898  0.902102  0.615978  1
  As  As21  1  0.902102  0.097898  0.384022  1
  As  As22  1  0.840684  0.159316  0.925839  1
  As  As23  1  0.159316  0.840684  0.074161  1
  As  As24  1  0.159316  0.840684  0.425839  1
  As  As25  1  0.840684  0.159316  0.574161  1
  Se  Se26  1  0.422161  0.577839  0.750000  1
  Se  Se27  1  0.577839  0.422161  0.250000  1
