# generated using pymatgen
data_Tb3Dy3Th2(MgRu)2
_symmetry_space_group_name_H-M   'P 1'
_cell_length_a   9.78690718
_cell_length_b   9.78690807
_cell_length_c   9.78690800
_cell_angle_alpha   60.00000024
_cell_angle_beta   59.99999721
_cell_angle_gamma   59.99999921
_symmetry_Int_Tables_number   1
_chemical_formula_structural   Tb3Dy3Th2(MgRu)2
_chemical_formula_sum   'Tb6 Dy6 Th4 Mg4 Ru4'
_cell_volume   662.85948522
_cell_formula_units_Z   2
loop_
 _symmetry_equiv_pos_site_id
 _symmetry_equiv_pos_as_xyz
  1  'x, y, z'
loop_
 _atom_site_type_symbol
 _atom_site_label
 _atom_site_symmetry_multiplicity
 _atom_site_fract_x
 _atom_site_fract_y
 _atom_site_fract_z
 _atom_site_occupancy
  Tb  Tb0  1  0.185896  0.814104  0.814104  1
  Tb  Tb1  1  0.814104  0.185896  0.185896  1
  Tb  Tb2  1  0.814104  0.185896  0.814104  1
  Tb  Tb3  1  0.185896  0.814104  0.185896  1
  Tb  Tb4  1  0.814104  0.814104  0.185896  1
  Tb  Tb5  1  0.185896  0.185896  0.814104  1
  Dy  Dy6  1  0.063753  0.436247  0.436247  1
  Dy  Dy7  1  0.436247  0.063753  0.063753  1
  Dy  Dy8  1  0.436247  0.063753  0.436247  1
  Dy  Dy9  1  0.063753  0.436247  0.063753  1
  Dy  Dy10  1  0.436247  0.436247  0.063753  1
  Dy  Dy11  1  0.063753  0.063753  0.436247  1
  Th  Th12  1  0.595796  0.595796  0.595796  1
  Th  Th13  1  0.595796  0.595796  0.212614  1
  Th  Th14  1  0.595796  0.212614  0.595796  1
  Th  Th15  1  0.212614  0.595796  0.595796  1
  Mg  Mg16  1  0.829634  0.829634  0.829634  1
  Mg  Mg17  1  0.829634  0.829634  0.511098  1
  Mg  Mg18  1  0.829634  0.511098  0.829634  1
  Mg  Mg19  1  0.511098  0.829634  0.829634  1
  Ru  Ru20  1  0.393559  0.393559  0.393559  1
  Ru  Ru21  1  0.393559  0.393559  0.819324  1
  Ru  Ru22  1  0.393559  0.819324  0.393559  1
  Ru  Ru23  1  0.819324  0.393559  0.393559  1
