# generated using pymatgen
data_LiTb3ErCo19P12
_symmetry_space_group_name_H-M   'P 1'
_cell_length_a   3.65744200
_cell_length_b   10.26107935
_cell_length_c   11.77289003
_cell_angle_alpha   89.91504528
_cell_angle_beta   90.00000000
_cell_angle_gamma   90.00000000
_symmetry_Int_Tables_number   1
_chemical_formula_structural   LiTb3ErCo19P12
_chemical_formula_sum   'Li1 Tb3 Er1 Co19 P12'
_cell_volume   441.82786620
_cell_formula_units_Z   1
loop_
 _symmetry_equiv_pos_site_id
 _symmetry_equiv_pos_as_xyz
  1  'x, y, z'
loop_
 _atom_site_type_symbol
 _atom_site_label
 _atom_site_symmetry_multiplicity
 _atom_site_fract_x
 _atom_site_fract_y
 _atom_site_fract_z
 _atom_site_occupancy
  Li  Li0  1  0.250000  0.702600  0.990607  1
  Tb  Tb1  1  0.250000  0.581415  0.701408  1
  Tb  Tb2  1  0.750000  0.418312  0.297791  1
  Tb  Tb3  1  0.750000  0.080292  0.797094  1
  Er  Er4  1  0.250000  0.919814  0.203058  1
  Co  Co5  1  0.250000  0.784489  0.492883  1
  Co  Co6  1  0.750000  0.289072  0.010763  1
  Co  Co7  1  0.750000  0.215916  0.506568  1
  Co  Co8  1  0.250000  0.406223  0.488181  1
  Co  Co9  1  0.250000  0.095515  0.988250  1
  Co  Co10  1  0.750000  0.593194  0.512998  1
  Co  Co11  1  0.750000  0.908333  0.014106  1
  Co  Co12  1  0.250000  0.223243  0.175753  1
  Co  Co13  1  0.250000  0.277923  0.675111  1
  Co  Co14  1  0.750000  0.779582  0.822017  1
  Co  Co15  1  0.750000  0.721556  0.327727  1
  Co  Co16  1  0.250000  0.883329  0.697180  1
  Co  Co17  1  0.250000  0.620696  0.200161  1
  Co  Co18  1  0.750000  0.117726  0.299847  1
  Co  Co19  1  0.750000  0.379410  0.801155  1
  Co  Co20  1  0.250000  0.464535  0.932304  1
  Co  Co21  1  0.250000  0.032660  0.430505  1
  Co  Co22  1  0.750000  0.534493  0.067261  1
  Co  Co23  1  0.750000  0.968226  0.566175  1
  P  P24  1  0.250000  0.422197  0.112597  1
  P  P25  1  0.250000  0.080753  0.610741  1
  P  P26  1  0.750000  0.577833  0.884461  1
  P  P27  1  0.750000  0.919797  0.386820  1
  P  P28  1  0.250000  0.268946  0.868132  1
  P  P29  1  0.250000  0.229669  0.369067  1
  P  P30  1  0.750000  0.731382  0.137674  1
  P  P31  1  0.750000  0.771865  0.630556  1
  P  P32  1  0.250000  0.602328  0.393633  1
  P  P33  1  0.250000  0.897353  0.891754  1
  P  P34  1  0.750000  0.396523  0.608003  1
  P  P35  1  0.750000  0.102795  0.107656  1
