# generated using pymatgen
data_Dy5Si9P3Ir19
_symmetry_space_group_name_H-M   'P 1'
_cell_length_a   12.82438100
_cell_length_b   12.82438098
_cell_length_c   3.95033700
_cell_angle_alpha   90.00000000
_cell_angle_beta   90.00000000
_cell_angle_gamma   119.99999747
_symmetry_Int_Tables_number   1
_chemical_formula_structural   Dy5Si9P3Ir19
_chemical_formula_sum   'Dy5 Si9 P3 Ir19'
_cell_volume   562.64907942
_cell_formula_units_Z   1
loop_
 _symmetry_equiv_pos_site_id
 _symmetry_equiv_pos_as_xyz
  1  'x, y, z'
loop_
 _atom_site_type_symbol
 _atom_site_label
 _atom_site_symmetry_multiplicity
 _atom_site_fract_x
 _atom_site_fract_y
 _atom_site_fract_z
 _atom_site_occupancy
  Dy  Dy0  1  0.333333  0.666667  0.500000  1
  Dy  Dy1  1  0.666667  0.333333  0.500000  1
  Dy  Dy2  1  0.000000  0.815503  0.000000  1
  Dy  Dy3  1  0.184497  0.184497  0.000000  1
  Dy  Dy4  1  0.815503  0.000000  0.000000  1
  Si  Si5  1  0.000000  0.633857  0.500000  1
  Si  Si6  1  0.366143  0.366143  0.500000  1
  Si  Si7  1  0.633857  0.000000  0.500000  1
  Si  Si8  1  0.518323  0.685642  0.000000  1
  Si  Si9  1  0.314358  0.832681  0.000000  1
  Si  Si10  1  0.167319  0.481677  0.000000  1
  Si  Si11  1  0.481677  0.167319  0.000000  1
  Si  Si12  1  0.685642  0.518323  0.000000  1
  Si  Si13  1  0.832681  0.314358  0.000000  1
  P  P14  1  0.000000  0.179034  0.500000  1
  P  P15  1  0.820966  0.820966  0.500000  1
  P  P16  1  0.179034  0.000000  0.500000  1
  Ir  Ir17  1  0.513420  0.872438  0.000000  1
  Ir  Ir18  1  0.127562  0.640982  0.000000  1
  Ir  Ir19  1  0.359018  0.486580  0.000000  1
  Ir  Ir20  1  0.486580  0.359018  0.000000  1
  Ir  Ir21  1  0.872438  0.513420  0.000000  1
  Ir  Ir22  1  0.640982  0.127562  0.000000  1
  Ir  Ir23  1  0.000000  0.447921  0.500000  1
  Ir  Ir24  1  0.552079  0.552079  0.500000  1
  Ir  Ir25  1  0.447921  0.000000  0.500000  1
  Ir  Ir26  1  0.000000  0.279136  0.000000  1
  Ir  Ir27  1  0.720864  0.720864  0.000000  1
  Ir  Ir28  1  0.279136  0.000000  0.000000  1
  Ir  Ir29  1  0.627000  0.806344  0.500000  1
  Ir  Ir30  1  0.193656  0.820656  0.500000  1
  Ir  Ir31  1  0.179344  0.373000  0.500000  1
  Ir  Ir32  1  0.373000  0.179344  0.500000  1
  Ir  Ir33  1  0.806344  0.627000  0.500000  1
  Ir  Ir34  1  0.820656  0.193656  0.500000  1
  Ir  Ir35  1  0.000000  0.000000  0.500000  1
