# generated using pymatgen
data_LiPrSnPd
_symmetry_space_group_name_H-M   'P 1'
_cell_length_a   4.89361670
_cell_length_b   4.89361664
_cell_length_c   4.89361600
_cell_angle_alpha   59.99999084
_cell_angle_beta   59.99999119
_cell_angle_gamma   59.99999767
_symmetry_Int_Tables_number   1
_chemical_formula_structural   LiPrSnPd
_chemical_formula_sum   'Li1 Pr1 Sn1 Pd1'
_cell_volume   82.86568351
_cell_formula_units_Z   1
loop_
 _symmetry_equiv_pos_site_id
 _symmetry_equiv_pos_as_xyz
  1  'x, y, z'
loop_
 _atom_site_type_symbol
 _atom_site_label
 _atom_site_symmetry_multiplicity
 _atom_site_fract_x
 _atom_site_fract_y
 _atom_site_fract_z
 _atom_site_occupancy
  Li  Li0  1  0.750000  0.750000  0.750000  1
  Pr  Pr1  1  0.500000  0.500000  0.500000  1
  Sn  Sn2  1  0.000000  0.000000  0.000000  1
  Pd  Pd3  1  0.250000  0.250000  0.250000  1
