# generated using pymatgen
data_Tb4EuDy(Cu3Sb4)2
_symmetry_space_group_name_H-M   'P 1'
_cell_length_a   8.35779745
_cell_length_b   8.36061149
_cell_length_c   8.35811249
_cell_angle_alpha   109.44528461
_cell_angle_beta   109.50912306
_cell_angle_gamma   109.45987239
_symmetry_Int_Tables_number   1
_chemical_formula_structural   Tb4EuDy(Cu3Sb4)2
_chemical_formula_sum   'Tb4 Eu1 Dy1 Cu6 Sb8'
_cell_volume   449.58600213
_cell_formula_units_Z   1
loop_
 _symmetry_equiv_pos_site_id
 _symmetry_equiv_pos_as_xyz
  1  'x, y, z'
loop_
 _atom_site_type_symbol
 _atom_site_label
 _atom_site_symmetry_multiplicity
 _atom_site_fract_x
 _atom_site_fract_y
 _atom_site_fract_z
 _atom_site_occupancy
  Tb  Tb0  1  0.625247  0.749973  0.374983  1
  Tb  Tb1  1  0.249708  0.124269  0.875548  1
  Tb  Tb2  1  0.751076  0.375683  0.625733  1
  Tb  Tb3  1  0.124415  0.874421  0.248951  1
  Eu  Eu4  1  0.875510  0.250291  0.125320  1
  Dy  Dy5  1  0.374515  0.626054  0.750230  1
  Cu  Cu6  1  0.374347  0.250672  0.625252  1
  Cu  Cu7  1  0.125113  0.749647  0.874746  1
  Cu  Cu8  1  0.256209  0.630075  0.376861  1
  Cu  Cu9  1  0.746231  0.870514  0.124474  1
  Cu  Cu10  1  0.623699  0.377649  0.252823  1
  Cu  Cu11  1  0.874587  0.120872  0.745367  1
  Sb  Sb12  1  0.653948  0.499856  0.999269  1
  Sb  Sb13  1  0.499585  0.000661  0.654974  1
  Sb  Sb14  1  0.002615  0.660382  0.502144  1
  Sb  Sb15  1  0.841480  0.839050  0.841498  1
  Sb  Sb16  1  0.497378  0.999516  0.157871  1
  Sb  Sb17  1  0.158354  0.499826  0.997468  1
  Sb  Sb18  1  0.000223  0.155226  0.500304  1
  Sb  Sb19  1  0.345759  0.345362  0.346185  1
