# generated using pymatgen
data_TlRhBr6
_symmetry_space_group_name_H-M   'P 1'
_cell_length_a   6.84405553
_cell_length_b   6.84405588
_cell_length_c   7.25996964
_cell_angle_alpha   80.99896507
_cell_angle_beta   80.99896036
_cell_angle_gamma   119.94934630
_symmetry_Int_Tables_number   1
_chemical_formula_structural   TlRhBr6
_chemical_formula_sum   'Tl1 Rh1 Br6'
_cell_volume   279.88207555
_cell_formula_units_Z   1
loop_
 _symmetry_equiv_pos_site_id
 _symmetry_equiv_pos_as_xyz
  1  'x, y, z'
loop_
 _atom_site_type_symbol
 _atom_site_label
 _atom_site_symmetry_multiplicity
 _atom_site_fract_x
 _atom_site_fract_y
 _atom_site_fract_z
 _atom_site_occupancy
  Tl  Tl0  1  0.166884  0.833116  0.000000  1
  Rh  Rh1  1  0.833333  0.166667  0.000000  1
  Br  Br2  1  0.466149  0.093929  0.214443  1
  Br  Br3  1  0.906071  0.533851  0.785557  1
  Br  Br4  1  0.198673  0.235728  0.785475  1
  Br  Br5  1  0.764272  0.801327  0.214525  1
  Br  Br6  1  0.056516  0.391897  0.214241  1
  Br  Br7  1  0.608103  0.943484  0.785759  1
