# generated using pymatgen
data_CeUB6Mo
_symmetry_space_group_name_H-M   'P 1'
_cell_length_a   3.75092100
_cell_length_b   9.33404100
_cell_length_c   11.45324800
_cell_angle_alpha   90.00000000
_cell_angle_beta   90.00000000
_cell_angle_gamma   90.00000000
_symmetry_Int_Tables_number   1
_chemical_formula_structural   CeUB6Mo
_chemical_formula_sum   'Ce4 U4 B24 Mo4'
_cell_volume   400.99253364
_cell_formula_units_Z   4
loop_
 _symmetry_equiv_pos_site_id
 _symmetry_equiv_pos_as_xyz
  1  'x, y, z'
loop_
 _atom_site_type_symbol
 _atom_site_label
 _atom_site_symmetry_multiplicity
 _atom_site_fract_x
 _atom_site_fract_y
 _atom_site_fract_z
 _atom_site_occupancy
  Ce  Ce0  1  0.000000  0.335245  0.408020  1
  Ce  Ce1  1  0.000000  0.664755  0.591980  1
  Ce  Ce2  1  0.000000  0.835245  0.091980  1
  Ce  Ce3  1  0.000000  0.164755  0.908020  1
  U  U4  1  0.000000  0.956155  0.394945  1
  U  U5  1  0.000000  0.043845  0.605055  1
  U  U6  1  0.000000  0.456155  0.105055  1
  U  U7  1  0.000000  0.543845  0.894945  1
  B  B8  1  0.500000  0.553114  0.430674  1
  B  B9  1  0.500000  0.446886  0.569326  1
  B  B10  1  0.500000  0.053114  0.069326  1
  B  B11  1  0.500000  0.946886  0.930674  1
  B  B12  1  0.500000  0.745236  0.422663  1
  B  B13  1  0.500000  0.254764  0.577337  1
  B  B14  1  0.500000  0.245236  0.077337  1
  B  B15  1  0.500000  0.754764  0.922663  1
  B  B16  1  0.500000  0.802909  0.274398  1
  B  B17  1  0.500000  0.197091  0.725602  1
  B  B18  1  0.500000  0.302909  0.225602  1
  B  B19  1  0.500000  0.697091  0.774398  1
  B  B20  1  0.500000  0.642956  0.187730  1
  B  B21  1  0.500000  0.357044  0.812270  1
  B  B22  1  0.500000  0.142956  0.312270  1
  B  B23  1  0.500000  0.857044  0.687730  1
  B  B24  1  0.500000  0.988926  0.220188  1
  B  B25  1  0.500000  0.011074  0.779812  1
  B  B26  1  0.500000  0.488926  0.279812  1
  B  B27  1  0.500000  0.511074  0.720188  1
  B  B28  1  0.500000  0.636495  0.037868  1
  B  B29  1  0.500000  0.363505  0.962132  1
  B  B30  1  0.500000  0.136495  0.462132  1
  B  B31  1  0.500000  0.863505  0.537868  1
  Mo  Mo32  1  0.000000  0.646775  0.318109  1
  Mo  Mo33  1  0.000000  0.353225  0.681891  1
  Mo  Mo34  1  0.000000  0.146775  0.181891  1
  Mo  Mo35  1  0.000000  0.853225  0.818109  1
