# generated using pymatgen
data_LaMgIn3Rh
_symmetry_space_group_name_H-M   'P 1'
_cell_length_a   4.40799100
_cell_length_b   7.59575300
_cell_length_c   8.37193300
_cell_angle_alpha   90.00000000
_cell_angle_beta   90.00000000
_cell_angle_gamma   90.00000000
_symmetry_Int_Tables_number   1
_chemical_formula_structural   LaMgIn3Rh
_chemical_formula_sum   'La2 Mg2 In6 Rh2'
_cell_volume   280.30915164
_cell_formula_units_Z   2
loop_
 _symmetry_equiv_pos_site_id
 _symmetry_equiv_pos_as_xyz
  1  'x, y, z'
loop_
 _atom_site_type_symbol
 _atom_site_label
 _atom_site_symmetry_multiplicity
 _atom_site_fract_x
 _atom_site_fract_y
 _atom_site_fract_z
 _atom_site_occupancy
  La  La0  1  0.000000  0.399522  0.250000  1
  La  La1  1  0.000000  0.600478  0.750000  1
  Mg  Mg2  1  0.000000  0.000000  0.000000  1
  Mg  Mg3  1  0.000000  0.000000  0.500000  1
  In  In4  1  0.500000  0.053713  0.250000  1
  In  In5  1  0.500000  0.946287  0.750000  1
  In  In6  1  0.500000  0.695809  0.056611  1
  In  In7  1  0.500000  0.304191  0.943389  1
  In  In8  1  0.500000  0.695809  0.443389  1
  In  In9  1  0.500000  0.304191  0.556611  1
  Rh  Rh10  1  0.000000  0.792204  0.250000  1
  Rh  Rh11  1  0.000000  0.207796  0.750000  1
