# generated using pymatgen
data_Ho15ErCd4PdRu3
_symmetry_space_group_name_H-M   'P 1'
_cell_length_a   9.60789217
_cell_length_b   9.65053963
_cell_length_c   9.65054046
_cell_angle_alpha   59.59909062
_cell_angle_beta   59.42257554
_cell_angle_gamma   59.42257863
_symmetry_Int_Tables_number   1
_chemical_formula_structural   Ho15ErCd4PdRu3
_chemical_formula_sum   'Ho15 Er1 Cd4 Pd1 Ru3'
_cell_volume   625.25972787
_cell_formula_units_Z   1
loop_
 _symmetry_equiv_pos_site_id
 _symmetry_equiv_pos_as_xyz
  1  'x, y, z'
loop_
 _atom_site_type_symbol
 _atom_site_label
 _atom_site_symmetry_multiplicity
 _atom_site_fract_x
 _atom_site_fract_y
 _atom_site_fract_z
 _atom_site_occupancy
  Ho  Ho0  1  0.345339  0.352156  0.953364  1
  Ho  Ho1  1  0.345339  0.953364  0.352156  1
  Ho  Ho2  1  0.964206  0.345198  0.345198  1
  Ho  Ho3  1  0.815339  0.189337  0.189337  1
  Ho  Ho4  1  0.184944  0.811246  0.811246  1
  Ho  Ho5  1  0.187397  0.810842  0.188960  1
  Ho  Ho6  1  0.815203  0.189584  0.804147  1
  Ho  Ho7  1  0.187397  0.188960  0.810842  1
  Ho  Ho8  1  0.815203  0.804147  0.189584  1
  Ho  Ho9  1  0.936834  0.561807  0.561807  1
  Ho  Ho10  1  0.557484  0.937909  0.937909  1
  Ho  Ho11  1  0.557435  0.938152  0.566478  1
  Ho  Ho12  1  0.936439  0.561717  0.938507  1
  Ho  Ho13  1  0.557435  0.566478  0.938152  1
  Ho  Ho14  1  0.936439  0.938507  0.561717  1
  Er  Er15  1  0.345134  0.351872  0.351872  1
  Cd  Cd16  1  0.580975  0.580268  0.580268  1
  Cd  Cd17  1  0.580959  0.579872  0.258160  1
  Cd  Cd18  1  0.580959  0.258160  0.579872  1
  Cd  Cd19  1  0.255659  0.581221  0.581221  1
  Pd  Pd20  1  0.573584  0.143384  0.143384  1
  Ru  Ru21  1  0.145856  0.138165  0.138165  1
  Ru  Ru22  1  0.147221  0.140783  0.576868  1
  Ru  Ru23  1  0.147221  0.576868  0.140783  1
