# generated using pymatgen
data_Tb3In4CoNi
_symmetry_space_group_name_H-M   'P 1'
_cell_length_a   7.89421200
_cell_length_b   7.89421102
_cell_length_c   3.66822200
_cell_angle_alpha   90.00000000
_cell_angle_beta   90.00000000
_cell_angle_gamma   120.00000412
_symmetry_Int_Tables_number   1
_chemical_formula_structural   Tb3In4CoNi
_chemical_formula_sum   'Tb3 In4 Co1 Ni1'
_cell_volume   197.97198667
_cell_formula_units_Z   1
loop_
 _symmetry_equiv_pos_site_id
 _symmetry_equiv_pos_as_xyz
  1  'x, y, z'
loop_
 _atom_site_type_symbol
 _atom_site_label
 _atom_site_symmetry_multiplicity
 _atom_site_fract_x
 _atom_site_fract_y
 _atom_site_fract_z
 _atom_site_occupancy
  Tb  Tb0  1  0.707405  0.950477  0.500000  1
  Tb  Tb1  1  0.243072  0.292595  0.500000  1
  Tb  Tb2  1  0.049523  0.756928  0.500000  1
  In  In3  1  0.917891  0.334631  0.000000  1
  In  In4  1  0.416741  0.082109  0.000000  1
  In  In5  1  0.665369  0.583259  0.000000  1
  In  In6  1  0.333333  0.666667  0.000000  1
  Co  Co7  1  0.000000  0.000000  0.000000  1
  Ni  Ni8  1  0.666667  0.333333  0.500000  1
