# generated using pymatgen
data_ScTl8(WCl8)3
_symmetry_space_group_name_H-M   'P 1'
_cell_length_a   12.27106528
_cell_length_b   12.27106471
_cell_length_c   12.27106500
_cell_angle_alpha   131.92676998
_cell_angle_beta   131.92676761
_cell_angle_gamma   70.34470892
_symmetry_Int_Tables_number   1
_chemical_formula_structural   ScTl8(WCl8)3
_chemical_formula_sum   'Sc1 Tl8 W3 Cl24'
_cell_volume   1002.36488694
_cell_formula_units_Z   1
loop_
 _symmetry_equiv_pos_site_id
 _symmetry_equiv_pos_as_xyz
  1  'x, y, z'
loop_
 _atom_site_type_symbol
 _atom_site_label
 _atom_site_symmetry_multiplicity
 _atom_site_fract_x
 _atom_site_fract_y
 _atom_site_fract_z
 _atom_site_occupancy
  Sc  Sc0  1  0.000000  0.000000  0.000000  1
  Tl  Tl1  1  0.118010  0.641830  0.999030  1
  Tl  Tl2  1  0.358170  0.881990  0.000970  1
  Tl  Tl3  1  0.642800  0.641830  0.523819  1
  Tl  Tl4  1  0.358170  0.357200  0.476181  1
  Tl  Tl5  1  0.881020  0.357200  0.999030  1
  Tl  Tl6  1  0.881020  0.881990  0.523819  1
  Tl  Tl7  1  0.118010  0.118980  0.476181  1
  Tl  Tl8  1  0.642800  0.118980  0.000970  1
  W  W9  1  0.750000  0.250000  0.500000  1
  W  W10  1  0.500000  0.500000  0.000000  1
  W  W11  1  0.250000  0.750000  0.500000  1
  Cl  Cl12  1  0.248521  0.999806  0.248715  1
  Cl  Cl13  1  0.000194  0.751479  0.751285  1
  Cl  Cl14  1  0.251443  0.988344  0.736901  1
  Cl  Cl15  1  0.748968  0.486079  0.737111  1
  Cl  Cl16  1  0.485458  0.748557  0.736901  1
  Cl  Cl17  1  0.124287  0.124287  0.000000  1
  Cl  Cl18  1  0.499743  0.737413  0.237669  1
  Cl  Cl19  1  0.868491  0.368491  0.500000  1
  Cl  Cl20  1  0.000194  0.248910  0.248715  1
  Cl  Cl21  1  0.382410  0.382410  0.000000  1
  Cl  Cl22  1  0.617590  0.617590  0.000000  1
  Cl  Cl23  1  0.499743  0.262074  0.762331  1
  Cl  Cl24  1  0.262587  0.500257  0.762331  1
  Cl  Cl25  1  0.513921  0.251032  0.262889  1
  Cl  Cl26  1  0.368505  0.868505  0.500000  1
  Cl  Cl27  1  0.631509  0.131509  0.500000  1
  Cl  Cl28  1  0.251443  0.514542  0.263099  1
  Cl  Cl29  1  0.131495  0.631495  0.500000  1
  Cl  Cl30  1  0.011656  0.748557  0.263099  1
  Cl  Cl31  1  0.988144  0.251032  0.737111  1
  Cl  Cl32  1  0.751090  0.999806  0.751285  1
  Cl  Cl33  1  0.737926  0.500257  0.237669  1
  Cl  Cl34  1  0.748968  0.011856  0.262889  1
  Cl  Cl35  1  0.875713  0.875713  0.000000  1
