# generated using pymatgen
data_LaPr7Bi3O8
_symmetry_space_group_name_H-M   'P 1'
_cell_length_a   7.34463245
_cell_length_b   7.34480600
_cell_length_c   15.88185430
_cell_angle_alpha   73.49121070
_cell_angle_beta   73.49667293
_cell_angle_gamma   31.72060658
_symmetry_Int_Tables_number   1
_chemical_formula_structural   LaPr7Bi3O8
_chemical_formula_sum   'La1 Pr7 Bi3 O8'
_cell_volume   430.36055250
_cell_formula_units_Z   1
loop_
 _symmetry_equiv_pos_site_id
 _symmetry_equiv_pos_as_xyz
  1  'x, y, z'
loop_
 _atom_site_type_symbol
 _atom_site_label
 _atom_site_symmetry_multiplicity
 _atom_site_fract_x
 _atom_site_fract_y
 _atom_site_fract_z
 _atom_site_occupancy
  La  La0  1  0.543300  0.549988  0.169314  1
  Pr  Pr1  1  0.715706  0.724807  0.911172  1
  Pr  Pr2  1  0.276110  0.285224  0.088150  1
  Pr  Pr3  1  0.642272  0.642794  0.567843  1
  Pr  Pr4  1  0.357154  0.357736  0.432336  1
  Pr  Pr5  1  0.878296  0.880371  0.652246  1
  Pr  Pr6  1  0.119877  0.122086  0.348313  1
  Pr  Pr7  1  0.450684  0.456905  0.830963  1
  Bi  Bi8  1  0.170905  0.172361  0.733611  1
  Bi  Bi9  1  0.826483  0.828122  0.266898  1
  Bi  Bi10  1  0.990510  0.009295  0.998968  1
  O  O11  1  0.468348  0.470397  0.632762  1
  O  O12  1  0.529603  0.531644  0.367341  1
  O  O13  1  0.878770  0.885719  0.799487  1
  O  O14  1  0.114218  0.121164  0.200208  1
  O  O15  1  0.164508  0.165113  0.486776  1
  O  O16  1  0.834759  0.835300  0.513339  1
  O  O17  1  0.290859  0.300105  0.934068  1
  O  O18  1  0.699637  0.708869  0.066205  1
