# generated using pymatgen
data_Tm2Ta3Sn(B2Ru5)2
_symmetry_space_group_name_H-M   'P 1'
_cell_length_a   9.51292253
_cell_length_b   9.60429776
_cell_length_c   3.09307800
_cell_angle_alpha   90.00000000
_cell_angle_beta   90.00000000
_cell_angle_gamma   90.92489004
_symmetry_Int_Tables_number   1
_chemical_formula_structural   Tm2Ta3Sn(B2Ru5)2
_chemical_formula_sum   'Tm2 Ta3 Sn1 B4 Ru10'
_cell_volume   282.56206896
_cell_formula_units_Z   1
loop_
 _symmetry_equiv_pos_site_id
 _symmetry_equiv_pos_as_xyz
  1  'x, y, z'
loop_
 _atom_site_type_symbol
 _atom_site_label
 _atom_site_symmetry_multiplicity
 _atom_site_fract_x
 _atom_site_fract_y
 _atom_site_fract_z
 _atom_site_occupancy
  Tm  Tm0  1  0.820906  0.673732  0.000000  1
  Tm  Tm1  1  0.179094  0.326268  0.000000  1
  Ta  Ta2  1  0.320393  0.828694  0.000000  1
  Ta  Ta3  1  0.679607  0.171306  0.000000  1
  Ta  Ta4  1  0.000000  0.000000  0.000000  1
  Sn  Sn5  1  0.500000  0.500000  0.000000  1
  B  B6  1  0.619296  0.878952  0.000000  1
  B  B7  1  0.380704  0.121048  0.000000  1
  B  B8  1  0.120301  0.622312  0.000000  1
  B  B9  1  0.879699  0.377688  0.000000  1
  Ru  Ru10  1  0.555666  0.728413  0.500000  1
  Ru  Ru11  1  0.444334  0.271587  0.500000  1
  Ru  Ru12  1  0.077288  0.786166  0.500000  1
  Ru  Ru13  1  0.922712  0.213834  0.500000  1
  Ru  Ru14  1  0.282753  0.590601  0.500000  1
  Ru  Ru15  1  0.717247  0.409399  0.500000  1
  Ru  Ru16  1  0.222220  0.061229  0.500000  1
  Ru  Ru17  1  0.777780  0.938771  0.500000  1
  Ru  Ru18  1  0.500000  0.000000  0.500000  1
  Ru  Ru19  1  0.000000  0.500000  0.500000  1
