# generated using pymatgen
data_PrHg2O
_symmetry_space_group_name_H-M   'P 1'
_cell_length_a   5.79311639
_cell_length_b   5.80930921
_cell_length_c   12.48774708
_cell_angle_alpha   90.22154770
_cell_angle_beta   107.43584133
_cell_angle_gamma   90.00287482
_symmetry_Int_Tables_number   1
_chemical_formula_structural   PrHg2O
_chemical_formula_sum   'Pr4 Hg8 O4'
_cell_volume   400.94959788
_cell_formula_units_Z   4
loop_
 _symmetry_equiv_pos_site_id
 _symmetry_equiv_pos_as_xyz
  1  'x, y, z'
loop_
 _atom_site_type_symbol
 _atom_site_label
 _atom_site_symmetry_multiplicity
 _atom_site_fract_x
 _atom_site_fract_y
 _atom_site_fract_z
 _atom_site_occupancy
  Pr  Pr0  1  0.686822  0.999372  0.401132  1
  Pr  Pr1  1  0.186754  0.498985  0.401140  1
  Pr  Pr2  1  0.312813  0.000371  0.598859  1
  Pr  Pr3  1  0.812951  0.500945  0.598863  1
  Hg  Hg4  1  0.505856  0.993182  0.116072  1
  Hg  Hg5  1  0.005845  0.501943  0.116102  1
  Hg  Hg6  1  0.995258  0.498232  0.884028  1
  Hg  Hg7  1  0.494882  0.007269  0.884053  1
  Hg  Hg8  1  0.579136  0.494419  0.231041  1
  Hg  Hg9  1  0.079123  0.001871  0.231004  1
  Hg  Hg10  1  0.920542  0.998320  0.768862  1
  Hg  Hg11  1  0.420827  0.505421  0.768866  1
  O  O12  1  0.000035  0.250245  0.500320  1
  O  O13  1  0.499985  0.249623  0.500333  1
  O  O14  1  0.999595  0.749592  0.499673  1
  O  O15  1  0.499582  0.750225  0.499653  1
