# generated using pymatgen
data_Li6SmNp2N6
_symmetry_space_group_name_H-M   'P 1'
_cell_length_a   6.06654900
_cell_length_b   6.06654964
_cell_length_c   5.49227900
_cell_angle_alpha   90.00000000
_cell_angle_beta   90.00000000
_cell_angle_gamma   120.00000195
_symmetry_Int_Tables_number   1
_chemical_formula_structural   Li6SmNp2N6
_chemical_formula_sum   'Li6 Sm1 Np2 N6'
_cell_volume   175.05183971
_cell_formula_units_Z   1
loop_
 _symmetry_equiv_pos_site_id
 _symmetry_equiv_pos_as_xyz
  1  'x, y, z'
loop_
 _atom_site_type_symbol
 _atom_site_label
 _atom_site_symmetry_multiplicity
 _atom_site_fract_x
 _atom_site_fract_y
 _atom_site_fract_z
 _atom_site_occupancy
  Li  Li0  1  0.986089  0.657798  0.605886  1
  Li  Li1  1  0.342202  0.328290  0.605886  1
  Li  Li2  1  0.671710  0.013911  0.605886  1
  Li  Li3  1  0.013911  0.342202  0.394114  1
  Li  Li4  1  0.657798  0.671710  0.394114  1
  Li  Li5  1  0.328290  0.986089  0.394114  1
  Sm  Sm6  1  0.000000  0.000000  0.000000  1
  Np  Np7  1  0.333333  0.666667  0.995026  1
  Np  Np8  1  0.666667  0.333333  0.004974  1
  N  N9  1  0.001360  0.648071  0.225492  1
  N  N10  1  0.351929  0.353290  0.225492  1
  N  N11  1  0.646710  0.998640  0.225492  1
  N  N12  1  0.998640  0.351929  0.774508  1
  N  N13  1  0.648071  0.646710  0.774508  1
  N  N14  1  0.353290  0.001360  0.774508  1
