# generated using pymatgen
data_Yb3Sm5(Si4Tc3)4
_symmetry_space_group_name_H-M   'P 1'
_cell_length_a   6.85074549
_cell_length_b   6.84124692
_cell_length_c   12.86756100
_cell_angle_alpha   89.96046139
_cell_angle_beta   90.25431623
_cell_angle_gamma   89.61164944
_symmetry_Int_Tables_number   1
_chemical_formula_structural   Yb3Sm5(Si4Tc3)4
_chemical_formula_sum   'Yb3 Sm5 Si16 Tc12'
_cell_volume   603.05228552
_cell_formula_units_Z   1
loop_
 _symmetry_equiv_pos_site_id
 _symmetry_equiv_pos_as_xyz
  1  'x, y, z'
loop_
 _atom_site_type_symbol
 _atom_site_label
 _atom_site_symmetry_multiplicity
 _atom_site_fract_x
 _atom_site_fract_y
 _atom_site_fract_z
 _atom_site_occupancy
  Yb  Yb0  1  0.998585  0.668227  0.027746  1
  Yb  Yb1  1  0.999470  0.334078  0.528458  1
  Yb  Yb2  1  0.667450  0.998374  0.972104  1
  Sm  Sm3  1  0.163384  0.495214  0.781530  1
  Sm  Sm4  1  0.837488  0.505005  0.279591  1
  Sm  Sm5  1  0.496285  0.165207  0.218399  1
  Sm  Sm6  1  0.504854  0.836593  0.720463  1
  Sm  Sm7  1  0.334864  0.997559  0.470233  1
  Si  Si8  1  0.018058  0.720832  0.439516  1
  Si  Si9  1  0.976171  0.279338  0.938893  1
  Si  Si10  1  0.728314  0.022373  0.562962  1
  Si  Si11  1  0.223110  0.484696  0.183216  1
  Si  Si12  1  0.777979  0.516379  0.684477  1
  Si  Si13  1  0.483449  0.222407  0.817052  1
  Si  Si14  1  0.517637  0.773736  0.312623  1
  Si  Si15  1  0.279406  0.976747  0.061314  1
  Si  Si16  1  0.885580  0.807745  0.812927  1
  Si  Si17  1  0.113029  0.193404  0.311427  1
  Si  Si18  1  0.808739  0.886555  0.187133  1
  Si  Si19  1  0.304074  0.611208  0.562164  1
  Si  Si20  1  0.695378  0.383825  0.059465  1
  Si  Si21  1  0.617132  0.308589  0.439788  1
  Si  Si22  1  0.382884  0.695220  0.939692  1
  Si  Si23  1  0.190897  0.114761  0.688305  1
  Tc  Tc24  1  0.317845  0.489337  0.378056  1
  Tc  Tc25  1  0.819011  0.011276  0.372274  1
  Tc  Tc26  1  0.991076  0.179544  0.126963  1
  Tc  Tc27  1  0.011961  0.817897  0.629209  1
  Tc  Tc28  1  0.679077  0.513381  0.877020  1
  Tc  Tc29  1  0.486568  0.318146  0.623594  1
  Tc  Tc30  1  0.513560  0.680005  0.121541  1
  Tc  Tc31  1  0.178346  0.991776  0.872468  1
  Tc  Tc32  1  0.663359  0.665218  0.500794  1
  Tc  Tc33  1  0.834739  0.163743  0.750101  1
  Tc  Tc34  1  0.164132  0.835702  0.248526  1
  Tc  Tc35  1  0.336107  0.335903  0.999973  1
