# generated using pymatgen
data_Hf12Al9Fe3C3N
_symmetry_space_group_name_H-M   'P 1'
_cell_length_a   8.48036462
_cell_length_b   8.48036554
_cell_length_c   8.46170700
_cell_angle_alpha   60.07486428
_cell_angle_beta   60.07486069
_cell_angle_gamma   60.17304993
_symmetry_Int_Tables_number   1
_chemical_formula_structural   Hf12Al9Fe3C3N
_chemical_formula_sum   'Hf12 Al9 Fe3 C3 N1'
_cell_volume   431.34883740
_cell_formula_units_Z   1
loop_
 _symmetry_equiv_pos_site_id
 _symmetry_equiv_pos_as_xyz
  1  'x, y, z'
loop_
 _atom_site_type_symbol
 _atom_site_label
 _atom_site_symmetry_multiplicity
 _atom_site_fract_x
 _atom_site_fract_y
 _atom_site_fract_z
 _atom_site_occupancy
  Hf  Hf0  1  0.805613  0.805613  0.198555  1
  Hf  Hf1  1  0.194182  0.194182  0.807347  1
  Hf  Hf2  1  0.804277  0.194922  0.805882  1
  Hf  Hf3  1  0.189114  0.808016  0.196940  1
  Hf  Hf4  1  0.194922  0.804277  0.805882  1
  Hf  Hf5  1  0.808016  0.189114  0.196940  1
  Hf  Hf6  1  0.444387  0.444387  0.051445  1
  Hf  Hf7  1  0.055818  0.055818  0.442653  1
  Hf  Hf8  1  0.445723  0.055078  0.444118  1
  Hf  Hf9  1  0.060886  0.441984  0.053060  1
  Hf  Hf10  1  0.055078  0.445723  0.444118  1
  Hf  Hf11  1  0.441984  0.060886  0.053060  1
  Al  Al12  1  0.625000  0.625000  0.125000  1
  Al  Al13  1  0.740133  0.411826  0.436243  1
  Al  Al14  1  0.411826  0.740133  0.436243  1
  Al  Al15  1  0.419260  0.419260  0.742348  1
  Al  Al16  1  0.411491  0.411491  0.436233  1
  Al  Al17  1  0.509867  0.838174  0.813757  1
  Al  Al18  1  0.838174  0.509867  0.813757  1
  Al  Al19  1  0.830740  0.830740  0.507652  1
  Al  Al20  1  0.838509  0.838509  0.813767  1
  Fe  Fe21  1  0.125000  0.625000  0.625000  1
  Fe  Fe22  1  0.625000  0.125000  0.625000  1
  Fe  Fe23  1  0.625000  0.625000  0.625000  1
  C  C24  1  0.625000  0.125000  0.125000  1
  C  C25  1  0.125000  0.625000  0.125000  1
  C  C26  1  0.125000  0.125000  0.625000  1
  N  N27  1  0.125000  0.125000  0.125000  1
