# generated using pymatgen
data_K2CaMg(H6Ir)2
_symmetry_space_group_name_H-M   'P 1'
_cell_length_a   7.48351100
_cell_length_b   7.48351100
_cell_length_c   7.45587200
_cell_angle_alpha   90.00000000
_cell_angle_beta   90.00000000
_cell_angle_gamma   90.00000000
_symmetry_Int_Tables_number   1
_chemical_formula_structural   K2CaMg(H6Ir)2
_chemical_formula_sum   'K4 Ca2 Mg2 H24 Ir4'
_cell_volume   417.55072905
_cell_formula_units_Z   2
loop_
 _symmetry_equiv_pos_site_id
 _symmetry_equiv_pos_as_xyz
  1  'x, y, z'
loop_
 _atom_site_type_symbol
 _atom_site_label
 _atom_site_symmetry_multiplicity
 _atom_site_fract_x
 _atom_site_fract_y
 _atom_site_fract_z
 _atom_site_occupancy
  K  K0  1  0.000000  0.000000  0.500000  1
  K  K1  1  0.000000  0.500000  0.000000  1
  K  K2  1  0.500000  0.000000  0.000000  1
  K  K3  1  0.000000  0.000000  0.000000  1
  Ca  Ca4  1  0.000000  0.500000  0.500000  1
  Ca  Ca5  1  0.500000  0.000000  0.500000  1
  Mg  Mg6  1  0.500000  0.500000  0.500000  1
  Mg  Mg7  1  0.500000  0.500000  0.000000  1
  H  H8  1  0.727885  0.727885  0.496985  1
  H  H9  1  0.272115  0.272115  0.496985  1
  H  H10  1  0.057211  0.721713  0.732209  1
  H  H11  1  0.278287  0.942789  0.732209  1
  H  H12  1  0.721713  0.057211  0.732209  1
  H  H13  1  0.942789  0.278287  0.732209  1
  H  H14  1  0.725066  0.505274  0.726785  1
  H  H15  1  0.505274  0.725066  0.726785  1
  H  H16  1  0.494726  0.274934  0.726785  1
  H  H17  1  0.274934  0.494726  0.726785  1
  H  H18  1  0.287691  0.712309  0.953649  1
  H  H19  1  0.712309  0.287691  0.953649  1
  H  H20  1  0.712309  0.712309  0.046351  1
  H  H21  1  0.287691  0.287691  0.046351  1
  H  H22  1  0.274934  0.505274  0.273215  1
  H  H23  1  0.494726  0.725066  0.273215  1
  H  H24  1  0.505274  0.274934  0.273215  1
  H  H25  1  0.725066  0.494726  0.273215  1
  H  H26  1  0.942789  0.721713  0.267791  1
  H  H27  1  0.721713  0.942789  0.267791  1
  H  H28  1  0.278287  0.057211  0.267791  1
  H  H29  1  0.057211  0.278287  0.267791  1
  H  H30  1  0.272115  0.727885  0.503015  1
  H  H31  1  0.727885  0.272115  0.503015  1
  Ir  Ir32  1  0.283275  0.716725  0.726859  1
  Ir  Ir33  1  0.716725  0.283275  0.726859  1
  Ir  Ir34  1  0.716725  0.716725  0.273141  1
  Ir  Ir35  1  0.283275  0.283275  0.273141  1
