# generated using pymatgen
data_Er5Th5(SiPb3)2
_symmetry_space_group_name_H-M   'P 1'
_cell_length_a   9.49941534
_cell_length_b   9.49941649
_cell_length_c   6.58915300
_cell_angle_alpha   90.00000000
_cell_angle_beta   90.00000000
_cell_angle_gamma   119.96951933
_symmetry_Int_Tables_number   1
_chemical_formula_structural   Er5Th5(SiPb3)2
_chemical_formula_sum   'Er5 Th5 Si2 Pb6'
_cell_volume   515.09500466
_cell_formula_units_Z   1
loop_
 _symmetry_equiv_pos_site_id
 _symmetry_equiv_pos_as_xyz
  1  'x, y, z'
loop_
 _atom_site_type_symbol
 _atom_site_label
 _atom_site_symmetry_multiplicity
 _atom_site_fract_x
 _atom_site_fract_y
 _atom_site_fract_z
 _atom_site_occupancy
  Er  Er0  1  0.666134  0.333092  0.499758  1
  Er  Er1  1  0.333092  0.666134  0.499758  1
  Er  Er2  1  0.333092  0.666134  0.000242  1
  Er  Er3  1  0.666134  0.333092  0.000242  1
  Er  Er4  1  0.751832  0.751832  0.250000  1
  Th  Th5  1  0.253053  0.001273  0.250000  1
  Th  Th6  1  0.001273  0.253053  0.250000  1
  Th  Th7  1  0.247997  0.247997  0.750000  1
  Th  Th8  1  0.750631  0.999304  0.750000  1
  Th  Th9  1  0.999304  0.750631  0.750000  1
  Si  Si10  1  0.997785  0.997785  0.494077  1
  Si  Si11  1  0.997785  0.997785  0.005923  1
  Pb  Pb12  1  0.401210  0.401210  0.250000  1
  Pb  Pb13  1  0.606422  0.995087  0.250000  1
  Pb  Pb14  1  0.995087  0.606422  0.250000  1
  Pb  Pb15  1  0.604165  0.604165  0.750000  1
  Pb  Pb16  1  0.395605  0.999400  0.750000  1
  Pb  Pb17  1  0.999400  0.395605  0.750000  1
