# generated using pymatgen
data_HfZr5(Ti2Sn3)2
_symmetry_space_group_name_H-M   'P 1'
_cell_length_a   8.34792949
_cell_length_b   8.35656735
_cell_length_c   5.58845900
_cell_angle_alpha   90.00000000
_cell_angle_beta   90.00000000
_cell_angle_gamma   120.03422967
_symmetry_Int_Tables_number   1
_chemical_formula_structural   HfZr5(Ti2Sn3)2
_chemical_formula_sum   'Hf1 Zr5 Ti4 Sn6'
_cell_volume   337.50443957
_cell_formula_units_Z   1
loop_
 _symmetry_equiv_pos_site_id
 _symmetry_equiv_pos_as_xyz
  1  'x, y, z'
loop_
 _atom_site_type_symbol
 _atom_site_label
 _atom_site_symmetry_multiplicity
 _atom_site_fract_x
 _atom_site_fract_y
 _atom_site_fract_z
 _atom_site_occupancy
  Hf  Hf0  1  0.000000  0.759527  0.250000  1
  Zr  Zr1  1  0.760515  0.759751  0.750000  1
  Zr  Zr2  1  0.239485  0.999236  0.750000  1
  Zr  Zr3  1  0.000000  0.241125  0.750000  1
  Zr  Zr4  1  0.239882  0.239678  0.250000  1
  Zr  Zr5  1  0.760118  0.999796  0.250000  1
  Ti  Ti6  1  0.666772  0.333429  0.000191  1
  Ti  Ti7  1  0.333228  0.666658  0.000191  1
  Ti  Ti8  1  0.333228  0.666658  0.499809  1
  Ti  Ti9  1  0.666772  0.333429  0.499809  1
  Sn  Sn10  1  0.400886  0.400929  0.750000  1
  Sn  Sn11  1  0.599114  0.000043  0.750000  1
  Sn  Sn12  1  0.000000  0.599259  0.750000  1
  Sn  Sn13  1  0.599886  0.599370  0.250000  1
  Sn  Sn14  1  0.400114  0.999484  0.250000  1
  Sn  Sn15  1  0.000000  0.401629  0.250000  1
