# generated using pymatgen
data_NaNd4Tm5Sn8
_symmetry_space_group_name_H-M   'P 1'
_cell_length_a   8.04574900
_cell_length_b   8.25902100
_cell_length_c   15.51542700
_cell_angle_alpha   90.00000000
_cell_angle_beta   90.00000000
_cell_angle_gamma   90.00000000
_symmetry_Int_Tables_number   1
_chemical_formula_structural   NaNd4Tm5Sn8
_chemical_formula_sum   'Na2 Nd8 Tm10 Sn16'
_cell_volume   1031.00027856
_cell_formula_units_Z   2
loop_
 _symmetry_equiv_pos_site_id
 _symmetry_equiv_pos_as_xyz
  1  'x, y, z'
loop_
 _atom_site_type_symbol
 _atom_site_label
 _atom_site_symmetry_multiplicity
 _atom_site_fract_x
 _atom_site_fract_y
 _atom_site_fract_z
 _atom_site_occupancy
  Na  Na0  1  0.819830  0.499919  0.250000  1
  Na  Na1  1  0.319830  0.000081  0.250000  1
  Nd  Nd2  1  0.506098  0.323748  0.903025  1
  Nd  Nd3  1  0.006098  0.176252  0.596975  1
  Nd  Nd4  1  0.497699  0.682263  0.404176  1
  Nd  Nd5  1  0.997699  0.817737  0.095824  1
  Nd  Nd6  1  0.497699  0.682263  0.095824  1
  Nd  Nd7  1  0.997699  0.817737  0.404176  1
  Nd  Nd8  1  0.506098  0.323748  0.596975  1
  Nd  Nd9  1  0.006098  0.176252  0.903025  1
  Tm  Tm10  1  0.344565  0.835022  0.873821  1
  Tm  Tm11  1  0.844565  0.664978  0.626179  1
  Tm  Tm12  1  0.649736  0.168962  0.375294  1
  Tm  Tm13  1  0.149736  0.331038  0.124706  1
  Tm  Tm14  1  0.649736  0.168962  0.124706  1
  Tm  Tm15  1  0.149736  0.331038  0.375294  1
  Tm  Tm16  1  0.344565  0.835022  0.626179  1
  Tm  Tm17  1  0.844565  0.664978  0.873821  1
  Tm  Tm18  1  0.181457  0.501164  0.750000  1
  Tm  Tm19  1  0.681457  0.998836  0.750000  1
  Sn  Sn20  1  0.317316  0.042533  0.038243  1
  Sn  Sn21  1  0.817316  0.457467  0.461757  1
  Sn  Sn22  1  0.681662  0.959693  0.540906  1
  Sn  Sn23  1  0.181662  0.540307  0.959094  1
  Sn  Sn24  1  0.681662  0.959693  0.959094  1
  Sn  Sn25  1  0.181662  0.540307  0.540906  1
  Sn  Sn26  1  0.317316  0.042533  0.461757  1
  Sn  Sn27  1  0.817316  0.457467  0.038243  1
  Sn  Sn28  1  0.542228  0.622625  0.750000  1
  Sn  Sn29  1  0.042228  0.877375  0.750000  1
  Sn  Sn30  1  0.452213  0.385551  0.250000  1
  Sn  Sn31  1  0.952213  0.114449  0.250000  1
  Sn  Sn32  1  0.316028  0.144522  0.750000  1
  Sn  Sn33  1  0.816028  0.355478  0.750000  1
  Sn  Sn34  1  0.694094  0.865274  0.250000  1
  Sn  Sn35  1  0.194094  0.634726  0.250000  1
