# generated using pymatgen
data_Lu16AlZn3Ni4
_symmetry_space_group_name_H-M   'P 1'
_cell_length_a   9.17706521
_cell_length_b   9.20425756
_cell_length_c   9.20425700
_cell_angle_alpha   59.99999842
_cell_angle_beta   59.90193212
_cell_angle_gamma   59.90193253
_symmetry_Int_Tables_number   1
_chemical_formula_structural   Lu16AlZn3Ni4
_chemical_formula_sum   'Lu16 Al1 Zn3 Ni4'
_cell_volume   548.93506029
_cell_formula_units_Z   1
loop_
 _symmetry_equiv_pos_site_id
 _symmetry_equiv_pos_as_xyz
  1  'x, y, z'
loop_
 _atom_site_type_symbol
 _atom_site_label
 _atom_site_symmetry_multiplicity
 _atom_site_fract_x
 _atom_site_fract_y
 _atom_site_fract_z
 _atom_site_occupancy
  Lu  Lu0  1  0.602651  0.603038  0.603038  1
  Lu  Lu1  1  0.602651  0.603038  0.191273  1
  Lu  Lu2  1  0.602651  0.191273  0.603038  1
  Lu  Lu3  1  0.191531  0.602823  0.602823  1
  Lu  Lu4  1  0.059317  0.440898  0.440898  1
  Lu  Lu5  1  0.441048  0.058332  0.058332  1
  Lu  Lu6  1  0.441048  0.058332  0.442288  1
  Lu  Lu7  1  0.059317  0.440898  0.058888  1
  Lu  Lu8  1  0.441048  0.442288  0.058332  1
  Lu  Lu9  1  0.059317  0.058888  0.440898  1
  Lu  Lu10  1  0.182737  0.814945  0.814945  1
  Lu  Lu11  1  0.812317  0.186426  0.186426  1
  Lu  Lu12  1  0.812317  0.186426  0.814830  1
  Lu  Lu13  1  0.182737  0.814945  0.187373  1
  Lu  Lu14  1  0.812317  0.814830  0.186426  1
  Lu  Lu15  1  0.182737  0.187373  0.814945  1
  Al  Al16  1  0.519042  0.826985  0.826985  1
  Zn  Zn17  1  0.830645  0.829788  0.829788  1
  Zn  Zn18  1  0.830645  0.829788  0.509778  1
  Zn  Zn19  1  0.830645  0.509778  0.829788  1
  Ni  Ni20  1  0.394913  0.392564  0.392564  1
  Ni  Ni21  1  0.394913  0.392564  0.819958  1
  Ni  Ni22  1  0.394913  0.819958  0.392564  1
  Ni  Ni23  1  0.818541  0.393820  0.393820  1
