# generated using pymatgen
data_Dy4Mg3ZnPt4
_symmetry_space_group_name_H-M   'P 1'
_cell_length_a   4.13868700
_cell_length_b   7.10471132
_cell_length_c   8.60152614
_cell_angle_alpha   90.20720434
_cell_angle_beta   90.00000000
_cell_angle_gamma   90.00000000
_symmetry_Int_Tables_number   1
_chemical_formula_structural   Dy4Mg3ZnPt4
_chemical_formula_sum   'Dy4 Mg3 Zn1 Pt4'
_cell_volume   252.91913782
_cell_formula_units_Z   1
loop_
 _symmetry_equiv_pos_site_id
 _symmetry_equiv_pos_as_xyz
  1  'x, y, z'
loop_
 _atom_site_type_symbol
 _atom_site_label
 _atom_site_symmetry_multiplicity
 _atom_site_fract_x
 _atom_site_fract_y
 _atom_site_fract_z
 _atom_site_occupancy
  Dy  Dy0  1  0.250000  0.534954  0.183000  1
  Dy  Dy1  1  0.750000  0.458661  0.820462  1
  Dy  Dy2  1  0.250000  0.049436  0.328382  1
  Dy  Dy3  1  0.750000  0.962950  0.674424  1
  Mg  Mg4  1  0.250000  0.135897  0.939682  1
  Mg  Mg5  1  0.750000  0.862871  0.060866  1
  Mg  Mg6  1  0.250000  0.630937  0.556312  1
  Zn  Zn7  1  0.750000  0.364834  0.438972  1
  Pt  Pt8  1  0.750000  0.751130  0.372776  1
  Pt  Pt9  1  0.250000  0.251867  0.625878  1
  Pt  Pt10  1  0.750000  0.249797  0.129032  1
  Pt  Pt11  1  0.250000  0.746667  0.870214  1
