# generated using pymatgen
data_Ho3Er(Ga10Tc3)2
_symmetry_space_group_name_H-M   'P 1'
_cell_length_a   9.05424000
_cell_length_b   9.05424000
_cell_length_c   6.32823800
_cell_angle_alpha   90.00000000
_cell_angle_beta   90.00000000
_cell_angle_gamma   90.00331590
_symmetry_Int_Tables_number   1
_chemical_formula_structural   Ho3Er(Ga10Tc3)2
_chemical_formula_sum   'Ho3 Er1 Ga20 Tc6'
_cell_volume   518.78428042
_cell_formula_units_Z   1
loop_
 _symmetry_equiv_pos_site_id
 _symmetry_equiv_pos_as_xyz
  1  'x, y, z'
loop_
 _atom_site_type_symbol
 _atom_site_label
 _atom_site_symmetry_multiplicity
 _atom_site_fract_x
 _atom_site_fract_y
 _atom_site_fract_z
 _atom_site_occupancy
  Ho  Ho0  1  0.683014  0.183012  0.000000  1
  Ho  Ho1  1  0.316988  0.816986  0.000000  1
  Ho  Ho2  1  0.816987  0.683013  0.000000  1
  Er  Er3  1  0.183020  0.316980  0.000000  1
  Ga  Ga4  1  0.939944  0.205222  0.292067  1
  Ga  Ga5  1  0.705216  0.439926  0.292087  1
  Ga  Ga6  1  0.500002  0.999998  0.289003  1
  Ga  Ga7  1  0.560073  0.705215  0.707910  1
  Ga  Ga8  1  0.294778  0.560056  0.707933  1
  Ga  Ga9  1  0.794785  0.939927  0.292090  1
  Ga  Ga10  1  0.939944  0.205222  0.707933  1
  Ga  Ga11  1  0.294778  0.560056  0.292067  1
  Ga  Ga12  1  0.060074  0.794784  0.292087  1
  Ga  Ga13  1  0.705216  0.439926  0.707913  1
  Ga  Ga14  1  0.439904  0.294790  0.707938  1
  Ga  Ga15  1  0.060074  0.794784  0.707913  1
  Ga  Ga16  1  0.205210  0.060096  0.707938  1
  Ga  Ga17  1  0.794785  0.939927  0.707910  1
  Ga  Ga18  1  0.205210  0.060096  0.292062  1
  Ga  Ga19  1  0.000017  0.499983  0.711030  1
  Ga  Ga20  1  0.000017  0.499983  0.288970  1
  Ga  Ga21  1  0.560073  0.705215  0.292090  1
  Ga  Ga22  1  0.439904  0.294790  0.292062  1
  Ga  Ga23  1  0.500002  0.999998  0.710997  1
  Tc  Tc24  1  0.679213  0.179219  0.500000  1
  Tc  Tc25  1  0.820784  0.679216  0.500000  1
  Tc  Tc26  1  0.179219  0.320781  0.500000  1
  Tc  Tc27  1  0.000017  0.000027  0.000000  1
  Tc  Tc28  1  0.320781  0.820787  0.500000  1
  Tc  Tc29  1  0.499973  0.499983  0.000000  1
