# generated using pymatgen
data_Ho4ScIr2Ru
_symmetry_space_group_name_H-M   'P 1'
_cell_length_a   10.66889600
_cell_length_b   10.66889600
_cell_length_c   6.31388700
_cell_angle_alpha   90.00000000
_cell_angle_beta   90.00000000
_cell_angle_gamma   90.00000000
_symmetry_Int_Tables_number   1
_chemical_formula_structural   Ho4ScIr2Ru
_chemical_formula_sum   'Ho16 Sc4 Ir8 Ru4'
_cell_volume   718.68034623
_cell_formula_units_Z   4
loop_
 _symmetry_equiv_pos_site_id
 _symmetry_equiv_pos_as_xyz
  1  'x, y, z'
loop_
 _atom_site_type_symbol
 _atom_site_label
 _atom_site_symmetry_multiplicity
 _atom_site_fract_x
 _atom_site_fract_y
 _atom_site_fract_z
 _atom_site_occupancy
  Ho  Ho0  1  0.290240  0.085341  0.376737  1
  Ho  Ho1  1  0.290240  0.914659  0.876737  1
  Ho  Ho2  1  0.709760  0.085341  0.876737  1
  Ho  Ho3  1  0.709760  0.914659  0.376737  1
  Ho  Ho4  1  0.585341  0.790240  0.876737  1
  Ho  Ho5  1  0.585341  0.209760  0.376737  1
  Ho  Ho6  1  0.414659  0.790240  0.376737  1
  Ho  Ho7  1  0.414659  0.209760  0.876737  1
  Ho  Ho8  1  0.209760  0.414659  0.623263  1
  Ho  Ho9  1  0.209760  0.585341  0.123263  1
  Ho  Ho10  1  0.790240  0.414659  0.123263  1
  Ho  Ho11  1  0.790240  0.585341  0.623263  1
  Ho  Ho12  1  0.914659  0.709760  0.123263  1
  Ho  Ho13  1  0.914659  0.290240  0.623263  1
  Ho  Ho14  1  0.085341  0.709760  0.623263  1
  Ho  Ho15  1  0.085341  0.290240  0.123263  1
  Sc  Sc16  1  0.000000  0.000000  0.500000  1
  Sc  Sc17  1  0.000000  0.000000  0.000000  1
  Sc  Sc18  1  0.500000  0.500000  0.000000  1
  Sc  Sc19  1  0.500000  0.500000  0.500000  1
  Ir  Ir20  1  0.852763  0.147237  0.250000  1
  Ir  Ir21  1  0.852763  0.852763  0.750000  1
  Ir  Ir22  1  0.147237  0.147237  0.750000  1
  Ir  Ir23  1  0.147237  0.852763  0.250000  1
  Ir  Ir24  1  0.647237  0.352763  0.750000  1
  Ir  Ir25  1  0.647237  0.647237  0.250000  1
  Ir  Ir26  1  0.352763  0.352763  0.250000  1
  Ir  Ir27  1  0.352763  0.647237  0.750000  1
  Ru  Ru28  1  0.500000  0.000000  0.123108  1
  Ru  Ru29  1  0.500000  0.000000  0.623108  1
  Ru  Ru30  1  0.000000  0.500000  0.876892  1
  Ru  Ru31  1  0.000000  0.500000  0.376892  1
