# generated using pymatgen
data_CsMnPO4
_symmetry_space_group_name_H-M   'P 1'
_cell_length_a   5.63364600
_cell_length_b   9.37361203
_cell_length_c   9.54789874
_cell_angle_alpha   90.73317804
_cell_angle_beta   89.99933281
_cell_angle_gamma   89.99862137
_symmetry_Int_Tables_number   1
_chemical_formula_structural   CsMnPO4
_chemical_formula_sum   'Cs4 Mn4 P4 O16'
_cell_volume   504.16045101
_cell_formula_units_Z   4
loop_
 _symmetry_equiv_pos_site_id
 _symmetry_equiv_pos_as_xyz
  1  'x, y, z'
loop_
 _atom_site_type_symbol
 _atom_site_label
 _atom_site_symmetry_multiplicity
 _atom_site_fract_x
 _atom_site_fract_y
 _atom_site_fract_z
 _atom_site_occupancy
  Cs  Cs0  1  0.874103  0.994183  0.803258  1
  Cs  Cs1  1  0.374076  0.005815  0.196746  1
  Cs  Cs2  1  0.407215  0.508996  0.307548  1
  Cs  Cs3  1  0.907207  0.490988  0.692434  1
  Mn  Mn4  1  0.409877  0.670688  0.907859  1
  Mn  Mn5  1  0.364467  0.162023  0.568933  1
  Mn  Mn6  1  0.909868  0.329325  0.092109  1
  Mn  Mn7  1  0.864371  0.837976  0.431157  1
  P  P8  1  0.402143  0.799443  0.577121  1
  P  P9  1  0.902162  0.200551  0.422871  1
  P  P10  1  0.409115  0.302478  0.900648  1
  P  P11  1  0.909111  0.697532  0.099352  1
  O  O12  1  0.172072  0.732208  0.061234  1
  O  O13  1  0.672091  0.267806  0.938749  1
  O  O14  1  0.825725  0.801190  0.217901  1
  O  O15  1  0.325721  0.198808  0.782120  1
  O  O16  1  0.681722  0.254972  0.504957  1
  O  O17  1  0.181710  0.745031  0.495029  1
  O  O18  1  0.621513  0.704827  0.538627  1
  O  O19  1  0.121555  0.295143  0.461372  1
  O  O20  1  0.389256  0.459139  0.850053  1
  O  O21  1  0.889258  0.540871  0.149940  1
  O  O22  1  0.850326  0.201565  0.263037  1
  O  O23  1  0.350294  0.798449  0.736951  1
  O  O24  1  0.751758  0.720341  0.967271  1
  O  O25  1  0.251766  0.279665  0.032731  1
  O  O26  1  0.976449  0.047107  0.468716  1
  O  O27  1  0.476471  0.952880  0.531280  1
