# generated using pymatgen
data_Ta3AlGaCuC
_symmetry_space_group_name_H-M   'P 1'
_cell_length_a   8.28593955
_cell_length_b   8.28593960
_cell_length_c   8.28593827
_cell_angle_alpha   60.02389907
_cell_angle_beta   60.02389810
_cell_angle_gamma   60.02389637
_symmetry_Int_Tables_number   1
_chemical_formula_structural   Ta3AlGaCuC
_chemical_formula_sum   'Ta12 Al4 Ga4 Cu4 C4'
_cell_volume   402.48104484
_cell_formula_units_Z   4
loop_
 _symmetry_equiv_pos_site_id
 _symmetry_equiv_pos_as_xyz
  1  'x, y, z'
loop_
 _atom_site_type_symbol
 _atom_site_label
 _atom_site_symmetry_multiplicity
 _atom_site_fract_x
 _atom_site_fract_y
 _atom_site_fract_z
 _atom_site_occupancy
  Ta  Ta0  1  0.566835  0.933292  0.566835  1
  Ta  Ta1  1  0.317458  0.682730  0.682730  1
  Ta  Ta2  1  0.682964  0.316830  0.316830  1
  Ta  Ta3  1  0.316830  0.682964  0.316830  1
  Ta  Ta4  1  0.682730  0.682730  0.317458  1
  Ta  Ta5  1  0.316830  0.316830  0.682964  1
  Ta  Ta6  1  0.566835  0.566835  0.933292  1
  Ta  Ta7  1  0.933292  0.566835  0.566835  1
  Ta  Ta8  1  0.567148  0.932809  0.932809  1
  Ta  Ta9  1  0.932809  0.932809  0.567148  1
  Ta  Ta10  1  0.682730  0.317458  0.682730  1
  Ta  Ta11  1  0.932809  0.567148  0.932809  1
  Al  Al12  1  0.916379  0.250553  0.916379  1
  Al  Al13  1  0.916379  0.916379  0.250553  1
  Al  Al14  1  0.250553  0.916379  0.916379  1
  Al  Al15  1  0.333574  0.333574  0.333574  1
  Ga  Ga16  1  0.916172  0.916172  0.916172  1
  Ga  Ga17  1  0.996430  0.334684  0.334684  1
  Ga  Ga18  1  0.334684  0.996430  0.334684  1
  Ga  Ga19  1  0.334684  0.334684  0.996430  1
  Cu  Cu20  1  0.124158  0.124158  0.124158  1
  Cu  Cu21  1  0.625033  0.125885  0.125885  1
  Cu  Cu22  1  0.125885  0.625033  0.125885  1
  Cu  Cu23  1  0.125885  0.125885  0.625033  1
  C  C24  1  0.624843  0.624843  0.624843  1
  C  C25  1  0.124833  0.625618  0.625618  1
  C  C26  1  0.625618  0.124833  0.625618  1
  C  C27  1  0.625618  0.625618  0.124833  1
