# generated using pymatgen
data_Cu9(SbSe3)4
_symmetry_space_group_name_H-M   'P 1'
_cell_length_a   8.94952584
_cell_length_b   8.94952560
_cell_length_c   8.94952439
_cell_angle_alpha   107.57274262
_cell_angle_beta   107.57274915
_cell_angle_gamma   107.57273932
_symmetry_Int_Tables_number   1
_chemical_formula_structural   Cu9(SbSe3)4
_chemical_formula_sum   'Cu9 Sb4 Se12'
_cell_volume   587.38431242
_cell_formula_units_Z   1
loop_
 _symmetry_equiv_pos_site_id
 _symmetry_equiv_pos_as_xyz
  1  'x, y, z'
loop_
 _atom_site_type_symbol
 _atom_site_label
 _atom_site_symmetry_multiplicity
 _atom_site_fract_x
 _atom_site_fract_y
 _atom_site_fract_z
 _atom_site_occupancy
  Cu  Cu0  1  0.226057  0.702085  0.077552  1
  Cu  Cu1  1  0.702085  0.077552  0.226057  1
  Cu  Cu2  1  0.077552  0.226057  0.702085  1
  Cu  Cu3  1  0.171413  0.463421  0.397717  1
  Cu  Cu4  1  0.463421  0.397717  0.171413  1
  Cu  Cu5  1  0.397717  0.171413  0.463421  1
  Cu  Cu6  1  0.924998  0.773163  0.312728  1
  Cu  Cu7  1  0.773163  0.312728  0.924998  1
  Cu  Cu8  1  0.312728  0.924998  0.773163  1
  Sb  Sb9  1  0.631743  0.843207  0.566468  1
  Sb  Sb10  1  0.843207  0.566468  0.631743  1
  Sb  Sb11  1  0.566468  0.631743  0.843207  1
  Sb  Sb12  1  0.975518  0.975518  0.975518  1
  Se  Se13  1  0.836338  0.990841  0.441321  1
  Se  Se14  1  0.990841  0.441321  0.836338  1
  Se  Se15  1  0.441321  0.836338  0.990841  1
  Se  Se16  1  0.073472  0.677894  0.515089  1
  Se  Se17  1  0.677894  0.515089  0.073472  1
  Se  Se18  1  0.515089  0.073472  0.677894  1
  Se  Se19  1  0.146761  0.913995  0.230335  1
  Se  Se20  1  0.913995  0.230335  0.146761  1
  Se  Se21  1  0.230335  0.146761  0.913995  1
  Se  Se22  1  0.354824  0.599673  0.282384  1
  Se  Se23  1  0.599673  0.282384  0.354824  1
  Se  Se24  1  0.282384  0.354824  0.599673  1
