# generated using pymatgen
data_La16Ho4Ir7Rh5
_symmetry_space_group_name_H-M   'P 1'
_cell_length_a   11.32715454
_cell_length_b   11.32715454
_cell_length_c   6.62156626
_cell_angle_alpha   90.08094264
_cell_angle_beta   90.08094264
_cell_angle_gamma   90.03949634
_symmetry_Int_Tables_number   1
_chemical_formula_structural   La16Ho4Ir7Rh5
_chemical_formula_sum   'La16 Ho4 Ir7 Rh5'
_cell_volume   849.57438582
_cell_formula_units_Z   1
loop_
 _symmetry_equiv_pos_site_id
 _symmetry_equiv_pos_as_xyz
  1  'x, y, z'
loop_
 _atom_site_type_symbol
 _atom_site_label
 _atom_site_symmetry_multiplicity
 _atom_site_fract_x
 _atom_site_fract_y
 _atom_site_fract_z
 _atom_site_occupancy
  La  La0  1  0.286296  0.088492  0.392682  1
  La  La1  1  0.286821  0.911387  0.892706  1
  La  La2  1  0.712608  0.087952  0.892111  1
  La  La3  1  0.712772  0.909707  0.393635  1
  La  La4  1  0.588397  0.786287  0.893172  1
  La  La5  1  0.586563  0.214006  0.393453  1
  La  La6  1  0.411282  0.786612  0.393190  1
  La  La7  1  0.411549  0.213343  0.893014  1
  La  La8  1  0.213713  0.411603  0.606828  1
  La  La9  1  0.213388  0.588718  0.106810  1
  La  La10  1  0.785994  0.413437  0.106547  1
  La  La11  1  0.786657  0.588451  0.606986  1
  La  La12  1  0.911508  0.713704  0.107318  1
  La  La13  1  0.912048  0.287392  0.607889  1
  La  La14  1  0.088613  0.713179  0.607294  1
  La  La15  1  0.090293  0.287228  0.106365  1
  Ho  Ho16  1  0.000434  0.999289  0.500343  1
  Ho  Ho17  1  0.000711  0.999566  0.999657  1
  Ho  Ho18  1  0.499778  0.499928  0.999799  1
  Ho  Ho19  1  0.500072  0.500222  0.500201  1
  Ir  Ir20  1  0.851057  0.851785  0.750073  1
  Ir  Ir21  1  0.148215  0.148943  0.749927  1
  Ir  Ir22  1  0.148728  0.851272  0.250000  1
  Ir  Ir23  1  0.649431  0.350569  0.750000  1
  Ir  Ir24  1  0.649112  0.648998  0.250137  1
  Ir  Ir25  1  0.351002  0.350888  0.249863  1
  Ir  Ir26  1  0.351102  0.648898  0.750000  1
  Rh  Rh27  1  0.851054  0.148946  0.250000  1
  Rh  Rh28  1  0.501046  0.000418  0.121124  1
  Rh  Rh29  1  0.500420  0.000245  0.621130  1
  Rh  Rh30  1  0.999755  0.499580  0.878870  1
  Rh  Rh31  1  0.999582  0.498954  0.378876  1
