# generated using pymatgen
data_Sm3Ga4Co6Ni3B2
_symmetry_space_group_name_H-M   'P 1'
_cell_length_a   5.21950900
_cell_length_b   5.21950841
_cell_length_c   10.45199700
_cell_angle_alpha   90.00000000
_cell_angle_beta   90.00000000
_cell_angle_gamma   119.99999738
_symmetry_Int_Tables_number   1
_chemical_formula_structural   Sm3Ga4Co6Ni3B2
_chemical_formula_sum   'Sm3 Ga4 Co6 Ni3 B2'
_cell_volume   246.59778552
_cell_formula_units_Z   1
loop_
 _symmetry_equiv_pos_site_id
 _symmetry_equiv_pos_as_xyz
  1  'x, y, z'
loop_
 _atom_site_type_symbol
 _atom_site_label
 _atom_site_symmetry_multiplicity
 _atom_site_fract_x
 _atom_site_fract_y
 _atom_site_fract_z
 _atom_site_occupancy
  Sm  Sm0  1  0.000000  0.000000  0.000000  1
  Sm  Sm1  1  0.000000  0.000000  0.676833  1
  Sm  Sm2  1  0.000000  0.000000  0.323167  1
  Ga  Ga3  1  0.666667  0.333333  0.685905  1
  Ga  Ga4  1  0.333333  0.666667  0.685905  1
  Ga  Ga5  1  0.333333  0.666667  0.314095  1
  Ga  Ga6  1  0.666667  0.333333  0.314095  1
  Co  Co7  1  0.500000  0.500000  0.870569  1
  Co  Co8  1  0.500000  0.000000  0.870569  1
  Co  Co9  1  0.000000  0.500000  0.870569  1
  Co  Co10  1  0.500000  0.500000  0.129431  1
  Co  Co11  1  0.500000  0.000000  0.129431  1
  Co  Co12  1  0.000000  0.500000  0.129431  1
  Ni  Ni13  1  0.500000  0.500000  0.500000  1
  Ni  Ni14  1  0.500000  0.000000  0.500000  1
  Ni  Ni15  1  0.000000  0.500000  0.500000  1
  B  B16  1  0.666667  0.333333  0.000000  1
  B  B17  1  0.333333  0.666667  0.000000  1
