# generated using pymatgen
data_Tb8Ti5Re(Si8W3)2
_symmetry_space_group_name_H-M   'P 1'
_cell_length_a   6.94166161
_cell_length_b   6.93993108
_cell_length_c   12.85678613
_cell_angle_alpha   89.79503297
_cell_angle_beta   90.05106930
_cell_angle_gamma   89.99438250
_symmetry_Int_Tables_number   1
_chemical_formula_structural   Tb8Ti5Re(Si8W3)2
_chemical_formula_sum   'Tb8 Ti5 Re1 Si16 W6'
_cell_volume   619.36699994
_cell_formula_units_Z   1
loop_
 _symmetry_equiv_pos_site_id
 _symmetry_equiv_pos_as_xyz
  1  'x, y, z'
loop_
 _atom_site_type_symbol
 _atom_site_label
 _atom_site_symmetry_multiplicity
 _atom_site_fract_x
 _atom_site_fract_y
 _atom_site_fract_z
 _atom_site_occupancy
  Tb  Tb0  1  0.339938  0.002262  0.467240  1
  Tb  Tb1  1  0.497829  0.840192  0.719108  1
  Tb  Tb2  1  0.501368  0.161078  0.217730  1
  Tb  Tb3  1  0.839188  0.497263  0.281166  1
  Tb  Tb4  1  0.160477  0.500903  0.782950  1
  Tb  Tb5  1  0.660716  0.997931  0.968423  1
  Tb  Tb6  1  0.002515  0.338775  0.532245  1
  Tb  Tb7  1  0.997492  0.662021  0.030585  1
  Ti  Ti8  1  0.329817  0.331545  0.999633  1
  Ti  Ti9  1  0.169124  0.829386  0.249925  1
  Ti  Ti10  1  0.828404  0.171069  0.750717  1
  Ti  Ti11  1  0.669072  0.666887  0.499297  1
  Ti  Ti12  1  0.994521  0.840240  0.625757  1
  Re  Re13  1  0.162494  0.008459  0.875383  1
  Si  Si14  1  0.202256  0.127768  0.684473  1
  Si  Si15  1  0.372508  0.702952  0.933357  1
  Si  Si16  1  0.628599  0.297535  0.433707  1
  Si  Si17  1  0.700537  0.373291  0.066446  1
  Si  Si18  1  0.300710  0.627644  0.565865  1
  Si  Si19  1  0.798738  0.871988  0.183536  1
  Si  Si20  1  0.126435  0.201010  0.316623  1
  Si  Si21  1  0.875638  0.801461  0.815600  1
  Si  Si22  1  0.288326  0.961188  0.062540  1
  Si  Si23  1  0.540049  0.789099  0.312768  1
  Si  Si24  1  0.458311  0.210728  0.813426  1
  Si  Si25  1  0.788985  0.541647  0.687315  1
  Si  Si26  1  0.210118  0.459435  0.186691  1
  Si  Si27  1  0.711008  0.041655  0.563339  1
  Si  Si28  1  0.960653  0.287618  0.937526  1
  Si  Si29  1  0.042114  0.709674  0.436921  1
  W  W30  1  0.491294  0.660854  0.123638  1
  W  W31  1  0.506291  0.339254  0.624259  1
  W  W32  1  0.658471  0.491820  0.877188  1
  W  W33  1  0.341791  0.503924  0.374505  1
  W  W34  1  0.838730  0.991270  0.373766  1
  W  W35  1  0.005479  0.160175  0.126348  1
