# generated using pymatgen
data_Na2Zn2F7
_symmetry_space_group_name_H-M   'P 1'
_cell_length_a   7.43755202
_cell_length_b   7.43755209
_cell_length_c   7.43755300
_cell_angle_alpha   60.00000039
_cell_angle_beta   60.00000010
_cell_angle_gamma   60.00000292
_symmetry_Int_Tables_number   1
_chemical_formula_structural   Na2Zn2F7
_chemical_formula_sum   'Na4 Zn4 F14'
_cell_volume   290.92103473
_cell_formula_units_Z   2
loop_
 _symmetry_equiv_pos_site_id
 _symmetry_equiv_pos_as_xyz
  1  'x, y, z'
loop_
 _atom_site_type_symbol
 _atom_site_label
 _atom_site_symmetry_multiplicity
 _atom_site_fract_x
 _atom_site_fract_y
 _atom_site_fract_z
 _atom_site_occupancy
  Na  Na0  1  0.125000  0.125000  0.625000  1
  Na  Na1  1  0.125000  0.625000  0.125000  1
  Na  Na2  1  0.125000  0.125000  0.125000  1
  Na  Na3  1  0.625000  0.125000  0.125000  1
  Zn  Zn4  1  0.125000  0.625000  0.625000  1
  Zn  Zn5  1  0.625000  0.625000  0.625000  1
  Zn  Zn6  1  0.625000  0.125000  0.625000  1
  Zn  Zn7  1  0.625000  0.625000  0.125000  1
  F  F8  1  0.302602  0.697398  0.697398  1
  F  F9  1  0.697398  0.302602  0.697398  1
  F  F10  1  0.302602  0.302602  0.697398  1
  F  F11  1  0.552602  0.947398  0.947398  1
  F  F12  1  0.697398  0.697398  0.302602  1
  F  F13  1  0.000000  0.000000  0.000000  1
  F  F14  1  0.947398  0.552602  0.947398  1
  F  F15  1  0.302602  0.697398  0.302602  1
  F  F16  1  0.250000  0.250000  0.250000  1
  F  F17  1  0.552602  0.552602  0.947398  1
  F  F18  1  0.697398  0.302602  0.302602  1
  F  F19  1  0.947398  0.947398  0.552602  1
  F  F20  1  0.552602  0.947398  0.552602  1
  F  F21  1  0.947398  0.552602  0.552602  1
