# generated using pymatgen
data_YbYCoIr3
_symmetry_space_group_name_H-M   'P 1'
_cell_length_a   5.17187073
_cell_length_b   5.17187093
_cell_length_c   5.17187109
_cell_angle_alpha   62.63625717
_cell_angle_beta   62.63625991
_cell_angle_gamma   62.63626792
_symmetry_Int_Tables_number   1
_chemical_formula_structural   YbYCoIr3
_chemical_formula_sum   'Yb1 Y1 Co1 Ir3'
_cell_volume   103.56110085
_cell_formula_units_Z   1
loop_
 _symmetry_equiv_pos_site_id
 _symmetry_equiv_pos_as_xyz
  1  'x, y, z'
loop_
 _atom_site_type_symbol
 _atom_site_label
 _atom_site_symmetry_multiplicity
 _atom_site_fract_x
 _atom_site_fract_y
 _atom_site_fract_z
 _atom_site_occupancy
  Yb  Yb0  1  0.250510  0.250510  0.250510  1
  Y  Y1  1  0.000152  0.000152  0.000152  1
  Co  Co2  1  0.625031  0.625031  0.625031  1
  Ir  Ir3  1  0.624300  0.624300  0.125707  1
  Ir  Ir4  1  0.624300  0.125707  0.624300  1
  Ir  Ir5  1  0.125707  0.624300  0.624300  1
