# generated using pymatgen
data_Cs2PO4
_symmetry_space_group_name_H-M   'P 1'
_cell_length_a   8.55466100
_cell_length_b   11.16782300
_cell_length_c   6.49514900
_cell_angle_alpha   90.00289348
_cell_angle_beta   89.99884393
_cell_angle_gamma   89.99951934
_symmetry_Int_Tables_number   1
_chemical_formula_structural   Cs2PO4
_chemical_formula_sum   'Cs8 P4 O16'
_cell_volume   620.52665901
_cell_formula_units_Z   4
loop_
 _symmetry_equiv_pos_site_id
 _symmetry_equiv_pos_as_xyz
  1  'x, y, z'
loop_
 _atom_site_type_symbol
 _atom_site_label
 _atom_site_symmetry_multiplicity
 _atom_site_fract_x
 _atom_site_fract_y
 _atom_site_fract_z
 _atom_site_occupancy
  Cs  Cs0  1  0.178483  0.089364  0.250011  1
  Cs  Cs1  1  0.678493  0.410639  0.249994  1
  Cs  Cs2  1  0.995800  0.705297  0.249915  1
  Cs  Cs3  1  0.495806  0.794700  0.249932  1
  Cs  Cs4  1  0.504216  0.205296  0.749970  1
  Cs  Cs5  1  0.004198  0.294701  0.749958  1
  Cs  Cs6  1  0.321530  0.589362  0.750032  1
  Cs  Cs7  1  0.821515  0.910627  0.750040  1
  P  P8  1  0.742086  0.078495  0.249961  1
  P  P9  1  0.242096  0.421501  0.250051  1
  P  P10  1  0.757915  0.578509  0.750182  1
  P  P11  1  0.257899  0.921497  0.750100  1
  O  O12  1  0.795924  0.144484  0.051502  1
  O  O13  1  0.295903  0.355509  0.051517  1
  O  O14  1  0.559447  0.086087  0.249996  1
  O  O15  1  0.059452  0.413913  0.249942  1
  O  O16  1  0.302753  0.551743  0.249998  1
  O  O17  1  0.802739  0.948255  0.249985  1
  O  O18  1  0.795915  0.144496  0.448459  1
  O  O19  1  0.295959  0.355504  0.448481  1
  O  O20  1  0.704143  0.644479  0.551532  1
  O  O21  1  0.204091  0.855515  0.551528  1
  O  O22  1  0.197213  0.051760  0.750025  1
  O  O23  1  0.697230  0.448249  0.750001  1
  O  O24  1  0.940599  0.586067  0.749868  1
  O  O25  1  0.440593  0.913937  0.749952  1
  O  O26  1  0.703985  0.644504  0.948545  1
  O  O27  1  0.204018  0.855510  0.948546  1
