# generated using pymatgen
data_YEr3(Al8Ni3)3
_symmetry_space_group_name_H-M   'P 1'
_cell_length_a   7.32205056
_cell_length_b   7.35996630
_cell_length_c   12.78372850
_cell_angle_alpha   84.61684148
_cell_angle_beta   79.07465190
_cell_angle_gamma   60.02118908
_symmetry_Int_Tables_number   1
_chemical_formula_structural   YEr3(Al8Ni3)3
_chemical_formula_sum   'Y1 Er3 Al24 Ni9'
_cell_volume   585.92948882
_cell_formula_units_Z   1
loop_
 _symmetry_equiv_pos_site_id
 _symmetry_equiv_pos_as_xyz
  1  'x, y, z'
loop_
 _atom_site_type_symbol
 _atom_site_label
 _atom_site_symmetry_multiplicity
 _atom_site_fract_x
 _atom_site_fract_y
 _atom_site_fract_z
 _atom_site_occupancy
  Y  Y0  1  0.394029  0.168575  0.805371  1
  Er  Er1  1  0.605817  0.831048  0.195646  1
  Er  Er2  1  0.734925  0.497759  0.804674  1
  Er  Er3  1  0.265032  0.502236  0.195471  1
  Al  Al4  1  0.681282  0.832829  0.948626  1
  Al  Al5  1  0.319870  0.166261  0.052851  1
  Al  Al6  1  0.145847  0.833061  0.559477  1
  Al  Al7  1  0.854301  0.167011  0.440113  1
  Al  Al8  1  0.480457  0.166720  0.556985  1
  Al  Al9  1  0.519548  0.833335  0.442409  1
  Al  Al10  1  0.215382  0.165744  0.335933  1
  Al  Al11  1  0.784645  0.834496  0.663264  1
  Al  Al12  1  0.438690  0.506828  0.663174  1
  Al  Al13  1  0.561148  0.493371  0.336096  1
  Al  Al14  1  0.111010  0.159476  0.661845  1
  Al  Al15  1  0.889027  0.840769  0.337383  1
  Al  Al16  1  0.353935  0.497174  0.948782  1
  Al  Al17  1  0.645804  0.503336  0.052170  1
  Al  Al18  1  0.012819  0.169179  0.961457  1
  Al  Al19  1  0.986873  0.830098  0.040154  1
  Al  Al20  1  0.186519  0.499644  0.442213  1
  Al  Al21  1  0.813274  0.500551  0.557274  1
  Al  Al22  1  0.728516  0.164192  0.184655  1
  Al  Al23  1  0.271719  0.834586  0.815272  1
  Al  Al24  1  0.060998  0.626667  0.814019  1
  Al  Al25  1  0.938057  0.374057  0.186020  1
  Al  Al26  1  0.852124  0.046092  0.815306  1
  Al  Al27  1  0.149064  0.953646  0.184843  1
  Ni  Ni28  1  0.118068  0.494352  0.637407  1
  Ni  Ni29  1  0.880184  0.508238  0.361830  1
  Ni  Ni30  1  0.660192  0.170195  0.000000  1
  Ni  Ni31  1  0.342016  0.829644  0.000113  1
  Ni  Ni32  1  0.538667  0.166604  0.361584  1
  Ni  Ni33  1  0.460706  0.832079  0.637384  1
  Ni  Ni34  1  0.777059  0.175154  0.637617  1
  Ni  Ni35  1  0.222741  0.825607  0.362176  1
  Ni  Ni36  1  0.999655  0.499389  0.000402  1
