# generated using pymatgen
data_Tm8Lu2(SnSb)3
_symmetry_space_group_name_H-M   'P 1'
_cell_length_a   8.85163500
_cell_length_b   8.85163544
_cell_length_c   6.29570100
_cell_angle_alpha   90.00000000
_cell_angle_beta   90.00000000
_cell_angle_gamma   120.00000207
_symmetry_Int_Tables_number   1
_chemical_formula_structural   Tm8Lu2(SnSb)3
_chemical_formula_sum   'Tm8 Lu2 Sn3 Sb3'
_cell_volume   427.19064461
_cell_formula_units_Z   1
loop_
 _symmetry_equiv_pos_site_id
 _symmetry_equiv_pos_as_xyz
  1  'x, y, z'
loop_
 _atom_site_type_symbol
 _atom_site_label
 _atom_site_symmetry_multiplicity
 _atom_site_fract_x
 _atom_site_fract_y
 _atom_site_fract_z
 _atom_site_occupancy
  Tm  Tm0  1  0.666667  0.333333  0.001063  1
  Tm  Tm1  1  0.333333  0.666667  0.001063  1
  Tm  Tm2  1  0.760075  0.760075  0.749883  1
  Tm  Tm3  1  0.239925  0.000000  0.749883  1
  Tm  Tm4  1  0.000000  0.239925  0.749883  1
  Tm  Tm5  1  0.239468  0.239468  0.250093  1
  Tm  Tm6  1  0.760532  0.000000  0.250093  1
  Tm  Tm7  1  0.000000  0.760532  0.250093  1
  Lu  Lu8  1  0.333333  0.666667  0.498859  1
  Lu  Lu9  1  0.666667  0.333333  0.498859  1
  Sn  Sn10  1  0.606134  0.606134  0.250590  1
  Sn  Sn11  1  0.393866  0.000000  0.250590  1
  Sn  Sn12  1  0.000000  0.393866  0.250590  1
  Sb  Sb13  1  0.393095  0.393095  0.749487  1
  Sb  Sb14  1  0.606905  0.000000  0.749487  1
  Sb  Sb15  1  0.000000  0.606905  0.749487  1
