# generated using pymatgen
data_MgCl8
_symmetry_space_group_name_H-M   'P 1'
_cell_length_a   4.07100813
_cell_length_b   4.02549535
_cell_length_c   18.47725517
_cell_angle_alpha   108.64689354
_cell_angle_beta   96.64908337
_cell_angle_gamma   90.11266231
_symmetry_Int_Tables_number   1
_chemical_formula_structural   MgCl8
_chemical_formula_sum   'Mg1 Cl8'
_cell_volume   284.73264721
_cell_formula_units_Z   1
loop_
 _symmetry_equiv_pos_site_id
 _symmetry_equiv_pos_as_xyz
  1  'x, y, z'
loop_
 _atom_site_type_symbol
 _atom_site_label
 _atom_site_symmetry_multiplicity
 _atom_site_fract_x
 _atom_site_fract_y
 _atom_site_fract_z
 _atom_site_occupancy
  Mg  Mg0  1  0.603948  0.731665  0.070257  1
  Cl  Cl1  1  0.334891  0.704585  0.746661  1
  Cl  Cl2  1  0.194006  0.056241  0.840792  1
  Cl  Cl3  1  0.644844  0.337123  0.142790  1
  Cl  Cl4  1  0.582637  0.777557  0.532835  1
  Cl  Cl5  1  0.067083  0.635144  0.998142  1
  Cl  Cl6  1  0.806577  0.146216  0.627207  1
  Cl  Cl7  1  0.280181  0.060981  0.406490  1
  Cl  Cl8  1  0.049760  0.143746  0.311990  1
