# generated using pymatgen
data_Yb2Dy2ErRu2
_symmetry_space_group_name_H-M   'P 1'
_cell_length_a   6.42109183
_cell_length_b   7.23507209
_cell_length_c   8.50380623
_cell_angle_alpha   97.00295451
_cell_angle_beta   112.18151731
_cell_angle_gamma   90.00000723
_symmetry_Int_Tables_number   1
_chemical_formula_structural   Yb2Dy2ErRu2
_chemical_formula_sum   'Yb4 Dy4 Er2 Ru4'
_cell_volume   362.63952839
_cell_formula_units_Z   2
loop_
 _symmetry_equiv_pos_site_id
 _symmetry_equiv_pos_as_xyz
  1  'x, y, z'
loop_
 _atom_site_type_symbol
 _atom_site_label
 _atom_site_symmetry_multiplicity
 _atom_site_fract_x
 _atom_site_fract_y
 _atom_site_fract_z
 _atom_site_occupancy
  Yb  Yb0  1  0.796448  0.580693  0.817685  1
  Yb  Yb1  1  0.978764  0.919307  0.182315  1
  Yb  Yb2  1  0.203552  0.419307  0.182315  1
  Yb  Yb3  1  0.021236  0.080693  0.817685  1
  Dy  Dy4  1  0.202620  0.683240  0.566638  1
  Dy  Dy5  1  0.635981  0.816760  0.433362  1
  Dy  Dy6  1  0.797380  0.316760  0.433362  1
  Dy  Dy7  1  0.364019  0.183240  0.566638  1
  Er  Er8  1  0.433200  0.750000  0.000000  1
  Er  Er9  1  0.566800  0.250000  0.000000  1
  Ru  Ru10  1  0.586040  0.926468  0.771863  1
  Ru  Ru11  1  0.814176  0.573532  0.228137  1
  Ru  Ru12  1  0.413960  0.073532  0.228137  1
  Ru  Ru13  1  0.185824  0.426468  0.771863  1
