# generated using pymatgen
data_ErTm7(NiB14)2
_symmetry_space_group_name_H-M   'P 1'
_cell_length_a   7.17607309
_cell_length_b   7.17646309
_cell_length_c   7.41593200
_cell_angle_alpha   90.00000000
_cell_angle_beta   90.00000000
_cell_angle_gamma   89.98213167
_symmetry_Int_Tables_number   1
_chemical_formula_structural   ErTm7(NiB14)2
_chemical_formula_sum   'Er1 Tm7 Ni2 B28'
_cell_volume   381.91175549
_cell_formula_units_Z   1
loop_
 _symmetry_equiv_pos_site_id
 _symmetry_equiv_pos_as_xyz
  1  'x, y, z'
loop_
 _atom_site_type_symbol
 _atom_site_label
 _atom_site_symmetry_multiplicity
 _atom_site_fract_x
 _atom_site_fract_y
 _atom_site_fract_z
 _atom_site_occupancy
  Er  Er0  1  0.193791  0.332591  0.000000  1
  Tm  Tm1  1  0.667420  0.193820  0.000000  1
  Tm  Tm2  1  0.332607  0.806200  0.000000  1
  Tm  Tm3  1  0.693835  0.167387  0.500000  1
  Tm  Tm4  1  0.306164  0.832602  0.500000  1
  Tm  Tm5  1  0.806160  0.667405  0.000000  1
  Tm  Tm6  1  0.832623  0.693844  0.500000  1
  Tm  Tm7  1  0.167396  0.306166  0.500000  1
  Ni  Ni8  1  0.999913  0.999861  0.000000  1
  Ni  Ni9  1  0.500011  0.500009  0.500000  1
  B  B10  1  0.175420  0.039163  0.232170  1
  B  B11  1  0.960675  0.175370  0.232185  1
  B  B12  1  0.039249  0.824553  0.232117  1
  B  B13  1  0.675455  0.460755  0.267921  1
  B  B14  1  0.324606  0.539319  0.267990  1
  B  B15  1  0.824554  0.960744  0.232106  1
  B  B16  1  0.539266  0.675452  0.267921  1
  B  B17  1  0.460806  0.324572  0.267953  1
  B  B18  1  0.824554  0.960744  0.767894  1
  B  B19  1  0.039249  0.824553  0.767883  1
  B  B20  1  0.960675  0.175370  0.767815  1
  B  B21  1  0.324606  0.539319  0.732010  1
  B  B22  1  0.675455  0.460755  0.732079  1
  B  B23  1  0.175420  0.039163  0.767830  1
  B  B24  1  0.460806  0.324572  0.732047  1
  B  B25  1  0.539266  0.675452  0.732079  1
  B  B26  1  0.088598  0.588726  0.250084  1
  B  B27  1  0.411373  0.088620  0.250016  1
  B  B28  1  0.588644  0.911361  0.250004  1
  B  B29  1  0.911311  0.411384  0.250044  1
  B  B30  1  0.911311  0.411384  0.749956  1
  B  B31  1  0.588644  0.911361  0.749996  1
  B  B32  1  0.411373  0.088620  0.749984  1
  B  B33  1  0.088598  0.588726  0.749916  1
  B  B34  1  0.999985  0.999988  0.388648  1
  B  B35  1  0.500099  0.500050  0.111425  1
  B  B36  1  0.999985  0.999988  0.611352  1
  B  B37  1  0.500099  0.500050  0.888575  1
