# generated using pymatgen
data_CaLaCo5B4
_symmetry_space_group_name_H-M   'P 1'
_cell_length_a   7.12016727
_cell_length_b   5.91482855
_cell_length_c   5.38237232
_cell_angle_alpha   77.98134753
_cell_angle_beta   54.34145941
_cell_angle_gamma   47.67719642
_symmetry_Int_Tables_number   1
_chemical_formula_structural   CaLaCo5B4
_chemical_formula_sum   'Ca1 La1 Co5 B4'
_cell_volume   129.60786103
_cell_formula_units_Z   1
loop_
 _symmetry_equiv_pos_site_id
 _symmetry_equiv_pos_as_xyz
  1  'x, y, z'
loop_
 _atom_site_type_symbol
 _atom_site_label
 _atom_site_symmetry_multiplicity
 _atom_site_fract_x
 _atom_site_fract_y
 _atom_site_fract_z
 _atom_site_occupancy
  Ca  Ca0  1  0.148133  0.148133  0.851867  1
  La  La1  1  0.858803  0.858803  0.141197  1
  Co  Co2  1  0.500834  0.500834  0.499166  1
  Co  Co3  1  0.500767  0.500767  0.999233  1
  Co  Co4  1  0.000767  0.000767  0.499233  1
  Co  Co5  1  0.747148  0.747148  0.752852  1
  Co  Co6  1  0.247148  0.247148  0.252852  1
  B  B7  1  0.788339  0.465121  0.534879  1
  B  B8  1  0.207491  0.535449  0.464551  1
  B  B9  1  0.535449  0.207491  0.792509  1
  B  B10  1  0.465121  0.788339  0.211661  1
