# generated using pymatgen
data_Tb2Fe3P7IrRu8
_symmetry_space_group_name_H-M   'P 1'
_cell_length_a   3.86532300
_cell_length_b   9.28913051
_cell_length_c   9.34521398
_cell_angle_alpha   119.98414021
_cell_angle_beta   90.00000000
_cell_angle_gamma   90.00000000
_symmetry_Int_Tables_number   1
_chemical_formula_structural   Tb2Fe3P7IrRu8
_chemical_formula_sum   'Tb2 Fe3 P7 Ir1 Ru8'
_cell_volume   290.63647766
_cell_formula_units_Z   1
loop_
 _symmetry_equiv_pos_site_id
 _symmetry_equiv_pos_as_xyz
  1  'x, y, z'
loop_
 _atom_site_type_symbol
 _atom_site_label
 _atom_site_symmetry_multiplicity
 _atom_site_fract_x
 _atom_site_fract_y
 _atom_site_fract_z
 _atom_site_occupancy
  Tb  Tb0  1  0.000000  0.666509  0.333613  1
  Tb  Tb1  1  0.500000  0.333922  0.666588  1
  Fe  Fe2  1  0.000000  0.890934  0.734351  1
  Fe  Fe3  1  0.000000  0.268949  0.158110  1
  Fe  Fe4  1  0.000000  0.841200  0.109735  1
  P  P5  1  0.000000  0.104201  0.690469  1
  P  P6  1  0.000000  0.304374  0.412008  1
  P  P7  1  0.000000  0.590386  0.891375  1
  P  P8  1  0.500000  0.720019  0.605245  1
  P  P9  1  0.500000  0.397680  0.121246  1
  P  P10  1  0.500000  0.884268  0.280912  1
  P  P11  1  0.000000  0.000004  0.000779  1
  Ir  Ir12  1  0.000000  0.358820  0.933924  1
  Ru  Ru13  1  0.000000  0.060166  0.420257  1
  Ru  Ru14  1  0.000000  0.578628  0.639447  1
  Ru  Ru15  1  0.500000  0.947917  0.562406  1
  Ru  Ru16  1  0.500000  0.438077  0.387308  1
  Ru  Ru17  1  0.500000  0.612075  0.052894  1
  Ru  Ru18  1  0.500000  0.120124  0.913174  1
  Ru  Ru19  1  0.500000  0.086656  0.202850  1
  Ru  Ru20  1  0.500000  0.795093  0.883311  1
