# generated using pymatgen
data_Zr4Zn2B4Ru8PtRh
_symmetry_space_group_name_H-M   'P 1'
_cell_length_a   9.33618200
_cell_length_b   9.49209646
_cell_length_c   3.10759900
_cell_angle_alpha   90.00000000
_cell_angle_beta   90.00000000
_cell_angle_gamma   90.32474092
_symmetry_Int_Tables_number   1
_chemical_formula_structural   Zr4Zn2B4Ru8PtRh
_chemical_formula_sum   'Zr4 Zn2 B4 Ru8 Pt1 Rh1'
_cell_volume   275.39081393
_cell_formula_units_Z   1
loop_
 _symmetry_equiv_pos_site_id
 _symmetry_equiv_pos_as_xyz
  1  'x, y, z'
loop_
 _atom_site_type_symbol
 _atom_site_label
 _atom_site_symmetry_multiplicity
 _atom_site_fract_x
 _atom_site_fract_y
 _atom_site_fract_z
 _atom_site_occupancy
  Zr  Zr0  1  0.675109  0.182101  0.000000  1
  Zr  Zr1  1  0.320912  0.823114  0.000000  1
  Zr  Zr2  1  0.176908  0.328540  0.000000  1
  Zr  Zr3  1  0.824636  0.666110  0.000000  1
  Zn  Zn4  1  0.004027  0.001167  0.000000  1
  Zn  Zn5  1  0.499644  0.499660  0.000000  1
  B  B6  1  0.124170  0.625585  0.000000  1
  B  B7  1  0.876757  0.373811  0.000000  1
  B  B8  1  0.616403  0.870485  0.000000  1
  B  B9  1  0.378171  0.128117  0.000000  1
  Ru  Ru10  1  0.067580  0.782857  0.500000  1
  Ru  Ru11  1  0.715295  0.428935  0.500000  1
  Ru  Ru12  1  0.929382  0.216014  0.500000  1
  Ru  Ru13  1  0.285148  0.573688  0.500000  1
  Ru  Ru14  1  0.569631  0.717881  0.500000  1
  Ru  Ru15  1  0.430237  0.282222  0.500000  1
  Ru  Ru16  1  0.501030  0.000624  0.500000  1
  Ru  Ru17  1  0.001029  0.498611  0.500000  1
  Pt  Pt18  1  0.784952  0.929530  0.500000  1
  Rh  Rh19  1  0.218979  0.070948  0.500000  1
