# generated using pymatgen
data_Ta24Si3As5
_symmetry_space_group_name_H-M   'P 1'
_cell_length_a   10.27430043
_cell_length_b   10.31588345
_cell_length_c   5.21466204
_cell_angle_alpha   90.01073361
_cell_angle_beta   90.00808793
_cell_angle_gamma   89.96790436
_symmetry_Int_Tables_number   1
_chemical_formula_structural   Ta24Si3As5
_chemical_formula_sum   'Ta24 Si3 As5'
_cell_volume   552.69403097
_cell_formula_units_Z   1
loop_
 _symmetry_equiv_pos_site_id
 _symmetry_equiv_pos_as_xyz
  1  'x, y, z'
loop_
 _atom_site_type_symbol
 _atom_site_label
 _atom_site_symmetry_multiplicity
 _atom_site_fract_x
 _atom_site_fract_y
 _atom_site_fract_z
 _atom_site_occupancy
  Ta  Ta0  1  0.518908  0.646754  0.271423  1
  Ta  Ta1  1  0.401789  0.085776  0.027752  1
  Ta  Ta2  1  0.710064  0.808586  0.512117  1
  Ta  Ta3  1  0.899087  0.583744  0.469611  1
  Ta  Ta4  1  0.853459  0.018363  0.770163  1
  Ta  Ta5  1  0.015613  0.149183  0.228534  1
  Ta  Ta6  1  0.784513  0.687542  0.988623  1
  Ta  Ta7  1  0.285102  0.190908  0.513028  1
  Ta  Ta8  1  0.691680  0.214569  0.010917  1
  Ta  Ta9  1  0.417473  0.900161  0.530325  1
  Ta  Ta10  1  0.811765  0.289811  0.488114  1
  Ta  Ta11  1  0.353081  0.518028  0.729164  1
  Ta  Ta12  1  0.647991  0.486290  0.725239  1
  Ta  Ta13  1  0.147193  0.987499  0.774170  1
  Ta  Ta14  1  0.209714  0.309575  0.988124  1
  Ta  Ta15  1  0.914976  0.402468  0.971665  1
  Ta  Ta16  1  0.312975  0.787101  0.009655  1
  Ta  Ta17  1  0.595559  0.911805  0.024589  1
  Ta  Ta18  1  0.086050  0.599550  0.973239  1
  Ta  Ta19  1  0.095486  0.412461  0.474625  1
  Ta  Ta20  1  0.985094  0.851705  0.226671  1
  Ta  Ta21  1  0.191275  0.712401  0.490762  1
  Ta  Ta22  1  0.487647  0.352773  0.274484  1
  Ta  Ta23  1  0.585559  0.099157  0.527743  1
  Si  Si24  1  0.025584  0.205666  0.723505  1
  Si  Si25  1  0.705604  0.471824  0.219847  1
  Si  Si26  1  0.526870  0.704060  0.777457  1
  As  As27  1  0.972536  0.793874  0.722950  1
  As  As28  1  0.206491  0.973575  0.278075  1
  As  As29  1  0.793096  0.024932  0.274622  1
  As  As30  1  0.473432  0.295067  0.777785  1
  As  As31  1  0.294337  0.524792  0.225021  1
