# generated using pymatgen
data_Li12Sm5Gd7(TeO6)8
_symmetry_space_group_name_H-M   'P 1'
_cell_length_a   10.87365685
_cell_length_b   10.87752527
_cell_length_c   10.87750601
_cell_angle_alpha   109.47520265
_cell_angle_beta   109.47684901
_cell_angle_gamma   109.47612899
_symmetry_Int_Tables_number   1
_chemical_formula_structural   Li12Sm5Gd7(TeO6)8
_chemical_formula_sum   'Li12 Sm5 Gd7 Te8 O48'
_cell_volume   990.22827583
_cell_formula_units_Z   1
loop_
 _symmetry_equiv_pos_site_id
 _symmetry_equiv_pos_as_xyz
  1  'x, y, z'
loop_
 _atom_site_type_symbol
 _atom_site_label
 _atom_site_symmetry_multiplicity
 _atom_site_fract_x
 _atom_site_fract_y
 _atom_site_fract_z
 _atom_site_occupancy
  Li  Li0  1  0.749894  0.374956  0.124804  1
  Li  Li1  1  0.874402  0.749737  0.124462  1
  Li  Li2  1  0.124913  0.374914  0.250011  1
  Li  Li3  1  0.625239  0.875063  0.250113  1
  Li  Li4  1  0.250160  0.125479  0.375589  1
  Li  Li5  1  0.625549  0.250277  0.375597  1
  Li  Li6  1  0.750153  0.875092  0.625195  1
  Li  Li7  1  0.375403  0.750093  0.625559  1
  Li  Li8  1  0.375081  0.125095  0.750001  1
  Li  Li9  1  0.874769  0.624879  0.749830  1
  Li  Li10  1  0.249891  0.624571  0.874413  1
  Li  Li11  1  0.124554  0.249847  0.874431  1
  Sm  Sm12  1  0.375105  0.249974  0.124864  1
  Sm  Sm13  1  0.249885  0.874956  0.124679  1
  Sm  Sm14  1  0.375312  0.625061  0.250127  1
  Sm  Sm15  1  0.874991  0.124981  0.249980  1
  Sm  Sm16  1  0.124734  0.749990  0.375264  1
  Gd  Gd17  1  0.750272  0.625193  0.375320  1
  Gd  Gd18  1  0.875031  0.250121  0.625322  1
  Gd  Gd19  1  0.250266  0.375191  0.625314  1
  Gd  Gd20  1  0.625015  0.374988  0.750000  1
  Gd  Gd21  1  0.124707  0.874829  0.749767  1
  Gd  Gd22  1  0.749880  0.124956  0.874693  1
  Gd  Gd23  1  0.624823  0.749757  0.874710  1
  Te  Te24  1  0.999333  0.999729  0.999066  1
  Te  Te25  1  0.499775  0.999401  0.999120  1
  Te  Te26  1  0.999306  0.499367  0.999321  1
  Te  Te27  1  0.500413  0.500240  0.999750  1
  Te  Te28  1  0.999818  0.000199  0.500584  1
  Te  Te29  1  0.500505  0.500142  0.500682  1
  Te  Te30  1  0.500642  0.000659  0.500706  1
  Te  Te31  1  0.000188  0.500253  0.500766  1
  O  O32  1  0.195744  0.617621  0.024210  1
  O  O33  1  0.328672  0.406617  0.024242  1
  O  O34  1  0.880661  0.905828  0.076805  1
  O  O35  1  0.696216  0.171054  0.076858  1
  O  O36  1  0.617669  0.921016  0.092553  1
  O  O37  1  0.974871  0.171509  0.092544  1
  O  O38  1  0.024182  0.695723  0.117597  1
  O  O39  1  0.594258  0.423072  0.119174  1
  O  O40  1  0.195442  0.077915  0.171196  1
  O  O41  1  0.475804  0.093363  0.171194  1
  O  O42  1  0.117545  0.524233  0.195707  1
  O  O43  1  0.578756  0.671639  0.196272  1
  O  O44  1  0.475773  0.882391  0.304341  1
  O  O45  1  0.328767  0.422044  0.304463  1
  O  O46  1  0.921453  0.803987  0.328606  1
  O  O47  1  0.905785  0.524946  0.329157  1
  O  O48  1  0.578842  0.407098  0.382503  1
  O  O49  1  0.304223  0.975772  0.382437  1
  O  O50  1  0.828362  0.025171  0.407435  1
  O  O51  1  0.078701  0.382506  0.407282  1
  O  O52  1  0.094067  0.119179  0.423207  1
  O  O53  1  0.828921  0.303701  0.423109  1
  O  O54  1  0.594342  0.671172  0.475094  1
  O  O55  1  0.382409  0.804261  0.475829  1
  O  O56  1  0.406611  0.328841  0.525868  1
  O  O57  1  0.619410  0.197193  0.525919  1
  O  O58  1  0.171619  0.696627  0.578914  1
  O  O59  1  0.906335  0.880662  0.577798  1
  O  O60  1  0.922457  0.619320  0.593919  1
  O  O61  1  0.171066  0.974951  0.594340  1
  O  O62  1  0.422593  0.593733  0.619316  1
  O  O63  1  0.697231  0.025899  0.619503  1
  O  O64  1  0.077708  0.197043  0.671487  1
  O  O65  1  0.093526  0.474176  0.671486  1
  O  O66  1  0.525875  0.119469  0.697223  1
  O  O67  1  0.671478  0.577863  0.697397  1
  O  O68  1  0.880539  0.474138  0.802765  1
  O  O69  1  0.422499  0.328749  0.803204  1
  O  O70  1  0.525893  0.906377  0.828419  1
  O  O71  1  0.802445  0.921968  0.828314  1
  O  O72  1  0.974081  0.302848  0.880506  1
  O  O73  1  0.406522  0.577665  0.880664  1
  O  O74  1  0.380667  0.076938  0.905637  1
  O  O75  1  0.024970  0.828737  0.905555  1
  O  O76  1  0.303211  0.828174  0.920919  1
  O  O77  1  0.117670  0.092742  0.920878  1
  O  O78  1  0.802739  0.380573  0.974089  1
  O  O79  1  0.671379  0.593508  0.974026  1
