# generated using pymatgen
data_Er12Co2Ni3Sb
_symmetry_space_group_name_H-M   'P 1'
_cell_length_a   8.23295863
_cell_length_b   8.23295863
_cell_length_c   8.23295885
_cell_angle_alpha   109.21726945
_cell_angle_beta   111.30601951
_cell_angle_gamma   107.90860888
_symmetry_Int_Tables_number   1
_chemical_formula_structural   Er12Co2Ni3Sb
_chemical_formula_sum   'Er12 Co2 Ni3 Sb1'
_cell_volume   429.19613111
_cell_formula_units_Z   1
loop_
 _symmetry_equiv_pos_site_id
 _symmetry_equiv_pos_as_xyz
  1  'x, y, z'
loop_
 _atom_site_type_symbol
 _atom_site_label
 _atom_site_symmetry_multiplicity
 _atom_site_fract_x
 _atom_site_fract_y
 _atom_site_fract_z
 _atom_site_occupancy
  Er  Er0  1  0.289414  0.181207  0.470621  1
  Er  Er1  1  0.710586  0.818793  0.529379  1
  Er  Er2  1  0.289414  0.818793  0.108208  1
  Er  Er3  1  0.710586  0.181207  0.891792  1
  Er  Er4  1  0.624614  0.316355  0.308258  1
  Er  Er5  1  0.375386  0.683645  0.691742  1
  Er  Er6  1  0.008099  0.316355  0.691742  1
  Er  Er7  1  0.991901  0.683645  0.308258  1
  Er  Er8  1  0.212169  0.405871  0.193702  1
  Er  Er9  1  0.787831  0.594129  0.806298  1
  Er  Er10  1  0.212169  0.018469  0.806298  1
  Er  Er11  1  0.787831  0.981531  0.193702  1
  Co  Co12  1  0.385063  0.885063  0.500000  1
  Co  Co13  1  0.614937  0.114937  0.500000  1
  Ni  Ni14  1  0.000000  0.366826  0.366826  1
  Ni  Ni15  1  0.000000  0.633174  0.633174  1
  Ni  Ni16  1  0.000000  0.000000  0.000000  1
  Sb  Sb17  1  0.500000  0.500000  0.000000  1
