# generated using pymatgen
data_Ho3Co2P6Ru7
_symmetry_space_group_name_H-M   'P 1'
_cell_length_a   3.87019000
_cell_length_b   10.87954600
_cell_length_c   12.68386100
_cell_angle_alpha   90.00000000
_cell_angle_beta   90.00000000
_cell_angle_gamma   90.00000000
_symmetry_Int_Tables_number   1
_chemical_formula_structural   Ho3Co2P6Ru7
_chemical_formula_sum   'Ho6 Co4 P12 Ru14'
_cell_volume   534.06551141
_cell_formula_units_Z   2
loop_
 _symmetry_equiv_pos_site_id
 _symmetry_equiv_pos_as_xyz
  1  'x, y, z'
loop_
 _atom_site_type_symbol
 _atom_site_label
 _atom_site_symmetry_multiplicity
 _atom_site_fract_x
 _atom_site_fract_y
 _atom_site_fract_z
 _atom_site_occupancy
  Ho  Ho0  1  0.000000  0.500000  0.526300  1
  Ho  Ho1  1  0.500000  0.000000  0.473108  1
  Ho  Ho2  1  0.500000  0.821767  0.202929  1
  Ho  Ho3  1  0.500000  0.178233  0.202929  1
  Ho  Ho4  1  0.000000  0.681044  0.797619  1
  Ho  Ho5  1  0.000000  0.318956  0.797619  1
  Co  Co6  1  0.000000  0.500000  0.988562  1
  Co  Co7  1  0.500000  0.000000  0.012683  1
  Co  Co8  1  0.000000  0.162444  0.010011  1
  Co  Co9  1  0.000000  0.837556  0.010011  1
  P  P10  1  0.500000  0.306746  0.616692  1
  P  P11  1  0.500000  0.693254  0.616692  1
  P  P12  1  0.000000  0.192997  0.383913  1
  P  P13  1  0.000000  0.807003  0.383913  1
  P  P14  1  0.500000  0.500000  0.886402  1
  P  P15  1  0.000000  0.000000  0.112661  1
  P  P16  1  0.500000  0.851689  0.895891  1
  P  P17  1  0.500000  0.148311  0.895891  1
  P  P18  1  0.000000  0.655897  0.101618  1
  P  P19  1  0.000000  0.344103  0.101618  1
  P  P20  1  0.500000  0.500000  0.337039  1
  P  P21  1  0.000000  0.000000  0.662117  1
  Ru  Ru22  1  0.500000  0.300213  0.429314  1
  Ru  Ru23  1  0.500000  0.699787  0.429314  1
  Ru  Ru24  1  0.000000  0.199533  0.570959  1
  Ru  Ru25  1  0.000000  0.800467  0.570959  1
  Ru  Ru26  1  0.500000  0.877587  0.715469  1
  Ru  Ru27  1  0.500000  0.122413  0.715469  1
  Ru  Ru28  1  0.000000  0.624082  0.282695  1
  Ru  Ru29  1  0.000000  0.375918  0.282695  1
  Ru  Ru30  1  0.500000  0.326693  0.992503  1
  Ru  Ru31  1  0.500000  0.673307  0.992503  1
  Ru  Ru32  1  0.500000  0.500000  0.152240  1
  Ru  Ru33  1  0.000000  0.000000  0.851056  1
  Ru  Ru34  1  0.500000  0.500000  0.700212  1
  Ru  Ru35  1  0.000000  0.000000  0.298393  1
