# generated using pymatgen
data_Dy3Tm17Bi11Sb
_symmetry_space_group_name_H-M   'P 1'
_cell_length_a   8.16988026
_cell_length_b   9.42916800
_cell_length_c   11.89357617
_cell_angle_alpha   90.00000000
_cell_angle_beta   90.05220141
_cell_angle_gamma   90.00000000
_symmetry_Int_Tables_number   1
_chemical_formula_structural   Dy3Tm17Bi11Sb
_chemical_formula_sum   'Dy3 Tm17 Bi11 Sb1'
_cell_volume   916.22332372
_cell_formula_units_Z   1
loop_
 _symmetry_equiv_pos_site_id
 _symmetry_equiv_pos_as_xyz
  1  'x, y, z'
loop_
 _atom_site_type_symbol
 _atom_site_label
 _atom_site_symmetry_multiplicity
 _atom_site_fract_x
 _atom_site_fract_y
 _atom_site_fract_z
 _atom_site_occupancy
  Dy  Dy0  1  0.812099  0.250000  0.281480  1
  Dy  Dy1  1  0.682923  0.750000  0.784075  1
  Dy  Dy2  1  0.189140  0.750000  0.720510  1
  Tm  Tm3  1  0.353643  0.750000  0.213991  1
  Tm  Tm4  1  0.852640  0.750000  0.282665  1
  Tm  Tm5  1  0.647564  0.250000  0.783097  1
  Tm  Tm6  1  0.147478  0.250000  0.717596  1
  Tm  Tm7  1  0.690459  0.568086  0.057932  1
  Tm  Tm8  1  0.193052  0.934011  0.440275  1
  Tm  Tm9  1  0.308279  0.061851  0.941000  1
  Tm  Tm10  1  0.807067  0.434444  0.559318  1
  Tm  Tm11  1  0.308279  0.438149  0.941000  1
  Tm  Tm12  1  0.807067  0.065556  0.559318  1
  Tm  Tm13  1  0.690459  0.931914  0.057932  1
  Tm  Tm14  1  0.193052  0.565989  0.440275  1
  Tm  Tm15  1  0.475896  0.250000  0.488503  1
  Tm  Tm16  1  0.977287  0.250000  0.010962  1
  Tm  Tm17  1  0.524237  0.750000  0.511246  1
  Tm  Tm18  1  0.027421  0.750000  0.988942  1
  Tm  Tm19  1  0.312228  0.250000  0.217958  1
  Bi  Bi20  1  0.906059  0.750000  0.542300  1
  Bi  Bi21  1  0.593964  0.250000  0.042458  1
  Bi  Bi22  1  0.095124  0.250000  0.458174  1
  Bi  Bi23  1  0.564644  0.994862  0.325356  1
  Bi  Bi24  1  0.066208  0.504520  0.174132  1
  Bi  Bi25  1  0.434653  0.494381  0.674191  1
  Bi  Bi26  1  0.934140  0.004986  0.825976  1
  Bi  Bi27  1  0.434653  0.005619  0.674191  1
  Bi  Bi28  1  0.934140  0.495014  0.825976  1
  Bi  Bi29  1  0.564644  0.505138  0.325356  1
  Bi  Bi30  1  0.066208  0.995480  0.174132  1
  Sb  Sb31  1  0.405296  0.750000  0.959681  1
