# generated using pymatgen
data_La7Nd9Cd4Ru3Pt
_symmetry_space_group_name_H-M   'P 1'
_cell_length_a   10.00504317
_cell_length_b   10.04442009
_cell_length_c   10.09313700
_cell_angle_alpha   59.49570149
_cell_angle_beta   59.95886970
_cell_angle_gamma   60.12178491
_symmetry_Int_Tables_number   1
_chemical_formula_structural   La7Nd9Cd4Ru3Pt
_chemical_formula_sum   'La7 Nd9 Cd4 Ru3 Pt1'
_cell_volume   714.87993037
_cell_formula_units_Z   1
loop_
 _symmetry_equiv_pos_site_id
 _symmetry_equiv_pos_as_xyz
  1  'x, y, z'
loop_
 _atom_site_type_symbol
 _atom_site_label
 _atom_site_symmetry_multiplicity
 _atom_site_fract_x
 _atom_site_fract_y
 _atom_site_fract_z
 _atom_site_occupancy
  La  La0  1  0.342062  0.348515  0.350599  1
  La  La1  1  0.343002  0.347399  0.957144  1
  La  La2  1  0.343848  0.955416  0.349486  1
  La  La3  1  0.962875  0.345979  0.346265  1
  La  La4  1  0.819686  0.189842  0.187419  1
  La  La5  1  0.186074  0.815482  0.811967  1
  La  La6  1  0.189513  0.810260  0.187625  1
  Nd  Nd7  1  0.812263  0.193071  0.803378  1
  Nd  Nd8  1  0.190970  0.193526  0.805720  1
  Nd  Nd9  1  0.809578  0.803616  0.192417  1
  Nd  Nd10  1  0.932058  0.565977  0.566958  1
  Nd  Nd11  1  0.562702  0.936816  0.935849  1
  Nd  Nd12  1  0.562221  0.935976  0.567125  1
  Nd  Nd13  1  0.935496  0.565056  0.938444  1
  Nd  Nd14  1  0.561361  0.564871  0.936792  1
  Nd  Nd15  1  0.936050  0.940022  0.564118  1
  Cd  Cd16  1  0.582144  0.578579  0.579355  1
  Cd  Cd17  1  0.581503  0.580767  0.258325  1
  Cd  Cd18  1  0.579593  0.258654  0.581915  1
  Cd  Cd19  1  0.257310  0.578515  0.581634  1
  Ru  Ru20  1  0.136313  0.133439  0.144425  1
  Ru  Ru21  1  0.146687  0.129716  0.579758  1
  Ru  Ru22  1  0.149158  0.585466  0.131964  1
  Pt  Pt23  1  0.577531  0.143042  0.141319  1
