# generated using pymatgen
data_Sc22Os2Ru5Rh
_symmetry_space_group_name_H-M   'P 1'
_cell_length_a   9.48133388
_cell_length_b   9.48133437
_cell_length_c   9.40922500
_cell_angle_alpha   60.25127092
_cell_angle_beta   60.25126922
_cell_angle_gamma   60.18293532
_symmetry_Int_Tables_number   1
_chemical_formula_structural   Sc22Os2Ru5Rh
_chemical_formula_sum   'Sc22 Os2 Ru5 Rh1'
_cell_volume   601.19886295
_cell_formula_units_Z   1
loop_
 _symmetry_equiv_pos_site_id
 _symmetry_equiv_pos_as_xyz
  1  'x, y, z'
loop_
 _atom_site_type_symbol
 _atom_site_label
 _atom_site_symmetry_multiplicity
 _atom_site_fract_x
 _atom_site_fract_y
 _atom_site_fract_z
 _atom_site_occupancy
  Sc  Sc0  1  0.842603  0.842603  0.843625  1
  Sc  Sc1  1  0.531627  0.154195  0.157088  1
  Sc  Sc2  1  0.157397  0.157397  0.528829  1
  Sc  Sc3  1  0.154195  0.531627  0.157088  1
  Sc  Sc4  1  0.842603  0.842603  0.471171  1
  Sc  Sc5  1  0.845805  0.468373  0.842912  1
  Sc  Sc6  1  0.468373  0.845805  0.842912  1
  Sc  Sc7  1  0.157397  0.157397  0.156375  1
  Sc  Sc8  1  0.195558  0.804442  0.199885  1
  Sc  Sc9  1  0.195558  0.804442  0.800115  1
  Sc  Sc10  1  0.804442  0.195558  0.199885  1
  Sc  Sc11  1  0.802130  0.802130  0.197870  1
  Sc  Sc12  1  0.197870  0.197870  0.802130  1
  Sc  Sc13  1  0.804442  0.195558  0.800115  1
  Sc  Sc14  1  0.382616  0.382616  0.385176  1
  Sc  Sc15  1  0.150272  0.618469  0.615630  1
  Sc  Sc16  1  0.618469  0.150272  0.615630  1
  Sc  Sc17  1  0.617384  0.617384  0.150409  1
  Sc  Sc18  1  0.381531  0.849728  0.384370  1
  Sc  Sc19  1  0.382616  0.382616  0.849591  1
  Sc  Sc20  1  0.849728  0.381531  0.384370  1
  Sc  Sc21  1  0.617384  0.617384  0.614824  1
  Os  Os22  1  0.000000  0.000000  0.500000  1
  Os  Os23  1  0.500000  0.500000  0.500000  1
  Ru  Ru24  1  0.500000  0.000000  0.500000  1
  Ru  Ru25  1  0.000000  0.500000  0.500000  1
  Ru  Ru26  1  0.500000  0.000000  0.000000  1
  Ru  Ru27  1  0.000000  0.500000  0.000000  1
  Ru  Ru28  1  0.000000  0.000000  0.000000  1
  Rh  Rh29  1  0.500000  0.500000  0.000000  1
