# generated using pymatgen
data_Ta8VGaTe8
_symmetry_space_group_name_H-M   'P 1'
_cell_length_a   4.87534700
_cell_length_b   11.09844000
_cell_length_c   19.31323400
_cell_angle_alpha   90.00000000
_cell_angle_beta   90.00000000
_cell_angle_gamma   90.00000000
_symmetry_Int_Tables_number   1
_chemical_formula_structural   Ta8VGaTe8
_chemical_formula_sum   'Ta16 V2 Ga2 Te16'
_cell_volume   1045.01487601
_cell_formula_units_Z   2
loop_
 _symmetry_equiv_pos_site_id
 _symmetry_equiv_pos_as_xyz
  1  'x, y, z'
loop_
 _atom_site_type_symbol
 _atom_site_label
 _atom_site_symmetry_multiplicity
 _atom_site_fract_x
 _atom_site_fract_y
 _atom_site_fract_z
 _atom_site_occupancy
  Ta  Ta0  1  0.499340  0.564402  0.382501  1
  Ta  Ta1  1  0.499340  0.435598  0.617499  1
  Ta  Ta2  1  0.500660  0.064402  0.117499  1
  Ta  Ta3  1  0.500660  0.935598  0.882501  1
  Ta  Ta4  1  0.498952  0.704908  0.536723  1
  Ta  Ta5  1  0.498952  0.295092  0.463277  1
  Ta  Ta6  1  0.501048  0.204908  0.963277  1
  Ta  Ta7  1  0.501048  0.795092  0.036723  1
  Ta  Ta8  1  0.001179  0.690345  0.442754  1
  Ta  Ta9  1  0.001179  0.309655  0.557246  1
  Ta  Ta10  1  0.998821  0.190345  0.057246  1
  Ta  Ta11  1  0.998821  0.809655  0.942754  1
  Ta  Ta12  1  0.000466  0.400658  0.390874  1
  Ta  Ta13  1  0.000466  0.599342  0.609126  1
  Ta  Ta14  1  0.999534  0.900658  0.109126  1
  Ta  Ta15  1  0.999534  0.099342  0.890874  1
  V  V16  1  0.749960  0.500000  0.500000  1
  V  V17  1  0.250040  0.000000  0.000000  1
  Ga  Ga18  1  0.249881  0.500000  0.500000  1
  Ga  Ga19  1  0.750119  0.000000  0.000000  1
  Te  Te20  1  0.995679  0.844298  0.562163  1
  Te  Te21  1  0.995679  0.155702  0.437837  1
  Te  Te22  1  0.004321  0.344298  0.937837  1
  Te  Te23  1  0.004321  0.655702  0.062163  1
  Te  Te24  1  0.502653  0.333404  0.316541  1
  Te  Te25  1  0.502653  0.666596  0.683459  1
  Te  Te26  1  0.497347  0.833404  0.183459  1
  Te  Te27  1  0.497347  0.166596  0.816541  1
  Te  Te28  1  0.504559  0.820170  0.403732  1
  Te  Te29  1  0.504559  0.179830  0.596268  1
  Te  Te30  1  0.495441  0.320170  0.096268  1
  Te  Te31  1  0.495441  0.679830  0.903732  1
  Te  Te32  1  0.997177  0.607478  0.302189  1
  Te  Te33  1  0.997177  0.392522  0.697811  1
  Te  Te34  1  0.002823  0.107478  0.197811  1
  Te  Te35  1  0.002823  0.892522  0.802189  1
