# generated using pymatgen
data_Ho2PaFe(Co4P3)2
_symmetry_space_group_name_H-M   'P 1'
_cell_length_a   3.70930100
_cell_length_b   10.51822200
_cell_length_c   12.12263200
_cell_angle_alpha   90.00000000
_cell_angle_beta   90.00000000
_cell_angle_gamma   90.00000000
_symmetry_Int_Tables_number   1
_chemical_formula_structural   Ho2PaFe(Co4P3)2
_chemical_formula_sum   'Ho4 Pa2 Fe2 Co16 P12'
_cell_volume   472.96753490
_cell_formula_units_Z   2
loop_
 _symmetry_equiv_pos_site_id
 _symmetry_equiv_pos_as_xyz
  1  'x, y, z'
loop_
 _atom_site_type_symbol
 _atom_site_label
 _atom_site_symmetry_multiplicity
 _atom_site_fract_x
 _atom_site_fract_y
 _atom_site_fract_z
 _atom_site_occupancy
  Ho  Ho0  1  0.500000  0.815671  0.204656  1
  Ho  Ho1  1  0.500000  0.184329  0.204656  1
  Ho  Ho2  1  0.000000  0.684329  0.795344  1
  Ho  Ho3  1  0.000000  0.315671  0.795344  1
  Pa  Pa4  1  0.000000  0.500000  0.528828  1
  Pa  Pa5  1  0.500000  0.000000  0.471172  1
  Fe  Fe6  1  0.500000  0.500000  0.157269  1
  Fe  Fe7  1  0.000000  0.000000  0.842731  1
  Co  Co8  1  0.000000  0.500000  0.985126  1
  Co  Co9  1  0.500000  0.000000  0.014874  1
  Co  Co10  1  0.500000  0.300935  0.432071  1
  Co  Co11  1  0.500000  0.699065  0.432071  1
  Co  Co12  1  0.000000  0.199065  0.567929  1
  Co  Co13  1  0.000000  0.800935  0.567929  1
  Co  Co14  1  0.500000  0.879498  0.709866  1
  Co  Co15  1  0.500000  0.120502  0.709866  1
  Co  Co16  1  0.000000  0.620502  0.290134  1
  Co  Co17  1  0.000000  0.379498  0.290134  1
  Co  Co18  1  0.500000  0.333669  0.994144  1
  Co  Co19  1  0.500000  0.666331  0.994144  1
  Co  Co20  1  0.000000  0.166331  0.005856  1
  Co  Co21  1  0.000000  0.833669  0.005856  1
  Co  Co22  1  0.500000  0.500000  0.696477  1
  Co  Co23  1  0.000000  0.000000  0.303523  1
  P  P24  1  0.500000  0.306985  0.617431  1
  P  P25  1  0.500000  0.693015  0.617431  1
  P  P26  1  0.000000  0.193015  0.382569  1
  P  P27  1  0.000000  0.806985  0.382569  1
  P  P28  1  0.500000  0.500000  0.879217  1
  P  P29  1  0.000000  0.000000  0.120783  1
  P  P30  1  0.500000  0.847023  0.893752  1
  P  P31  1  0.500000  0.152977  0.893752  1
  P  P32  1  0.000000  0.652977  0.106248  1
  P  P33  1  0.000000  0.347023  0.106248  1
  P  P34  1  0.500000  0.500000  0.343030  1
  P  P35  1  0.000000  0.000000  0.656970  1
