# generated using pymatgen
data_TbY5NpO12
_symmetry_space_group_name_H-M   'P 1'
_cell_length_a   6.58939292
_cell_length_b   6.59026832
_cell_length_c   6.59591653
_cell_angle_alpha   98.96112795
_cell_angle_beta   98.89653742
_cell_angle_gamma   98.90383196
_symmetry_Int_Tables_number   1
_chemical_formula_structural   TbY5NpO12
_chemical_formula_sum   'Tb1 Y5 Np1 O12'
_cell_volume   274.79818276
_cell_formula_units_Z   1
loop_
 _symmetry_equiv_pos_site_id
 _symmetry_equiv_pos_as_xyz
  1  'x, y, z'
loop_
 _atom_site_type_symbol
 _atom_site_label
 _atom_site_symmetry_multiplicity
 _atom_site_fract_x
 _atom_site_fract_y
 _atom_site_fract_z
 _atom_site_occupancy
  Tb  Tb0  1  0.389971  0.678920  0.854965  1
  Y  Y1  1  0.854738  0.390217  0.678297  1
  Y  Y2  1  0.678523  0.854808  0.390365  1
  Y  Y3  1  0.609688  0.321469  0.145358  1
  Y  Y4  1  0.145199  0.609670  0.321521  1
  Y  Y5  1  0.321492  0.145037  0.609500  1
  Np  Np6  1  0.000033  0.000141  0.000065  1
  O  O7  1  0.177477  0.427715  0.588739  1
  O  O8  1  0.588935  0.177579  0.427776  1
  O  O9  1  0.428037  0.588539  0.178245  1
  O  O10  1  0.822557  0.572155  0.411171  1
  O  O11  1  0.411129  0.822846  0.571372  1
  O  O12  1  0.572072  0.410949  0.822572  1
  O  O13  1  0.919942  0.045478  0.694007  1
  O  O14  1  0.954521  0.306127  0.080060  1
  O  O15  1  0.306034  0.079889  0.954412  1
  O  O16  1  0.080048  0.954492  0.305960  1
  O  O17  1  0.045349  0.693821  0.919928  1
  O  O18  1  0.694253  0.920148  0.045688  1
