# generated using pymatgen
data_NdThPPt8
_symmetry_space_group_name_H-M   'P 1'
_cell_length_a   9.21576931
_cell_length_b   9.17570419
_cell_length_c   4.31623000
_cell_angle_alpha   90.00000000
_cell_angle_beta   90.00000000
_cell_angle_gamma   145.61120490
_symmetry_Int_Tables_number   1
_chemical_formula_structural   NdThPPt8
_chemical_formula_sum   'Nd1 Th1 P1 Pt8'
_cell_volume   206.14585000
_cell_formula_units_Z   1
loop_
 _symmetry_equiv_pos_site_id
 _symmetry_equiv_pos_as_xyz
  1  'x, y, z'
loop_
 _atom_site_type_symbol
 _atom_site_label
 _atom_site_symmetry_multiplicity
 _atom_site_fract_x
 _atom_site_fract_y
 _atom_site_fract_z
 _atom_site_occupancy
  Nd  Nd0  1  0.372563  0.618041  0.500000  1
  Th  Th1  1  0.623294  0.372748  0.500000  1
  P  P2  1  0.221228  0.224540  0.000000  1
  Pt  Pt3  1  0.112059  0.893084  0.000000  1
  Pt  Pt4  1  0.887394  0.108199  0.000000  1
  Pt  Pt5  1  0.489605  0.986488  0.000000  1
  Pt  Pt6  1  0.979200  0.489682  0.000000  1
  Pt  Pt7  1  0.196543  0.794323  0.500000  1
  Pt  Pt8  1  0.792979  0.195781  0.500000  1
  Pt  Pt9  1  0.002532  0.000740  0.500000  1
  Pt  Pt10  1  0.636202  0.629969  0.000000  1
