# generated using pymatgen
data_TbErGe(PRh2)6
_symmetry_space_group_name_H-M   'P 1'
_cell_length_a   9.68445200
_cell_length_b   9.68445024
_cell_length_c   3.86882500
_cell_angle_alpha   90.00000000
_cell_angle_beta   90.00000000
_cell_angle_gamma   119.99999918
_symmetry_Int_Tables_number   1
_chemical_formula_structural   TbErGe(PRh2)6
_chemical_formula_sum   'Tb1 Er1 Ge1 P6 Rh12'
_cell_volume   314.23875388
_cell_formula_units_Z   1
loop_
 _symmetry_equiv_pos_site_id
 _symmetry_equiv_pos_as_xyz
  1  'x, y, z'
loop_
 _atom_site_type_symbol
 _atom_site_label
 _atom_site_symmetry_multiplicity
 _atom_site_fract_x
 _atom_site_fract_y
 _atom_site_fract_z
 _atom_site_occupancy
  Tb  Tb0  1  0.333333  0.666667  0.748200  1
  Er  Er1  1  0.666667  0.333333  0.251764  1
  Ge  Ge2  1  0.000000  0.000000  0.499963  1
  P  P3  1  0.404308  0.286037  0.750952  1
  P  P4  1  0.713963  0.118270  0.750952  1
  P  P5  1  0.881730  0.595692  0.750952  1
  P  P6  1  0.596257  0.714196  0.248405  1
  P  P7  1  0.285804  0.882061  0.248405  1
  P  P8  1  0.117939  0.403743  0.248405  1
  Rh  Rh9  1  0.453097  0.069066  0.750767  1
  Rh  Rh10  1  0.930934  0.384028  0.750767  1
  Rh  Rh11  1  0.615972  0.546903  0.750767  1
  Rh  Rh12  1  0.548237  0.932756  0.249710  1
  Rh  Rh13  1  0.067244  0.615483  0.249710  1
  Rh  Rh14  1  0.384517  0.451763  0.249710  1
  Rh  Rh15  1  0.155423  0.275270  0.751193  1
  Rh  Rh16  1  0.724730  0.880155  0.751193  1
  Rh  Rh17  1  0.119845  0.844577  0.751193  1
  Rh  Rh18  1  0.844391  0.724267  0.248999  1
  Rh  Rh19  1  0.275733  0.120123  0.248999  1
  Rh  Rh20  1  0.879877  0.155609  0.248999  1
