# generated using pymatgen
data_Tb15Gd(In3Ir)2
_symmetry_space_group_name_H-M   'P 1'
_cell_length_a   10.48181100
_cell_length_b   10.48181109
_cell_length_c   7.08217200
_cell_angle_alpha   90.00000000
_cell_angle_beta   90.00000000
_cell_angle_gamma   119.99999655
_symmetry_Int_Tables_number   1
_chemical_formula_structural   Tb15Gd(In3Ir)2
_chemical_formula_sum   'Tb15 Gd1 In6 Ir2'
_cell_volume   673.86014297
_cell_formula_units_Z   1
loop_
 _symmetry_equiv_pos_site_id
 _symmetry_equiv_pos_as_xyz
  1  'x, y, z'
loop_
 _atom_site_type_symbol
 _atom_site_label
 _atom_site_symmetry_multiplicity
 _atom_site_fract_x
 _atom_site_fract_y
 _atom_site_fract_z
 _atom_site_occupancy
  Tb  Tb0  1  0.533368  0.066736  0.792410  1
  Tb  Tb1  1  0.933264  0.466632  0.792410  1
  Tb  Tb2  1  0.533368  0.466632  0.792410  1
  Tb  Tb3  1  0.466707  0.933413  0.292717  1
  Tb  Tb4  1  0.066587  0.533293  0.292717  1
  Tb  Tb5  1  0.466707  0.533293  0.292717  1
  Tb  Tb6  1  0.823752  0.647503  0.500191  1
  Tb  Tb7  1  0.352497  0.176248  0.500191  1
  Tb  Tb8  1  0.823752  0.176248  0.500191  1
  Tb  Tb9  1  0.176179  0.352359  0.000583  1
  Tb  Tb10  1  0.647641  0.823821  0.000583  1
  Tb  Tb11  1  0.176179  0.823821  0.000583  1
  Tb  Tb12  1  0.666667  0.333333  0.173469  1
  Tb  Tb13  1  0.333333  0.666667  0.673034  1
  Tb  Tb14  1  0.000000  0.000000  0.779003  1
  Gd  Gd15  1  0.000000  0.000000  0.278512  1
  In  In16  1  0.837125  0.674252  0.039084  1
  In  In17  1  0.325748  0.162875  0.039084  1
  In  In18  1  0.837125  0.162875  0.039084  1
  In  In19  1  0.162834  0.325666  0.539213  1
  In  In20  1  0.674334  0.837166  0.539213  1
  In  In21  1  0.162834  0.837166  0.539213  1
  Ir  Ir22  1  0.666667  0.333333  0.569703  1
  Ir  Ir23  1  0.333333  0.666667  0.069588  1
