# generated using pymatgen
data_Pr3Co3Si7
_symmetry_space_group_name_H-M   'P 1'
_cell_length_a   13.08446316
_cell_length_b   13.08446261
_cell_length_c   4.14478700
_cell_angle_alpha   90.00000000
_cell_angle_beta   90.00000000
_cell_angle_gamma   161.65008411
_symmetry_Int_Tables_number   1
_chemical_formula_structural   Pr3Co3Si7
_chemical_formula_sum   'Pr3 Co3 Si7'
_cell_volume   223.39610875
_cell_formula_units_Z   1
loop_
 _symmetry_equiv_pos_site_id
 _symmetry_equiv_pos_as_xyz
  1  'x, y, z'
loop_
 _atom_site_type_symbol
 _atom_site_label
 _atom_site_symmetry_multiplicity
 _atom_site_fract_x
 _atom_site_fract_y
 _atom_site_fract_z
 _atom_site_occupancy
  Pr  Pr0  1  0.003206  0.996794  0.000000  1
  Pr  Pr1  1  0.686519  0.313481  0.500000  1
  Pr  Pr2  1  0.317777  0.682223  0.500000  1
  Co  Co3  1  0.866074  0.133926  0.000000  1
  Co  Co4  1  0.133314  0.866686  0.000000  1
  Co  Co5  1  0.450085  0.549915  0.500000  1
  Si  Si6  1  0.594223  0.405777  0.000000  1
  Si  Si7  1  0.408651  0.591349  0.000000  1
  Si  Si8  1  0.776476  0.223524  0.000000  1
  Si  Si9  1  0.225654  0.774346  0.000000  1
  Si  Si10  1  0.908143  0.091857  0.500000  1
  Si  Si11  1  0.093553  0.906447  0.500000  1
  Si  Si12  1  0.536327  0.463673  0.500000  1
