# generated using pymatgen
data_U2NbCl15
_symmetry_space_group_name_H-M   'P 1'
_cell_length_a   14.23362673
_cell_length_b   14.23643236
_cell_length_c   6.60106457
_cell_angle_alpha   89.56648544
_cell_angle_beta   89.62406763
_cell_angle_gamma   87.35821202
_symmetry_Int_Tables_number   1
_chemical_formula_structural   U2NbCl15
_chemical_formula_sum   'U4 Nb2 Cl30'
_cell_volume   1336.12806522
_cell_formula_units_Z   2
loop_
 _symmetry_equiv_pos_site_id
 _symmetry_equiv_pos_as_xyz
  1  'x, y, z'
loop_
 _atom_site_type_symbol
 _atom_site_label
 _atom_site_symmetry_multiplicity
 _atom_site_fract_x
 _atom_site_fract_y
 _atom_site_fract_z
 _atom_site_occupancy
  U  U0  1  0.434394  0.231551  0.475158  1
  U  U1  1  0.773151  0.560373  0.524934  1
  U  U2  1  0.559174  0.774217  0.524960  1
  U  U3  1  0.101455  0.899034  0.000095  1
  Nb  Nb4  1  0.224392  0.442209  0.475534  1
  Nb  Nb5  1  0.891072  0.108917  0.000440  1
  Cl  Cl6  1  0.529216  0.331485  0.249587  1
  Cl  Cl7  1  0.670362  0.469392  0.749631  1
  Cl  Cl8  1  0.469435  0.669857  0.749493  1
  Cl  Cl9  1  0.329438  0.517144  0.265551  1
  Cl  Cl10  1  0.572284  0.199880  0.698071  1
  Cl  Cl11  1  0.803140  0.423972  0.298998  1
  Cl  Cl12  1  0.868830  0.232647  0.782389  1
  Cl  Cl13  1  0.767429  0.131638  0.217454  1
  Cl  Cl14  1  0.133099  0.761318  0.225927  1
  Cl  Cl15  1  0.238105  0.866669  0.773603  1
  Cl  Cl16  1  0.997196  0.183635  0.203092  1
  Cl  Cl17  1  0.816765  0.003234  0.796642  1
  Cl  Cl18  1  0.001641  0.804180  0.781234  1
  Cl  Cl19  1  0.195537  0.998882  0.218831  1
  Cl  Cl20  1  0.043530  0.053622  0.792207  1
  Cl  Cl21  1  0.946718  0.956890  0.207997  1
  Cl  Cl22  1  0.279312  0.290050  0.270378  1
  Cl  Cl23  1  0.716794  0.716328  0.735523  1
  Cl  Cl24  1  0.100573  0.464791  0.260524  1
  Cl  Cl25  1  0.531246  0.909622  0.752469  1
  Cl  Cl26  1  0.909582  0.530539  0.751201  1
  Cl  Cl27  1  0.466677  0.094817  0.251398  1
  Cl  Cl28  1  0.149111  0.336398  0.683815  1
  Cl  Cl29  1  0.664001  0.863790  0.301078  1
  Cl  Cl30  1  0.864107  0.663495  0.300933  1
  Cl  Cl31  1  0.334062  0.137625  0.699984  1
  Cl  Cl32  1  0.376087  0.386910  0.679607  1
  Cl  Cl33  1  0.617082  0.616779  0.314556  1
  Cl  Cl34  1  0.201357  0.565917  0.689301  1
  Cl  Cl35  1  0.423645  0.802192  0.297402  1
