# generated using pymatgen
data_Rb2AcBr5
_symmetry_space_group_name_H-M   'P 1'
_cell_length_a   8.95711500
_cell_length_b   9.71321200
_cell_length_c   14.30576700
_cell_angle_alpha   90.00000000
_cell_angle_beta   90.00000000
_cell_angle_gamma   90.00000000
_symmetry_Int_Tables_number   1
_chemical_formula_structural   Rb2AcBr5
_chemical_formula_sum   'Rb8 Ac4 Br20'
_cell_volume   1244.63544631
_cell_formula_units_Z   4
loop_
 _symmetry_equiv_pos_site_id
 _symmetry_equiv_pos_as_xyz
  1  'x, y, z'
loop_
 _atom_site_type_symbol
 _atom_site_label
 _atom_site_symmetry_multiplicity
 _atom_site_fract_x
 _atom_site_fract_y
 _atom_site_fract_z
 _atom_site_occupancy
  Rb  Rb0  1  0.948546  0.004378  0.827804  1
  Rb  Rb1  1  0.051454  0.995622  0.172196  1
  Rb  Rb2  1  0.448546  0.995622  0.672196  1
  Rb  Rb3  1  0.051454  0.504378  0.172196  1
  Rb  Rb4  1  0.551454  0.004378  0.327804  1
  Rb  Rb5  1  0.948546  0.495622  0.827804  1
  Rb  Rb6  1  0.551454  0.495622  0.327804  1
  Rb  Rb7  1  0.448546  0.504378  0.672196  1
  Ac  Ac8  1  0.925564  0.750000  0.504887  1
  Ac  Ac9  1  0.074436  0.250000  0.495113  1
  Ac  Ac10  1  0.425564  0.250000  0.995113  1
  Ac  Ac11  1  0.574436  0.750000  0.004887  1
  Br  Br12  1  0.125514  0.750000  0.679184  1
  Br  Br13  1  0.874486  0.250000  0.320816  1
  Br  Br14  1  0.625514  0.250000  0.820816  1
  Br  Br15  1  0.374486  0.750000  0.179184  1
  Br  Br16  1  0.834972  0.043571  0.577375  1
  Br  Br17  1  0.165028  0.956429  0.422625  1
  Br  Br18  1  0.334972  0.956429  0.922625  1
  Br  Br19  1  0.165028  0.543571  0.422625  1
  Br  Br20  1  0.665028  0.043571  0.077375  1
  Br  Br21  1  0.834972  0.456429  0.577375  1
  Br  Br22  1  0.665028  0.456429  0.077375  1
  Br  Br23  1  0.334972  0.543571  0.922625  1
  Br  Br24  1  0.580638  0.750000  0.508662  1
  Br  Br25  1  0.419362  0.250000  0.491338  1
  Br  Br26  1  0.080638  0.250000  0.991338  1
  Br  Br27  1  0.919362  0.750000  0.008662  1
  Br  Br28  1  0.662260  0.750000  0.796813  1
  Br  Br29  1  0.337740  0.250000  0.203187  1
  Br  Br30  1  0.162260  0.250000  0.703187  1
  Br  Br31  1  0.837740  0.750000  0.296813  1
