# generated using pymatgen
data_Pr10Ga2Si3Sn
_symmetry_space_group_name_H-M   'P 1'
_cell_length_a   7.93248930
_cell_length_b   7.93249041
_cell_length_c   9.20652515
_cell_angle_alpha   115.24269325
_cell_angle_beta   115.24269099
_cell_angle_gamma   90.30415354
_symmetry_Int_Tables_number   1
_chemical_formula_structural   Pr10Ga2Si3Sn
_chemical_formula_sum   'Pr10 Ga2 Si3 Sn1'
_cell_volume   461.38943025
_cell_formula_units_Z   1
loop_
 _symmetry_equiv_pos_site_id
 _symmetry_equiv_pos_as_xyz
  1  'x, y, z'
loop_
 _atom_site_type_symbol
 _atom_site_label
 _atom_site_symmetry_multiplicity
 _atom_site_fract_x
 _atom_site_fract_y
 _atom_site_fract_z
 _atom_site_occupancy
  Pr  Pr0  1  0.518285  0.513314  0.039854  1
  Pr  Pr1  1  0.986686  0.981715  0.960146  1
  Pr  Pr2  1  0.978958  0.821850  0.284198  1
  Pr  Pr3  1  0.308280  0.460371  0.285568  1
  Pr  Pr4  1  0.824601  0.311567  0.283893  1
  Pr  Pr5  1  0.450797  0.972013  0.281982  1
  Pr  Pr6  1  0.039629  0.191720  0.714432  1
  Pr  Pr7  1  0.678150  0.521042  0.715802  1
  Pr  Pr8  1  0.188433  0.675399  0.716107  1
  Pr  Pr9  1  0.527987  0.049203  0.718018  1
  Ga  Ga10  1  0.248154  0.251846  0.500000  1
  Ga  Ga11  1  0.618000  0.882000  0.000000  1
  Si  Si12  1  0.381965  0.118035  0.000000  1
  Si  Si13  1  0.886022  0.385102  0.001025  1
  Si  Si14  1  0.114898  0.613978  0.998975  1
  Sn  Sn15  1  0.749155  0.750845  0.500000  1
