# generated using pymatgen
data_TaRuF10
_symmetry_space_group_name_H-M   'P 1'
_cell_length_a   5.73496400
_cell_length_b   7.55530956
_cell_length_c   9.95598266
_cell_angle_alpha   88.28123455
_cell_angle_beta   106.05207548
_cell_angle_gamma   99.07629094
_symmetry_Int_Tables_number   1
_chemical_formula_structural   TaRuF10
_chemical_formula_sum   'Ta2 Ru2 F20'
_cell_volume   409.33465795
_cell_formula_units_Z   2
loop_
 _symmetry_equiv_pos_site_id
 _symmetry_equiv_pos_as_xyz
  1  'x, y, z'
loop_
 _atom_site_type_symbol
 _atom_site_label
 _atom_site_symmetry_multiplicity
 _atom_site_fract_x
 _atom_site_fract_y
 _atom_site_fract_z
 _atom_site_occupancy
  Ta  Ta0  1  0.340543  0.385568  0.221937  1
  Ta  Ta1  1  0.659457  0.614432  0.778063  1
  Ru  Ru2  1  0.964198  0.760889  0.314258  1
  Ru  Ru3  1  0.035802  0.239111  0.685742  1
  F  F4  1  0.029567  0.251415  0.169166  1
  F  F5  1  0.970433  0.748585  0.830834  1
  F  F6  1  0.495027  0.222237  0.158021  1
  F  F7  1  0.504973  0.777763  0.841979  1
  F  F8  1  0.112949  0.220264  0.880611  1
  F  F9  1  0.887051  0.779736  0.119389  1
  F  F10  1  0.961403  0.280708  0.493512  1
  F  F11  1  0.038597  0.719292  0.506488  1
  F  F12  1  0.769295  0.059193  0.662031  1
  F  F13  1  0.230705  0.940807  0.337969  1
  F  F14  1  0.248023  0.084418  0.674236  1
  F  F15  1  0.751977  0.915582  0.325764  1
  F  F16  1  0.315535  0.445750  0.711133  1
  F  F17  1  0.684465  0.554250  0.288867  1
  F  F18  1  0.817930  0.419613  0.698918  1
  F  F19  1  0.182070  0.580387  0.301082  1
  F  F20  1  0.694652  0.455082  0.929118  1
  F  F21  1  0.305348  0.544918  0.070882  1
  F  F22  1  0.573689  0.674233  0.587884  1
  F  F23  1  0.426311  0.325767  0.412116  1
