# generated using pymatgen
data_Ac2As4O9
_symmetry_space_group_name_H-M   'P 1'
_cell_length_a   7.27247652
_cell_length_b   8.10539357
_cell_length_c   10.09081049
_cell_angle_alpha   96.18144281
_cell_angle_beta   103.59834616
_cell_angle_gamma   104.88900348
_symmetry_Int_Tables_number   1
_chemical_formula_structural   Ac2As4O9
_chemical_formula_sum   'Ac4 As8 O18'
_cell_volume   549.71246855
_cell_formula_units_Z   2
loop_
 _symmetry_equiv_pos_site_id
 _symmetry_equiv_pos_as_xyz
  1  'x, y, z'
loop_
 _atom_site_type_symbol
 _atom_site_label
 _atom_site_symmetry_multiplicity
 _atom_site_fract_x
 _atom_site_fract_y
 _atom_site_fract_z
 _atom_site_occupancy
  Ac  Ac0  1  0.754718  0.944896  0.121243  1
  Ac  Ac1  1  0.784722  0.468191  0.102974  1
  Ac  Ac2  1  0.245282  0.055104  0.878757  1
  Ac  Ac3  1  0.215278  0.531809  0.897026  1
  As  As4  1  0.828458  0.218047  0.441950  1
  As  As5  1  0.311517  0.235824  0.578629  1
  As  As6  1  0.688483  0.764176  0.421371  1
  As  As7  1  0.171542  0.781953  0.558050  1
  As  As8  1  0.697503  0.655890  0.800458  1
  As  As9  1  0.302497  0.344110  0.199542  1
  As  As10  1  0.252784  0.923771  0.209931  1
  As  As11  1  0.747216  0.076229  0.790069  1
  O  O12  1  0.853272  0.897402  0.858588  1
  O  O13  1  0.124204  0.442352  0.124706  1
  O  O14  1  0.647856  0.670985  0.248207  1
  O  O15  1  0.657157  0.130774  0.936846  1
  O  O16  1  0.098901  0.303888  0.491489  1
  O  O17  1  0.875796  0.557648  0.875294  1
  O  O18  1  0.986761  0.218998  0.827765  1
  O  O19  1  0.146728  0.102598  0.141412  1
  O  O20  1  0.592246  0.664087  0.946379  1
  O  O21  1  0.813869  0.984581  0.390635  1
  O  O22  1  0.352144  0.329015  0.751793  1
  O  O23  1  0.013239  0.781002  0.172235  1
  O  O24  1  0.219056  0.752407  0.732390  1
  O  O25  1  0.407754  0.335913  0.053621  1
  O  O26  1  0.186131  0.015419  0.609365  1
  O  O27  1  0.342843  0.869226  0.063154  1
  O  O28  1  0.780944  0.247593  0.267610  1
  O  O29  1  0.901099  0.696112  0.508511  1
