# generated using pymatgen
data_Er4Ti2Ga2Ir3Pd
_symmetry_space_group_name_H-M   'P 1'
_cell_length_a   4.37394900
_cell_length_b   6.89347864
_cell_length_c   7.82574845
_cell_angle_alpha   92.53213536
_cell_angle_beta   90.00000000
_cell_angle_gamma   90.00000000
_symmetry_Int_Tables_number   1
_chemical_formula_structural   Er4Ti2Ga2Ir3Pd
_chemical_formula_sum   'Er4 Ti2 Ga2 Ir3 Pd1'
_cell_volume   235.72941617
_cell_formula_units_Z   1
loop_
 _symmetry_equiv_pos_site_id
 _symmetry_equiv_pos_as_xyz
  1  'x, y, z'
loop_
 _atom_site_type_symbol
 _atom_site_label
 _atom_site_symmetry_multiplicity
 _atom_site_fract_x
 _atom_site_fract_y
 _atom_site_fract_z
 _atom_site_occupancy
  Er  Er0  1  0.250000  0.975166  0.304554  1
  Er  Er1  1  0.250000  0.483441  0.174307  1
  Er  Er2  1  0.750000  0.021818  0.693527  1
  Er  Er3  1  0.750000  0.528356  0.823935  1
  Ti  Ti4  1  0.250000  0.366418  0.564316  1
  Ti  Ti5  1  0.750000  0.637257  0.425617  1
  Ga  Ga6  1  0.250000  0.837533  0.927708  1
  Ga  Ga7  1  0.750000  0.157522  0.076701  1
  Ir  Ir8  1  0.250000  0.725839  0.598334  1
  Ir  Ir9  1  0.750000  0.771834  0.120428  1
  Ir  Ir10  1  0.750000  0.274394  0.405312  1
  Pd  Pd11  1  0.250000  0.220422  0.885259  1
