# generated using pymatgen
data_Nd9Sm(In3Br)2
_symmetry_space_group_name_H-M   'P 1'
_cell_length_a   9.55455800
_cell_length_b   9.55455581
_cell_length_c   6.83763900
_cell_angle_alpha   90.00000000
_cell_angle_beta   90.00000000
_cell_angle_gamma   120.00000065
_symmetry_Int_Tables_number   1
_chemical_formula_structural   Nd9Sm(In3Br)2
_chemical_formula_sum   'Nd9 Sm1 In6 Br2'
_cell_volume   540.57741805
_cell_formula_units_Z   1
loop_
 _symmetry_equiv_pos_site_id
 _symmetry_equiv_pos_as_xyz
  1  'x, y, z'
loop_
 _atom_site_type_symbol
 _atom_site_label
 _atom_site_symmetry_multiplicity
 _atom_site_fract_x
 _atom_site_fract_y
 _atom_site_fract_z
 _atom_site_occupancy
  Nd  Nd0  1  0.735347  0.734726  0.249586  1
  Nd  Nd1  1  0.999379  0.734726  0.750414  1
  Nd  Nd2  1  0.735347  0.000621  0.750414  1
  Nd  Nd3  1  0.333333  0.666667  0.500000  1
  Nd  Nd4  1  0.265274  0.264653  0.750414  1
  Nd  Nd5  1  0.999379  0.264653  0.249586  1
  Nd  Nd6  1  0.666667  0.333333  0.500000  1
  Nd  Nd7  1  0.265274  0.000621  0.249586  1
  Nd  Nd8  1  0.333333  0.666667  0.000000  1
  Sm  Sm9  1  0.666667  0.333333  0.000000  1
  In  In10  1  0.393479  0.001308  0.750690  1
  In  In11  1  0.998692  0.606521  0.249310  1
  In  In12  1  0.607828  0.001308  0.249310  1
  In  In13  1  0.998692  0.392172  0.750690  1
  In  In14  1  0.393479  0.392172  0.249310  1
  In  In15  1  0.607828  0.606521  0.750690  1
  Br  Br16  1  0.000000  0.000000  0.500000  1
  Br  Br17  1  0.000000  0.000000  0.000000  1
