# generated using pymatgen
data_Y5Co9(As6Ru5)2
_symmetry_space_group_name_H-M   'P 1'
_cell_length_a   12.81758970
_cell_length_b   12.76210794
_cell_length_c   3.88050400
_cell_angle_alpha   90.00000000
_cell_angle_beta   90.00000000
_cell_angle_gamma   119.80941339
_symmetry_Int_Tables_number   1
_chemical_formula_structural   Y5Co9(As6Ru5)2
_chemical_formula_sum   'Y5 Co9 As12 Ru10'
_cell_volume   550.78030138
_cell_formula_units_Z   1
loop_
 _symmetry_equiv_pos_site_id
 _symmetry_equiv_pos_as_xyz
  1  'x, y, z'
loop_
 _atom_site_type_symbol
 _atom_site_label
 _atom_site_symmetry_multiplicity
 _atom_site_fract_x
 _atom_site_fract_y
 _atom_site_fract_z
 _atom_site_occupancy
  Y  Y0  1  0.663962  0.332688  0.000000  1
  Y  Y1  1  0.333337  0.666952  0.000000  1
  Y  Y2  1  0.183752  0.182076  0.500000  1
  Y  Y3  1  0.818268  0.000067  0.500000  1
  Y  Y4  1  0.999448  0.819065  0.500000  1
  Co  Co5  1  0.802311  0.629936  0.000000  1
  Co  Co6  1  0.368757  0.171921  0.000000  1
  Co  Co7  1  0.195930  0.827077  0.000000  1
  Co  Co8  1  0.628194  0.800334  0.000000  1
  Co  Co9  1  0.176473  0.371676  0.000000  1
  Co  Co10  1  0.718555  0.718803  0.500000  1
  Co  Co11  1  0.279771  0.999649  0.500000  1
  Co  Co12  1  0.006048  0.284796  0.500000  1
  Co  Co13  1  0.999659  0.998619  0.000000  1
  As  As14  1  0.360946  0.360480  0.000000  1
  As  As15  1  0.635809  0.996581  0.000000  1
  As  As16  1  0.000206  0.640378  0.000000  1
  As  As17  1  0.839743  0.318992  0.500000  1
  As  As18  1  0.682743  0.522542  0.500000  1
  As  As19  1  0.475107  0.158729  0.500000  1
  As  As20  1  0.316797  0.840135  0.500000  1
  As  As21  1  0.522744  0.681912  0.500000  1
  As  As22  1  0.161961  0.479372  0.500000  1
  As  As23  1  0.820848  0.821843  0.000000  1
  As  As24  1  0.177542  0.999693  0.000000  1
  As  As25  1  0.006322  0.180043  0.000000  1
  Ru  Ru26  1  0.556245  0.554682  0.000000  1
  Ru  Ru27  1  0.440274  0.996989  0.000000  1
  Ru  Ru28  1  0.005926  0.448109  0.000000  1
  Ru  Ru29  1  0.826760  0.196486  0.000000  1
  Ru  Ru30  1  0.642816  0.125084  0.500000  1
  Ru  Ru31  1  0.873560  0.522034  0.500000  1
  Ru  Ru32  1  0.479238  0.351573  0.500000  1
  Ru  Ru33  1  0.127995  0.649775  0.500000  1
  Ru  Ru34  1  0.519258  0.871192  0.500000  1
  Ru  Ru35  1  0.352694  0.479717  0.500000  1
