# generated using pymatgen
data_Tb4Ga10CoRh5
_symmetry_space_group_name_H-M   'P 1'
_cell_length_a   8.58255108
_cell_length_b   8.58255196
_cell_length_c   5.63706396
_cell_angle_alpha   70.80551103
_cell_angle_beta   70.80550422
_cell_angle_gamma   96.71209114
_symmetry_Int_Tables_number   1
_chemical_formula_structural   Tb4Ga10CoRh5
_chemical_formula_sum   'Tb4 Ga10 Co1 Rh5'
_cell_volume   358.36870141
_cell_formula_units_Z   1
loop_
 _symmetry_equiv_pos_site_id
 _symmetry_equiv_pos_as_xyz
  1  'x, y, z'
loop_
 _atom_site_type_symbol
 _atom_site_label
 _atom_site_symmetry_multiplicity
 _atom_site_fract_x
 _atom_site_fract_y
 _atom_site_fract_z
 _atom_site_occupancy
  Tb  Tb0  1  0.582713  0.867872  0.781737  1
  Tb  Tb1  1  0.132128  0.417287  0.718263  1
  Tb  Tb2  1  0.416797  0.131890  0.231333  1
  Tb  Tb3  1  0.868110  0.583203  0.268667  1
  Ga  Ga4  1  0.500017  0.499983  0.750000  1
  Ga  Ga5  1  0.500347  0.499653  0.250000  1
  Ga  Ga6  1  0.257809  0.093646  0.836406  1
  Ga  Ga7  1  0.906354  0.742191  0.663594  1
  Ga  Ga8  1  0.741952  0.906489  0.188722  1
  Ga  Ga9  1  0.093511  0.258048  0.311278  1
  Ga  Ga10  1  0.798119  0.201881  0.750000  1
  Ga  Ga11  1  0.198428  0.801572  0.250000  1
  Ga  Ga12  1  0.202003  0.797997  0.750000  1
  Ga  Ga13  1  0.801356  0.198644  0.250000  1
  Co  Co14  1  0.999879  0.000121  0.250000  1
  Rh  Rh15  1  0.561355  0.258980  0.589151  1
  Rh  Rh16  1  0.741020  0.438645  0.910849  1
  Rh  Rh17  1  0.438232  0.740209  0.409510  1
  Rh  Rh18  1  0.259791  0.561768  0.090490  1
  Rh  Rh19  1  0.000077  0.999923  0.750000  1
