# generated using pymatgen
data_HoEr19(Bi2P)4
_symmetry_space_group_name_H-M   'P 1'
_cell_length_a   7.92525200
_cell_length_b   8.92338400
_cell_length_c   12.04435701
_cell_angle_alpha   90.00318596
_cell_angle_beta   90.00290401
_cell_angle_gamma   90.00196557
_symmetry_Int_Tables_number   1
_chemical_formula_structural   HoEr19(Bi2P)4
_chemical_formula_sum   'Ho1 Er19 Bi8 P4'
_cell_volume   851.77773126
_cell_formula_units_Z   1
loop_
 _symmetry_equiv_pos_site_id
 _symmetry_equiv_pos_as_xyz
  1  'x, y, z'
loop_
 _atom_site_type_symbol
 _atom_site_label
 _atom_site_symmetry_multiplicity
 _atom_site_fract_x
 _atom_site_fract_y
 _atom_site_fract_z
 _atom_site_occupancy
  Ho  Ho0  1  0.182653  0.550640  0.935939  1
  Er  Er1  1  0.850256  0.750020  0.794000  1
  Er  Er2  1  0.149773  0.250033  0.205927  1
  Er  Er3  1  0.350214  0.249980  0.705943  1
  Er  Er4  1  0.649787  0.750022  0.294066  1
  Er  Er5  1  0.375880  0.750059  0.699588  1
  Er  Er6  1  0.624158  0.250004  0.300401  1
  Er  Er7  1  0.875899  0.250003  0.800345  1
  Er  Er8  1  0.124121  0.749998  0.199682  1
  Er  Er9  1  0.958351  0.750014  0.501828  1
  Er  Er10  1  0.041654  0.249990  0.498158  1
  Er  Er11  1  0.458365  0.249976  0.998167  1
  Er  Er12  1  0.541714  0.750017  0.001838  1
  Er  Er13  1  0.682455  0.050810  0.564078  1
  Er  Er14  1  0.317536  0.949190  0.435907  1
  Er  Er15  1  0.182465  0.949249  0.935888  1
  Er  Er16  1  0.317549  0.550823  0.435922  1
  Er  Er17  1  0.817539  0.050799  0.064076  1
  Er  Er18  1  0.682470  0.449199  0.564068  1
  Er  Er19  1  0.817548  0.449194  0.064103  1
  Bi  Bi20  1  0.576642  0.490683  0.826628  1
  Bi  Bi21  1  0.423365  0.509360  0.173407  1
  Bi  Bi22  1  0.076580  0.509351  0.673299  1
  Bi  Bi23  1  0.423389  0.990674  0.173373  1
  Bi  Bi24  1  0.923350  0.490661  0.326645  1
  Bi  Bi25  1  0.576607  0.009350  0.826645  1
  Bi  Bi26  1  0.923354  0.009342  0.326635  1
  Bi  Bi27  1  0.076635  0.990666  0.673367  1
  P  P28  1  0.575512  0.750012  0.512809  1
  P  P29  1  0.424492  0.249987  0.487175  1
  P  P30  1  0.075400  0.249685  0.987221  1
  P  P31  1  0.924286  0.750210  0.012871  1
