# generated using pymatgen
data_Sr3TcP6Os5
_symmetry_space_group_name_H-M   'P 1'
_cell_length_a   8.55121079
_cell_length_b   8.55522380
_cell_length_c   8.55522476
_cell_angle_alpha   152.14861623
_cell_angle_beta   98.27092142
_cell_angle_gamma   88.39770021
_symmetry_Int_Tables_number   1
_chemical_formula_structural   Sr3TcP6Os5
_chemical_formula_sum   'Sr3 Tc1 P6 Os5'
_cell_volume   282.61334339
_cell_formula_units_Z   1
loop_
 _symmetry_equiv_pos_site_id
 _symmetry_equiv_pos_as_xyz
  1  'x, y, z'
loop_
 _atom_site_type_symbol
 _atom_site_label
 _atom_site_symmetry_multiplicity
 _atom_site_fract_x
 _atom_site_fract_y
 _atom_site_fract_z
 _atom_site_occupancy
  Sr  Sr0  1  0.333876  0.333776  0.000100  1
  Sr  Sr1  1  0.666871  0.667019  0.999853  1
  Sr  Sr2  1  0.999430  0.999248  0.000183  1
  Tc  Tc3  1  0.918592  0.166676  0.751917  1
  P  P4  1  0.313259  0.666566  0.646693  1
  P  P5  1  0.684756  0.332322  0.352434  1
  P  P6  1  0.983135  0.334000  0.649136  1
  P  P7  1  0.354104  0.001145  0.352959  1
  P  P8  1  0.016696  0.666447  0.350249  1
  P  P9  1  0.648007  0.999512  0.648495  1
  Os  Os10  1  0.584159  0.832618  0.751540  1
  Os  Os11  1  0.253039  0.500851  0.752186  1
  Os  Os12  1  0.746469  0.498617  0.247851  1
  Os  Os13  1  0.083128  0.834616  0.248512  1
  Os  Os14  1  0.414478  0.166588  0.247892  1
