# generated using pymatgen
data_Hf2TiNbSb2
_symmetry_space_group_name_H-M   'P 1'
_cell_length_a   3.77405600
_cell_length_b   7.30697100
_cell_length_c   8.96192800
_cell_angle_alpha   90.00000000
_cell_angle_beta   90.00000000
_cell_angle_gamma   90.00000000
_symmetry_Int_Tables_number   1
_chemical_formula_structural   Hf2TiNbSb2
_chemical_formula_sum   'Hf4 Ti2 Nb2 Sb4'
_cell_volume   247.14235129
_cell_formula_units_Z   2
loop_
 _symmetry_equiv_pos_site_id
 _symmetry_equiv_pos_as_xyz
  1  'x, y, z'
loop_
 _atom_site_type_symbol
 _atom_site_label
 _atom_site_symmetry_multiplicity
 _atom_site_fract_x
 _atom_site_fract_y
 _atom_site_fract_z
 _atom_site_occupancy
  Hf  Hf0  1  0.250000  0.056459  0.658856  1
  Hf  Hf1  1  0.250000  0.552495  0.838934  1
  Hf  Hf2  1  0.750000  0.443541  0.158856  1
  Hf  Hf3  1  0.750000  0.947505  0.338934  1
  Ti  Ti4  1  0.750000  0.872143  0.941178  1
  Ti  Ti5  1  0.250000  0.627857  0.441178  1
  Nb  Nb6  1  0.750000  0.370770  0.561017  1
  Nb  Nb7  1  0.250000  0.129230  0.061017  1
  Sb  Sb8  1  0.250000  0.252303  0.357315  1
  Sb  Sb9  1  0.250000  0.748327  0.142702  1
  Sb  Sb10  1  0.750000  0.751673  0.642702  1
  Sb  Sb11  1  0.750000  0.247697  0.857315  1
