# generated using pymatgen
data_LiRh(SeO3)2
_symmetry_space_group_name_H-M   'P 1'
_cell_length_a   9.09429540
_cell_length_b   9.09429488
_cell_length_c   9.09429500
_cell_angle_alpha   107.66507015
_cell_angle_beta   107.66506912
_cell_angle_gamma   113.14724723
_symmetry_Int_Tables_number   1
_chemical_formula_structural   LiRh(SeO3)2
_chemical_formula_sum   'Li4 Rh4 Se8 O24'
_cell_volume   577.20917251
_cell_formula_units_Z   4
loop_
 _symmetry_equiv_pos_site_id
 _symmetry_equiv_pos_as_xyz
  1  'x, y, z'
loop_
 _atom_site_type_symbol
 _atom_site_label
 _atom_site_symmetry_multiplicity
 _atom_site_fract_x
 _atom_site_fract_y
 _atom_site_fract_z
 _atom_site_occupancy
  Li  Li0  1  0.691043  0.875000  0.316043  1
  Li  Li1  1  0.558957  0.375000  0.683957  1
  Li  Li2  1  0.625000  0.308957  0.183957  1
  Li  Li3  1  0.125000  0.441043  0.816043  1
  Rh  Rh4  1  0.415580  0.875000  0.040580  1
  Rh  Rh5  1  0.834420  0.375000  0.959420  1
  Rh  Rh6  1  0.625000  0.584420  0.459420  1
  Rh  Rh7  1  0.125000  0.165580  0.540580  1
  Se  Se8  1  0.853993  0.132092  0.171674  1
  Se  Se9  1  0.289582  0.617908  0.221901  1
  Se  Se10  1  0.960418  0.682319  0.828326  1
  Se  Se11  1  0.396007  0.067681  0.778099  1
  Se  Se12  1  0.317681  0.146007  0.278099  1
  Se  Se13  1  0.382092  0.603993  0.671674  1
  Se  Se14  1  0.867908  0.039582  0.721901  1
  Se  Se15  1  0.932319  0.710418  0.328326  1
  O  O16  1  0.686239  0.052751  0.234427  1
  O  O17  1  0.431676  0.697249  0.133487  1
  O  O18  1  0.818324  0.451812  0.765573  1
  O  O19  1  0.563761  0.298188  0.866513  1
  O  O20  1  0.548188  0.313761  0.366513  1
  O  O21  1  0.302751  0.436239  0.734427  1
  O  O22  1  0.947249  0.181676  0.633487  1
  O  O23  1  0.701812  0.568324  0.265573  1
  O  O24  1  0.834928  0.312824  0.158092  1
  O  O25  1  0.095268  0.437176  0.022104  1
  O  O26  1  0.154732  0.676836  0.841907  1
  O  O27  1  0.415072  0.073164  0.977896  1
  O  O28  1  0.323164  0.165072  0.477896  1
  O  O29  1  0.562824  0.584928  0.658092  1
  O  O30  1  0.687176  0.845268  0.522104  1
  O  O31  1  0.926836  0.904732  0.341907  1
  O  O32  1  0.046492  0.264126  0.376891  1
  O  O33  1  0.362764  0.485874  0.282365  1
  O  O34  1  0.887236  0.669601  0.623109  1
  O  O35  1  0.203508  0.080399  0.717635  1
  O  O36  1  0.330399  0.953508  0.217635  1
  O  O37  1  0.514126  0.796492  0.876891  1
  O  O38  1  0.735874  0.112764  0.782365  1
  O  O39  1  0.919601  0.637236  0.123109  1
