# generated using pymatgen
data_Lu2Be2SiIr5
_symmetry_space_group_name_H-M   'P 1'
_cell_length_a   9.56347600
_cell_length_b   9.56347600
_cell_length_c   3.12497000
_cell_angle_alpha   90.00000000
_cell_angle_beta   90.00000000
_cell_angle_gamma   90.00000000
_symmetry_Int_Tables_number   1
_chemical_formula_structural   Lu2Be2SiIr5
_chemical_formula_sum   'Lu4 Be4 Si2 Ir10'
_cell_volume   285.80998496
_cell_formula_units_Z   2
loop_
 _symmetry_equiv_pos_site_id
 _symmetry_equiv_pos_as_xyz
  1  'x, y, z'
loop_
 _atom_site_type_symbol
 _atom_site_label
 _atom_site_symmetry_multiplicity
 _atom_site_fract_x
 _atom_site_fract_y
 _atom_site_fract_z
 _atom_site_occupancy
  Lu  Lu0  1  0.175301  0.675301  0.000000  1
  Lu  Lu1  1  0.675301  0.824699  0.000000  1
  Lu  Lu2  1  0.324699  0.175301  0.000000  1
  Lu  Lu3  1  0.824699  0.324699  0.000000  1
  Be  Be4  1  0.376103  0.876103  0.000000  1
  Be  Be5  1  0.876103  0.623897  0.000000  1
  Be  Be6  1  0.123897  0.376103  0.000000  1
  Be  Be7  1  0.623897  0.123897  0.000000  1
  Si  Si8  1  0.000000  0.000000  0.000000  1
  Si  Si9  1  0.500000  0.500000  0.000000  1
  Ir  Ir10  1  0.000000  0.500000  0.500000  1
  Ir  Ir11  1  0.500000  0.000000  0.500000  1
  Ir  Ir12  1  0.293861  0.434024  0.500000  1
  Ir  Ir13  1  0.706140  0.565976  0.500000  1
  Ir  Ir14  1  0.565976  0.293861  0.500000  1
  Ir  Ir15  1  0.434024  0.706140  0.500000  1
  Ir  Ir16  1  0.934024  0.793860  0.500000  1
  Ir  Ir17  1  0.793860  0.065976  0.500000  1
  Ir  Ir18  1  0.206139  0.934024  0.500000  1
  Ir  Ir19  1  0.065976  0.206139  0.500000  1
