# generated using pymatgen
data_Sm2Si2PtRh3
_symmetry_space_group_name_H-M   'P 1'
_cell_length_a   9.11575241
_cell_length_b   9.11575278
_cell_length_c   4.12152100
_cell_angle_alpha   90.00000000
_cell_angle_beta   90.00000000
_cell_angle_gamma   154.35027863
_symmetry_Int_Tables_number   1
_chemical_formula_structural   Sm2Si2PtRh3
_chemical_formula_sum   'Sm2 Si2 Pt1 Rh3'
_cell_volume   148.25121329
_cell_formula_units_Z   1
loop_
 _symmetry_equiv_pos_site_id
 _symmetry_equiv_pos_as_xyz
  1  'x, y, z'
loop_
 _atom_site_type_symbol
 _atom_site_label
 _atom_site_symmetry_multiplicity
 _atom_site_fract_x
 _atom_site_fract_y
 _atom_site_fract_z
 _atom_site_occupancy
  Sm  Sm0  1  0.101641  0.898359  0.750000  1
  Sm  Sm1  1  0.900508  0.099492  0.250000  1
  Si  Si2  1  0.321277  0.678723  0.750000  1
  Si  Si3  1  0.679436  0.320564  0.250000  1
  Pt  Pt4  1  0.546213  0.453787  0.250000  1
  Rh  Rh5  1  0.451845  0.548155  0.750000  1
  Rh  Rh6  1  0.249400  0.750600  0.250000  1
  Rh  Rh7  1  0.749679  0.250321  0.750000  1
