# generated using pymatgen
data_Eu10Dy10Si15Pt
_symmetry_space_group_name_H-M   'P 1'
_cell_length_a   7.59083800
_cell_length_b   7.92397994
_cell_length_c   15.02374400
_cell_angle_alpha   90.00000000
_cell_angle_beta   90.00000000
_cell_angle_gamma   90.09076679
_symmetry_Int_Tables_number   1
_chemical_formula_structural   Eu10Dy10Si15Pt
_chemical_formula_sum   'Eu10 Dy10 Si15 Pt1'
_cell_volume   903.67178025
_cell_formula_units_Z   1
loop_
 _symmetry_equiv_pos_site_id
 _symmetry_equiv_pos_as_xyz
  1  'x, y, z'
loop_
 _atom_site_type_symbol
 _atom_site_label
 _atom_site_symmetry_multiplicity
 _atom_site_fract_x
 _atom_site_fract_y
 _atom_site_fract_z
 _atom_site_occupancy
  Eu  Eu0  1  0.522022  0.676015  0.595654  1
  Eu  Eu1  1  0.023498  0.822520  0.903460  1
  Eu  Eu2  1  0.475974  0.320352  0.092623  1
  Eu  Eu3  1  0.976536  0.177427  0.408320  1
  Eu  Eu4  1  0.475974  0.320352  0.407377  1
  Eu  Eu5  1  0.976536  0.177427  0.091680  1
  Eu  Eu6  1  0.522022  0.676015  0.904346  1
  Eu  Eu7  1  0.023498  0.822520  0.596540  1
  Eu  Eu8  1  0.151025  0.470261  0.250000  1
  Eu  Eu9  1  0.651302  0.027361  0.250000  1
  Dy  Dy10  1  0.680226  0.180367  0.625753  1
  Dy  Dy11  1  0.187180  0.323674  0.874241  1
  Dy  Dy12  1  0.317641  0.819701  0.120821  1
  Dy  Dy13  1  0.818032  0.678327  0.379670  1
  Dy  Dy14  1  0.317641  0.819701  0.379179  1
  Dy  Dy15  1  0.818032  0.678327  0.120330  1
  Dy  Dy16  1  0.680226  0.180367  0.874247  1
  Dy  Dy17  1  0.187180  0.323674  0.625759  1
  Dy  Dy18  1  0.843216  0.520110  0.750000  1
  Dy  Dy19  1  0.352679  0.976172  0.750000  1
  Si  Si20  1  0.639602  0.966956  0.463974  1
  Si  Si21  1  0.141359  0.531499  0.035982  1
  Si  Si22  1  0.359449  0.028355  0.957172  1
  Si  Si23  1  0.862076  0.471319  0.543135  1
  Si  Si24  1  0.359449  0.028355  0.542828  1
  Si  Si25  1  0.862076  0.471319  0.956865  1
  Si  Si26  1  0.639602  0.966956  0.036026  1
  Si  Si27  1  0.141359  0.531499  0.464018  1
  Si  Si28  1  0.979911  0.109064  0.750000  1
  Si  Si29  1  0.527151  0.619057  0.250000  1
  Si  Si30  1  0.026162  0.880349  0.250000  1
  Si  Si31  1  0.741788  0.890553  0.750000  1
  Si  Si32  1  0.231543  0.619808  0.750000  1
  Si  Si33  1  0.253132  0.097013  0.250000  1
  Si  Si34  1  0.752849  0.401232  0.250000  1
  Pt  Pt35  1  0.482052  0.395996  0.750000  1
