# generated using pymatgen
data_Tb8Ta2Ti10Si15As
_symmetry_space_group_name_H-M   'P 1'
_cell_length_a   7.06313370
_cell_length_b   7.05985633
_cell_length_c   12.99353601
_cell_angle_alpha   89.99345271
_cell_angle_beta   89.90597491
_cell_angle_gamma   89.92657331
_symmetry_Int_Tables_number   1
_chemical_formula_structural   Tb8Ta2Ti10Si15As
_chemical_formula_sum   'Tb8 Ta2 Ti10 Si15 As1'
_cell_volume   647.91748472
_cell_formula_units_Z   1
loop_
 _symmetry_equiv_pos_site_id
 _symmetry_equiv_pos_as_xyz
  1  'x, y, z'
loop_
 _atom_site_type_symbol
 _atom_site_label
 _atom_site_symmetry_multiplicity
 _atom_site_fract_x
 _atom_site_fract_y
 _atom_site_fract_z
 _atom_site_occupancy
  Tb  Tb0  1  0.340947  0.002056  0.466165  1
  Tb  Tb1  1  0.497161  0.841192  0.717439  1
  Tb  Tb2  1  0.502250  0.159356  0.216567  1
  Tb  Tb3  1  0.839811  0.497203  0.282888  1
  Tb  Tb4  1  0.159486  0.501436  0.783348  1
  Tb  Tb5  1  0.660979  0.995604  0.967675  1
  Tb  Tb6  1  0.000357  0.342185  0.531884  1
  Tb  Tb7  1  0.997926  0.659556  0.033385  1
  Ta  Ta8  1  0.325833  0.326623  0.999879  1
  Ta  Ta9  1  0.173353  0.827039  0.250025  1
  Ti  Ti10  1  0.823932  0.173731  0.750148  1
  Ti  Ti11  1  0.672790  0.672926  0.500077  1
  Ti  Ti12  1  0.155628  0.009687  0.876191  1
  Ti  Ti13  1  0.490711  0.653568  0.125773  1
  Ti  Ti14  1  0.509046  0.346787  0.627028  1
  Ti  Ti15  1  0.654801  0.493785  0.874914  1
  Ti  Ti16  1  0.345576  0.508508  0.373487  1
  Ti  Ti17  1  0.847190  0.991667  0.375465  1
  Ti  Ti18  1  0.009129  0.153319  0.124177  1
  Ti  Ti19  1  0.989626  0.843413  0.623017  1
  Si  Si20  1  0.370176  0.702294  0.934579  1
  Si  Si21  1  0.628543  0.298229  0.435317  1
  Si  Si22  1  0.701865  0.370800  0.065251  1
  Si  Si23  1  0.298123  0.629067  0.565204  1
  Si  Si24  1  0.798087  0.870661  0.185183  1
  Si  Si25  1  0.129386  0.201943  0.315439  1
  Si  Si26  1  0.871257  0.798212  0.814671  1
  Si  Si27  1  0.291845  0.953522  0.064325  1
  Si  Si28  1  0.546621  0.790750  0.314724  1
  Si  Si29  1  0.462051  0.210428  0.818643  1
  Si  Si30  1  0.790660  0.546616  0.685011  1
  Si  Si31  1  0.208356  0.453514  0.185770  1
  Si  Si32  1  0.708841  0.046544  0.564632  1
  Si  Si33  1  0.953606  0.290972  0.935207  1
  Si  Si34  1  0.046620  0.708925  0.435251  1
  As  As35  1  0.197430  0.127881  0.681262  1
