# generated using pymatgen
data_Tm6Co2P12Rh15W
_symmetry_space_group_name_H-M   'P 1'
_cell_length_a   3.85290900
_cell_length_b   11.10164300
_cell_length_c   12.74161400
_cell_angle_alpha   90.00000000
_cell_angle_beta   90.00000000
_cell_angle_gamma   90.00000000
_symmetry_Int_Tables_number   1
_chemical_formula_structural   Tm6Co2P12Rh15W
_chemical_formula_sum   'Tm6 Co2 P12 Rh15 W1'
_cell_volume   545.00495835
_cell_formula_units_Z   1
loop_
 _symmetry_equiv_pos_site_id
 _symmetry_equiv_pos_as_xyz
  1  'x, y, z'
loop_
 _atom_site_type_symbol
 _atom_site_label
 _atom_site_symmetry_multiplicity
 _atom_site_fract_x
 _atom_site_fract_y
 _atom_site_fract_z
 _atom_site_occupancy
  Tm  Tm0  1  0.000000  0.500000  0.521960  1
  Tm  Tm1  1  0.500000  0.000000  0.476591  1
  Tm  Tm2  1  0.500000  0.815048  0.203264  1
  Tm  Tm3  1  0.500000  0.184952  0.203264  1
  Tm  Tm4  1  0.000000  0.682490  0.799820  1
  Tm  Tm5  1  0.000000  0.317510  0.799820  1
  Co  Co6  1  0.000000  0.500000  0.990367  1
  Co  Co7  1  0.500000  0.000000  0.021682  1
  P  P8  1  0.500000  0.500000  0.879088  1
  P  P9  1  0.000000  0.000000  0.120466  1
  P  P10  1  0.500000  0.500000  0.348060  1
  P  P11  1  0.000000  0.000000  0.648546  1
  P  P12  1  0.500000  0.316325  0.620072  1
  P  P13  1  0.500000  0.683675  0.620072  1
  P  P14  1  0.000000  0.184727  0.380617  1
  P  P15  1  0.000000  0.815273  0.380617  1
  P  P16  1  0.500000  0.854516  0.893393  1
  P  P17  1  0.500000  0.145484  0.893393  1
  P  P18  1  0.000000  0.650227  0.106419  1
  P  P19  1  0.000000  0.349773  0.106419  1
  Rh  Rh20  1  0.000000  0.000000  0.834109  1
  Rh  Rh21  1  0.500000  0.500000  0.700975  1
  Rh  Rh22  1  0.000000  0.000000  0.297907  1
  Rh  Rh23  1  0.500000  0.334539  0.987658  1
  Rh  Rh24  1  0.500000  0.665461  0.987658  1
  Rh  Rh25  1  0.000000  0.163842  0.010424  1
  Rh  Rh26  1  0.000000  0.836158  0.010424  1
  Rh  Rh27  1  0.500000  0.294781  0.432120  1
  Rh  Rh28  1  0.500000  0.705219  0.432120  1
  Rh  Rh29  1  0.000000  0.202691  0.568884  1
  Rh  Rh30  1  0.000000  0.797309  0.568884  1
  Rh  Rh31  1  0.500000  0.872961  0.711373  1
  Rh  Rh32  1  0.500000  0.127039  0.711373  1
  Rh  Rh33  1  0.000000  0.626235  0.288032  1
  Rh  Rh34  1  0.000000  0.373765  0.288032  1
  W  W35  1  0.500000  0.500000  0.156091  1
