# generated using pymatgen
data_CsTh3Te5
_symmetry_space_group_name_H-M   'P 1'
_cell_length_a   4.44531600
_cell_length_b   13.53348900
_cell_length_c   23.91777600
_cell_angle_alpha   90.00000000
_cell_angle_beta   90.00000000
_cell_angle_gamma   90.00000000
_symmetry_Int_Tables_number   1
_chemical_formula_structural   CsTh3Te5
_chemical_formula_sum   'Cs4 Th12 Te20'
_cell_volume   1438.90859643
_cell_formula_units_Z   4
loop_
 _symmetry_equiv_pos_site_id
 _symmetry_equiv_pos_as_xyz
  1  'x, y, z'
loop_
 _atom_site_type_symbol
 _atom_site_label
 _atom_site_symmetry_multiplicity
 _atom_site_fract_x
 _atom_site_fract_y
 _atom_site_fract_z
 _atom_site_occupancy
  Cs  Cs0  1  0.250000  0.853452  0.094171  1
  Cs  Cs1  1  0.750000  0.146548  0.905829  1
  Cs  Cs2  1  0.750000  0.353452  0.405829  1
  Cs  Cs3  1  0.250000  0.646548  0.594171  1
  Th  Th4  1  0.750000  0.784648  0.828611  1
  Th  Th5  1  0.250000  0.215352  0.171389  1
  Th  Th6  1  0.250000  0.284648  0.671389  1
  Th  Th7  1  0.750000  0.715352  0.328611  1
  Th  Th8  1  0.250000  0.967783  0.693629  1
  Th  Th9  1  0.750000  0.032217  0.306371  1
  Th  Th10  1  0.750000  0.467783  0.806371  1
  Th  Th11  1  0.250000  0.532217  0.193629  1
  Th  Th12  1  0.750000  0.393060  0.067638  1
  Th  Th13  1  0.250000  0.606940  0.932362  1
  Th  Th14  1  0.250000  0.893060  0.432362  1
  Th  Th15  1  0.750000  0.106940  0.567638  1
  Te  Te16  1  0.250000  0.935626  0.564326  1
  Te  Te17  1  0.750000  0.064374  0.435674  1
  Te  Te18  1  0.750000  0.435626  0.935674  1
  Te  Te19  1  0.250000  0.564374  0.064326  1
  Te  Te20  1  0.750000  0.767530  0.960834  1
  Te  Te21  1  0.250000  0.232470  0.039166  1
  Te  Te22  1  0.250000  0.267530  0.539166  1
  Te  Te23  1  0.750000  0.732470  0.460834  1
  Te  Te24  1  0.250000  0.953731  0.828361  1
  Te  Te25  1  0.750000  0.046269  0.171639  1
  Te  Te26  1  0.750000  0.453731  0.671639  1
  Te  Te27  1  0.250000  0.546269  0.328361  1
  Te  Te28  1  0.750000  0.130156  0.702923  1
  Te  Te29  1  0.250000  0.869844  0.297077  1
  Te  Te30  1  0.250000  0.630156  0.797077  1
  Te  Te31  1  0.750000  0.369844  0.202923  1
  Te  Te32  1  0.750000  0.697682  0.195054  1
  Te  Te33  1  0.250000  0.302318  0.804946  1
  Te  Te34  1  0.250000  0.197682  0.304946  1
  Te  Te35  1  0.750000  0.802318  0.695054  1
