# generated using pymatgen
data_Ho7Lu(Ga3Pt)4
_symmetry_space_group_name_H-M   'P 1'
_cell_length_a   8.84956893
_cell_length_b   8.86925770
_cell_length_c   7.01362200
_cell_angle_alpha   90.00000000
_cell_angle_beta   90.00000000
_cell_angle_gamma   120.07058636
_symmetry_Int_Tables_number   1
_chemical_formula_structural   Ho7Lu(Ga3Pt)4
_chemical_formula_sum   'Ho7 Lu1 Ga12 Pt4'
_cell_volume   476.40140690
_cell_formula_units_Z   1
loop_
 _symmetry_equiv_pos_site_id
 _symmetry_equiv_pos_as_xyz
  1  'x, y, z'
loop_
 _atom_site_type_symbol
 _atom_site_label
 _atom_site_symmetry_multiplicity
 _atom_site_fract_x
 _atom_site_fract_y
 _atom_site_fract_z
 _atom_site_occupancy
  Ho  Ho0  1  0.000215  0.999962  0.250000  1
  Ho  Ho1  1  0.999747  0.000027  0.750000  1
  Ho  Ho2  1  0.520101  0.040367  0.250000  1
  Ho  Ho3  1  0.520004  0.479924  0.250000  1
  Ho  Ho4  1  0.960051  0.480068  0.250000  1
  Ho  Ho5  1  0.479642  0.959419  0.750000  1
  Ho  Ho6  1  0.479743  0.520035  0.750000  1
  Lu  Lu7  1  0.040892  0.520397  0.750000  1
  Ga  Ga8  1  0.166557  0.333759  0.046531  1
  Ga  Ga9  1  0.166741  0.832739  0.453487  1
  Ga  Ga10  1  0.665750  0.832936  0.452863  1
  Ga  Ga11  1  0.665750  0.832936  0.047137  1
  Ga  Ga12  1  0.166741  0.832739  0.046513  1
  Ga  Ga13  1  0.833724  0.665981  0.952240  1
  Ga  Ga14  1  0.833543  0.167810  0.952252  1
  Ga  Ga15  1  0.334167  0.167026  0.953073  1
  Ga  Ga16  1  0.166557  0.333759  0.453469  1
  Ga  Ga17  1  0.334167  0.167026  0.546927  1
  Ga  Ga18  1  0.833724  0.665981  0.547760  1
  Ga  Ga19  1  0.833543  0.167810  0.547748  1
  Pt  Pt20  1  0.331759  0.665745  0.028664  1
  Pt  Pt21  1  0.331759  0.665745  0.471336  1
  Pt  Pt22  1  0.667563  0.333905  0.969015  1
  Pt  Pt23  1  0.667563  0.333905  0.530985  1
