# generated using pymatgen
data_Pr2Al20Os2RuRh
_symmetry_space_group_name_H-M   'P 1'
_cell_length_a   6.90049168
_cell_length_b   6.91131914
_cell_length_c   9.22814974
_cell_angle_alpha   89.88254803
_cell_angle_beta   89.91003121
_cell_angle_gamma   96.77966829
_symmetry_Int_Tables_number   1
_chemical_formula_structural   Pr2Al20Os2RuRh
_chemical_formula_sum   'Pr2 Al20 Os2 Ru1 Rh1'
_cell_volume   437.02521305
_cell_formula_units_Z   1
loop_
 _symmetry_equiv_pos_site_id
 _symmetry_equiv_pos_as_xyz
  1  'x, y, z'
loop_
 _atom_site_type_symbol
 _atom_site_label
 _atom_site_symmetry_multiplicity
 _atom_site_fract_x
 _atom_site_fract_y
 _atom_site_fract_z
 _atom_site_occupancy
  Pr  Pr0  1  0.872991  0.124611  0.749987  1
  Pr  Pr1  1  0.127009  0.875389  0.250013  1
  Al  Al2  1  0.622017  0.377302  0.549438  1
  Al  Al3  1  0.377983  0.622698  0.450562  1
  Al  Al4  1  0.380005  0.623144  0.050665  1
  Al  Al5  1  0.619995  0.376856  0.949335  1
  Al  Al6  1  0.225758  0.226246  0.499463  1
  Al  Al7  1  0.774242  0.773754  0.500537  1
  Al  Al8  1  0.773016  0.773588  0.998674  1
  Al  Al9  1  0.226984  0.226412  0.001326  1
  Al  Al10  1  0.839462  0.159457  0.103502  1
  Al  Al11  1  0.160538  0.840543  0.896498  1
  Al  Al12  1  0.159280  0.839393  0.602006  1
  Al  Al13  1  0.840720  0.160607  0.397994  1
  Al  Al14  1  0.857383  0.587486  0.749185  1
  Al  Al15  1  0.142617  0.412514  0.250815  1
  Al  Al16  1  0.409773  0.141679  0.749516  1
  Al  Al17  1  0.590227  0.858321  0.250484  1
  Al  Al18  1  0.222545  0.482998  0.748023  1
  Al  Al19  1  0.777455  0.517002  0.251977  1
  Al  Al20  1  0.516560  0.780896  0.750369  1
  Al  Al21  1  0.483440  0.219104  0.249631  1
  Os  Os22  1  0.500000  0.000000  0.000000  1
  Os  Os23  1  0.500000  0.000000  0.500000  1
  Ru  Ru24  1  0.000000  0.500000  0.500000  1
  Rh  Rh25  1  0.000000  0.500000  0.000000  1
