# generated using pymatgen
data_Hf18Re5(MoN2)3
_symmetry_space_group_name_H-M   'P 1'
_cell_length_a   8.52653400
_cell_length_b   8.53159984
_cell_length_c   8.45491700
_cell_angle_alpha   90.00000000
_cell_angle_beta   90.00000000
_cell_angle_gamma   119.98036006
_symmetry_Int_Tables_number   1
_chemical_formula_structural   Hf18Re5(MoN2)3
_chemical_formula_sum   'Hf18 Re5 Mo3 N6'
_cell_volume   532.75667642
_cell_formula_units_Z   1
loop_
 _symmetry_equiv_pos_site_id
 _symmetry_equiv_pos_as_xyz
  1  'x, y, z'
loop_
 _atom_site_type_symbol
 _atom_site_label
 _atom_site_symmetry_multiplicity
 _atom_site_fract_x
 _atom_site_fract_y
 _atom_site_fract_z
 _atom_site_occupancy
  Hf  Hf0  1  0.454797  0.909594  0.250000  1
  Hf  Hf1  1  0.545230  0.090459  0.750000  1
  Hf  Hf2  1  0.089924  0.545619  0.250000  1
  Hf  Hf3  1  0.909523  0.455069  0.750000  1
  Hf  Hf4  1  0.455694  0.545619  0.250000  1
  Hf  Hf5  1  0.545548  0.455069  0.750000  1
  Hf  Hf6  1  0.205470  0.410940  0.558582  1
  Hf  Hf7  1  0.795276  0.590552  0.442822  1
  Hf  Hf8  1  0.590406  0.795193  0.557298  1
  Hf  Hf9  1  0.795276  0.590552  0.057178  1
  Hf  Hf10  1  0.411097  0.205443  0.443197  1
  Hf  Hf11  1  0.205470  0.410940  0.941418  1
  Hf  Hf12  1  0.204787  0.795193  0.557298  1
  Hf  Hf13  1  0.411097  0.205443  0.056803  1
  Hf  Hf14  1  0.794346  0.205443  0.443197  1
  Hf  Hf15  1  0.590406  0.795193  0.942702  1
  Hf  Hf16  1  0.794346  0.205443  0.056803  1
  Hf  Hf17  1  0.204787  0.795193  0.942702  1
  Re  Re18  1  0.890947  0.781893  0.750000  1
  Re  Re19  1  0.779464  0.888810  0.250000  1
  Re  Re20  1  0.218425  0.108990  0.750000  1
  Re  Re21  1  0.109346  0.888810  0.250000  1
  Re  Re22  1  0.890566  0.108990  0.750000  1
  Mo  Mo23  1  0.107770  0.215540  0.250000  1
  Mo  Mo24  1  0.000066  0.000131  0.001214  1
  Mo  Mo25  1  0.000066  0.000131  0.498786  1
  N  N26  1  0.499793  0.999587  0.999996  1
  N  N27  1  0.000014  0.500142  0.999825  1
  N  N28  1  0.499793  0.999587  0.500004  1
  N  N29  1  0.500128  0.500142  0.999825  1
  N  N30  1  0.000014  0.500142  0.500175  1
  N  N31  1  0.500128  0.500142  0.500175  1
