# generated using pymatgen
data_BeNb3V2Ge3
_symmetry_space_group_name_H-M   'P 1'
_cell_length_a   7.70709400
_cell_length_b   7.70709520
_cell_length_c   5.17189000
_cell_angle_alpha   90.00000000
_cell_angle_beta   90.00000000
_cell_angle_gamma   120.00000344
_symmetry_Int_Tables_number   1
_chemical_formula_structural   BeNb3V2Ge3
_chemical_formula_sum   'Be2 Nb6 V4 Ge6'
_cell_volume   266.04878223
_cell_formula_units_Z   2
loop_
 _symmetry_equiv_pos_site_id
 _symmetry_equiv_pos_as_xyz
  1  'x, y, z'
loop_
 _atom_site_type_symbol
 _atom_site_label
 _atom_site_symmetry_multiplicity
 _atom_site_fract_x
 _atom_site_fract_y
 _atom_site_fract_z
 _atom_site_occupancy
  Be  Be0  1  0.000000  0.000000  0.000000  1
  Be  Be1  1  0.000000  0.000000  0.500000  1
  Nb  Nb2  1  0.740736  0.740736  0.750000  1
  Nb  Nb3  1  0.259264  0.000000  0.750000  1
  Nb  Nb4  1  0.000000  0.259264  0.750000  1
  Nb  Nb5  1  0.259264  0.259264  0.250000  1
  Nb  Nb6  1  0.740736  0.000000  0.250000  1
  Nb  Nb7  1  0.000000  0.740736  0.250000  1
  V  V8  1  0.666667  0.333333  0.000000  1
  V  V9  1  0.333333  0.666667  0.000000  1
  V  V10  1  0.333333  0.666667  0.500000  1
  V  V11  1  0.666667  0.333333  0.500000  1
  Ge  Ge12  1  0.397266  0.397266  0.750000  1
  Ge  Ge13  1  0.602734  0.000000  0.750000  1
  Ge  Ge14  1  0.000000  0.602734  0.750000  1
  Ge  Ge15  1  0.602734  0.602734  0.250000  1
  Ge  Ge16  1  0.397266  0.000000  0.250000  1
  Ge  Ge17  1  0.000000  0.397266  0.250000  1
