# generated using pymatgen
data_Lu2ThFe8CoP6
_symmetry_space_group_name_H-M   'P 1'
_cell_length_a   3.71976000
_cell_length_b   10.51913900
_cell_length_c   12.18190100
_cell_angle_alpha   90.00000000
_cell_angle_beta   90.00000000
_cell_angle_gamma   90.00000000
_symmetry_Int_Tables_number   1
_chemical_formula_structural   Lu2ThFe8CoP6
_chemical_formula_sum   'Lu4 Th2 Fe16 Co2 P12'
_cell_volume   476.66161449
_cell_formula_units_Z   2
loop_
 _symmetry_equiv_pos_site_id
 _symmetry_equiv_pos_as_xyz
  1  'x, y, z'
loop_
 _atom_site_type_symbol
 _atom_site_label
 _atom_site_symmetry_multiplicity
 _atom_site_fract_x
 _atom_site_fract_y
 _atom_site_fract_z
 _atom_site_occupancy
  Lu  Lu0  1  0.500000  0.818216  0.204376  1
  Lu  Lu1  1  0.500000  0.181784  0.204376  1
  Lu  Lu2  1  0.000000  0.681784  0.795624  1
  Lu  Lu3  1  0.000000  0.318216  0.795624  1
  Th  Th4  1  0.000000  0.500000  0.526547  1
  Th  Th5  1  0.500000  0.000000  0.473453  1
  Fe  Fe6  1  0.500000  0.500000  0.150264  1
  Fe  Fe7  1  0.000000  0.000000  0.849736  1
  Fe  Fe8  1  0.000000  0.500000  0.987576  1
  Fe  Fe9  1  0.500000  0.000000  0.012424  1
  Fe  Fe10  1  0.500000  0.328157  0.996201  1
  Fe  Fe11  1  0.500000  0.671843  0.996201  1
  Fe  Fe12  1  0.000000  0.171843  0.003799  1
  Fe  Fe13  1  0.000000  0.828157  0.003799  1
  Fe  Fe14  1  0.500000  0.300297  0.427983  1
  Fe  Fe15  1  0.500000  0.699703  0.427983  1
  Fe  Fe16  1  0.000000  0.199703  0.572017  1
  Fe  Fe17  1  0.000000  0.800297  0.572017  1
  Fe  Fe18  1  0.500000  0.882430  0.713240  1
  Fe  Fe19  1  0.500000  0.117570  0.713240  1
  Fe  Fe20  1  0.000000  0.617570  0.286760  1
  Fe  Fe21  1  0.000000  0.382430  0.286760  1
  Co  Co22  1  0.500000  0.500000  0.702042  1
  Co  Co23  1  0.000000  0.000000  0.297958  1
  P  P24  1  0.500000  0.500000  0.883709  1
  P  P25  1  0.000000  0.000000  0.116291  1
  P  P26  1  0.500000  0.500000  0.335708  1
  P  P27  1  0.000000  0.000000  0.664292  1
  P  P28  1  0.500000  0.301703  0.617596  1
  P  P29  1  0.500000  0.698297  0.617596  1
  P  P30  1  0.000000  0.198297  0.382404  1
  P  P31  1  0.000000  0.801703  0.382404  1
  P  P32  1  0.500000  0.849545  0.890644  1
  P  P33  1  0.500000  0.150455  0.890644  1
  P  P34  1  0.000000  0.650455  0.109356  1
  P  P35  1  0.000000  0.349545  0.109356  1
