# generated using pymatgen
data_YbPr4Si2Sn
_symmetry_space_group_name_H-M   'P 1'
_cell_length_a   7.91499700
_cell_length_b   9.21252901
_cell_length_c   7.91499700
_cell_angle_alpha   115.44077652
_cell_angle_beta   90.00000000
_cell_angle_gamma   115.44077652
_symmetry_Int_Tables_number   1
_chemical_formula_structural   YbPr4Si2Sn
_chemical_formula_sum   'Yb2 Pr8 Si4 Sn2'
_cell_volume   458.42623438
_cell_formula_units_Z   2
loop_
 _symmetry_equiv_pos_site_id
 _symmetry_equiv_pos_as_xyz
  1  'x, y, z'
loop_
 _atom_site_type_symbol
 _atom_site_label
 _atom_site_symmetry_multiplicity
 _atom_site_fract_x
 _atom_site_fract_y
 _atom_site_fract_z
 _atom_site_occupancy
  Yb  Yb0  1  0.000000  0.000000  0.000000  1
  Yb  Yb1  1  0.500000  0.000000  0.500000  1
  Pr  Pr2  1  0.538190  0.723011  0.684822  1
  Pr  Pr3  1  0.184822  0.723011  0.038190  1
  Pr  Pr4  1  0.684822  0.723011  0.184822  1
  Pr  Pr5  1  0.038190  0.723011  0.538190  1
  Pr  Pr6  1  0.461810  0.276989  0.315178  1
  Pr  Pr7  1  0.815178  0.276989  0.961810  1
  Pr  Pr8  1  0.315178  0.276989  0.815178  1
  Pr  Pr9  1  0.961810  0.276989  0.461810  1
  Si  Si10  1  0.885631  0.000000  0.614369  1
  Si  Si11  1  0.114369  0.000000  0.385631  1
  Si  Si12  1  0.614369  0.000000  0.114369  1
  Si  Si13  1  0.385631  0.000000  0.885631  1
  Sn  Sn14  1  0.750000  0.500000  0.750000  1
  Sn  Sn15  1  0.250000  0.500000  0.250000  1
