# generated using pymatgen
data_Ca11Yb5(CN4)4
_symmetry_space_group_name_H-M   'P 1'
_cell_length_a   3.55241300
_cell_length_b   11.40151031
_cell_length_c   13.95218639
_cell_angle_alpha   90.02688568
_cell_angle_beta   90.00000000
_cell_angle_gamma   90.00000000
_symmetry_Int_Tables_number   1
_chemical_formula_structural   Ca11Yb5(CN4)4
_chemical_formula_sum   'Ca11 Yb5 C4 N16'
_cell_volume   565.10357737
_cell_formula_units_Z   1
loop_
 _symmetry_equiv_pos_site_id
 _symmetry_equiv_pos_as_xyz
  1  'x, y, z'
loop_
 _atom_site_type_symbol
 _atom_site_label
 _atom_site_symmetry_multiplicity
 _atom_site_fract_x
 _atom_site_fract_y
 _atom_site_fract_z
 _atom_site_occupancy
  Ca  Ca0  1  0.750000  0.124548  0.616833  1
  Ca  Ca1  1  0.250000  0.375339  0.117767  1
  Ca  Ca2  1  0.750000  0.624703  0.882584  1
  Ca  Ca3  1  0.250000  0.379160  0.541032  1
  Ca  Ca4  1  0.750000  0.620861  0.458548  1
  Ca  Ca5  1  0.250000  0.879432  0.959329  1
  Ca  Ca6  1  0.750000  0.120616  0.041643  1
  Ca  Ca7  1  0.250000  0.615719  0.670518  1
  Ca  Ca8  1  0.750000  0.384544  0.329025  1
  Ca  Ca9  1  0.250000  0.115504  0.829068  1
  Ca  Ca10  1  0.750000  0.885332  0.172557  1
  Yb  Yb11  1  0.250000  0.638924  0.260109  1
  Yb  Yb12  1  0.750000  0.361989  0.740140  1
  Yb  Yb13  1  0.250000  0.137780  0.240828  1
  Yb  Yb14  1  0.750000  0.862003  0.759767  1
  Yb  Yb15  1  0.250000  0.875162  0.384278  1
  C  C16  1  0.250000  0.861957  0.586266  1
  C  C17  1  0.750000  0.136490  0.411516  1
  C  C18  1  0.250000  0.362107  0.912331  1
  C  C19  1  0.750000  0.638296  0.088157  1
  N  N20  1  0.250000  0.954645  0.633290  1
  N  N21  1  0.750000  0.043147  0.365220  1
  N  N22  1  0.250000  0.455039  0.865567  1
  N  N23  1  0.750000  0.545421  0.135054  1
  N  N24  1  0.250000  0.769679  0.538847  1
  N  N25  1  0.750000  0.229388  0.458229  1
  N  N26  1  0.250000  0.269488  0.959180  1
  N  N27  1  0.750000  0.730871  0.041277  1
  N  N28  1  0.250000  0.501469  0.382200  1
  N  N29  1  0.750000  0.498900  0.617456  1
  N  N30  1  0.250000  0.001222  0.117916  1
  N  N31  1  0.750000  0.998840  0.882370  1
  N  N32  1  0.750000  0.263690  0.186251  1
  N  N33  1  0.250000  0.736196  0.813695  1
  N  N34  1  0.750000  0.765413  0.315397  1
  N  N35  1  0.250000  0.236128  0.685753  1
