# generated using pymatgen
data_YNp3Ga12Co
_symmetry_space_group_name_H-M   'P 1'
_cell_length_a   7.41975860
_cell_length_b   7.47285682
_cell_length_c   7.41975900
_cell_angle_alpha   109.61624088
_cell_angle_beta   109.32579852
_cell_angle_gamma   109.61625920
_symmetry_Int_Tables_number   1
_chemical_formula_structural   YNp3Ga12Co
_chemical_formula_sum   'Y1 Np3 Ga12 Co1'
_cell_volume   316.12868927
_cell_formula_units_Z   1
loop_
 _symmetry_equiv_pos_site_id
 _symmetry_equiv_pos_as_xyz
  1  'x, y, z'
loop_
 _atom_site_type_symbol
 _atom_site_label
 _atom_site_symmetry_multiplicity
 _atom_site_fract_x
 _atom_site_fract_y
 _atom_site_fract_z
 _atom_site_occupancy
  Y  Y0  1  0.000000  0.500000  0.000000  1
  Np  Np1  1  0.500000  0.500000  0.500000  1
  Np  Np2  1  0.000000  0.000000  0.500000  1
  Np  Np3  1  0.500000  0.000000  0.000000  1
  Ga  Ga4  1  0.749464  0.500000  0.250536  1
  Ga  Ga5  1  0.501071  0.750536  0.250536  1
  Ga  Ga6  1  0.498929  0.249464  0.749464  1
  Ga  Ga7  1  0.749464  0.249464  0.498929  1
  Ga  Ga8  1  0.250536  0.750536  0.501071  1
  Ga  Ga9  1  0.250536  0.500000  0.749464  1
  Ga  Ga10  1  0.282893  0.002297  0.282893  1
  Ga  Ga11  1  0.000000  0.280597  0.282893  1
  Ga  Ga12  1  0.000000  0.719403  0.717107  1
  Ga  Ga13  1  0.282893  0.280597  0.000000  1
  Ga  Ga14  1  0.717107  0.719403  0.000000  1
  Ga  Ga15  1  0.717107  0.997703  0.717107  1
  Co  Co16  1  0.000000  0.000000  0.000000  1
