# generated using pymatgen
data_Sb2As6Pd11
_symmetry_space_group_name_H-M   'P 1'
_cell_length_a   7.58091614
_cell_length_b   7.58091512
_cell_length_c   12.11860209
_cell_angle_alpha   98.88639802
_cell_angle_beta   98.88638826
_cell_angle_gamma   89.79921556
_symmetry_Int_Tables_number   1
_chemical_formula_structural   Sb2As6Pd11
_chemical_formula_sum   'Sb4 As12 Pd22'
_cell_volume   679.69215918
_cell_formula_units_Z   2
loop_
 _symmetry_equiv_pos_site_id
 _symmetry_equiv_pos_as_xyz
  1  'x, y, z'
loop_
 _atom_site_type_symbol
 _atom_site_label
 _atom_site_symmetry_multiplicity
 _atom_site_fract_x
 _atom_site_fract_y
 _atom_site_fract_z
 _atom_site_occupancy
  Sb  Sb0  1  0.553531  0.446468  0.250000  1
  Sb  Sb1  1  0.071236  0.928764  0.250000  1
  Sb  Sb2  1  0.928763  0.071235  0.750000  1
  Sb  Sb3  1  0.446468  0.553531  0.750000  1
  As  As4  1  0.254945  0.374969  0.002900  1
  As  As5  1  0.753607  0.125114  0.007773  1
  As  As6  1  0.063456  0.439556  0.248158  1
  As  As7  1  0.560444  0.936544  0.251842  1
  As  As8  1  0.874886  0.246392  0.492227  1
  As  As9  1  0.625032  0.745056  0.497100  1
  As  As10  1  0.374968  0.254945  0.502900  1
  As  As11  1  0.125113  0.753607  0.507773  1
  As  As12  1  0.439557  0.063457  0.748158  1
  As  As13  1  0.936543  0.560443  0.751842  1
  As  As14  1  0.246393  0.874887  0.992227  1
  As  As15  1  0.745055  0.625032  0.997100  1
  Pd  Pd16  1  0.468159  0.139814  0.089411  1
  Pd  Pd17  1  0.086290  0.641003  0.087600  1
  Pd  Pd18  1  0.075266  0.151559  0.088757  1
  Pd  Pd19  1  0.454760  0.658092  0.088636  1
  Pd  Pd20  1  0.801394  0.676500  0.209358  1
  Pd  Pd21  1  0.811660  0.188340  0.250000  1
  Pd  Pd22  1  0.323500  0.198606  0.290642  1
  Pd  Pd23  1  0.341908  0.545239  0.411364  1
  Pd  Pd24  1  0.848441  0.924733  0.411243  1
  Pd  Pd25  1  0.358997  0.913710  0.412400  1
  Pd  Pd26  1  0.860186  0.531840  0.410589  1
  Pd  Pd27  1  0.139814  0.468159  0.589411  1
  Pd  Pd28  1  0.641002  0.086289  0.587600  1
  Pd  Pd29  1  0.151558  0.075266  0.588757  1
  Pd  Pd30  1  0.658092  0.454760  0.588636  1
  Pd  Pd31  1  0.676499  0.801393  0.709358  1
  Pd  Pd32  1  0.188339  0.811660  0.750000  1
  Pd  Pd33  1  0.198607  0.323501  0.790642  1
  Pd  Pd34  1  0.545240  0.341908  0.911364  1
  Pd  Pd35  1  0.924734  0.848442  0.911243  1
  Pd  Pd36  1  0.913711  0.358998  0.912400  1
  Pd  Pd37  1  0.531841  0.860186  0.910589  1
