# generated using pymatgen
data_TbEr3SiI6
_symmetry_space_group_name_H-M   'P 1'
_cell_length_a   4.20162900
_cell_length_b   13.89375335
_cell_length_c   14.68518856
_cell_angle_alpha   90.17098146
_cell_angle_beta   90.00000000
_cell_angle_gamma   90.00000000
_symmetry_Int_Tables_number   1
_chemical_formula_structural   TbEr3SiI6
_chemical_formula_sum   'Tb2 Er6 Si2 I12'
_cell_volume   857.26458034
_cell_formula_units_Z   2
loop_
 _symmetry_equiv_pos_site_id
 _symmetry_equiv_pos_as_xyz
  1  'x, y, z'
loop_
 _atom_site_type_symbol
 _atom_site_label
 _atom_site_symmetry_multiplicity
 _atom_site_fract_x
 _atom_site_fract_y
 _atom_site_fract_z
 _atom_site_occupancy
  Tb  Tb0  1  0.000000  0.611874  0.925106  1
  Tb  Tb1  1  0.000000  0.388126  0.074894  1
  Er  Er2  1  0.500000  0.113238  0.348183  1
  Er  Er3  1  0.500000  0.886762  0.651817  1
  Er  Er4  1  0.500000  0.613716  0.152352  1
  Er  Er5  1  0.500000  0.386284  0.847648  1
  Er  Er6  1  0.000000  0.110016  0.573557  1
  Er  Er7  1  0.000000  0.889984  0.426443  1
  Si  Si8  1  0.500000  0.000000  0.500000  1
  Si  Si9  1  0.500000  0.500000  0.000000  1
  I  I10  1  0.500000  0.242830  0.163624  1
  I  I11  1  0.500000  0.757170  0.836376  1
  I  I12  1  0.500000  0.746822  0.338453  1
  I  I13  1  0.500000  0.253178  0.661547  1
  I  I14  1  0.000000  0.257986  0.414355  1
  I  I15  1  0.000000  0.742014  0.585645  1
  I  I16  1  0.000000  0.759093  0.088126  1
  I  I17  1  0.000000  0.240907  0.911874  1
  I  I18  1  0.000000  0.999166  0.240981  1
  I  I19  1  0.000000  0.000834  0.759019  1
  I  I20  1  0.000000  0.501678  0.261171  1
  I  I21  1  0.000000  0.498322  0.738829  1
