# generated using pymatgen
data_Tb4ErRu2
_symmetry_space_group_name_H-M   'P 1'
_cell_length_a   6.36357393
_cell_length_b   7.27667780
_cell_length_c   8.51940570
_cell_angle_alpha   96.58851375
_cell_angle_beta   111.93010323
_cell_angle_gamma   89.99999821
_symmetry_Int_Tables_number   1
_chemical_formula_structural   Tb4ErRu2
_chemical_formula_sum   'Tb8 Er2 Ru4'
_cell_volume   363.14103676
_cell_formula_units_Z   2
loop_
 _symmetry_equiv_pos_site_id
 _symmetry_equiv_pos_as_xyz
  1  'x, y, z'
loop_
 _atom_site_type_symbol
 _atom_site_label
 _atom_site_symmetry_multiplicity
 _atom_site_fract_x
 _atom_site_fract_y
 _atom_site_fract_z
 _atom_site_occupancy
  Tb  Tb0  1  0.791775  0.584627  0.814586  1
  Tb  Tb1  1  0.977189  0.915373  0.185414  1
  Tb  Tb2  1  0.208225  0.415373  0.185414  1
  Tb  Tb3  1  0.022811  0.084627  0.814586  1
  Tb  Tb4  1  0.206840  0.684979  0.567183  1
  Tb  Tb5  1  0.639656  0.815021  0.432817  1
  Tb  Tb6  1  0.793160  0.315021  0.432817  1
  Tb  Tb7  1  0.360344  0.184979  0.567183  1
  Er  Er8  1  0.421157  0.750000  0.000000  1
  Er  Er9  1  0.578843  0.250000  0.000000  1
  Ru  Ru10  1  0.602704  0.924505  0.781272  1
  Ru  Ru11  1  0.821431  0.575495  0.218728  1
  Ru  Ru12  1  0.397296  0.075495  0.218728  1
  Ru  Ru13  1  0.178569  0.424505  0.781272  1
