# generated using pymatgen
data_Ho6Sc4(SnSb)3
_symmetry_space_group_name_H-M   'P 1'
_cell_length_a   8.75806900
_cell_length_b   8.75523592
_cell_length_c   6.17435100
_cell_angle_alpha   90.00000000
_cell_angle_beta   90.00000000
_cell_angle_gamma   120.01070095
_symmetry_Int_Tables_number   1
_chemical_formula_structural   Ho6Sc4(SnSb)3
_chemical_formula_sum   'Ho6 Sc4 Sn3 Sb3'
_cell_volume   409.96928652
_cell_formula_units_Z   1
loop_
 _symmetry_equiv_pos_site_id
 _symmetry_equiv_pos_as_xyz
  1  'x, y, z'
loop_
 _atom_site_type_symbol
 _atom_site_label
 _atom_site_symmetry_multiplicity
 _atom_site_fract_x
 _atom_site_fract_y
 _atom_site_fract_z
 _atom_site_occupancy
  Ho  Ho0  1  0.999272  0.758390  0.750000  1
  Ho  Ho1  1  0.999259  0.240180  0.250000  1
  Ho  Ho2  1  0.759079  0.759820  0.250000  1
  Ho  Ho3  1  0.760036  0.000000  0.750000  1
  Ho  Ho4  1  0.240881  0.241610  0.750000  1
  Ho  Ho5  1  0.241654  0.000000  0.250000  1
  Sc  Sc6  1  0.333313  0.666563  0.499828  1
  Sc  Sc7  1  0.666750  0.333437  0.000172  1
  Sc  Sc8  1  0.666750  0.333437  0.499828  1
  Sc  Sc9  1  0.333313  0.666563  0.000172  1
  Sn  Sn10  1  0.000368  0.398750  0.750000  1
  Sn  Sn11  1  0.601618  0.601250  0.750000  1
  Sn  Sn12  1  0.601399  0.000000  0.250000  1
  Sb  Sb13  1  0.397848  0.000000  0.750000  1
  Sb  Sb14  1  0.398121  0.397779  0.250000  1
  Sb  Sb15  1  0.000342  0.602221  0.250000  1
