# generated using pymatgen
data_Dy5Y3Cd2IrPt
_symmetry_space_group_name_H-M   'P 1'
_cell_length_a   9.67064726
_cell_length_b   9.67064696
_cell_length_c   9.64901200
_cell_angle_alpha   60.07397086
_cell_angle_beta   60.07397188
_cell_angle_gamma   60.20009441
_symmetry_Int_Tables_number   1
_chemical_formula_structural   Dy5Y3Cd2IrPt
_chemical_formula_sum   'Dy10 Y6 Cd4 Ir2 Pt2'
_cell_volume   639.76062280
_cell_formula_units_Z   2
loop_
 _symmetry_equiv_pos_site_id
 _symmetry_equiv_pos_as_xyz
  1  'x, y, z'
loop_
 _atom_site_type_symbol
 _atom_site_label
 _atom_site_symmetry_multiplicity
 _atom_site_fract_x
 _atom_site_fract_y
 _atom_site_fract_z
 _atom_site_occupancy
  Dy  Dy0  1  0.350783  0.350783  0.346346  1
  Dy  Dy1  1  0.350783  0.350783  0.952088  1
  Dy  Dy2  1  0.355577  0.944914  0.349754  1
  Dy  Dy3  1  0.944914  0.355577  0.349754  1
  Dy  Dy4  1  0.806412  0.190157  0.191278  1
  Dy  Dy5  1  0.190157  0.806412  0.812153  1
  Dy  Dy6  1  0.190157  0.806412  0.191278  1
  Dy  Dy7  1  0.806412  0.190157  0.812153  1
  Dy  Dy8  1  0.191929  0.191929  0.808071  1
  Dy  Dy9  1  0.810663  0.810663  0.189337  1
  Y  Y10  1  0.938137  0.563784  0.561535  1
  Y  Y11  1  0.563784  0.938137  0.936544  1
  Y  Y12  1  0.563784  0.938137  0.561535  1
  Y  Y13  1  0.938137  0.563784  0.936544  1
  Y  Y14  1  0.562918  0.562918  0.937082  1
  Y  Y15  1  0.937371  0.937371  0.562629  1
  Cd  Cd16  1  0.581089  0.581089  0.581357  1
  Cd  Cd17  1  0.581089  0.581089  0.256465  1
  Cd  Cd18  1  0.580925  0.255895  0.581590  1
  Cd  Cd19  1  0.255895  0.580925  0.581590  1
  Ir  Ir20  1  0.141568  0.572887  0.142773  1
  Ir  Ir21  1  0.572887  0.141568  0.142773  1
  Pt  Pt22  1  0.142313  0.142313  0.144367  1
  Pt  Pt23  1  0.142313  0.142313  0.571007  1
