# generated using pymatgen
data_Zr6Al6OsPd5
_symmetry_space_group_name_H-M   'P 1'
_cell_length_a   7.19500400
_cell_length_b   7.19500515
_cell_length_c   7.21406600
_cell_angle_alpha   90.00000000
_cell_angle_beta   90.00000000
_cell_angle_gamma   120.00000389
_symmetry_Int_Tables_number   1
_chemical_formula_structural   Zr6Al6OsPd5
_chemical_formula_sum   'Zr6 Al6 Os1 Pd5'
_cell_volume   323.42446995
_cell_formula_units_Z   1
loop_
 _symmetry_equiv_pos_site_id
 _symmetry_equiv_pos_as_xyz
  1  'x, y, z'
loop_
 _atom_site_type_symbol
 _atom_site_label
 _atom_site_symmetry_multiplicity
 _atom_site_fract_x
 _atom_site_fract_y
 _atom_site_fract_z
 _atom_site_occupancy
  Zr  Zr0  1  0.022270  0.604150  0.742741  1
  Zr  Zr1  1  0.992534  0.586910  0.256541  1
  Zr  Zr2  1  0.594375  0.007466  0.256541  1
  Zr  Zr3  1  0.581879  0.977730  0.742741  1
  Zr  Zr4  1  0.413090  0.405625  0.256541  1
  Zr  Zr5  1  0.395850  0.418121  0.742741  1
  Al  Al6  1  0.000282  0.254707  0.498339  1
  Al  Al7  1  0.742269  0.737505  0.999428  1
  Al  Al8  1  0.995236  0.257731  0.999428  1
  Al  Al9  1  0.254425  0.999718  0.498339  1
  Al  Al10  1  0.262495  0.004764  0.999428  1
  Al  Al11  1  0.745293  0.745575  0.498339  1
  Os  Os12  1  0.333333  0.666667  0.487551  1
  Pd  Pd13  1  0.666667  0.333333  0.525903  1
  Pd  Pd14  1  0.666667  0.333333  0.974012  1
  Pd  Pd15  1  0.000000  0.000000  0.245161  1
  Pd  Pd16  1  0.000000  0.000000  0.752589  1
  Pd  Pd17  1  0.333333  0.666667  0.023638  1
