# generated using pymatgen
data_La12Pr8Si15Hg
_symmetry_space_group_name_H-M   'P 1'
_cell_length_a   8.04043666
_cell_length_b   8.03625684
_cell_length_c   15.43657620
_cell_angle_alpha   90.03256526
_cell_angle_beta   89.72204672
_cell_angle_gamma   89.86972650
_symmetry_Int_Tables_number   1
_chemical_formula_structural   La12Pr8Si15Hg
_chemical_formula_sum   'La12 Pr8 Si15 Hg1'
_cell_volume   997.42010622
_cell_formula_units_Z   1
loop_
 _symmetry_equiv_pos_site_id
 _symmetry_equiv_pos_as_xyz
  1  'x, y, z'
loop_
 _atom_site_type_symbol
 _atom_site_label
 _atom_site_symmetry_multiplicity
 _atom_site_fract_x
 _atom_site_fract_y
 _atom_site_fract_z
 _atom_site_occupancy
  La  La0  1  0.307475  0.308392  0.999893  1
  La  La1  1  0.193245  0.809039  0.249559  1
  La  La2  1  0.799285  0.186402  0.753053  1
  La  La3  1  0.692844  0.689333  0.498038  1
  La  La4  1  0.374545  0.012916  0.447794  1
  La  La5  1  0.492730  0.868753  0.699216  1
  La  La6  1  0.511056  0.122171  0.197590  1
  La  La7  1  0.878453  0.488681  0.300485  1
  La  La8  1  0.119448  0.520260  0.803967  1
  La  La9  1  0.626009  0.986509  0.950850  1
  La  La10  1  0.000820  0.384461  0.547303  1
  La  La11  1  0.989373  0.624997  0.052905  1
  Pr  Pr12  1  0.129198  0.982356  0.879784  1
  Pr  Pr13  1  0.518042  0.628879  0.126686  1
  Pr  Pr14  1  0.489448  0.376738  0.625876  1
  Pr  Pr15  1  0.628994  0.519210  0.876754  1
  Pr  Pr16  1  0.373696  0.484566  0.371921  1
  Pr  Pr17  1  0.872563  0.018011  0.375092  1
  Pr  Pr18  1  0.984350  0.127136  0.124271  1
  Pr  Pr19  1  0.007920  0.861029  0.620801  1
  Si  Si20  1  0.332620  0.696704  0.952639  1
  Si  Si21  1  0.662375  0.300504  0.449823  1
  Si  Si22  1  0.699976  0.333779  0.049971  1
  Si  Si23  1  0.304044  0.669222  0.546798  1
  Si  Si24  1  0.804415  0.832059  0.201961  1
  Si  Si25  1  0.168163  0.198278  0.299004  1
  Si  Si26  1  0.834278  0.802360  0.799513  1
  Si  Si27  1  0.288625  0.920864  0.059709  1
  Si  Si28  1  0.581295  0.788604  0.308692  1
  Si  Si29  1  0.431378  0.211188  0.814868  1
  Si  Si30  1  0.786775  0.578891  0.692261  1
  Si  Si31  1  0.212793  0.420167  0.191141  1
  Si  Si32  1  0.708472  0.079977  0.557966  1
  Si  Si33  1  0.921815  0.290073  0.942117  1
  Si  Si34  1  0.081459  0.713471  0.439373  1
  Hg  Hg35  1  0.192015  0.164022  0.692327  1
