# generated using pymatgen
data_ZnAg5SbO6
_symmetry_space_group_name_H-M   'P 1'
_cell_length_a   5.75195700
_cell_length_b   5.75195685
_cell_length_c   12.72873800
_cell_angle_alpha   90.00000000
_cell_angle_beta   90.00000000
_cell_angle_gamma   119.99999511
_symmetry_Int_Tables_number   1
_chemical_formula_structural   ZnAg5SbO6
_chemical_formula_sum   'Zn2 Ag10 Sb2 O12'
_cell_volume   364.70964665
_cell_formula_units_Z   2
loop_
 _symmetry_equiv_pos_site_id
 _symmetry_equiv_pos_as_xyz
  1  'x, y, z'
loop_
 _atom_site_type_symbol
 _atom_site_label
 _atom_site_symmetry_multiplicity
 _atom_site_fract_x
 _atom_site_fract_y
 _atom_site_fract_z
 _atom_site_occupancy
  Zn  Zn0  1  0.666667  0.333333  0.750000  1
  Zn  Zn1  1  0.333333  0.666667  0.250000  1
  Ag  Ag2  1  0.000000  0.000000  0.884290  1
  Ag  Ag3  1  0.000000  0.000000  0.384290  1
  Ag  Ag4  1  0.000000  0.000000  0.115710  1
  Ag  Ag5  1  0.000000  0.000000  0.615710  1
  Ag  Ag6  1  0.500000  0.500000  0.000000  1
  Ag  Ag7  1  0.000000  0.500000  0.000000  1
  Ag  Ag8  1  0.500000  0.000000  0.000000  1
  Ag  Ag9  1  0.000000  0.500000  0.500000  1
  Ag  Ag10  1  0.500000  0.000000  0.500000  1
  Ag  Ag11  1  0.500000  0.500000  0.500000  1
  Sb  Sb12  1  0.333333  0.666667  0.750000  1
  Sb  Sb13  1  0.666667  0.333333  0.250000  1
  O  O14  1  0.602836  0.618390  0.838794  1
  O  O15  1  0.015554  0.397164  0.838794  1
  O  O16  1  0.381610  0.984446  0.838794  1
  O  O17  1  0.984446  0.381610  0.338794  1
  O  O18  1  0.397164  0.015554  0.338794  1
  O  O19  1  0.618390  0.602836  0.338794  1
  O  O20  1  0.397164  0.381610  0.161206  1
  O  O21  1  0.984446  0.602836  0.161206  1
  O  O22  1  0.618390  0.015554  0.161206  1
  O  O23  1  0.015554  0.618390  0.661206  1
  O  O24  1  0.602836  0.984446  0.661206  1
  O  O25  1  0.381610  0.397164  0.661206  1
