# generated using pymatgen
data_Dy3Y(Tm4Bi3)4
_symmetry_space_group_name_H-M   'P 1'
_cell_length_a   8.20087519
_cell_length_b   9.45340700
_cell_length_c   11.94367127
_cell_angle_alpha   90.00000000
_cell_angle_beta   89.97549406
_cell_angle_gamma   90.00000000
_symmetry_Int_Tables_number   1
_chemical_formula_structural   Dy3Y(Tm4Bi3)4
_chemical_formula_sum   'Dy3 Y1 Tm16 Bi12'
_cell_volume   925.94749339
_cell_formula_units_Z   1
loop_
 _symmetry_equiv_pos_site_id
 _symmetry_equiv_pos_as_xyz
  1  'x, y, z'
loop_
 _atom_site_type_symbol
 _atom_site_label
 _atom_site_symmetry_multiplicity
 _atom_site_fract_x
 _atom_site_fract_y
 _atom_site_fract_z
 _atom_site_occupancy
  Dy  Dy0  1  0.812743  0.250000  0.281947  1
  Dy  Dy1  1  0.687308  0.750000  0.781930  1
  Dy  Dy2  1  0.187245  0.750000  0.718087  1
  Y  Y3  1  0.312866  0.250000  0.218232  1
  Tm  Tm4  1  0.352719  0.750000  0.217333  1
  Tm  Tm5  1  0.852689  0.750000  0.282644  1
  Tm  Tm6  1  0.647332  0.250000  0.782582  1
  Tm  Tm7  1  0.147213  0.250000  0.717409  1
  Tm  Tm8  1  0.692305  0.565887  0.059507  1
  Tm  Tm9  1  0.192329  0.934131  0.440490  1
  Tm  Tm10  1  0.307713  0.065809  0.940341  1
  Tm  Tm11  1  0.807664  0.434148  0.559519  1
  Tm  Tm12  1  0.307713  0.434191  0.940341  1
  Tm  Tm13  1  0.807664  0.065852  0.559519  1
  Tm  Tm14  1  0.692305  0.934113  0.059507  1
  Tm  Tm15  1  0.192329  0.565869  0.440490  1
  Tm  Tm16  1  0.476502  0.250000  0.489192  1
  Tm  Tm17  1  0.976102  0.250000  0.010999  1
  Tm  Tm18  1  0.523686  0.750000  0.511138  1
  Tm  Tm19  1  0.023713  0.750000  0.988826  1
  Bi  Bi20  1  0.404796  0.750000  0.958505  1
  Bi  Bi21  1  0.904818  0.750000  0.541495  1
  Bi  Bi22  1  0.595191  0.250000  0.041309  1
  Bi  Bi23  1  0.095172  0.250000  0.458595  1
  Bi  Bi24  1  0.565553  0.994798  0.326068  1
  Bi  Bi25  1  0.065271  0.505256  0.173954  1
  Bi  Bi26  1  0.434562  0.494874  0.674067  1
  Bi  Bi27  1  0.934554  0.005148  0.825942  1
  Bi  Bi28  1  0.434562  0.005126  0.674067  1
  Bi  Bi29  1  0.934554  0.494852  0.825942  1
  Bi  Bi30  1  0.565553  0.505202  0.326068  1
  Bi  Bi31  1  0.065271  0.994744  0.173954  1
