# generated using pymatgen
data_Tm7Lu(HfIr3)2
_symmetry_space_group_name_H-M   'P 1'
_cell_length_a   10.70932815
_cell_length_b   10.71519700
_cell_length_c   6.19578608
_cell_angle_alpha   90.00000000
_cell_angle_beta   89.98109932
_cell_angle_gamma   90.00000000
_symmetry_Int_Tables_number   1
_chemical_formula_structural   Tm7Lu(HfIr3)2
_chemical_formula_sum   'Tm14 Lu2 Hf4 Ir12'
_cell_volume   710.98228077
_cell_formula_units_Z   2
loop_
 _symmetry_equiv_pos_site_id
 _symmetry_equiv_pos_as_xyz
  1  'x, y, z'
loop_
 _atom_site_type_symbol
 _atom_site_label
 _atom_site_symmetry_multiplicity
 _atom_site_fract_x
 _atom_site_fract_y
 _atom_site_fract_z
 _atom_site_occupancy
  Tm  Tm0  1  0.710174  0.086080  0.873939  1
  Tm  Tm1  1  0.710174  0.913920  0.373939  1
  Tm  Tm2  1  0.585926  0.789890  0.873954  1
  Tm  Tm3  1  0.585926  0.210110  0.373954  1
  Tm  Tm4  1  0.413709  0.790049  0.373932  1
  Tm  Tm5  1  0.413709  0.209951  0.873932  1
  Tm  Tm6  1  0.210193  0.413843  0.626021  1
  Tm  Tm7  1  0.210193  0.586157  0.126021  1
  Tm  Tm8  1  0.789798  0.413871  0.126100  1
  Tm  Tm9  1  0.789798  0.586129  0.626100  1
  Tm  Tm10  1  0.913886  0.710218  0.126089  1
  Tm  Tm11  1  0.913886  0.289782  0.626089  1
  Tm  Tm12  1  0.086272  0.710331  0.626175  1
  Tm  Tm13  1  0.086272  0.289669  0.126175  1
  Lu  Lu14  1  0.290075  0.085786  0.374361  1
  Lu  Lu15  1  0.290075  0.914214  0.874361  1
  Hf  Hf16  1  0.000313  0.000084  0.499820  1
  Hf  Hf17  1  0.000313  0.999916  0.999820  1
  Hf  Hf18  1  0.499944  0.499994  0.999945  1
  Hf  Hf19  1  0.499944  0.500006  0.499945  1
  Ir  Ir20  1  0.854968  0.145024  0.250014  1
  Ir  Ir21  1  0.854968  0.854976  0.750014  1
  Ir  Ir22  1  0.145427  0.144633  0.749557  1
  Ir  Ir23  1  0.145427  0.855367  0.249557  1
  Ir  Ir24  1  0.645019  0.354969  0.750001  1
  Ir  Ir25  1  0.645019  0.645031  0.250001  1
  Ir  Ir26  1  0.354908  0.354706  0.250143  1
  Ir  Ir27  1  0.354908  0.645294  0.750143  1
  Ir  Ir28  1  0.499397  0.999988  0.122481  1
  Ir  Ir29  1  0.499397  0.000012  0.622481  1
  Ir  Ir30  1  0.999991  0.500037  0.877468  1
  Ir  Ir31  1  0.999991  0.499963  0.377468  1
