# generated using pymatgen
data_ScCo4P3W
_symmetry_space_group_name_H-M   'P 1'
_cell_length_a   3.66300200
_cell_length_b   10.32730100
_cell_length_c   11.78476000
_cell_angle_alpha   90.00000000
_cell_angle_beta   90.00000000
_cell_angle_gamma   90.00000000
_symmetry_Int_Tables_number   1
_chemical_formula_structural   ScCo4P3W
_chemical_formula_sum   'Sc4 Co16 P12 W4'
_cell_volume   445.80479296
_cell_formula_units_Z   4
loop_
 _symmetry_equiv_pos_site_id
 _symmetry_equiv_pos_as_xyz
  1  'x, y, z'
loop_
 _atom_site_type_symbol
 _atom_site_label
 _atom_site_symmetry_multiplicity
 _atom_site_fract_x
 _atom_site_fract_y
 _atom_site_fract_z
 _atom_site_occupancy
  Sc  Sc0  1  0.250000  0.582459  0.704985  1
  Sc  Sc1  1  0.250000  0.917541  0.204985  1
  Sc  Sc2  1  0.750000  0.417541  0.295015  1
  Sc  Sc3  1  0.750000  0.082459  0.795015  1
  Co  Co4  1  0.250000  0.406735  0.486277  1
  Co  Co5  1  0.250000  0.093265  0.986277  1
  Co  Co6  1  0.750000  0.593265  0.513723  1
  Co  Co7  1  0.750000  0.906735  0.013723  1
  Co  Co8  1  0.250000  0.222359  0.178215  1
  Co  Co9  1  0.250000  0.277642  0.678215  1
  Co  Co10  1  0.750000  0.777642  0.821785  1
  Co  Co11  1  0.750000  0.722358  0.321785  1
  Co  Co12  1  0.250000  0.888016  0.701269  1
  Co  Co13  1  0.250000  0.611984  0.201269  1
  Co  Co14  1  0.750000  0.111984  0.298731  1
  Co  Co15  1  0.750000  0.388016  0.798731  1
  Co  Co16  1  0.250000  0.465343  0.932266  1
  Co  Co17  1  0.250000  0.034657  0.432266  1
  Co  Co18  1  0.750000  0.534657  0.067734  1
  Co  Co19  1  0.750000  0.965343  0.567734  1
  P  P20  1  0.250000  0.420390  0.118315  1
  P  P21  1  0.250000  0.079610  0.618315  1
  P  P22  1  0.750000  0.579610  0.881685  1
  P  P23  1  0.750000  0.920390  0.381685  1
  P  P24  1  0.250000  0.264041  0.863799  1
  P  P25  1  0.250000  0.235959  0.363799  1
  P  P26  1  0.750000  0.735959  0.136201  1
  P  P27  1  0.750000  0.764041  0.636201  1
  P  P28  1  0.250000  0.591696  0.388754  1
  P  P29  1  0.250000  0.908304  0.888754  1
  P  P30  1  0.750000  0.408304  0.611246  1
  P  P31  1  0.750000  0.091696  0.111246  1
  W  W32  1  0.250000  0.710877  0.987893  1
  W  W33  1  0.250000  0.789123  0.487893  1
  W  W34  1  0.750000  0.289123  0.012107  1
  W  W35  1  0.750000  0.210877  0.512107  1
