# generated using pymatgen
data_Er7Tm3(Bi3C)2
_symmetry_space_group_name_H-M   'P 1'
_cell_length_a   9.07464000
_cell_length_b   9.07464020
_cell_length_c   6.43110400
_cell_angle_alpha   90.00000000
_cell_angle_beta   90.00000000
_cell_angle_gamma   119.99999927
_symmetry_Int_Tables_number   1
_chemical_formula_structural   Er7Tm3(Bi3C)2
_chemical_formula_sum   'Er7 Tm3 Bi6 C2'
_cell_volume   458.64323021
_cell_formula_units_Z   1
loop_
 _symmetry_equiv_pos_site_id
 _symmetry_equiv_pos_as_xyz
  1  'x, y, z'
loop_
 _atom_site_type_symbol
 _atom_site_label
 _atom_site_symmetry_multiplicity
 _atom_site_fract_x
 _atom_site_fract_y
 _atom_site_fract_z
 _atom_site_occupancy
  Er  Er0  1  0.666667  0.333333  0.000109  1
  Er  Er1  1  0.333333  0.666667  0.000109  1
  Er  Er2  1  0.333333  0.666667  0.499891  1
  Er  Er3  1  0.666667  0.333333  0.499891  1
  Er  Er4  1  0.206651  0.206651  0.250000  1
  Er  Er5  1  0.793349  0.000000  0.250000  1
  Er  Er6  1  0.000000  0.793349  0.250000  1
  Tm  Tm7  1  0.794385  0.794385  0.750000  1
  Tm  Tm8  1  0.205615  0.000000  0.750000  1
  Tm  Tm9  1  0.000000  0.205615  0.750000  1
  Bi  Bi10  1  0.401481  0.401481  0.750000  1
  Bi  Bi11  1  0.598519  0.000000  0.750000  1
  Bi  Bi12  1  0.000000  0.598519  0.750000  1
  Bi  Bi13  1  0.598410  0.598410  0.250000  1
  Bi  Bi14  1  0.401590  0.000000  0.250000  1
  Bi  Bi15  1  0.000000  0.401590  0.250000  1
  C  C16  1  0.000000  0.000000  0.999088  1
  C  C17  1  0.000000  0.000000  0.500912  1
