# generated using pymatgen
data_Cs4Hf5Sc3Se16
_symmetry_space_group_name_H-M   'P 1'
_cell_length_a   6.70373500
_cell_length_b   7.73336100
_cell_length_c   17.02300600
_cell_angle_alpha   90.00000000
_cell_angle_beta   90.00135040
_cell_angle_gamma   90.00000000
_symmetry_Int_Tables_number   1
_chemical_formula_structural   Cs4Hf5Sc3Se16
_chemical_formula_sum   'Cs4 Hf5 Sc3 Se16'
_cell_volume   882.51353398
_cell_formula_units_Z   1
loop_
 _symmetry_equiv_pos_site_id
 _symmetry_equiv_pos_as_xyz
  1  'x, y, z'
loop_
 _atom_site_type_symbol
 _atom_site_label
 _atom_site_symmetry_multiplicity
 _atom_site_fract_x
 _atom_site_fract_y
 _atom_site_fract_z
 _atom_site_occupancy
  Cs  Cs0  1  0.347851  0.999999  0.001681  1
  Cs  Cs1  1  0.652913  0.500002  0.497937  1
  Cs  Cs2  1  0.020693  0.999995  0.498115  1
  Cs  Cs3  1  0.979869  0.499997  0.002253  1
  Hf  Hf4  1  0.998695  0.500002  0.748389  1
  Hf  Hf5  1  0.499977  0.249968  0.250015  1
  Hf  Hf6  1  0.499640  0.753227  0.750128  1
  Hf  Hf7  1  0.499976  0.750029  0.250016  1
  Hf  Hf8  1  0.499656  0.246769  0.750128  1
  Sc  Sc9  1  0.001458  0.000007  0.248257  1
  Sc  Sc10  1  0.001097  0.000018  0.751573  1
  Sc  Sc11  1  0.998536  0.500016  0.251788  1
  Se  Se12  1  0.828493  0.248521  0.339329  1
  Se  Se13  1  0.830931  0.748465  0.659784  1
  Se  Se14  1  0.171593  0.748628  0.160699  1
  Se  Se15  1  0.168826  0.254462  0.840190  1
  Se  Se16  1  0.171594  0.251369  0.160699  1
  Se  Se17  1  0.168827  0.745533  0.840188  1
  Se  Se18  1  0.828491  0.751477  0.339330  1
  Se  Se19  1  0.830933  0.251534  0.659785  1
  Se  Se20  1  0.667173  0.999999  0.160230  1
  Se  Se21  1  0.667291  0.999996  0.840604  1
  Se  Se22  1  0.332737  0.499996  0.339798  1
  Se  Se23  1  0.328620  0.499999  0.659980  1
  Se  Se24  1  0.340393  0.999997  0.338963  1
  Se  Se25  1  0.338816  0.000000  0.660170  1
  Se  Se26  1  0.659518  0.499999  0.161107  1
  Se  Se27  1  0.665403  0.499996  0.838867  1
