# generated using pymatgen
data_Pr12Ga2SiPBr12
_symmetry_space_group_name_H-M   'P 1'
_cell_length_a   10.58236400
_cell_length_b   10.53691706
_cell_length_c   10.50176000
_cell_angle_alpha   109.36989545
_cell_angle_beta   109.54575351
_cell_angle_gamma   109.72017844
_symmetry_Int_Tables_number   1
_chemical_formula_structural   Pr12Ga2SiPBr12
_chemical_formula_sum   'Pr12 Ga2 Si1 P1 Br12'
_cell_volume   898.95286068
_cell_formula_units_Z   1
loop_
 _symmetry_equiv_pos_site_id
 _symmetry_equiv_pos_as_xyz
  1  'x, y, z'
loop_
 _atom_site_type_symbol
 _atom_site_label
 _atom_site_symmetry_multiplicity
 _atom_site_fract_x
 _atom_site_fract_y
 _atom_site_fract_z
 _atom_site_occupancy
  Pr  Pr0  1  0.475862  0.492475  0.234508  1
  Pr  Pr1  1  0.753723  0.241466  0.261705  1
  Pr  Pr2  1  0.753985  0.011425  0.493248  1
  Pr  Pr3  1  0.239263  0.481822  0.493248  1
  Pr  Pr4  1  0.258646  0.742031  0.234508  1
  Pr  Pr5  1  0.023000  0.265345  0.006807  1
  Pr  Pr6  1  0.007983  0.020239  0.261705  1
  Pr  Pr7  1  0.483808  0.741463  0.006807  1
  Pr  Pr8  1  0.491508  0.241508  0.483016  1
  Pr  Pr9  1  0.015801  0.488538  0.754211  1
  Pr  Pr10  1  0.258009  0.008009  0.016018  1
  Pr  Pr11  1  0.238410  0.265674  0.754211  1
  Ga  Ga12  1  0.249983  0.249848  0.250170  1
  Ga  Ga13  1  0.500187  0.000322  0.250170  1
  Si  Si14  1  0.999737  0.249737  0.499474  1
  P  P15  1  0.250082  0.500082  0.000165  1
  Br  Br16  1  0.249812  0.753808  0.745731  1
  Br  Br17  1  0.508727  0.504525  0.755032  1
  Br  Br18  1  0.990887  0.743775  0.995191  1
  Br  Br19  1  0.746304  0.250507  0.755032  1
  Br  Br20  1  0.995919  0.991924  0.745731  1
  Br  Br21  1  0.248980  0.995529  0.504786  1
  Br  Br22  1  0.755805  0.509255  0.504786  1
  Br  Br23  1  0.504304  0.251416  0.995191  1
  Br  Br24  1  0.754243  0.744791  0.249602  1
  Br  Br25  1  0.745594  0.995594  0.991190  1
  Br  Br26  1  0.995358  0.504810  0.249602  1
  Br  Br27  1  0.504078  0.754078  0.508154  1
