# generated using pymatgen
data_Sm2FeRuBr
_symmetry_space_group_name_H-M   'P 1'
_cell_length_a   4.12064900
_cell_length_b   4.12064813
_cell_length_c   16.77492500
_cell_angle_alpha   90.00000000
_cell_angle_beta   90.00000000
_cell_angle_gamma   119.99999894
_symmetry_Int_Tables_number   1
_chemical_formula_structural   Sm2FeRuBr
_chemical_formula_sum   'Sm4 Fe2 Ru2 Br2'
_cell_volume   246.67343246
_cell_formula_units_Z   2
loop_
 _symmetry_equiv_pos_site_id
 _symmetry_equiv_pos_as_xyz
  1  'x, y, z'
loop_
 _atom_site_type_symbol
 _atom_site_label
 _atom_site_symmetry_multiplicity
 _atom_site_fract_x
 _atom_site_fract_y
 _atom_site_fract_z
 _atom_site_occupancy
  Sm  Sm0  1  0.000000  0.000000  0.109930  1
  Sm  Sm1  1  0.000000  0.000000  0.390070  1
  Sm  Sm2  1  0.000000  0.000000  0.609862  1
  Sm  Sm3  1  0.000000  0.000000  0.890138  1
  Fe  Fe4  1  0.666666  0.333334  0.506973  1
  Fe  Fe5  1  0.666666  0.333334  0.993027  1
  Ru  Ru6  1  0.333334  0.666668  0.006292  1
  Ru  Ru7  1  0.333334  0.666668  0.493708  1
  Br  Br8  1  0.666666  0.333334  0.250000  1
  Br  Br9  1  0.333334  0.666668  0.750000  1
