# generated using pymatgen
data_BeFe3W2
_symmetry_space_group_name_H-M   'P 1'
_cell_length_a   4.66225702
_cell_length_b   4.69276761
_cell_length_c   4.69276900
_cell_angle_alpha   59.99999728
_cell_angle_beta   59.78328078
_cell_angle_gamma   59.78325702
_symmetry_Int_Tables_number   1
_chemical_formula_structural   BeFe3W2
_chemical_formula_sum   'Be1 Fe3 W2'
_cell_volume   72.36172886
_cell_formula_units_Z   1
loop_
 _symmetry_equiv_pos_site_id
 _symmetry_equiv_pos_as_xyz
  1  'x, y, z'
loop_
 _atom_site_type_symbol
 _atom_site_label
 _atom_site_symmetry_multiplicity
 _atom_site_fract_x
 _atom_site_fract_y
 _atom_site_fract_z
 _atom_site_occupancy
  Be  Be0  1  0.875000  0.375000  0.375000  1
  Fe  Fe1  1  0.375000  0.875000  0.375000  1
  Fe  Fe2  1  0.375000  0.375000  0.875000  1
  Fe  Fe3  1  0.375000  0.375000  0.375000  1
  W  W4  1  0.748500  0.750500  0.750500  1
  W  W5  1  0.001500  0.999500  0.999500  1
