# generated using pymatgen
data_Mn2Cr(BW)3
_symmetry_space_group_name_H-M   'P 1'
_cell_length_a   6.03099215
_cell_length_b   6.03099233
_cell_length_c   3.03620700
_cell_angle_alpha   90.00000000
_cell_angle_beta   90.00000000
_cell_angle_gamma   119.72544558
_symmetry_Int_Tables_number   1
_chemical_formula_structural   Mn2Cr(BW)3
_chemical_formula_sum   'Mn2 Cr1 B3 W3'
_cell_volume   95.90349373
_cell_formula_units_Z   1
loop_
 _symmetry_equiv_pos_site_id
 _symmetry_equiv_pos_as_xyz
  1  'x, y, z'
loop_
 _atom_site_type_symbol
 _atom_site_label
 _atom_site_symmetry_multiplicity
 _atom_site_fract_x
 _atom_site_fract_y
 _atom_site_fract_z
 _atom_site_occupancy
  Mn  Mn0  1  0.753592  0.999468  0.000000  1
  Mn  Mn1  1  0.999468  0.753592  0.000000  1
  Cr  Cr2  1  0.245352  0.245352  0.000000  1
  B  B3  1  0.333824  0.668307  0.000000  1
  B  B4  1  0.668307  0.333824  0.000000  1
  B  B5  1  0.997718  0.997718  0.500000  1
  W  W6  1  0.409718  0.002339  0.500000  1
  W  W7  1  0.002339  0.409718  0.500000  1
  W  W8  1  0.589683  0.589683  0.500000  1
