# generated using pymatgen
data_Rb6ScSbSe3
_symmetry_space_group_name_H-M   'P 1'
_cell_length_a   10.93527500
_cell_length_b   10.93527393
_cell_length_c   8.84597300
_cell_angle_alpha   90.00000000
_cell_angle_beta   90.00000000
_cell_angle_gamma   120.00000021
_symmetry_Int_Tables_number   1
_chemical_formula_structural   Rb6ScSbSe3
_chemical_formula_sum   'Rb12 Sc2 Sb2 Se6'
_cell_volume   916.08467081
_cell_formula_units_Z   2
loop_
 _symmetry_equiv_pos_site_id
 _symmetry_equiv_pos_as_xyz
  1  'x, y, z'
loop_
 _atom_site_type_symbol
 _atom_site_label
 _atom_site_symmetry_multiplicity
 _atom_site_fract_x
 _atom_site_fract_y
 _atom_site_fract_z
 _atom_site_occupancy
  Rb  Rb0  1  0.144007  0.855993  0.537897  1
  Rb  Rb1  1  0.288012  0.144007  0.037897  1
  Rb  Rb2  1  0.855993  0.711988  0.037897  1
  Rb  Rb3  1  0.144007  0.288012  0.537897  1
  Rb  Rb4  1  0.711988  0.855993  0.537897  1
  Rb  Rb5  1  0.855993  0.144007  0.037897  1
  Rb  Rb6  1  0.528887  0.471113  0.371047  1
  Rb  Rb7  1  0.057776  0.528887  0.871047  1
  Rb  Rb8  1  0.471113  0.942224  0.871047  1
  Rb  Rb9  1  0.528887  0.057776  0.371047  1
  Rb  Rb10  1  0.942224  0.471113  0.371047  1
  Rb  Rb11  1  0.471113  0.528887  0.871047  1
  Sc  Sc12  1  0.333333  0.666667  0.248302  1
  Sc  Sc13  1  0.666667  0.333333  0.748302  1
  Sb  Sb14  1  0.333333  0.666667  0.566026  1
  Sb  Sb15  1  0.666667  0.333333  0.066026  1
  Se  Se16  1  0.199486  0.800514  0.156180  1
  Se  Se17  1  0.398971  0.199486  0.656180  1
  Se  Se18  1  0.800514  0.601029  0.656180  1
  Se  Se19  1  0.199486  0.398971  0.156180  1
  Se  Se20  1  0.601029  0.800514  0.156180  1
  Se  Se21  1  0.800514  0.199486  0.656180  1
