# generated using pymatgen
data_Tb5Y3Cd2IrPd
_symmetry_space_group_name_H-M   'P 1'
_cell_length_a   9.70855036
_cell_length_b   9.70855030
_cell_length_c   9.67802000
_cell_angle_alpha   60.10396402
_cell_angle_beta   60.10396422
_cell_angle_gamma   60.37628664
_symmetry_Int_Tables_number   1
_chemical_formula_structural   Tb5Y3Cd2IrPd
_chemical_formula_sum   'Tb10 Y6 Cd4 Ir2 Pd2'
_cell_volume   647.86526566
_cell_formula_units_Z   2
loop_
 _symmetry_equiv_pos_site_id
 _symmetry_equiv_pos_as_xyz
  1  'x, y, z'
loop_
 _atom_site_type_symbol
 _atom_site_label
 _atom_site_symmetry_multiplicity
 _atom_site_fract_x
 _atom_site_fract_y
 _atom_site_fract_z
 _atom_site_occupancy
  Tb  Tb0  1  0.351422  0.351422  0.345126  1
  Tb  Tb1  1  0.351422  0.351422  0.952031  1
  Tb  Tb2  1  0.358920  0.940587  0.350246  1
  Tb  Tb3  1  0.940587  0.358920  0.350246  1
  Tb  Tb4  1  0.805350  0.191118  0.190080  1
  Tb  Tb5  1  0.191118  0.805350  0.813452  1
  Tb  Tb6  1  0.191118  0.805350  0.190080  1
  Tb  Tb7  1  0.805350  0.191118  0.813452  1
  Tb  Tb8  1  0.191969  0.191969  0.808031  1
  Tb  Tb9  1  0.810843  0.810843  0.189157  1
  Y  Y10  1  0.937507  0.565947  0.561543  1
  Y  Y11  1  0.565947  0.937507  0.935004  1
  Y  Y12  1  0.565947  0.937507  0.561543  1
  Y  Y13  1  0.937507  0.565947  0.935004  1
  Y  Y14  1  0.563916  0.563916  0.936084  1
  Y  Y15  1  0.936651  0.936651  0.563349  1
  Cd  Cd16  1  0.581057  0.581057  0.582769  1
  Cd  Cd17  1  0.581057  0.581057  0.255117  1
  Cd  Cd18  1  0.580128  0.255369  0.582252  1
  Cd  Cd19  1  0.255369  0.580128  0.582252  1
  Ir  Ir20  1  0.140325  0.572293  0.143691  1
  Ir  Ir21  1  0.572293  0.140325  0.143691  1
  Pd  Pd22  1  0.142098  0.142098  0.146890  1
  Pd  Pd23  1  0.142098  0.142098  0.568913  1
