# generated using pymatgen
data_Nd16Cd4Tc3Au
_symmetry_space_group_name_H-M   'P 1'
_cell_length_a   9.94247781
_cell_length_b   9.94247787
_cell_length_c   9.94247770
_cell_angle_alpha   60.70867019
_cell_angle_beta   60.70866872
_cell_angle_gamma   60.70867378
_symmetry_Int_Tables_number   1
_chemical_formula_structural   Nd16Cd4Tc3Au
_chemical_formula_sum   'Nd16 Cd4 Tc3 Au1'
_cell_volume   706.08989285
_cell_formula_units_Z   1
loop_
 _symmetry_equiv_pos_site_id
 _symmetry_equiv_pos_as_xyz
  1  'x, y, z'
loop_
 _atom_site_type_symbol
 _atom_site_label
 _atom_site_symmetry_multiplicity
 _atom_site_fract_x
 _atom_site_fract_y
 _atom_site_fract_z
 _atom_site_occupancy
  Nd  Nd0  1  0.593889  0.593889  0.593889  1
  Nd  Nd1  1  0.603433  0.603433  0.199393  1
  Nd  Nd2  1  0.603433  0.199393  0.603433  1
  Nd  Nd3  1  0.199393  0.603433  0.603433  1
  Nd  Nd4  1  0.044666  0.443983  0.443983  1
  Nd  Nd5  1  0.440610  0.060092  0.060092  1
  Nd  Nd6  1  0.443983  0.044666  0.443983  1
  Nd  Nd7  1  0.060092  0.440610  0.060092  1
  Nd  Nd8  1  0.443983  0.443983  0.044666  1
  Nd  Nd9  1  0.060092  0.060092  0.440610  1
  Nd  Nd10  1  0.189432  0.813044  0.813044  1
  Nd  Nd11  1  0.814420  0.191554  0.191554  1
  Nd  Nd12  1  0.813044  0.189432  0.813044  1
  Nd  Nd13  1  0.191554  0.814420  0.191554  1
  Nd  Nd14  1  0.813044  0.813044  0.189432  1
  Nd  Nd15  1  0.191554  0.191554  0.814420  1
  Cd  Cd16  1  0.829414  0.829414  0.829414  1
  Cd  Cd17  1  0.828021  0.828021  0.513700  1
  Cd  Cd18  1  0.828021  0.513700  0.828021  1
  Cd  Cd19  1  0.513700  0.828021  0.828021  1
  Tc  Tc20  1  0.382604  0.382604  0.838091  1
  Tc  Tc21  1  0.382604  0.838091  0.382604  1
  Tc  Tc22  1  0.838091  0.382604  0.382604  1
  Au  Au23  1  0.390923  0.390923  0.390923  1
