# generated using pymatgen
data_Hf4Co4Si3As
_symmetry_space_group_name_H-M   'P 1'
_cell_length_a   3.82396900
_cell_length_b   6.41593186
_cell_length_c   7.15792251
_cell_angle_alpha   90.30591407
_cell_angle_beta   90.00000000
_cell_angle_gamma   90.00000000
_symmetry_Int_Tables_number   1
_chemical_formula_structural   Hf4Co4Si3As
_chemical_formula_sum   'Hf4 Co4 Si3 As1'
_cell_volume   175.61229073
_cell_formula_units_Z   1
loop_
 _symmetry_equiv_pos_site_id
 _symmetry_equiv_pos_as_xyz
  1  'x, y, z'
loop_
 _atom_site_type_symbol
 _atom_site_label
 _atom_site_symmetry_multiplicity
 _atom_site_fract_x
 _atom_site_fract_y
 _atom_site_fract_z
 _atom_site_occupancy
  Hf  Hf0  1  0.250000  0.010547  0.307807  1
  Hf  Hf1  1  0.250000  0.512499  0.188151  1
  Hf  Hf2  1  0.750000  0.981828  0.691947  1
  Hf  Hf3  1  0.750000  0.490716  0.811370  1
  Co  Co4  1  0.250000  0.142307  0.940606  1
  Co  Co5  1  0.250000  0.650997  0.565349  1
  Co  Co6  1  0.750000  0.855941  0.065538  1
  Co  Co7  1  0.750000  0.359315  0.426615  1
  Si  Si8  1  0.250000  0.779337  0.893082  1
  Si  Si9  1  0.750000  0.721903  0.388924  1
  Si  Si10  1  0.750000  0.221034  0.108682  1
  As  As11  1  0.250000  0.273575  0.611930  1
