# generated using pymatgen
data_Tm5Lu15ZnBi11
_symmetry_space_group_name_H-M   'P 1'
_cell_length_a   8.09193256
_cell_length_b   9.35807700
_cell_length_c   11.80969760
_cell_angle_alpha   90.00000000
_cell_angle_beta   89.72427008
_cell_angle_gamma   90.00000000
_symmetry_Int_Tables_number   1
_chemical_formula_structural   Tm5Lu15ZnBi11
_chemical_formula_sum   'Tm5 Lu15 Zn1 Bi11'
_cell_volume   894.27814519
_cell_formula_units_Z   1
loop_
 _symmetry_equiv_pos_site_id
 _symmetry_equiv_pos_as_xyz
  1  'x, y, z'
loop_
 _atom_site_type_symbol
 _atom_site_label
 _atom_site_symmetry_multiplicity
 _atom_site_fract_x
 _atom_site_fract_y
 _atom_site_fract_z
 _atom_site_occupancy
  Tm  Tm0  1  0.149548  0.750000  0.782012  1
  Tm  Tm1  1  0.191657  0.250000  0.778741  1
  Tm  Tm2  1  0.809635  0.750000  0.217235  1
  Tm  Tm3  1  0.312906  0.750000  0.281436  1
  Tm  Tm4  1  0.674784  0.250000  0.709969  1
  Lu  Lu5  1  0.036762  0.250000  0.508331  1
  Lu  Lu6  1  0.980527  0.750000  0.490093  1
  Lu  Lu7  1  0.475919  0.750000  0.009891  1
  Lu  Lu8  1  0.525113  0.250000  0.989722  1
  Lu  Lu9  1  0.356749  0.250000  0.294971  1
  Lu  Lu10  1  0.647677  0.750000  0.716973  1
  Lu  Lu11  1  0.853111  0.250000  0.216559  1
  Lu  Lu12  1  0.193958  0.066922  0.061663  1
  Lu  Lu13  1  0.806029  0.933468  0.940148  1
  Lu  Lu14  1  0.309195  0.952041  0.558777  1
  Lu  Lu15  1  0.806029  0.566532  0.940148  1
  Lu  Lu16  1  0.683840  0.072967  0.445219  1
  Lu  Lu17  1  0.193958  0.433078  0.061663  1
  Lu  Lu18  1  0.683840  0.427033  0.445219  1
  Lu  Lu19  1  0.309195  0.547959  0.558777  1
  Zn  Zn20  1  0.407534  0.250000  0.539280  1
  Bi  Bi21  1  0.595445  0.750000  0.457875  1
  Bi  Bi22  1  0.095364  0.750000  0.042756  1
  Bi  Bi23  1  0.905696  0.250000  0.955049  1
  Bi  Bi24  1  0.062466  0.002794  0.323958  1
  Bi  Bi25  1  0.935136  0.997547  0.675364  1
  Bi  Bi26  1  0.435940  0.996810  0.825039  1
  Bi  Bi27  1  0.935136  0.502453  0.675364  1
  Bi  Bi28  1  0.564222  0.004326  0.174385  1
  Bi  Bi29  1  0.062466  0.497206  0.323958  1
  Bi  Bi30  1  0.564222  0.495674  0.174385  1
  Bi  Bi31  1  0.435940  0.503190  0.825039  1
