# generated using pymatgen
data_Er10In8CoRu3
_symmetry_space_group_name_H-M   'P 1'
_cell_length_a   3.55848900
_cell_length_b   7.98242186
_cell_length_c   18.21507192
_cell_angle_alpha   89.94711762
_cell_angle_beta   90.00000000
_cell_angle_gamma   90.00000000
_symmetry_Int_Tables_number   1
_chemical_formula_structural   Er10In8CoRu3
_chemical_formula_sum   'Er10 In8 Co1 Ru3'
_cell_volume   517.40546181
_cell_formula_units_Z   1
loop_
 _symmetry_equiv_pos_site_id
 _symmetry_equiv_pos_as_xyz
  1  'x, y, z'
loop_
 _atom_site_type_symbol
 _atom_site_label
 _atom_site_symmetry_multiplicity
 _atom_site_fract_x
 _atom_site_fract_y
 _atom_site_fract_z
 _atom_site_occupancy
  Er  Er0  1  0.000000  0.499469  0.499166  1
  Er  Er1  1  0.000000  0.999808  0.000777  1
  Er  Er2  1  0.000000  0.749333  0.276300  1
  Er  Er3  1  0.000000  0.252106  0.722452  1
  Er  Er4  1  0.000000  0.751772  0.778190  1
  Er  Er5  1  0.000000  0.251464  0.221978  1
  Er  Er6  1  0.000000  0.616744  0.091564  1
  Er  Er7  1  0.000000  0.380362  0.912042  1
  Er  Er8  1  0.000000  0.880395  0.588324  1
  Er  Er9  1  0.000000  0.119369  0.410933  1
  In  In10  1  0.500000  0.704524  0.932878  1
  In  In11  1  0.500000  0.295916  0.069518  1
  In  In12  1  0.500000  0.794113  0.430340  1
  In  In13  1  0.500000  0.205088  0.568433  1
  In  In14  1  0.500000  0.563609  0.649146  1
  In  In15  1  0.500000  0.436288  0.348403  1
  In  In16  1  0.500000  0.936371  0.149311  1
  In  In17  1  0.500000  0.063561  0.850998  1
  Co  Co18  1  0.500000  0.519178  0.195957  1
  Ru  Ru19  1  0.500000  0.478329  0.803664  1
  Ru  Ru20  1  0.500000  0.978765  0.696493  1
  Ru  Ru21  1  0.500000  0.023437  0.303133  1
