# generated using pymatgen
data_Nb12Al9Cr(CoN2)2
_symmetry_space_group_name_H-M   'P 1'
_cell_length_a   8.22532501
_cell_length_b   8.22532634
_cell_length_c   8.26816040
_cell_angle_alpha   60.11663776
_cell_angle_beta   60.11664098
_cell_angle_gamma   60.01210029
_symmetry_Int_Tables_number   1
_chemical_formula_structural   Nb12Al9Cr(CoN2)2
_chemical_formula_sum   'Nb12 Al9 Cr1 Co2 N4'
_cell_volume   396.28109712
_cell_formula_units_Z   1
loop_
 _symmetry_equiv_pos_site_id
 _symmetry_equiv_pos_as_xyz
  1  'x, y, z'
loop_
 _atom_site_type_symbol
 _atom_site_label
 _atom_site_symmetry_multiplicity
 _atom_site_fract_x
 _atom_site_fract_y
 _atom_site_fract_z
 _atom_site_occupancy
  Nb  Nb0  1  0.696529  0.307982  0.684687  1
  Nb  Nb1  1  0.942018  0.553471  0.565313  1
  Nb  Nb2  1  0.554401  0.942416  0.939929  1
  Nb  Nb3  1  0.942416  0.554401  0.939929  1
  Nb  Nb4  1  0.563921  0.563921  0.936629  1
  Nb  Nb5  1  0.945895  0.945895  0.555745  1
  Nb  Nb6  1  0.686079  0.686079  0.313371  1
  Nb  Nb7  1  0.307982  0.696529  0.684687  1
  Nb  Nb8  1  0.695599  0.307584  0.310071  1
  Nb  Nb9  1  0.304105  0.304105  0.694255  1
  Nb  Nb10  1  0.553471  0.942018  0.565313  1
  Nb  Nb11  1  0.307584  0.695599  0.310071  1
  Al  Al12  1  0.125000  0.125000  0.125000  1
  Al  Al13  1  0.337506  0.337506  0.326872  1
  Al  Al14  1  0.247187  0.905068  0.917793  1
  Al  Al15  1  0.905068  0.247187  0.917793  1
  Al  Al16  1  0.907233  0.907233  0.254641  1
  Al  Al17  1  0.344932  0.002813  0.332207  1
  Al  Al18  1  0.342767  0.342767  0.995359  1
  Al  Al19  1  0.002813  0.344932  0.332207  1
  Al  Al20  1  0.912494  0.912494  0.923128  1
  Cr  Cr21  1  0.125000  0.125000  0.625000  1
  Co  Co22  1  0.625000  0.125000  0.125000  1
  Co  Co23  1  0.125000  0.625000  0.125000  1
  N  N24  1  0.625000  0.625000  0.625000  1
  N  N25  1  0.125000  0.625000  0.625000  1
  N  N26  1  0.625000  0.125000  0.625000  1
  N  N27  1  0.625000  0.625000  0.125000  1
