# generated using pymatgen
data_Dy3Y3B14RuW
_symmetry_space_group_name_H-M   'P 1'
_cell_length_a   8.12763001
_cell_length_b   8.12763008
_cell_length_c   9.40501400
_cell_angle_alpha   90.00362226
_cell_angle_beta   89.99637892
_cell_angle_gamma   155.11652905
_symmetry_Int_Tables_number   1
_chemical_formula_structural   Dy3Y3B14RuW
_chemical_formula_sum   'Dy3 Y3 B14 Ru1 W1'
_cell_volume   261.41850508
_cell_formula_units_Z   1
loop_
 _symmetry_equiv_pos_site_id
 _symmetry_equiv_pos_as_xyz
  1  'x, y, z'
loop_
 _atom_site_type_symbol
 _atom_site_label
 _atom_site_symmetry_multiplicity
 _atom_site_fract_x
 _atom_site_fract_y
 _atom_site_fract_z
 _atom_site_occupancy
  Dy  Dy0  1  0.107093  0.892907  0.558496  1
  Dy  Dy1  1  0.894110  0.105890  0.062675  1
  Dy  Dy2  1  0.107081  0.892919  0.941498  1
  Y  Y3  1  0.894072  0.105928  0.437232  1
  Y  Y4  1  0.243251  0.756749  0.249974  1
  Y  Y5  1  0.754753  0.245247  0.749986  1
  B  B6  1  0.726511  0.273489  0.465287  1
  B  B7  1  0.271997  0.728003  0.531753  1
  B  B8  1  0.726530  0.273470  0.034719  1
  B  B9  1  0.272026  0.727974  0.968278  1
  B  B10  1  0.631539  0.368461  0.151563  1
  B  B11  1  0.365223  0.634777  0.852928  1
  B  B12  1  0.631538  0.368462  0.348431  1
  B  B13  1  0.365217  0.634783  0.647138  1
  B  B14  1  0.521315  0.478685  0.096686  1
  B  B15  1  0.480346  0.519654  0.909049  1
  B  B16  1  0.521355  0.478645  0.403336  1
  B  B17  1  0.480384  0.519616  0.590996  1
  B  B18  1  0.458847  0.541153  0.249945  1
  B  B19  1  0.545139  0.454861  0.750004  1
  Ru  Ru20  1  0.054353  0.945647  0.249983  1
  W  W21  1  0.947320  0.052680  0.750043  1
