# generated using pymatgen
data_Yb6CoSi24Os7
_symmetry_space_group_name_H-M   'P 1'
_cell_length_a   10.12854768
_cell_length_b   10.12854630
_cell_length_c   8.15006273
_cell_angle_alpha   89.87546657
_cell_angle_beta   89.87547169
_cell_angle_gamma   132.57257164
_symmetry_Int_Tables_number   1
_chemical_formula_structural   Yb6CoSi24Os7
_chemical_formula_sum   'Yb6 Co1 Si24 Os7'
_cell_volume   615.70841317
_cell_formula_units_Z   1
loop_
 _symmetry_equiv_pos_site_id
 _symmetry_equiv_pos_as_xyz
  1  'x, y, z'
loop_
 _atom_site_type_symbol
 _atom_site_label
 _atom_site_symmetry_multiplicity
 _atom_site_fract_x
 _atom_site_fract_y
 _atom_site_fract_z
 _atom_site_occupancy
  Yb  Yb0  1  0.501418  0.000278  0.749873  1
  Yb  Yb1  1  0.998151  0.498730  0.251151  1
  Yb  Yb2  1  0.498730  0.998151  0.251151  1
  Yb  Yb3  1  0.000278  0.501418  0.749873  1
  Yb  Yb4  1  0.003857  0.003857  0.999961  1
  Yb  Yb5  1  0.500065  0.500065  0.495798  1
  Co  Co6  1  0.626882  0.626882  0.875891  1
  Si  Si7  1  0.793950  0.205305  0.500382  1
  Si  Si8  1  0.704528  0.293590  0.000379  1
  Si  Si9  1  0.205305  0.793950  0.500382  1
  Si  Si10  1  0.293590  0.704528  0.000379  1
  Si  Si11  1  0.670013  0.670013  0.160330  1
  Si  Si12  1  0.166963  0.166963  0.330766  1
  Si  Si13  1  0.828303  0.828303  0.672886  1
  Si  Si14  1  0.341311  0.341311  0.827904  1
  Si  Si15  1  0.843269  0.613262  0.991301  1
  Si  Si16  1  0.112837  0.346401  0.506375  1
  Si  Si17  1  0.653579  0.885747  0.495608  1
  Si  Si18  1  0.387761  0.153050  0.009221  1
  Si  Si19  1  0.153050  0.387761  0.009221  1
  Si  Si20  1  0.885747  0.653579  0.495608  1
  Si  Si21  1  0.120867  0.888218  0.730553  1
  Si  Si22  1  0.395469  0.624729  0.771465  1
  Si  Si23  1  0.373997  0.607967  0.229338  1
  Si  Si24  1  0.110743  0.877021  0.270266  1
  Si  Si25  1  0.877021  0.110743  0.270266  1
  Si  Si26  1  0.607967  0.373997  0.229338  1
  Si  Si27  1  0.624729  0.395469  0.771465  1
  Si  Si28  1  0.888218  0.120867  0.730553  1
  Si  Si29  1  0.613262  0.843269  0.991301  1
  Si  Si30  1  0.346401  0.112837  0.506375  1
  Os  Os31  1  0.125768  0.125768  0.626043  1
  Os  Os32  1  0.375964  0.375964  0.121401  1
  Os  Os33  1  0.872488  0.872488  0.375216  1
  Os  Os34  1  0.167921  0.829388  0.999839  1
  Os  Os35  1  0.331289  0.668922  0.501151  1
  Os  Os36  1  0.829388  0.167921  0.999839  1
  Os  Os37  1  0.668922  0.331289  0.501151  1
