# generated using pymatgen
data_La10DyY9(CoBi2)4
_symmetry_space_group_name_H-M   'P 1'
_cell_length_a   8.25349263
_cell_length_b   9.54101893
_cell_length_c   12.34341123
_cell_angle_alpha   89.99578482
_cell_angle_beta   89.41453212
_cell_angle_gamma   89.87602477
_symmetry_Int_Tables_number   1
_chemical_formula_structural   La10DyY9(CoBi2)4
_chemical_formula_sum   'La10 Dy1 Y9 Co4 Bi8'
_cell_volume   971.95024253
_cell_formula_units_Z   1
loop_
 _symmetry_equiv_pos_site_id
 _symmetry_equiv_pos_as_xyz
  1  'x, y, z'
loop_
 _atom_site_type_symbol
 _atom_site_label
 _atom_site_symmetry_multiplicity
 _atom_site_fract_x
 _atom_site_fract_y
 _atom_site_fract_z
 _atom_site_occupancy
  La  La0  1  0.864228  0.749655  0.812140  1
  La  La1  1  0.136446  0.250228  0.189035  1
  La  La2  1  0.376173  0.249678  0.686186  1
  La  La3  1  0.623784  0.750297  0.314035  1
  La  La4  1  0.389481  0.749517  0.689411  1
  La  La5  1  0.611154  0.250257  0.310405  1
  La  La6  1  0.897508  0.250341  0.821537  1
  La  La7  1  0.102374  0.749918  0.177536  1
  La  La8  1  0.995445  0.750185  0.498346  1
  La  La9  1  0.004075  0.249637  0.501584  1
  Dy  Dy10  1  0.181013  0.531807  0.937556  1
  Y  Y11  1  0.454617  0.250860  0.994487  1
  Y  Y12  1  0.543242  0.749435  0.005172  1
  Y  Y13  1  0.681888  0.006538  0.560623  1
  Y  Y14  1  0.318068  0.993462  0.439374  1
  Y  Y15  1  0.182793  0.968262  0.937170  1
  Y  Y16  1  0.318022  0.506665  0.439431  1
  Y  Y17  1  0.817637  0.032105  0.062475  1
  Y  Y18  1  0.682022  0.493048  0.560698  1
  Y  Y19  1  0.817199  0.468184  0.062939  1
  Co  Co20  1  0.508922  0.749880  0.503644  1
  Co  Co21  1  0.491108  0.249978  0.496346  1
  Co  Co22  1  0.055198  0.250946  0.997071  1
  Co  Co23  1  0.945979  0.749217  0.002990  1
  Bi  Bi24  1  0.580188  0.492385  0.833793  1
  Bi  Bi25  1  0.420271  0.507547  0.166361  1
  Bi  Bi26  1  0.083144  0.503803  0.675289  1
  Bi  Bi27  1  0.420355  0.992662  0.165944  1
  Bi  Bi28  1  0.917223  0.496466  0.324533  1
  Bi  Bi29  1  0.580161  0.007458  0.834075  1
  Bi  Bi30  1  0.917337  0.003572  0.324173  1
  Bi  Bi31  1  0.082947  0.996004  0.675643  1
