# generated using pymatgen
data_PmTcGe2Pt
_symmetry_space_group_name_H-M   'P 1'
_cell_length_a   5.99402369
_cell_length_b   5.99402361
_cell_length_c   5.99402375
_cell_angle_alpha   138.24289971
_cell_angle_beta   138.24290202
_cell_angle_gamma   60.53118283
_symmetry_Int_Tables_number   1
_chemical_formula_structural   PmTcGe2Pt
_chemical_formula_sum   'Pm1 Tc1 Ge2 Pt1'
_cell_volume   94.49833556
_cell_formula_units_Z   1
loop_
 _symmetry_equiv_pos_site_id
 _symmetry_equiv_pos_as_xyz
  1  'x, y, z'
loop_
 _atom_site_type_symbol
 _atom_site_label
 _atom_site_symmetry_multiplicity
 _atom_site_fract_x
 _atom_site_fract_y
 _atom_site_fract_z
 _atom_site_occupancy
  Pm  Pm0  1  0.000000  0.000000  0.000000  1
  Tc  Tc1  1  0.750000  0.250000  0.500000  1
  Ge  Ge2  1  0.374996  0.374996  0.000000  1
  Ge  Ge3  1  0.625003  0.625003  0.000000  1
  Pt  Pt4  1  0.250000  0.750000  0.500000  1
