# generated using pymatgen
data_Na3AuS13
_symmetry_space_group_name_H-M   'P 1'
_cell_length_a   4.43448200
_cell_length_b   13.18413582
_cell_length_c   14.28393747
_cell_angle_alpha   87.69990884
_cell_angle_beta   90.00000000
_cell_angle_gamma   90.00000000
_symmetry_Int_Tables_number   1
_chemical_formula_structural   Na3AuS13
_chemical_formula_sum   'Na6 Au2 S26'
_cell_volume   834.43491265
_cell_formula_units_Z   2
loop_
 _symmetry_equiv_pos_site_id
 _symmetry_equiv_pos_as_xyz
  1  'x, y, z'
loop_
 _atom_site_type_symbol
 _atom_site_label
 _atom_site_symmetry_multiplicity
 _atom_site_fract_x
 _atom_site_fract_y
 _atom_site_fract_z
 _atom_site_occupancy
  Na  Na0  1  0.169291  0.191773  0.726014  1
  Na  Na1  1  0.169291  0.308227  0.273986  1
  Na  Na2  1  0.124231  0.250000  0.000000  1
  Na  Na3  1  0.875769  0.750000  0.000000  1
  Na  Na4  1  0.830709  0.808227  0.273986  1
  Na  Na5  1  0.830709  0.691773  0.726014  1
  Au  Au6  1  0.000000  0.500000  0.500000  1
  Au  Au7  1  0.000000  0.000000  0.500000  1
  S  S8  1  0.286211  0.558061  0.631179  1
  S  S9  1  0.670745  0.553012  0.264375  1
  S  S10  1  0.329255  0.053012  0.264375  1
  S  S11  1  0.329255  0.446988  0.735625  1
  S  S12  1  0.943376  0.507233  0.154352  1
  S  S13  1  0.943376  0.992767  0.845648  1
  S  S14  1  0.056624  0.492767  0.845648  1
  S  S15  1  0.056624  0.007233  0.154352  1
  S  S16  1  0.681866  0.414019  0.074718  1
  S  S17  1  0.670745  0.946988  0.735625  1
  S  S18  1  0.318134  0.585981  0.925282  1
  S  S19  1  0.318134  0.914019  0.074718  1
  S  S20  1  0.650923  0.271915  0.141763  1
  S  S21  1  0.650923  0.228085  0.858237  1
  S  S22  1  0.349077  0.728085  0.858237  1
  S  S23  1  0.349077  0.771915  0.141763  1
  S  S24  1  0.098155  0.660412  0.418364  1
  S  S25  1  0.098155  0.839588  0.581636  1
  S  S26  1  0.901845  0.339588  0.581636  1
  S  S27  1  0.901845  0.160412  0.418364  1
  S  S28  1  0.642186  0.250000  0.500000  1
  S  S29  1  0.357814  0.750000  0.500000  1
  S  S30  1  0.713789  0.441939  0.368821  1
  S  S31  1  0.713789  0.058061  0.631179  1
  S  S32  1  0.681866  0.085981  0.925282  1
  S  S33  1  0.286211  0.941939  0.368821  1
