# generated using pymatgen
data_Er16Sc4(Rh3Au)3
_symmetry_space_group_name_H-M   'P 1'
_cell_length_a   10.70100058
_cell_length_b   10.70100007
_cell_length_c   6.24822800
_cell_angle_alpha   90.01880946
_cell_angle_beta   90.01880946
_cell_angle_gamma   90.01741118
_symmetry_Int_Tables_number   1
_chemical_formula_structural   Er16Sc4(Rh3Au)3
_chemical_formula_sum   'Er16 Sc4 Rh9 Au3'
_cell_volume   715.49327519
_cell_formula_units_Z   1
loop_
 _symmetry_equiv_pos_site_id
 _symmetry_equiv_pos_as_xyz
  1  'x, y, z'
loop_
 _atom_site_type_symbol
 _atom_site_label
 _atom_site_symmetry_multiplicity
 _atom_site_fract_x
 _atom_site_fract_y
 _atom_site_fract_z
 _atom_site_occupancy
  Er  Er0  1  0.286037  0.084081  0.377496  1
  Er  Er1  1  0.286320  0.918573  0.877928  1
  Er  Er2  1  0.713933  0.088303  0.878050  1
  Er  Er3  1  0.714814  0.919195  0.376997  1
  Er  Er4  1  0.590230  0.796807  0.866738  1
  Er  Er5  1  0.592589  0.209213  0.373764  1
  Er  Er6  1  0.410564  0.794399  0.365534  1
  Er  Er7  1  0.416737  0.208956  0.860702  1
  Er  Er8  1  0.203193  0.409770  0.633262  1
  Er  Er9  1  0.205601  0.589436  0.134466  1
  Er  Er10  1  0.790787  0.407411  0.126236  1
  Er  Er11  1  0.791044  0.583263  0.639298  1
  Er  Er12  1  0.915919  0.713963  0.122504  1
  Er  Er13  1  0.911697  0.286067  0.621950  1
  Er  Er14  1  0.081427  0.713680  0.622072  1
  Er  Er15  1  0.080805  0.285186  0.123003  1
  Sc  Sc16  1  0.000571  0.000689  0.500809  1
  Sc  Sc17  1  0.999311  0.999429  0.999191  1
  Sc  Sc18  1  0.506313  0.496231  0.996993  1
  Sc  Sc19  1  0.503769  0.493687  0.503007  1
  Rh  Rh20  1  0.850990  0.149010  0.250000  1
  Rh  Rh21  1  0.850568  0.850882  0.749761  1
  Rh  Rh22  1  0.149118  0.149432  0.750239  1
  Rh  Rh23  1  0.148737  0.851263  0.250000  1
  Rh  Rh24  1  0.649688  0.350312  0.750000  1
  Rh  Rh25  1  0.500358  0.001313  0.117658  1
  Rh  Rh26  1  0.500572  0.000411  0.614122  1
  Rh  Rh27  1  0.999589  0.499428  0.885878  1
  Rh  Rh28  1  0.998687  0.499642  0.382342  1
  Au  Au29  1  0.652502  0.652171  0.251799  1
  Au  Au30  1  0.347829  0.347498  0.248201  1
  Au  Au31  1  0.349703  0.650297  0.750000  1
