# generated using pymatgen
data_Tb16Dy4Si15Os
_symmetry_space_group_name_H-M   'P 1'
_cell_length_a   7.42150340
_cell_length_b   7.78257102
_cell_length_c   14.65762700
_cell_angle_alpha   90.00000000
_cell_angle_beta   90.00000000
_cell_angle_gamma   90.06845014
_symmetry_Int_Tables_number   1
_chemical_formula_structural   Tb16Dy4Si15Os
_chemical_formula_sum   'Tb16 Dy4 Si15 Os1'
_cell_volume   846.60014589
_cell_formula_units_Z   1
loop_
 _symmetry_equiv_pos_site_id
 _symmetry_equiv_pos_as_xyz
  1  'x, y, z'
loop_
 _atom_site_type_symbol
 _atom_site_label
 _atom_site_symmetry_multiplicity
 _atom_site_fract_x
 _atom_site_fract_y
 _atom_site_fract_z
 _atom_site_occupancy
  Tb  Tb0  1  0.672255  0.185184  0.625094  1
  Tb  Tb1  1  0.190910  0.323792  0.873590  1
  Tb  Tb2  1  0.318836  0.819079  0.123439  1
  Tb  Tb3  1  0.817378  0.679130  0.377099  1
  Tb  Tb4  1  0.318836  0.819079  0.376561  1
  Tb  Tb5  1  0.817378  0.679130  0.122901  1
  Tb  Tb6  1  0.672255  0.185184  0.874906  1
  Tb  Tb7  1  0.190910  0.323792  0.626410  1
  Tb  Tb8  1  0.522728  0.674008  0.597327  1
  Tb  Tb9  1  0.026977  0.816103  0.903163  1
  Tb  Tb10  1  0.472977  0.315439  0.097393  1
  Tb  Tb11  1  0.973063  0.183713  0.402620  1
  Tb  Tb12  1  0.472977  0.315439  0.402607  1
  Tb  Tb13  1  0.973063  0.183713  0.097380  1
  Tb  Tb14  1  0.522728  0.674008  0.902673  1
  Tb  Tb15  1  0.026977  0.816103  0.596837  1
  Dy  Dy16  1  0.840310  0.512741  0.750000  1
  Dy  Dy17  1  0.354556  0.985826  0.750000  1
  Dy  Dy18  1  0.150465  0.484066  0.250000  1
  Dy  Dy19  1  0.649830  0.014713  0.250000  1
  Si  Si20  1  0.645366  0.971797  0.460242  1
  Si  Si21  1  0.148197  0.528267  0.039466  1
  Si  Si22  1  0.349902  0.025339  0.960958  1
  Si  Si23  1  0.857036  0.471483  0.539183  1
  Si  Si24  1  0.349902  0.025339  0.539042  1
  Si  Si25  1  0.857036  0.471483  0.960817  1
  Si  Si26  1  0.645366  0.971797  0.039758  1
  Si  Si27  1  0.148197  0.528267  0.460534  1
  Si  Si28  1  0.979053  0.099906  0.750000  1
  Si  Si29  1  0.523917  0.602611  0.250000  1
  Si  Si30  1  0.021049  0.895833  0.250000  1
  Si  Si31  1  0.741478  0.876334  0.750000  1
  Si  Si32  1  0.232020  0.632951  0.750000  1
  Si  Si33  1  0.266782  0.127431  0.250000  1
  Si  Si34  1  0.768166  0.373151  0.250000  1
  Os  Os35  1  0.481123  0.407770  0.750000  1
