# generated using pymatgen
data_Sm8Ho5Tm7Sn16
_symmetry_space_group_name_H-M   'P 1'
_cell_length_a   8.03640250
_cell_length_b   8.20660346
_cell_length_c   15.48343547
_cell_angle_alpha   89.98225147
_cell_angle_beta   90.02147968
_cell_angle_gamma   89.96585682
_symmetry_Int_Tables_number   1
_chemical_formula_structural   Sm8Ho5Tm7Sn16
_chemical_formula_sum   'Sm8 Ho5 Tm7 Sn16'
_cell_volume   1021.15655315
_cell_formula_units_Z   1
loop_
 _symmetry_equiv_pos_site_id
 _symmetry_equiv_pos_as_xyz
  1  'x, y, z'
loop_
 _atom_site_type_symbol
 _atom_site_label
 _atom_site_symmetry_multiplicity
 _atom_site_fract_x
 _atom_site_fract_y
 _atom_site_fract_z
 _atom_site_occupancy
  Sm  Sm0  1  0.515002  0.321412  0.903260  1
  Sm  Sm1  1  0.014771  0.178664  0.596163  1
  Sm  Sm2  1  0.485195  0.678686  0.403923  1
  Sm  Sm3  1  0.984934  0.820989  0.096133  1
  Sm  Sm4  1  0.484058  0.678905  0.096460  1
  Sm  Sm5  1  0.984648  0.821051  0.403854  1
  Sm  Sm6  1  0.515903  0.321334  0.596519  1
  Sm  Sm7  1  0.015497  0.178693  0.903584  1
  Ho  Ho8  1  0.361448  0.836418  0.876904  1
  Ho  Ho9  1  0.861236  0.663604  0.623251  1
  Ho  Ho10  1  0.638883  0.163806  0.376811  1
  Ho  Ho11  1  0.138871  0.336557  0.123280  1
  Ho  Ho12  1  0.639599  0.163506  0.122975  1
  Tm  Tm13  1  0.140140  0.336995  0.376763  1
  Tm  Tm14  1  0.359817  0.836620  0.623602  1
  Tm  Tm15  1  0.860098  0.662938  0.876093  1
  Tm  Tm16  1  0.193110  0.503348  0.749677  1
  Tm  Tm17  1  0.693099  0.996551  0.750187  1
  Tm  Tm18  1  0.807107  0.496856  0.250012  1
  Tm  Tm19  1  0.306844  0.003290  0.250469  1
  Sn  Sn20  1  0.300855  0.039247  0.042285  1
  Sn  Sn21  1  0.802991  0.459985  0.457848  1
  Sn  Sn22  1  0.696678  0.959770  0.542229  1
  Sn  Sn23  1  0.197107  0.540124  0.957672  1
  Sn  Sn24  1  0.700423  0.958950  0.957855  1
  Sn  Sn25  1  0.199951  0.540163  0.541608  1
  Sn  Sn26  1  0.300667  0.040054  0.458588  1
  Sn  Sn27  1  0.800539  0.461243  0.041344  1
  Sn  Sn28  1  0.558442  0.621418  0.750006  1
  Sn  Sn29  1  0.058758  0.878570  0.750287  1
  Sn  Sn30  1  0.440802  0.379066  0.249896  1
  Sn  Sn31  1  0.941717  0.121540  0.250603  1
  Sn  Sn32  1  0.324325  0.146136  0.749567  1
  Sn  Sn33  1  0.824711  0.353835  0.750125  1
  Sn  Sn34  1  0.676206  0.853637  0.249898  1
  Sn  Sn35  1  0.175568  0.646039  0.250267  1
