# generated using pymatgen
data_Zr5(GaTe)2
_symmetry_space_group_name_H-M   'P 1'
_cell_length_a   8.02605500
_cell_length_b   8.02605579
_cell_length_c   7.36305800
_cell_angle_alpha   90.00000000
_cell_angle_beta   90.00000000
_cell_angle_gamma   125.63689668
_symmetry_Int_Tables_number   1
_chemical_formula_structural   Zr5(GaTe)2
_chemical_formula_sum   'Zr10 Ga4 Te4'
_cell_volume   385.48415646
_cell_formula_units_Z   2
loop_
 _symmetry_equiv_pos_site_id
 _symmetry_equiv_pos_as_xyz
  1  'x, y, z'
loop_
 _atom_site_type_symbol
 _atom_site_label
 _atom_site_symmetry_multiplicity
 _atom_site_fract_x
 _atom_site_fract_y
 _atom_site_fract_z
 _atom_site_occupancy
  Zr  Zr0  1  0.040513  0.295562  0.329699  1
  Zr  Zr1  1  0.959487  0.704438  0.670301  1
  Zr  Zr2  1  0.459487  0.204438  0.829699  1
  Zr  Zr3  1  0.795562  0.540513  0.170301  1
  Zr  Zr4  1  0.540513  0.795562  0.170301  1
  Zr  Zr5  1  0.204438  0.459487  0.829699  1
  Zr  Zr6  1  0.704438  0.959487  0.670301  1
  Zr  Zr7  1  0.295562  0.040513  0.329699  1
  Zr  Zr8  1  0.000000  0.000000  0.000000  1
  Zr  Zr9  1  0.500000  0.500000  0.500000  1
  Ga  Ga10  1  0.372876  0.372876  0.126375  1
  Ga  Ga11  1  0.627124  0.627124  0.873625  1
  Ga  Ga12  1  0.127124  0.127124  0.626375  1
  Ga  Ga13  1  0.872876  0.872876  0.373625  1
  Te  Te14  1  0.793650  0.206350  0.000000  1
  Te  Te15  1  0.206350  0.793650  0.000000  1
  Te  Te16  1  0.706350  0.293650  0.500000  1
  Te  Te17  1  0.293650  0.706350  0.500000  1
