# generated using pymatgen
data_Pr3Mg2CdIrAu2
_symmetry_space_group_name_H-M   'P 1'
_cell_length_a   7.83815428
_cell_length_b   7.86953096
_cell_length_c   4.06043300
_cell_angle_alpha   90.00000000
_cell_angle_beta   90.00000000
_cell_angle_gamma   119.57111058
_symmetry_Int_Tables_number   1
_chemical_formula_structural   Pr3Mg2CdIrAu2
_chemical_formula_sum   'Pr3 Mg2 Cd1 Ir1 Au2'
_cell_volume   217.83435897
_cell_formula_units_Z   1
loop_
 _symmetry_equiv_pos_site_id
 _symmetry_equiv_pos_as_xyz
  1  'x, y, z'
loop_
 _atom_site_type_symbol
 _atom_site_label
 _atom_site_symmetry_multiplicity
 _atom_site_fract_x
 _atom_site_fract_y
 _atom_site_fract_z
 _atom_site_occupancy
  Pr  Pr0  1  0.575812  0.972621  0.000000  1
  Pr  Pr1  1  0.016206  0.598932  0.000000  1
  Pr  Pr2  1  0.406468  0.428779  0.000000  1
  Mg  Mg3  1  0.249692  0.999494  0.500000  1
  Mg  Mg4  1  0.000989  0.251408  0.500000  1
  Cd  Cd5  1  0.747496  0.746111  0.500000  1
  Ir  Ir6  1  0.324690  0.665121  0.500000  1
  Au  Au7  1  0.664538  0.322775  0.500000  1
  Au  Au8  1  0.014109  0.014759  0.000000  1
