# generated using pymatgen
data_Sr21Ga8Si6Ag
_symmetry_space_group_name_H-M   'P 1'
_cell_length_a   11.83837433
_cell_length_b   11.83837403
_cell_length_c   11.83837300
_cell_angle_alpha   60.00000007
_cell_angle_beta   60.00000091
_cell_angle_gamma   60.00000138
_symmetry_Int_Tables_number   1
_chemical_formula_structural   Sr21Ga8Si6Ag
_chemical_formula_sum   'Sr21 Ga8 Si6 Ag1'
_cell_volume   1173.17055609
_cell_formula_units_Z   1
loop_
 _symmetry_equiv_pos_site_id
 _symmetry_equiv_pos_as_xyz
  1  'x, y, z'
loop_
 _atom_site_type_symbol
 _atom_site_label
 _atom_site_symmetry_multiplicity
 _atom_site_fract_x
 _atom_site_fract_y
 _atom_site_fract_z
 _atom_site_occupancy
  Sr  Sr0  1  0.872663  0.872663  0.382010  1
  Sr  Sr1  1  0.617990  0.127337  0.127337  1
  Sr  Sr2  1  0.872663  0.382010  0.872663  1
  Sr  Sr3  1  0.127337  0.127337  0.127337  1
  Sr  Sr4  1  0.382010  0.872663  0.872663  1
  Sr  Sr5  1  0.872663  0.872663  0.872663  1
  Sr  Sr6  1  0.175378  0.824622  0.500000  1
  Sr  Sr7  1  0.824622  0.500000  0.500000  1
  Sr  Sr8  1  0.127337  0.127337  0.617990  1
  Sr  Sr9  1  0.824622  0.175378  0.500000  1
  Sr  Sr10  1  0.175378  0.500000  0.500000  1
  Sr  Sr11  1  0.127337  0.617990  0.127337  1
  Sr  Sr12  1  0.500000  0.500000  0.175378  1
  Sr  Sr13  1  0.500000  0.175378  0.824622  1
  Sr  Sr14  1  0.500000  0.824622  0.175378  1
  Sr  Sr15  1  0.500000  0.500000  0.824622  1
  Sr  Sr16  1  0.500000  0.175378  0.500000  1
  Sr  Sr17  1  0.175378  0.500000  0.824622  1
  Sr  Sr18  1  0.000000  0.000000  0.000000  1
  Sr  Sr19  1  0.500000  0.824622  0.500000  1
  Sr  Sr20  1  0.824622  0.500000  0.175378  1
  Ga  Ga21  1  0.692753  0.921741  0.692753  1
  Ga  Ga22  1  0.692753  0.692753  0.921741  1
  Ga  Ga23  1  0.692753  0.692753  0.692753  1
  Ga  Ga24  1  0.307247  0.078259  0.307247  1
  Ga  Ga25  1  0.921741  0.692753  0.692753  1
  Ga  Ga26  1  0.307247  0.307247  0.078259  1
  Ga  Ga27  1  0.078259  0.307247  0.307247  1
  Ga  Ga28  1  0.307247  0.307247  0.307247  1
  Si  Si29  1  0.784376  0.215624  0.784376  1
  Si  Si30  1  0.784376  0.215624  0.215624  1
  Si  Si31  1  0.215624  0.784376  0.215624  1
  Si  Si32  1  0.215624  0.784376  0.784376  1
  Si  Si33  1  0.784376  0.784376  0.215624  1
  Si  Si34  1  0.215624  0.215624  0.784376  1
  Ag  Ag35  1  0.500000  0.500000  0.500000  1
