# generated using pymatgen
data_Ba2Ga2SiO7
_symmetry_space_group_name_H-M   'P 1'
_cell_length_a   8.23635100
_cell_length_b   5.67067557
_cell_length_c   8.24523100
_cell_angle_alpha   89.93608429
_cell_angle_beta   90.00000000
_cell_angle_gamma   90.00000000
_symmetry_Int_Tables_number   1
_chemical_formula_structural   Ba2Ga2SiO7
_chemical_formula_sum   'Ba4 Ga4 Si2 O14'
_cell_volume   385.09883484
_cell_formula_units_Z   2
loop_
 _symmetry_equiv_pos_site_id
 _symmetry_equiv_pos_as_xyz
  1  'x, y, z'
loop_
 _atom_site_type_symbol
 _atom_site_label
 _atom_site_symmetry_multiplicity
 _atom_site_fract_x
 _atom_site_fract_y
 _atom_site_fract_z
 _atom_site_occupancy
  Ba  Ba0  1  0.839325  0.513106  0.082416  1
  Ba  Ba1  1  0.339325  0.486894  0.917584  1
  Ba  Ba2  1  0.165025  0.504754  0.408037  1
  Ba  Ba3  1  0.665025  0.495246  0.591963  1
  Ga  Ga4  1  0.500180  0.000073  0.252939  1
  Ga  Ga5  1  0.000180  0.999927  0.747061  1
  Ga  Ga6  1  0.641398  0.974784  0.891130  1
  Ga  Ga7  1  0.141398  0.025216  0.108870  1
  Si  Si8  1  0.360031  0.962249  0.609456  1
  Si  Si9  1  0.860031  0.037751  0.390544  1
  O  O10  1  0.987732  0.153173  0.257047  1
  O  O11  1  0.487732  0.846827  0.742953  1
  O  O12  1  0.642340  0.292522  0.887047  1
  O  O13  1  0.142340  0.707478  0.112953  1
  O  O14  1  0.359397  0.246996  0.604540  1
  O  O15  1  0.859397  0.753004  0.395460  1
  O  O16  1  0.578212  0.815974  0.083791  1
  O  O17  1  0.078212  0.184026  0.916209  1
  O  O18  1  0.414434  0.832664  0.434274  1
  O  O19  1  0.914434  0.167336  0.565726  1
  O  O20  1  0.681185  0.161862  0.343156  1
  O  O21  1  0.181185  0.838138  0.656844  1
  O  O22  1  0.330737  0.188765  0.179030  1
  O  O23  1  0.830737  0.811235  0.820970  1
