# generated using pymatgen
data_CsZr2(AsO4)3
_symmetry_space_group_name_H-M   'P 1'
_cell_length_a   10.15150244
_cell_length_b   10.15150231
_cell_length_c   10.15150228
_cell_angle_alpha   53.24863222
_cell_angle_beta   53.24863337
_cell_angle_gamma   53.24863001
_symmetry_Int_Tables_number   1
_chemical_formula_structural   CsZr2(AsO4)3
_chemical_formula_sum   'Cs2 Zr4 As6 O24'
_cell_volume   622.77280724
_cell_formula_units_Z   2
loop_
 _symmetry_equiv_pos_site_id
 _symmetry_equiv_pos_as_xyz
  1  'x, y, z'
loop_
 _atom_site_type_symbol
 _atom_site_label
 _atom_site_symmetry_multiplicity
 _atom_site_fract_x
 _atom_site_fract_y
 _atom_site_fract_z
 _atom_site_occupancy
  Cs  Cs0  1  0.500000  0.500000  0.500000  1
  Cs  Cs1  1  0.000000  0.000000  0.000000  1
  Zr  Zr2  1  0.349497  0.349497  0.349497  1
  Zr  Zr3  1  0.849497  0.849497  0.849497  1
  Zr  Zr4  1  0.650503  0.650503  0.650503  1
  Zr  Zr5  1  0.150503  0.150503  0.150503  1
  As  As6  1  0.972261  0.527739  0.250000  1
  As  As7  1  0.250000  0.972261  0.527739  1
  As  As8  1  0.527739  0.250000  0.972261  1
  As  As9  1  0.750000  0.027739  0.472261  1
  As  As10  1  0.472261  0.750000  0.027739  1
  As  As11  1  0.027739  0.472261  0.750000  1
  O  O12  1  0.157612  0.513718  0.234004  1
  O  O13  1  0.234004  0.157612  0.513718  1
  O  O14  1  0.513718  0.234004  0.157612  1
  O  O15  1  0.734004  0.013718  0.657612  1
  O  O16  1  0.657612  0.734004  0.013718  1
  O  O17  1  0.013718  0.657612  0.734004  1
  O  O18  1  0.842388  0.486282  0.765996  1
  O  O19  1  0.765996  0.842388  0.486282  1
  O  O20  1  0.486282  0.765996  0.842388  1
  O  O21  1  0.265996  0.986282  0.342388  1
  O  O22  1  0.342388  0.265996  0.986282  1
  O  O23  1  0.986282  0.342388  0.265996  1
  O  O24  1  0.200578  0.429386  0.564612  1
  O  O25  1  0.564612  0.200578  0.429386  1
  O  O26  1  0.429386  0.564612  0.200578  1
  O  O27  1  0.064612  0.929386  0.700578  1
  O  O28  1  0.700578  0.064612  0.929386  1
  O  O29  1  0.929386  0.700578  0.064612  1
  O  O30  1  0.799422  0.570614  0.435388  1
  O  O31  1  0.435388  0.799422  0.570614  1
  O  O32  1  0.570614  0.435388  0.799422  1
  O  O33  1  0.935388  0.070614  0.299422  1
  O  O34  1  0.299422  0.935388  0.070614  1
  O  O35  1  0.070614  0.299422  0.935388  1
