# generated using pymatgen
data_Y20MgIn5Tc2
_symmetry_space_group_name_H-M   'P 1'
_cell_length_a   9.76233400
_cell_length_b   9.82258848
_cell_length_c   9.75886700
_cell_angle_alpha   90.00000000
_cell_angle_beta   90.00000000
_cell_angle_gamma   120.20441446
_symmetry_Int_Tables_number   1
_chemical_formula_structural   Y20MgIn5Tc2
_chemical_formula_sum   'Y20 Mg1 In5 Tc2'
_cell_volume   808.74458440
_cell_formula_units_Z   1
loop_
 _symmetry_equiv_pos_site_id
 _symmetry_equiv_pos_as_xyz
  1  'x, y, z'
loop_
 _atom_site_type_symbol
 _atom_site_label
 _atom_site_symmetry_multiplicity
 _atom_site_fract_x
 _atom_site_fract_y
 _atom_site_fract_z
 _atom_site_occupancy
  Y  Y0  1  0.997833  0.998916  0.500840  1
  Y  Y1  1  0.997833  0.998916  0.999160  1
  Y  Y2  1  0.209495  0.791412  0.440458  1
  Y  Y3  1  0.209495  0.418084  0.440458  1
  Y  Y4  1  0.581042  0.790522  0.438211  1
  Y  Y5  1  0.790946  0.211175  0.558931  1
  Y  Y6  1  0.790947  0.579772  0.558930  1
  Y  Y7  1  0.417389  0.208695  0.560105  1
  Y  Y8  1  0.790946  0.211175  0.941069  1
  Y  Y9  1  0.790947  0.579772  0.941070  1
  Y  Y10  1  0.417389  0.208695  0.939895  1
  Y  Y11  1  0.209495  0.791412  0.059542  1
  Y  Y12  1  0.209495  0.418084  0.059542  1
  Y  Y13  1  0.581042  0.790522  0.061789  1
  Y  Y14  1  0.537707  0.460104  0.250000  1
  Y  Y15  1  0.537707  0.077605  0.250000  1
  Y  Y16  1  0.928355  0.464179  0.250000  1
  Y  Y17  1  0.461317  0.537910  0.750000  1
  Y  Y18  1  0.461318  0.923408  0.750000  1
  Y  Y19  1  0.079475  0.539737  0.750000  1
  Mg  Mg20  1  0.771338  0.885669  0.750000  1
  In  In21  1  0.886400  0.119195  0.250000  1
  In  In22  1  0.886400  0.767204  0.250000  1
  In  In23  1  0.230443  0.115222  0.250000  1
  In  In24  1  0.114219  0.881786  0.750000  1
  In  In25  1  0.114219  0.232434  0.750000  1
  Tc  Tc26  1  0.329560  0.664779  0.250000  1
  Tc  Tc27  1  0.667249  0.333623  0.750000  1
