# generated using pymatgen
data_CeSc(Si7Ir3)2
_symmetry_space_group_name_H-M   'P 1'
_cell_length_a   8.04696185
_cell_length_b   8.04696830
_cell_length_c   8.04696215
_cell_angle_alpha   56.54147878
_cell_angle_beta   56.54149002
_cell_angle_gamma   56.54135856
_symmetry_Int_Tables_number   1
_chemical_formula_structural   CeSc(Si7Ir3)2
_chemical_formula_sum   'Ce1 Sc1 Si14 Ir6'
_cell_volume   339.00409436
_cell_formula_units_Z   1
loop_
 _symmetry_equiv_pos_site_id
 _symmetry_equiv_pos_as_xyz
  1  'x, y, z'
loop_
 _atom_site_type_symbol
 _atom_site_label
 _atom_site_symmetry_multiplicity
 _atom_site_fract_x
 _atom_site_fract_y
 _atom_site_fract_z
 _atom_site_occupancy
  Ce  Ce0  1  0.500000  0.500000  0.500000  1
  Sc  Sc1  1  0.000000  0.000000  0.000000  1
  Si  Si2  1  0.749621  0.749621  0.749621  1
  Si  Si3  1  0.250379  0.250379  0.250379  1
  Si  Si4  1  0.852174  0.063634  0.673359  1
  Si  Si5  1  0.673360  0.852174  0.063633  1
  Si  Si6  1  0.063634  0.673359  0.852174  1
  Si  Si7  1  0.650934  0.828512  0.434266  1
  Si  Si8  1  0.434266  0.650935  0.828512  1
  Si  Si9  1  0.828512  0.434265  0.650935  1
  Si  Si10  1  0.171488  0.565735  0.349065  1
  Si  Si11  1  0.565734  0.349065  0.171488  1
  Si  Si12  1  0.349066  0.171488  0.565734  1
  Si  Si13  1  0.936366  0.326641  0.147826  1
  Si  Si14  1  0.326640  0.147826  0.936367  1
  Si  Si15  1  0.147826  0.936366  0.326641  1
  Ir  Ir16  1  0.068527  0.426726  0.752879  1
  Ir  Ir17  1  0.247121  0.931474  0.573274  1
  Ir  Ir18  1  0.573274  0.247121  0.931473  1
  Ir  Ir19  1  0.931473  0.573274  0.247121  1
  Ir  Ir20  1  0.426726  0.752879  0.068527  1
  Ir  Ir21  1  0.752879  0.068526  0.426726  1
