# generated using pymatgen
data_NaPrGaPt3
_symmetry_space_group_name_H-M   'P 1'
_cell_length_a   5.62376721
_cell_length_b   5.62376721
_cell_length_c   5.28549290
_cell_angle_alpha   57.85929417
_cell_angle_beta   57.85928992
_cell_angle_gamma   59.99999569
_symmetry_Int_Tables_number   1
_chemical_formula_structural   NaPrGaPt3
_chemical_formula_sum   'Na1 Pr1 Ga1 Pt3'
_cell_volume   114.23186733
_cell_formula_units_Z   1
loop_
 _symmetry_equiv_pos_site_id
 _symmetry_equiv_pos_as_xyz
  1  'x, y, z'
loop_
 _atom_site_type_symbol
 _atom_site_label
 _atom_site_symmetry_multiplicity
 _atom_site_fract_x
 _atom_site_fract_y
 _atom_site_fract_z
 _atom_site_occupancy
  Na  Na0  1  0.252350  0.252350  0.242948  1
  Pr  Pr1  1  0.003614  0.003614  0.989158  1
  Ga  Ga2  1  0.623186  0.623186  0.130441  1
  Pt  Pt3  1  0.622246  0.126357  0.629151  1
  Pt  Pt4  1  0.126357  0.622246  0.629151  1
  Pt  Pt5  1  0.622246  0.622246  0.629151  1
