# generated using pymatgen
data_Er2Al(GaPt2)2
_symmetry_space_group_name_H-M   'P 1'
_cell_length_a   8.08964756
_cell_length_b   8.08964717
_cell_length_c   7.64791700
_cell_angle_alpha   90.00000000
_cell_angle_beta   90.00000000
_cell_angle_gamma   139.86673680
_symmetry_Int_Tables_number   1
_chemical_formula_structural   Er2Al(GaPt2)2
_chemical_formula_sum   'Er4 Al2 Ga4 Pt8'
_cell_volume   322.60479444
_cell_formula_units_Z   2
loop_
 _symmetry_equiv_pos_site_id
 _symmetry_equiv_pos_as_xyz
  1  'x, y, z'
loop_
 _atom_site_type_symbol
 _atom_site_label
 _atom_site_symmetry_multiplicity
 _atom_site_fract_x
 _atom_site_fract_y
 _atom_site_fract_z
 _atom_site_occupancy
  Er  Er0  1  0.107168  0.892832  0.407566  1
  Er  Er1  1  0.892832  0.107168  0.592434  1
  Er  Er2  1  0.392832  0.607168  0.907566  1
  Er  Er3  1  0.607168  0.392832  0.092434  1
  Al  Al4  1  0.000000  0.000000  0.000000  1
  Al  Al5  1  0.500000  0.500000  0.500000  1
  Ga  Ga6  1  0.022397  0.477603  0.250000  1
  Ga  Ga7  1  0.477603  0.022397  0.750000  1
  Ga  Ga8  1  0.977603  0.522397  0.750000  1
  Ga  Ga9  1  0.522397  0.977603  0.250000  1
  Pt  Pt10  1  0.193485  0.306515  0.250000  1
  Pt  Pt11  1  0.306515  0.193485  0.750000  1
  Pt  Pt12  1  0.806515  0.693485  0.750000  1
  Pt  Pt13  1  0.693485  0.806515  0.250000  1
  Pt  Pt14  1  0.181432  0.818568  0.027739  1
  Pt  Pt15  1  0.818568  0.181432  0.972261  1
  Pt  Pt16  1  0.318568  0.681432  0.527739  1
  Pt  Pt17  1  0.681432  0.318568  0.472261  1
