# generated using pymatgen
data_Ba6MgNi(PdO6)2
_symmetry_space_group_name_H-M   'P 1'
_cell_length_a   7.04966295
_cell_length_b   7.04965562
_cell_length_c   7.04955239
_cell_angle_alpha   93.30351368
_cell_angle_beta   93.30361871
_cell_angle_gamma   93.30305640
_symmetry_Int_Tables_number   1
_chemical_formula_structural   Ba6MgNi(PdO6)2
_chemical_formula_sum   'Ba6 Mg1 Ni1 Pd2 O12'
_cell_volume   348.52981473
_cell_formula_units_Z   1
loop_
 _symmetry_equiv_pos_site_id
 _symmetry_equiv_pos_as_xyz
  1  'x, y, z'
loop_
 _atom_site_type_symbol
 _atom_site_label
 _atom_site_symmetry_multiplicity
 _atom_site_fract_x
 _atom_site_fract_y
 _atom_site_fract_z
 _atom_site_occupancy
  Ba  Ba0  1  0.386547  0.750000  0.113453  1
  Ba  Ba1  1  0.884783  0.615217  0.250000  1
  Ba  Ba2  1  0.749997  0.113453  0.386545  1
  Ba  Ba3  1  0.250004  0.884784  0.615215  1
  Ba  Ba4  1  0.113456  0.386543  0.749998  1
  Ba  Ba5  1  0.615216  0.249997  0.884784  1
  Mg  Mg6  1  0.250000  0.250002  0.250001  1
  Ni  Ni7  1  0.750011  0.749989  0.749998  1
  Pd  Pd8  1  0.001414  0.001416  0.001410  1
  Pd  Pd9  1  0.498582  0.498585  0.498588  1
  O  O10  1  0.721220  0.907187  0.028046  1
  O  O11  1  0.972058  0.280308  0.098307  1
  O  O12  1  0.527939  0.401691  0.219699  1
  O  O13  1  0.098308  0.972061  0.280303  1
  O  O14  1  0.219695  0.527942  0.401691  1
  O  O15  1  0.592816  0.778780  0.471957  1
  O  O16  1  0.401689  0.219697  0.527941  1
  O  O17  1  0.778782  0.471964  0.592825  1
  O  O18  1  0.907184  0.028044  0.721208  1
  O  O19  1  0.471956  0.592817  0.778792  1
  O  O20  1  0.028040  0.721219  0.907179  1
  O  O21  1  0.280306  0.098310  0.972058  1
