# generated using pymatgen
data_Zr3TaRh2N
_symmetry_space_group_name_H-M   'P 1'
_cell_length_a   8.71748658
_cell_length_b   8.71748656
_cell_length_c   8.71748700
_cell_angle_alpha   60.00000212
_cell_angle_beta   60.00000219
_cell_angle_gamma   59.99999920
_symmetry_Int_Tables_number   1
_chemical_formula_structural   Zr3TaRh2N
_chemical_formula_sum   'Zr12 Ta4 Rh8 N4'
_cell_volume   468.44531063
_cell_formula_units_Z   4
loop_
 _symmetry_equiv_pos_site_id
 _symmetry_equiv_pos_as_xyz
  1  'x, y, z'
loop_
 _atom_site_type_symbol
 _atom_site_label
 _atom_site_symmetry_multiplicity
 _atom_site_fract_x
 _atom_site_fract_y
 _atom_site_fract_z
 _atom_site_occupancy
  Zr  Zr0  1  0.813980  0.813980  0.186020  1
  Zr  Zr1  1  0.186020  0.186020  0.813980  1
  Zr  Zr2  1  0.813980  0.186020  0.813980  1
  Zr  Zr3  1  0.186020  0.813980  0.186020  1
  Zr  Zr4  1  0.186020  0.813980  0.813980  1
  Zr  Zr5  1  0.813980  0.186020  0.186020  1
  Zr  Zr6  1  0.436020  0.436020  0.063980  1
  Zr  Zr7  1  0.063980  0.063980  0.436020  1
  Zr  Zr8  1  0.436020  0.063980  0.436020  1
  Zr  Zr9  1  0.063980  0.436020  0.063980  1
  Zr  Zr10  1  0.063980  0.436020  0.436020  1
  Zr  Zr11  1  0.436020  0.063980  0.063980  1
  Ta  Ta12  1  0.125000  0.625000  0.625000  1
  Ta  Ta13  1  0.625000  0.125000  0.625000  1
  Ta  Ta14  1  0.625000  0.625000  0.125000  1
  Ta  Ta15  1  0.625000  0.625000  0.625000  1
  Rh  Rh16  1  0.758799  0.413733  0.413733  1
  Rh  Rh17  1  0.413733  0.758799  0.413733  1
  Rh  Rh18  1  0.413733  0.413733  0.758799  1
  Rh  Rh19  1  0.413733  0.413733  0.413733  1
  Rh  Rh20  1  0.491201  0.836267  0.836267  1
  Rh  Rh21  1  0.836267  0.491201  0.836267  1
  Rh  Rh22  1  0.836267  0.836267  0.491201  1
  Rh  Rh23  1  0.836267  0.836267  0.836267  1
  N  N24  1  0.625000  0.125000  0.125000  1
  N  N25  1  0.125000  0.625000  0.125000  1
  N  N26  1  0.125000  0.125000  0.625000  1
  N  N27  1  0.125000  0.125000  0.125000  1
