# generated using pymatgen
data_TbHo15CdCo4Hg3
_symmetry_space_group_name_H-M   'P 1'
_cell_length_a   9.43958944
_cell_length_b   9.46980313
_cell_length_c   9.44955100
_cell_angle_alpha   60.07072266
_cell_angle_beta   59.96508847
_cell_angle_gamma   60.03922699
_symmetry_Int_Tables_number   1
_chemical_formula_structural   TbHo15CdCo4Hg3
_chemical_formula_sum   'Tb1 Ho15 Cd1 Co4 Hg3'
_cell_volume   597.63446435
_cell_formula_units_Z   1
loop_
 _symmetry_equiv_pos_site_id
 _symmetry_equiv_pos_as_xyz
  1  'x, y, z'
loop_
 _atom_site_type_symbol
 _atom_site_label
 _atom_site_symmetry_multiplicity
 _atom_site_fract_x
 _atom_site_fract_y
 _atom_site_fract_z
 _atom_site_occupancy
  Tb  Tb0  1  0.939641  0.938448  0.560955  1
  Ho  Ho1  1  0.810791  0.186700  0.189089  1
  Ho  Ho2  1  0.939483  0.560359  0.561534  1
  Ho  Ho3  1  0.939483  0.560359  0.938625  1
  Ho  Ho4  1  0.811395  0.810875  0.188865  1
  Ho  Ho5  1  0.346518  0.346909  0.344816  1
  Ho  Ho6  1  0.560789  0.938468  0.939609  1
  Ho  Ho7  1  0.560789  0.938468  0.561134  1
  Ho  Ho8  1  0.187808  0.809976  0.812668  1
  Ho  Ho9  1  0.188298  0.187664  0.812019  1
  Ho  Ho10  1  0.346518  0.346909  0.961758  1
  Ho  Ho11  1  0.349512  0.956318  0.347085  1
  Ho  Ho12  1  0.810791  0.186700  0.813419  1
  Ho  Ho13  1  0.561974  0.561044  0.938492  1
  Ho  Ho14  1  0.187808  0.809976  0.189548  1
  Ho  Ho15  1  0.959845  0.348967  0.345594  1
  Cd  Cd16  1  0.579289  0.260393  0.580160  1
  Co  Co17  1  0.577411  0.141602  0.140494  1
  Co  Co18  1  0.142100  0.141513  0.139858  1
  Co  Co19  1  0.141901  0.577444  0.140328  1
  Co  Co20  1  0.142100  0.141513  0.576529  1
  Hg  Hg21  1  0.584460  0.583304  0.247511  1
  Hg  Hg22  1  0.246838  0.582789  0.585187  1
  Hg  Hg23  1  0.584460  0.583304  0.584726  1
