# generated using pymatgen
data_Yb8ErPt6
_symmetry_space_group_name_H-M   'P 1'
_cell_length_a   7.51282336
_cell_length_b   7.51282330
_cell_length_c   7.51282348
_cell_angle_alpha   70.29286637
_cell_angle_beta   70.29287319
_cell_angle_gamma   70.29287582
_symmetry_Int_Tables_number   1
_chemical_formula_structural   Yb8ErPt6
_chemical_formula_sum   'Yb8 Er1 Pt6'
_cell_volume   363.67775881
_cell_formula_units_Z   1
loop_
 _symmetry_equiv_pos_site_id
 _symmetry_equiv_pos_as_xyz
  1  'x, y, z'
loop_
 _atom_site_type_symbol
 _atom_site_label
 _atom_site_symmetry_multiplicity
 _atom_site_fract_x
 _atom_site_fract_y
 _atom_site_fract_z
 _atom_site_occupancy
  Yb  Yb0  1  0.401208  0.667247  0.152092  1
  Yb  Yb1  1  0.201705  0.201705  0.201705  1
  Yb  Yb2  1  0.847908  0.598792  0.332753  1
  Yb  Yb3  1  0.667247  0.152092  0.401208  1
  Yb  Yb4  1  0.332753  0.847908  0.598792  1
  Yb  Yb5  1  0.152092  0.401208  0.667247  1
  Yb  Yb6  1  0.798295  0.798295  0.798295  1
  Yb  Yb7  1  0.598792  0.332753  0.847908  1
  Er  Er8  1  0.000000  0.000000  0.000000  1
  Pt  Pt9  1  0.844743  0.400140  0.045791  1
  Pt  Pt10  1  0.599860  0.954209  0.155257  1
  Pt  Pt11  1  0.045791  0.844743  0.400140  1
  Pt  Pt12  1  0.954209  0.155257  0.599860  1
  Pt  Pt13  1  0.400140  0.045791  0.844743  1
  Pt  Pt14  1  0.155257  0.599860  0.954209  1
