# generated using pymatgen
data_Er3ThS6
_symmetry_space_group_name_H-M   'P 1'
_cell_length_a   3.92525200
_cell_length_b   10.98624032
_cell_length_c   11.28366796
_cell_angle_alpha   71.75452922
_cell_angle_beta   90.00000000
_cell_angle_gamma   90.00000000
_symmetry_Int_Tables_number   1
_chemical_formula_structural   Er3ThS6
_chemical_formula_sum   'Er6 Th2 S12'
_cell_volume   462.13013981
_cell_formula_units_Z   2
loop_
 _symmetry_equiv_pos_site_id
 _symmetry_equiv_pos_as_xyz
  1  'x, y, z'
loop_
 _atom_site_type_symbol
 _atom_site_label
 _atom_site_symmetry_multiplicity
 _atom_site_fract_x
 _atom_site_fract_y
 _atom_site_fract_z
 _atom_site_occupancy
  Er  Er0  1  0.250000  0.339111  0.582921  1
  Er  Er1  1  0.750000  0.660889  0.417079  1
  Er  Er2  1  0.250000  0.820895  0.000007  1
  Er  Er3  1  0.750000  0.179105  0.999993  1
  Er  Er4  1  0.250000  0.063970  0.333884  1
  Er  Er5  1  0.750000  0.936030  0.666116  1
  Th  Th6  1  0.250000  0.452090  0.196568  1
  Th  Th7  1  0.750000  0.547910  0.803432  1
  S  S8  1  0.250000  0.693427  0.248434  1
  S  S9  1  0.750000  0.306573  0.751566  1
  S  S10  1  0.250000  0.582625  0.593888  1
  S  S11  1  0.750000  0.417375  0.406112  1
  S  S12  1  0.250000  0.382182  0.965711  1
  S  S13  1  0.750000  0.617818  0.034289  1
  S  S14  1  0.250000  0.020935  0.113987  1
  S  S15  1  0.750000  0.979065  0.886013  1
  S  S16  1  0.750000  0.894769  0.440025  1
  S  S17  1  0.250000  0.105231  0.559975  1
  S  S18  1  0.750000  0.239038  0.227353  1
  S  S19  1  0.250000  0.760962  0.772647  1
