# generated using pymatgen
data_Th4Ti(MoN4)3
_symmetry_space_group_name_H-M   'P 1'
_cell_length_a   5.59935819
_cell_length_b   5.68651261
_cell_length_c   7.94056641
_cell_angle_alpha   90.03030107
_cell_angle_beta   90.06083633
_cell_angle_gamma   90.04367237
_symmetry_Int_Tables_number   1
_chemical_formula_structural   Th4Ti(MoN4)3
_chemical_formula_sum   'Th4 Ti1 Mo3 N12'
_cell_volume   252.83390187
_cell_formula_units_Z   1
loop_
 _symmetry_equiv_pos_site_id
 _symmetry_equiv_pos_as_xyz
  1  'x, y, z'
loop_
 _atom_site_type_symbol
 _atom_site_label
 _atom_site_symmetry_multiplicity
 _atom_site_fract_x
 _atom_site_fract_y
 _atom_site_fract_z
 _atom_site_occupancy
  Th  Th0  1  0.503235  0.544335  0.246775  1
  Th  Th1  1  0.995414  0.048187  0.246515  1
  Th  Th2  1  0.496765  0.455665  0.753225  1
  Th  Th3  1  0.004586  0.951813  0.753485  1
  Ti  Ti4  1  0.000000  0.500000  0.000000  1
  Mo  Mo5  1  0.500000  0.000000  0.500000  1
  Mo  Mo6  1  0.000000  0.500000  0.500000  1
  Mo  Mo7  1  0.500000  0.000000  0.000000  1
  N  N8  1  0.424115  0.982563  0.249921  1
  N  N9  1  0.077376  0.480600  0.250372  1
  N  N10  1  0.575885  0.017437  0.750079  1
  N  N11  1  0.922624  0.519400  0.749628  1
  N  N12  1  0.798980  0.802615  0.040070  1
  N  N13  1  0.700635  0.298535  0.460462  1
  N  N14  1  0.200632  0.200851  0.539901  1
  N  N15  1  0.301242  0.700038  0.959334  1
  N  N16  1  0.201020  0.197385  0.959930  1
  N  N17  1  0.299365  0.701465  0.539538  1
  N  N18  1  0.799368  0.799149  0.460099  1
  N  N19  1  0.698758  0.299962  0.040666  1
