# generated using pymatgen
data_Ho2Lu2ReB12Rh
_symmetry_space_group_name_H-M   'P 1'
_cell_length_a   3.63864600
_cell_length_b   9.07438515
_cell_length_c   11.47128634
_cell_angle_alpha   90.35894374
_cell_angle_beta   90.00000000
_cell_angle_gamma   90.00000000
_symmetry_Int_Tables_number   1
_chemical_formula_structural   Ho2Lu2ReB12Rh
_chemical_formula_sum   'Ho4 Lu4 Re2 B24 Rh2'
_cell_volume   378.75695115
_cell_formula_units_Z   2
loop_
 _symmetry_equiv_pos_site_id
 _symmetry_equiv_pos_as_xyz
  1  'x, y, z'
loop_
 _atom_site_type_symbol
 _atom_site_label
 _atom_site_symmetry_multiplicity
 _atom_site_fract_x
 _atom_site_fract_y
 _atom_site_fract_z
 _atom_site_occupancy
  Ho  Ho0  1  0.000000  0.317931  0.411229  1
  Ho  Ho1  1  0.000000  0.682069  0.588771  1
  Ho  Ho2  1  0.000000  0.825263  0.083002  1
  Ho  Ho3  1  0.000000  0.174737  0.916998  1
  Lu  Lu4  1  0.000000  0.945750  0.372007  1
  Lu  Lu5  1  0.000000  0.054250  0.627993  1
  Lu  Lu6  1  0.000000  0.442409  0.126524  1
  Lu  Lu7  1  0.000000  0.557591  0.873476  1
  Re  Re8  1  0.000000  0.139311  0.180439  1
  Re  Re9  1  0.000000  0.860689  0.819561  1
  B  B10  1  0.500000  0.554807  0.434227  1
  B  B11  1  0.500000  0.445193  0.565773  1
  B  B12  1  0.500000  0.053257  0.067508  1
  B  B13  1  0.500000  0.946743  0.932492  1
  B  B14  1  0.500000  0.750456  0.421098  1
  B  B15  1  0.500000  0.249544  0.578902  1
  B  B16  1  0.500000  0.250079  0.081410  1
  B  B17  1  0.500000  0.749921  0.918590  1
  B  B18  1  0.500000  0.791958  0.265027  1
  B  B19  1  0.500000  0.208042  0.734973  1
  B  B20  1  0.500000  0.293758  0.235093  1
  B  B21  1  0.500000  0.706242  0.764907  1
  B  B22  1  0.500000  0.631504  0.182822  1
  B  B23  1  0.500000  0.368496  0.817178  1
  B  B24  1  0.500000  0.131158  0.315662  1
  B  B25  1  0.500000  0.868842  0.684338  1
  B  B26  1  0.500000  0.982240  0.213713  1
  B  B27  1  0.500000  0.017760  0.786287  1
  B  B28  1  0.500000  0.483127  0.287259  1
  B  B29  1  0.500000  0.516873  0.712741  1
  B  B30  1  0.500000  0.603022  0.028596  1
  B  B31  1  0.500000  0.396978  0.971404  1
  B  B32  1  0.500000  0.104373  0.472000  1
  B  B33  1  0.500000  0.895627  0.528000  1
  Rh  Rh34  1  0.000000  0.638623  0.320503  1
  Rh  Rh35  1  0.000000  0.361377  0.679497  1
