# generated using pymatgen
data_Dy2Y2ErSn4
_symmetry_space_group_name_H-M   'P 1'
_cell_length_a   8.01410200
_cell_length_b   8.15814500
_cell_length_c   15.45304100
_cell_angle_alpha   90.00000000
_cell_angle_beta   90.00000000
_cell_angle_gamma   90.00000000
_symmetry_Int_Tables_number   1
_chemical_formula_structural   Dy2Y2ErSn4
_chemical_formula_sum   'Dy8 Y8 Er4 Sn16'
_cell_volume   1010.32300639
_cell_formula_units_Z   4
loop_
 _symmetry_equiv_pos_site_id
 _symmetry_equiv_pos_as_xyz
  1  'x, y, z'
loop_
 _atom_site_type_symbol
 _atom_site_label
 _atom_site_symmetry_multiplicity
 _atom_site_fract_x
 _atom_site_fract_y
 _atom_site_fract_z
 _atom_site_occupancy
  Dy  Dy0  1  0.367430  0.836934  0.877806  1
  Dy  Dy1  1  0.867430  0.663066  0.622194  1
  Dy  Dy2  1  0.632570  0.163066  0.377806  1
  Dy  Dy3  1  0.132570  0.336934  0.122194  1
  Dy  Dy4  1  0.632570  0.163066  0.122194  1
  Dy  Dy5  1  0.132570  0.336934  0.377806  1
  Dy  Dy6  1  0.367430  0.836934  0.622194  1
  Dy  Dy7  1  0.867430  0.663066  0.877806  1
  Y  Y8  1  0.521816  0.321169  0.902273  1
  Y  Y9  1  0.021816  0.178831  0.597727  1
  Y  Y10  1  0.478184  0.678831  0.402273  1
  Y  Y11  1  0.978184  0.821169  0.097727  1
  Y  Y12  1  0.478184  0.678831  0.097727  1
  Y  Y13  1  0.978184  0.821169  0.402273  1
  Y  Y14  1  0.521816  0.321169  0.597727  1
  Y  Y15  1  0.021816  0.178831  0.902273  1
  Er  Er16  1  0.199275  0.502796  0.750000  1
  Er  Er17  1  0.699275  0.997204  0.750000  1
  Er  Er18  1  0.800725  0.497204  0.250000  1
  Er  Er19  1  0.300725  0.002796  0.250000  1
  Sn  Sn20  1  0.293198  0.036272  0.042124  1
  Sn  Sn21  1  0.793198  0.463728  0.457876  1
  Sn  Sn22  1  0.706802  0.963728  0.542124  1
  Sn  Sn23  1  0.206802  0.536272  0.957876  1
  Sn  Sn24  1  0.706802  0.963728  0.957876  1
  Sn  Sn25  1  0.206802  0.536272  0.542124  1
  Sn  Sn26  1  0.293198  0.036272  0.457876  1
  Sn  Sn27  1  0.793198  0.463728  0.042124  1
  Sn  Sn28  1  0.564921  0.619436  0.750000  1
  Sn  Sn29  1  0.064921  0.880564  0.750000  1
  Sn  Sn30  1  0.435079  0.380564  0.250000  1
  Sn  Sn31  1  0.935079  0.119436  0.250000  1
  Sn  Sn32  1  0.330634  0.147979  0.750000  1
  Sn  Sn33  1  0.830634  0.352021  0.750000  1
  Sn  Sn34  1  0.669366  0.852021  0.250000  1
  Sn  Sn35  1  0.169366  0.647979  0.250000  1
