# generated using pymatgen
data_Li3PdRh5Pb3
_symmetry_space_group_name_H-M   'P 1'
_cell_length_a   4.48795806
_cell_length_b   6.37901008
_cell_length_c   13.48455400
_cell_angle_alpha   90.00008735
_cell_angle_beta   89.99939618
_cell_angle_gamma   89.98132645
_symmetry_Int_Tables_number   1
_chemical_formula_structural   Li3PdRh5Pb3
_chemical_formula_sum   'Li6 Pd2 Rh10 Pb6'
_cell_volume   386.04563137
_cell_formula_units_Z   2
loop_
 _symmetry_equiv_pos_site_id
 _symmetry_equiv_pos_as_xyz
  1  'x, y, z'
loop_
 _atom_site_type_symbol
 _atom_site_label
 _atom_site_symmetry_multiplicity
 _atom_site_fract_x
 _atom_site_fract_y
 _atom_site_fract_z
 _atom_site_occupancy
  Li  Li0  1  0.000007  0.500001  0.001766  1
  Li  Li1  1  0.499714  0.000000  0.167392  1
  Li  Li2  1  0.999733  0.500000  0.333330  1
  Li  Li3  1  0.500004  0.999999  0.499279  1
  Li  Li4  1  0.000295  0.500000  0.664928  1
  Li  Li5  1  0.500180  0.999997  0.833290  1
  Pd  Pd6  1  0.000010  0.246275  0.833330  1
  Pd  Pd7  1  0.000056  0.753724  0.833331  1
  Rh  Rh8  1  0.500020  0.250308  0.998336  1
  Rh  Rh9  1  0.499998  0.749679  0.998335  1
  Rh  Rh10  1  0.999909  0.251351  0.166914  1
  Rh  Rh11  1  0.999941  0.748649  0.166920  1
  Rh  Rh12  1  0.499986  0.249257  0.333314  1
  Rh  Rh13  1  0.499963  0.750742  0.333313  1
  Rh  Rh14  1  0.000000  0.251505  0.499760  1
  Rh  Rh15  1  0.000014  0.748500  0.499757  1
  Rh  Rh16  1  0.500085  0.250449  0.668355  1
  Rh  Rh17  1  0.500068  0.749550  0.668356  1
  Pb  Pb18  1  0.000002  0.000006  0.004618  1
  Pb  Pb19  1  0.499937  0.499995  0.167330  1
  Pb  Pb20  1  0.999985  0.000009  0.333367  1
  Pb  Pb21  1  0.500002  0.499994  0.499300  1
  Pb  Pb22  1  0.000062  0.000010  0.662005  1
  Pb  Pb23  1  0.500024  0.499995  0.833380  1
