# generated using pymatgen
data_Dy3ZnIn3HgIr
_symmetry_space_group_name_H-M   'P 1'
_cell_length_a   7.90022700
_cell_length_b   7.90022701
_cell_length_c   3.83414800
_cell_angle_alpha   90.00000000
_cell_angle_beta   90.00000000
_cell_angle_gamma   120.00000415
_symmetry_Int_Tables_number   1
_chemical_formula_structural   Dy3ZnIn3HgIr
_chemical_formula_sum   'Dy3 Zn1 In3 Hg1 Ir1'
_cell_volume   207.24240681
_cell_formula_units_Z   1
loop_
 _symmetry_equiv_pos_site_id
 _symmetry_equiv_pos_as_xyz
  1  'x, y, z'
loop_
 _atom_site_type_symbol
 _atom_site_label
 _atom_site_symmetry_multiplicity
 _atom_site_fract_x
 _atom_site_fract_y
 _atom_site_fract_z
 _atom_site_occupancy
  Dy  Dy0  1  0.582001  0.614778  0.000000  1
  Dy  Dy1  1  0.385222  0.967223  0.000000  1
  Dy  Dy2  1  0.032777  0.417999  0.000000  1
  Zn  Zn3  1  0.000000  0.000000  0.000000  1
  In  In4  1  0.000935  0.741111  0.500000  1
  In  In5  1  0.258889  0.259825  0.500000  1
  In  In6  1  0.740175  0.999065  0.500000  1
  Hg  Hg7  1  0.666667  0.333333  0.500000  1
  Ir  Ir8  1  0.333333  0.666667  0.500000  1
