# generated using pymatgen
data_NdHo7(P7Ir8)2
_symmetry_space_group_name_H-M   'P 1'
_cell_length_a   3.94232500
_cell_length_b   12.69222343
_cell_length_c   13.14364068
_cell_angle_alpha   80.71106658
_cell_angle_beta   90.00000000
_cell_angle_gamma   90.00000000
_symmetry_Int_Tables_number   1
_chemical_formula_structural   NdHo7(P7Ir8)2
_chemical_formula_sum   'Nd1 Ho7 P14 Ir16'
_cell_volume   649.04259533
_cell_formula_units_Z   1
loop_
 _symmetry_equiv_pos_site_id
 _symmetry_equiv_pos_as_xyz
  1  'x, y, z'
loop_
 _atom_site_type_symbol
 _atom_site_label
 _atom_site_symmetry_multiplicity
 _atom_site_fract_x
 _atom_site_fract_y
 _atom_site_fract_z
 _atom_site_occupancy
  Nd  Nd0  1  0.250000  0.279176  0.102464  1
  Ho  Ho1  1  0.750000  0.791267  0.561242  1
  Ho  Ho2  1  0.250000  0.208729  0.439062  1
  Ho  Ho3  1  0.750000  0.479559  0.705473  1
  Ho  Ho4  1  0.250000  0.520882  0.294743  1
  Ho  Ho5  1  0.750000  0.720094  0.897630  1
  Ho  Ho6  1  0.250000  0.102295  0.788634  1
  Ho  Ho7  1  0.750000  0.897588  0.211650  1
  P  P8  1  0.250000  0.906597  0.411922  1
  P  P9  1  0.750000  0.473342  0.129805  1
  P  P10  1  0.250000  0.527723  0.870182  1
  P  P11  1  0.750000  0.093148  0.588359  1
  P  P12  1  0.250000  0.741765  0.079307  1
  P  P13  1  0.750000  0.257070  0.917859  1
  P  P14  1  0.750000  0.157578  0.284055  1
  P  P15  1  0.250000  0.842794  0.717349  1
  P  P16  1  0.250000  0.048585  0.101148  1
  P  P17  1  0.750000  0.947740  0.899128  1
  P  P18  1  0.250000  0.312103  0.689291  1
  P  P19  1  0.750000  0.688001  0.310275  1
  P  P20  1  0.250000  0.607896  0.566841  1
  P  P21  1  0.750000  0.392675  0.434308  1
  Ir  Ir22  1  0.250000  0.990739  0.576505  1
  Ir  Ir23  1  0.750000  0.009003  0.424148  1
  Ir  Ir24  1  0.250000  0.662438  0.730576  1
  Ir  Ir25  1  0.750000  0.339210  0.272163  1
  Ir  Ir26  1  0.250000  0.554465  0.045875  1
  Ir  Ir27  1  0.750000  0.449182  0.951644  1
  Ir  Ir28  1  0.250000  0.059833  0.273205  1
  Ir  Ir29  1  0.750000  0.938966  0.727413  1
  Ir  Ir30  1  0.250000  0.421939  0.524414  1
  Ir  Ir31  1  0.750000  0.578637  0.475946  1
  Ir  Ir32  1  0.250000  0.914359  0.996909  1
  Ir  Ir33  1  0.750000  0.084006  0.001699  1
  Ir  Ir34  1  0.250000  0.729471  0.394360  1
  Ir  Ir35  1  0.750000  0.270434  0.605565  1
  Ir  Ir36  1  0.250000  0.341883  0.856992  1
  Ir  Ir37  1  0.750000  0.658828  0.141860  1
