# generated using pymatgen
data_Pr8TeIr2WO24
_symmetry_space_group_name_H-M   'P 1'
_cell_length_a   5.49527245
_cell_length_b   9.49153570
_cell_length_c   10.30028506
_cell_angle_alpha   89.70927518
_cell_angle_beta   89.94318960
_cell_angle_gamma   90.10198827
_symmetry_Int_Tables_number   1
_chemical_formula_structural   Pr8TeIr2WO24
_chemical_formula_sum   'Pr8 Te1 Ir2 W1 O24'
_cell_volume   537.24015125
_cell_formula_units_Z   1
loop_
 _symmetry_equiv_pos_site_id
 _symmetry_equiv_pos_as_xyz
  1  'x, y, z'
loop_
 _atom_site_type_symbol
 _atom_site_label
 _atom_site_symmetry_multiplicity
 _atom_site_fract_x
 _atom_site_fract_y
 _atom_site_fract_z
 _atom_site_occupancy
  Pr  Pr0  1  0.034957  0.218347  0.132362  1
  Pr  Pr1  1  0.469197  0.781673  0.636019  1
  Pr  Pr2  1  0.966655  0.720574  0.365053  1
  Pr  Pr3  1  0.535115  0.284686  0.865915  1
  Pr  Pr4  1  0.027797  0.101049  0.542233  1
  Pr  Pr5  1  0.476287  0.897228  0.035959  1
  Pr  Pr6  1  0.975134  0.603276  0.963672  1
  Pr  Pr7  1  0.524716  0.395559  0.457859  1
  Te  Te8  1  0.042422  0.494798  0.644005  1
  Ir  Ir9  1  0.957108  0.997807  0.858099  1
  Ir  Ir10  1  0.456531  0.503599  0.142507  1
  W  W11  1  0.543590  0.004277  0.353578  1
  O  O12  1  0.428936  0.150070  0.474585  1
  O  O13  1  0.065921  0.851382  0.979350  1
  O  O14  1  0.563905  0.649585  0.020143  1
  O  O15  1  0.930250  0.349678  0.523710  1
  O  O16  1  0.724282  0.389011  0.066275  1
  O  O17  1  0.778073  0.609492  0.565096  1
  O  O18  1  0.280846  0.888736  0.437337  1
  O  O19  1  0.223286  0.113525  0.934004  1
  O  O20  1  0.249531  0.411998  0.006819  1
  O  O21  1  0.247627  0.585307  0.507880  1
  O  O22  1  0.751320  0.911176  0.490925  1
  O  O23  1  0.749550  0.089023  0.993807  1
  O  O24  1  0.187271  0.631763  0.180420  1
  O  O25  1  0.310449  0.363947  0.676952  1
  O  O26  1  0.810755  0.135403  0.324187  1
  O  O27  1  0.686511  0.868513  0.821241  1
  O  O28  1  0.333298  0.050986  0.213688  1
  O  O29  1  0.165340  0.943851  0.717794  1
  O  O30  1  0.661682  0.558059  0.284162  1
  O  O31  1  0.836234  0.445802  0.788306  1
  O  O32  1  0.324409  0.359430  0.255717  1
  O  O33  1  0.176604  0.637733  0.757161  1
  O  O34  1  0.682744  0.864549  0.240231  1
  O  O35  1  0.821670  0.138110  0.742953  1
