# generated using pymatgen
data_Cs3Dy2I9
_symmetry_space_group_name_H-M   'P 1'
_cell_length_a   8.63498374
_cell_length_b   8.63498306
_cell_length_c   22.06987780
_cell_angle_alpha   88.76335966
_cell_angle_beta   88.76335740
_cell_angle_gamma   119.83373342
_symmetry_Int_Tables_number   1
_chemical_formula_structural   Cs3Dy2I9
_chemical_formula_sum   'Cs6 Dy4 I18'
_cell_volume   1426.18494192
_cell_formula_units_Z   2
loop_
 _symmetry_equiv_pos_site_id
 _symmetry_equiv_pos_as_xyz
  1  'x, y, z'
loop_
 _atom_site_type_symbol
 _atom_site_label
 _atom_site_symmetry_multiplicity
 _atom_site_fract_x
 _atom_site_fract_y
 _atom_site_fract_z
 _atom_site_occupancy
  Cs  Cs0  1  0.994765  0.005235  0.750000  1
  Cs  Cs1  1  0.668047  0.330224  0.067455  1
  Cs  Cs2  1  0.005235  0.994765  0.250000  1
  Cs  Cs3  1  0.330224  0.668047  0.567455  1
  Cs  Cs4  1  0.331953  0.669776  0.932545  1
  Cs  Cs5  1  0.669776  0.331953  0.432545  1
  Dy  Dy6  1  0.651028  0.320339  0.656716  1
  Dy  Dy7  1  0.348972  0.679661  0.343284  1
  Dy  Dy8  1  0.320339  0.651028  0.156716  1
  Dy  Dy9  1  0.679661  0.348972  0.843284  1
  I  I10  1  0.643881  0.808317  0.077182  1
  I  I11  1  0.356119  0.191683  0.922818  1
  I  I12  1  0.506869  0.017364  0.760140  1
  I  I13  1  0.193984  0.861478  0.411980  1
  I  I14  1  0.861478  0.193984  0.911980  1
  I  I15  1  0.808317  0.643881  0.577182  1
  I  I16  1  0.806016  0.138522  0.588020  1
  I  I17  1  0.305025  0.141456  0.597741  1
  I  I18  1  0.493131  0.982636  0.239860  1
  I  I19  1  0.982636  0.493131  0.739860  1
  I  I20  1  0.138522  0.806016  0.088020  1
  I  I21  1  0.017364  0.506869  0.260140  1
  I  I22  1  0.506375  0.493625  0.750000  1
  I  I23  1  0.858544  0.694975  0.902259  1
  I  I24  1  0.141456  0.305025  0.097741  1
  I  I25  1  0.694975  0.858544  0.402259  1
  I  I26  1  0.493625  0.506375  0.250000  1
  I  I27  1  0.191683  0.356119  0.422818  1
