# generated using pymatgen
data_SmZnCu3Ag
_symmetry_space_group_name_H-M   'P 1'
_cell_length_a   5.14324551
_cell_length_b   5.14324526
_cell_length_c   5.14324533
_cell_angle_alpha   60.16831032
_cell_angle_beta   60.16831083
_cell_angle_gamma   60.16830702
_symmetry_Int_Tables_number   1
_chemical_formula_structural   SmZnCu3Ag
_chemical_formula_sum   'Sm1 Zn1 Cu3 Ag1'
_cell_volume   96.57152351
_cell_formula_units_Z   1
loop_
 _symmetry_equiv_pos_site_id
 _symmetry_equiv_pos_as_xyz
  1  'x, y, z'
loop_
 _atom_site_type_symbol
 _atom_site_label
 _atom_site_symmetry_multiplicity
 _atom_site_fract_x
 _atom_site_fract_y
 _atom_site_fract_z
 _atom_site_occupancy
  Sm  Sm0  1  0.998190  0.998190  0.998190  1
  Zn  Zn1  1  0.377856  0.377856  0.377856  1
  Cu  Cu2  1  0.871175  0.376744  0.376744  1
  Cu  Cu3  1  0.376744  0.871175  0.376744  1
  Cu  Cu4  1  0.376744  0.376744  0.871175  1
  Ag  Ag5  1  0.749290  0.749290  0.749290  1
