# generated using pymatgen
data_YCo4As3Ru
_symmetry_space_group_name_H-M   'P 1'
_cell_length_a   3.83325500
_cell_length_b   10.78629700
_cell_length_c   12.26172600
_cell_angle_alpha   90.00000000
_cell_angle_beta   90.00000000
_cell_angle_gamma   90.00000000
_symmetry_Int_Tables_number   1
_chemical_formula_structural   YCo4As3Ru
_chemical_formula_sum   'Y4 Co16 As12 Ru4'
_cell_volume   506.98101015
_cell_formula_units_Z   4
loop_
 _symmetry_equiv_pos_site_id
 _symmetry_equiv_pos_as_xyz
  1  'x, y, z'
loop_
 _atom_site_type_symbol
 _atom_site_label
 _atom_site_symmetry_multiplicity
 _atom_site_fract_x
 _atom_site_fract_y
 _atom_site_fract_z
 _atom_site_occupancy
  Y  Y0  1  0.250000  0.917177  0.203516  1
  Y  Y1  1  0.750000  0.082823  0.796484  1
  Y  Y2  1  0.750000  0.417177  0.296484  1
  Y  Y3  1  0.250000  0.582823  0.703516  1
  Co  Co4  1  0.250000  0.092922  0.988111  1
  Co  Co5  1  0.750000  0.907078  0.011889  1
  Co  Co6  1  0.750000  0.592922  0.511889  1
  Co  Co7  1  0.250000  0.407078  0.488111  1
  Co  Co8  1  0.250000  0.282817  0.675913  1
  Co  Co9  1  0.750000  0.717183  0.324087  1
  Co  Co10  1  0.750000  0.782817  0.824087  1
  Co  Co11  1  0.250000  0.217183  0.175913  1
  Co  Co12  1  0.250000  0.615704  0.200217  1
  Co  Co13  1  0.750000  0.384296  0.799783  1
  Co  Co14  1  0.750000  0.115704  0.299783  1
  Co  Co15  1  0.250000  0.884296  0.700217  1
  Co  Co16  1  0.250000  0.035008  0.431405  1
  Co  Co17  1  0.750000  0.964992  0.568595  1
  Co  Co18  1  0.750000  0.535008  0.068595  1
  Co  Co19  1  0.250000  0.464992  0.931405  1
  As  As20  1  0.250000  0.081465  0.614049  1
  As  As21  1  0.750000  0.918535  0.385951  1
  As  As22  1  0.750000  0.581465  0.885951  1
  As  As23  1  0.250000  0.418535  0.114049  1
  As  As24  1  0.250000  0.231941  0.366905  1
  As  As25  1  0.750000  0.768059  0.633095  1
  As  As26  1  0.750000  0.731941  0.133095  1
  As  As27  1  0.250000  0.268059  0.866905  1
  As  As28  1  0.250000  0.903495  0.890217  1
  As  As29  1  0.750000  0.096505  0.109783  1
  As  As30  1  0.750000  0.403495  0.609783  1
  As  As31  1  0.250000  0.596505  0.390217  1
  Ru  Ru32  1  0.250000  0.790341  0.490018  1
  Ru  Ru33  1  0.750000  0.209659  0.509982  1
  Ru  Ru34  1  0.750000  0.290341  0.009982  1
  Ru  Ru35  1  0.250000  0.709659  0.990018  1
