# generated using pymatgen
data_Pr8Er6Sc5Si16Ag
_symmetry_space_group_name_H-M   'P 1'
_cell_length_a   7.28782485
_cell_length_b   7.68071647
_cell_length_c   14.63835252
_cell_angle_alpha   89.97278615
_cell_angle_beta   90.08760328
_cell_angle_gamma   90.11972095
_symmetry_Int_Tables_number   1
_chemical_formula_structural   Pr8Er6Sc5Si16Ag
_chemical_formula_sum   'Pr8 Er6 Sc5 Si16 Ag1'
_cell_volume   819.38943056
_cell_formula_units_Z   1
loop_
 _symmetry_equiv_pos_site_id
 _symmetry_equiv_pos_as_xyz
  1  'x, y, z'
loop_
 _atom_site_type_symbol
 _atom_site_label
 _atom_site_symmetry_multiplicity
 _atom_site_fract_x
 _atom_site_fract_y
 _atom_site_fract_z
 _atom_site_occupancy
  Pr  Pr0  1  0.015359  0.175962  0.398134  1
  Pr  Pr1  1  0.515119  0.326188  0.397824  1
  Pr  Pr2  1  0.486584  0.687058  0.901186  1
  Pr  Pr3  1  0.485412  0.687459  0.601580  1
  Pr  Pr4  1  0.975469  0.825038  0.601886  1
  Pr  Pr5  1  0.976962  0.824122  0.900675  1
  Pr  Pr6  1  0.513393  0.328178  0.098112  1
  Pr  Pr7  1  0.014393  0.174356  0.098073  1
  Er  Er8  1  0.333503  0.173068  0.625692  1
  Er  Er9  1  0.676375  0.819126  0.371436  1
  Er  Er10  1  0.175578  0.677464  0.373769  1
  Er  Er11  1  0.821958  0.314283  0.877307  1
  Er  Er12  1  0.821813  0.313763  0.626259  1
  Er  Er13  1  0.334353  0.171758  0.877474  1
  Sc  Sc14  1  0.844975  0.497681  0.245195  1
  Sc  Sc15  1  0.344175  0.001322  0.245997  1
  Sc  Sc16  1  0.175201  0.676228  0.124956  1
  Sc  Sc17  1  0.675747  0.821207  0.127688  1
  Sc  Sc18  1  0.153509  0.504681  0.751143  1
  Si  Si19  1  0.269826  0.874668  0.751293  1
  Si  Si20  1  0.472519  0.616242  0.244827  1
  Si  Si21  1  0.036825  0.112254  0.751719  1
  Si  Si22  1  0.522049  0.404700  0.751702  1
  Si  Si23  1  0.150191  0.467761  0.540500  1
  Si  Si24  1  0.973852  0.879745  0.244700  1
  Si  Si25  1  0.713307  0.121423  0.246864  1
  Si  Si26  1  0.853606  0.538434  0.041818  1
  Si  Si27  1  0.353215  0.961359  0.045140  1
  Si  Si28  1  0.152409  0.470863  0.963483  1
  Si  Si29  1  0.652909  0.040029  0.527637  1
  Si  Si30  1  0.351463  0.968010  0.458190  1
  Si  Si31  1  0.851478  0.532363  0.462325  1
  Si  Si32  1  0.784589  0.608013  0.751351  1
  Si  Si33  1  0.213702  0.380365  0.246869  1
  Si  Si34  1  0.655362  0.034483  0.976190  1
  Ag  Ag35  1  0.652820  0.990350  0.751006  1
