# generated using pymatgen
data_Y5Er7Pb10
_symmetry_space_group_name_H-M   'P 1'
_cell_length_a   11.70287344
_cell_length_b   11.69464054
_cell_length_c   11.69528646
_cell_angle_alpha   146.78715475
_cell_angle_beta   132.61500016
_cell_angle_gamma   59.07138302
_symmetry_Int_Tables_number   1
_chemical_formula_structural   Y5Er7Pb10
_chemical_formula_sum   'Y5 Er7 Pb10'
_cell_volume   639.71963170
_cell_formula_units_Z   1
loop_
 _symmetry_equiv_pos_site_id
 _symmetry_equiv_pos_as_xyz
  1  'x, y, z'
loop_
 _atom_site_type_symbol
 _atom_site_label
 _atom_site_symmetry_multiplicity
 _atom_site_fract_x
 _atom_site_fract_y
 _atom_site_fract_z
 _atom_site_occupancy
  Y  Y0  1  0.696302  0.946397  0.249884  1
  Y  Y1  1  0.251435  0.637270  0.614045  1
  Y  Y2  1  0.682520  0.941499  0.741074  1
  Y  Y3  1  0.023432  0.137283  0.886261  1
  Y  Y4  1  0.975818  0.862427  0.113058  1
  Er  Er5  1  0.799612  0.558333  0.240930  1
  Er  Er6  1  0.201102  0.441434  0.759637  1
  Er  Er7  1  0.303129  0.053631  0.749530  1
  Er  Er8  1  0.317117  0.058633  0.258928  1
  Er  Er9  1  0.303361  0.553791  0.249481  1
  Er  Er10  1  0.750241  0.363373  0.387379  1
  Er  Er11  1  0.696395  0.446374  0.749892  1
  Pb  Pb12  1  0.482505  0.571287  0.907120  1
  Pb  Pb13  1  0.597859  0.792529  0.801890  1
  Pb  Pb14  1  0.664580  0.076140  0.592648  1
  Pb  Pb15  1  0.000807  0.748748  0.749522  1
  Pb  Pb16  1  0.990122  0.296857  0.696559  1
  Pb  Pb17  1  0.518313  0.425659  0.092402  1
  Pb  Pb18  1  0.010282  0.704114  0.303629  1
  Pb  Pb19  1  0.400585  0.206661  0.196249  1
  Pb  Pb20  1  0.333791  0.926312  0.407860  1
  Pb  Pb21  1  0.000692  0.251246  0.252022  1
