# generated using pymatgen
data_Nd3Er2P12Pd2Ru17
_symmetry_space_group_name_H-M   'P 1'
_cell_length_a   12.72136300
_cell_length_b   12.59376800
_cell_length_c   4.00144800
_cell_angle_alpha   90.00000000
_cell_angle_beta   90.00000000
_cell_angle_gamma   120.33572827
_symmetry_Int_Tables_number   1
_chemical_formula_structural   Nd3Er2P12Pd2Ru17
_chemical_formula_sum   'Nd3 Er2 P12 Pd2 Ru17'
_cell_volume   553.29653737
_cell_formula_units_Z   1
loop_
 _symmetry_equiv_pos_site_id
 _symmetry_equiv_pos_as_xyz
  1  'x, y, z'
loop_
 _atom_site_type_symbol
 _atom_site_label
 _atom_site_symmetry_multiplicity
 _atom_site_fract_x
 _atom_site_fract_y
 _atom_site_fract_z
 _atom_site_occupancy
  Nd  Nd0  1  0.001447  0.183309  0.500000  1
  Nd  Nd1  1  0.818138  0.816691  0.500000  1
  Nd  Nd2  1  0.184399  0.000000  0.500000  1
  Er  Er3  1  0.663899  0.327170  0.000000  1
  Er  Er4  1  0.336728  0.672830  0.000000  1
  P  P5  1  0.998656  0.808673  0.000000  1
  P  P6  1  0.189983  0.191327  0.000000  1
  P  P7  1  0.814159  0.000000  0.000000  1
  P  P8  1  0.693721  0.171927  0.500000  1
  P  P9  1  0.815401  0.515402  0.500000  1
  P  P10  1  0.478374  0.298892  0.500000  1
  P  P11  1  0.179483  0.701108  0.500000  1
  P  P12  1  0.521794  0.828073  0.500000  1
  P  P13  1  0.299999  0.484598  0.500000  1
  P  P14  1  0.000476  0.368174  0.000000  1
  P  P15  1  0.632302  0.631826  0.000000  1
  P  P16  1  0.375895  0.000000  0.000000  1
  Pd  Pd17  1  0.998865  0.551877  0.000000  1
  Pd  Pd18  1  0.446988  0.448123  0.000000  1
  Ru  Ru19  1  0.555191  0.000000  0.000000  1
  Ru  Ru20  1  0.997772  0.707996  0.500000  1
  Ru  Ru21  1  0.289777  0.292004  0.500000  1
  Ru  Ru22  1  0.714992  0.000000  0.500000  1
  Ru  Ru23  1  0.805756  0.185841  0.000000  1
  Ru  Ru24  1  0.811552  0.614209  0.000000  1
  Ru  Ru25  1  0.380237  0.194629  0.000000  1
  Ru  Ru26  1  0.185608  0.805371  0.000000  1
  Ru  Ru27  1  0.619914  0.814159  0.000000  1
  Ru  Ru28  1  0.197342  0.385791  0.000000  1
  Ru  Ru29  1  0.870838  0.366708  0.500000  1
  Ru  Ru30  1  0.628144  0.505542  0.500000  1
  Ru  Ru31  1  0.493759  0.124453  0.500000  1
  Ru  Ru32  1  0.369306  0.875547  0.500000  1
  Ru  Ru33  1  0.504129  0.633292  0.500000  1
  Ru  Ru34  1  0.122604  0.494458  0.500000  1
  Ru  Ru35  1  0.002374  0.000000  0.000000  1
