# generated using pymatgen
data_Ag2RuRh3(PbO7)2
_symmetry_space_group_name_H-M   'P 1'
_cell_length_a   7.24474210
_cell_length_b   7.31329084
_cell_length_c   7.24474300
_cell_angle_alpha   59.65426759
_cell_angle_beta   59.56775664
_cell_angle_gamma   59.65427718
_symmetry_Int_Tables_number   1
_chemical_formula_structural   Ag2RuRh3(PbO7)2
_chemical_formula_sum   'Ag2 Ru1 Rh3 Pb2 O14'
_cell_volume   269.11041094
_cell_formula_units_Z   1
loop_
 _symmetry_equiv_pos_site_id
 _symmetry_equiv_pos_as_xyz
  1  'x, y, z'
loop_
 _atom_site_type_symbol
 _atom_site_label
 _atom_site_symmetry_multiplicity
 _atom_site_fract_x
 _atom_site_fract_y
 _atom_site_fract_z
 _atom_site_occupancy
  Ag  Ag0  1  0.625000  0.125000  0.125000  1
  Ag  Ag1  1  0.125000  0.125000  0.625000  1
  Ru  Ru2  1  0.625000  0.125000  0.625000  1
  Rh  Rh3  1  0.125000  0.625000  0.625000  1
  Rh  Rh4  1  0.625000  0.625000  0.125000  1
  Rh  Rh5  1  0.625000  0.625000  0.625000  1
  Pb  Pb6  1  0.125000  0.625000  0.125000  1
  Pb  Pb7  1  0.125000  0.125000  0.125000  1
  O  O8  1  0.706238  0.705616  0.292910  1
  O  O9  1  0.301948  0.300227  0.707913  1
  O  O10  1  0.688246  0.305900  0.688246  1
  O  O11  1  0.289798  0.710807  0.289798  1
  O  O12  1  0.292910  0.705616  0.706238  1
  O  O13  1  0.707913  0.300227  0.301948  1
  O  O14  1  0.543762  0.544384  0.957090  1
  O  O15  1  0.948052  0.949773  0.542087  1
  O  O16  1  0.561754  0.944100  0.561754  1
  O  O17  1  0.960202  0.539193  0.960202  1
  O  O18  1  0.957090  0.544384  0.543762  1
  O  O19  1  0.542087  0.949773  0.948052  1
  O  O20  1  0.266950  0.231999  0.266950  1
  O  O21  1  0.983050  0.018001  0.983050  1
