# generated using pymatgen
data_Lu3(ThCo)2
_symmetry_space_group_name_H-M   'P 1'
_cell_length_a   8.68704096
_cell_length_b   8.68704073
_cell_length_c   6.87949102
_cell_angle_alpha   84.70823667
_cell_angle_beta   84.70824623
_cell_angle_gamma   41.46892204
_symmetry_Int_Tables_number   1
_chemical_formula_structural   Lu3(ThCo)2
_chemical_formula_sum   'Lu6 Th4 Co4'
_cell_volume   342.11817635
_cell_formula_units_Z   2
loop_
 _symmetry_equiv_pos_site_id
 _symmetry_equiv_pos_as_xyz
  1  'x, y, z'
loop_
 _atom_site_type_symbol
 _atom_site_label
 _atom_site_symmetry_multiplicity
 _atom_site_fract_x
 _atom_site_fract_y
 _atom_site_fract_z
 _atom_site_occupancy
  Lu  Lu0  1  0.359935  0.213786  0.822090  1
  Lu  Lu1  1  0.786214  0.640065  0.677910  1
  Lu  Lu2  1  0.640065  0.786214  0.177910  1
  Lu  Lu3  1  0.213786  0.359935  0.322090  1
  Lu  Lu4  1  0.577043  0.422957  0.750000  1
  Lu  Lu5  1  0.422957  0.577043  0.250000  1
  Th  Th6  1  0.002891  0.801861  0.911018  1
  Th  Th7  1  0.198139  0.997109  0.588982  1
  Th  Th8  1  0.997109  0.198139  0.088982  1
  Th  Th9  1  0.801861  0.002891  0.411018  1
  Co  Co10  1  0.169877  0.605918  0.590382  1
  Co  Co11  1  0.394082  0.830123  0.909618  1
  Co  Co12  1  0.830123  0.394082  0.409618  1
  Co  Co13  1  0.605918  0.169877  0.090382  1
