# generated using pymatgen
data_Ca21Ga8HgSb6
_symmetry_space_group_name_H-M   'P 1'
_cell_length_a   11.42441062
_cell_length_b   11.42441132
_cell_length_c   11.42441100
_cell_angle_alpha   60.00000382
_cell_angle_beta   60.00000180
_cell_angle_gamma   59.99999988
_symmetry_Int_Tables_number   1
_chemical_formula_structural   Ca21Ga8HgSb6
_chemical_formula_sum   'Ca21 Ga8 Hg1 Sb6'
_cell_volume   1054.35405847
_cell_formula_units_Z   1
loop_
 _symmetry_equiv_pos_site_id
 _symmetry_equiv_pos_as_xyz
  1  'x, y, z'
loop_
 _atom_site_type_symbol
 _atom_site_label
 _atom_site_symmetry_multiplicity
 _atom_site_fract_x
 _atom_site_fract_y
 _atom_site_fract_z
 _atom_site_occupancy
  Ca  Ca0  1  0.868585  0.868585  0.394244  1
  Ca  Ca1  1  0.605756  0.131415  0.131415  1
  Ca  Ca2  1  0.868585  0.394244  0.868585  1
  Ca  Ca3  1  0.131415  0.131415  0.131415  1
  Ca  Ca4  1  0.394244  0.868585  0.868585  1
  Ca  Ca5  1  0.868585  0.868585  0.868585  1
  Ca  Ca6  1  0.185596  0.814404  0.500000  1
  Ca  Ca7  1  0.814404  0.500000  0.500000  1
  Ca  Ca8  1  0.131415  0.131415  0.605756  1
  Ca  Ca9  1  0.814404  0.185596  0.500000  1
  Ca  Ca10  1  0.185596  0.500000  0.500000  1
  Ca  Ca11  1  0.131415  0.605756  0.131415  1
  Ca  Ca12  1  0.500000  0.500000  0.185596  1
  Ca  Ca13  1  0.500000  0.185596  0.814404  1
  Ca  Ca14  1  0.500000  0.814404  0.185596  1
  Ca  Ca15  1  0.500000  0.500000  0.814404  1
  Ca  Ca16  1  0.500000  0.185596  0.500000  1
  Ca  Ca17  1  0.185596  0.500000  0.814404  1
  Ca  Ca18  1  0.000000  0.000000  0.000000  1
  Ca  Ca19  1  0.500000  0.814404  0.500000  1
  Ca  Ca20  1  0.814404  0.500000  0.185596  1
  Ga  Ga21  1  0.690679  0.927965  0.690679  1
  Ga  Ga22  1  0.690679  0.690679  0.927965  1
  Ga  Ga23  1  0.690679  0.690679  0.690679  1
  Ga  Ga24  1  0.309321  0.072035  0.309321  1
  Ga  Ga25  1  0.927965  0.690679  0.690679  1
  Ga  Ga26  1  0.309321  0.309321  0.072035  1
  Ga  Ga27  1  0.072035  0.309321  0.309321  1
  Ga  Ga28  1  0.309321  0.309321  0.309321  1
  Hg  Hg29  1  0.500000  0.500000  0.500000  1
  Sb  Sb30  1  0.792995  0.207005  0.792995  1
  Sb  Sb31  1  0.792995  0.207005  0.207005  1
  Sb  Sb32  1  0.207005  0.792995  0.207005  1
  Sb  Sb33  1  0.207005  0.792995  0.792995  1
  Sb  Sb34  1  0.792995  0.792995  0.207005  1
  Sb  Sb35  1  0.207005  0.207005  0.792995  1
