# generated using pymatgen
data_Ho16Ga6OsPt
_symmetry_space_group_name_H-M   'P 1'
_cell_length_a   10.03498400
_cell_length_b   10.03498394
_cell_length_c   7.00308800
_cell_angle_alpha   90.00000000
_cell_angle_beta   90.00000000
_cell_angle_gamma   120.00000020
_symmetry_Int_Tables_number   1
_chemical_formula_structural   Ho16Ga6OsPt
_chemical_formula_sum   'Ho16 Ga6 Os1 Pt1'
_cell_volume   610.73608471
_cell_formula_units_Z   1
loop_
 _symmetry_equiv_pos_site_id
 _symmetry_equiv_pos_as_xyz
  1  'x, y, z'
loop_
 _atom_site_type_symbol
 _atom_site_label
 _atom_site_symmetry_multiplicity
 _atom_site_fract_x
 _atom_site_fract_y
 _atom_site_fract_z
 _atom_site_occupancy
  Ho  Ho0  1  0.169892  0.830108  0.510937  1
  Ho  Ho1  1  0.660215  0.830108  0.510937  1
  Ho  Ho2  1  0.169892  0.339785  0.510937  1
  Ho  Ho3  1  0.828887  0.171113  0.009666  1
  Ho  Ho4  1  0.342227  0.171113  0.009666  1
  Ho  Ho5  1  0.828887  0.657773  0.009666  1
  Ho  Ho6  1  0.333333  0.666667  0.839639  1
  Ho  Ho7  1  0.666667  0.333333  0.338655  1
  Ho  Ho8  1  0.467410  0.532590  0.203212  1
  Ho  Ho9  1  0.065181  0.532590  0.203212  1
  Ho  Ho10  1  0.467410  0.934819  0.203212  1
  Ho  Ho11  1  0.535557  0.464443  0.706704  1
  Ho  Ho12  1  0.928886  0.464443  0.706704  1
  Ho  Ho13  1  0.535557  0.071114  0.706704  1
  Ho  Ho14  1  0.000000  0.000000  0.235309  1
  Ho  Ho15  1  0.000000  0.000000  0.733750  1
  Ga  Ga16  1  0.164210  0.835790  0.957023  1
  Ga  Ga17  1  0.671579  0.835790  0.957023  1
  Ga  Ga18  1  0.164210  0.328421  0.957023  1
  Ga  Ga19  1  0.836721  0.163279  0.457241  1
  Ga  Ga20  1  0.326560  0.163279  0.457241  1
  Ga  Ga21  1  0.836721  0.673440  0.457241  1
  Os  Os22  1  0.666667  0.333333  0.946811  1
  Pt  Pt23  1  0.333333  0.666667  0.445529  1
