# generated using pymatgen
data_Pr2Dy5FeI12
_symmetry_space_group_name_H-M   'P 1'
_cell_length_a   9.86358243
_cell_length_b   9.83538370
_cell_length_c   9.88836861
_cell_angle_alpha   106.84833547
_cell_angle_beta   106.65158434
_cell_angle_gamma   107.47295331
_symmetry_Int_Tables_number   1
_chemical_formula_structural   Pr2Dy5FeI12
_chemical_formula_sum   'Pr2 Dy5 Fe1 I12'
_cell_volume   799.06948801
_cell_formula_units_Z   1
loop_
 _symmetry_equiv_pos_site_id
 _symmetry_equiv_pos_as_xyz
  1  'x, y, z'
loop_
 _atom_site_type_symbol
 _atom_site_label
 _atom_site_symmetry_multiplicity
 _atom_site_fract_x
 _atom_site_fract_y
 _atom_site_fract_z
 _atom_site_occupancy
  Pr  Pr0  1  0.591939  0.786612  0.521860  1
  Pr  Pr1  1  0.408061  0.213388  0.478140  1
  Dy  Dy2  1  0.791980  0.524771  0.592992  1
  Dy  Dy3  1  0.521868  0.593115  0.790394  1
  Dy  Dy4  1  0.208020  0.475229  0.407008  1
  Dy  Dy5  1  0.478132  0.406885  0.209606  1
  Dy  Dy6  1  0.000000  0.000000  0.000000  1
  Fe  Fe7  1  0.500000  0.500000  0.500000  1
  I  I8  1  0.737327  0.191617  0.578846  1
  I  I9  1  0.970482  0.886852  0.667695  1
  I  I10  1  0.570657  0.719056  0.172800  1
  I  I11  1  0.114795  0.337971  0.039837  1
  I  I12  1  0.664033  0.962165  0.892445  1
  I  I13  1  0.885205  0.662029  0.960163  1
  I  I14  1  0.029518  0.113148  0.332305  1
  I  I15  1  0.818133  0.428256  0.277482  1
  I  I16  1  0.335967  0.037835  0.107555  1
  I  I17  1  0.262673  0.808383  0.421154  1
  I  I18  1  0.181867  0.571744  0.722518  1
  I  I19  1  0.429343  0.280944  0.827200  1
