# generated using pymatgen
data_Ac5Pt19
_symmetry_space_group_name_H-M   'P 1'
_cell_length_a   5.56644669
_cell_length_b   5.56644532
_cell_length_c   18.25236707
_cell_angle_alpha   81.22900063
_cell_angle_beta   81.22901287
_cell_angle_gamma   59.99999889
_symmetry_Int_Tables_number   1
_chemical_formula_structural   Ac5Pt19
_chemical_formula_sum   'Ac5 Pt19'
_cell_volume   482.13333926
_cell_formula_units_Z   1
loop_
 _symmetry_equiv_pos_site_id
 _symmetry_equiv_pos_as_xyz
  1  'x, y, z'
loop_
 _atom_site_type_symbol
 _atom_site_label
 _atom_site_symmetry_multiplicity
 _atom_site_fract_x
 _atom_site_fract_y
 _atom_site_fract_z
 _atom_site_occupancy
  Ac  Ac0  1  0.000000  0.000000  0.000000  1
  Ac  Ac1  1  0.922005  0.922005  0.233986  1
  Ac  Ac2  1  0.077995  0.077995  0.766014  1
  Ac  Ac3  1  0.847955  0.847955  0.456135  1
  Ac  Ac4  1  0.152045  0.152045  0.543865  1
  Pt  Pt5  1  0.500000  0.500000  0.500000  1
  Pt  Pt6  1  0.749334  0.749335  0.751997  1
  Pt  Pt7  1  0.250665  0.250665  0.248004  1
  Pt  Pt8  1  0.666746  0.666746  0.999763  1
  Pt  Pt9  1  0.333254  0.333254  0.000237  1
  Pt  Pt10  1  0.584488  0.584488  0.246538  1
  Pt  Pt11  1  0.415512  0.415512  0.753462  1
  Pt  Pt12  1  0.374665  0.374665  0.372561  1
  Pt  Pt13  1  0.878109  0.374665  0.372561  1
  Pt  Pt14  1  0.374665  0.878109  0.372561  1
  Pt  Pt15  1  0.625335  0.625335  0.627439  1
  Pt  Pt16  1  0.121891  0.625335  0.627439  1
  Pt  Pt17  1  0.625335  0.121891  0.627439  1
  Pt  Pt18  1  0.458909  0.458909  0.122810  1
  Pt  Pt19  1  0.959371  0.458909  0.122810  1
  Pt  Pt20  1  0.458909  0.959371  0.122810  1
  Pt  Pt21  1  0.541091  0.541091  0.877190  1
  Pt  Pt22  1  0.040629  0.541091  0.877190  1
  Pt  Pt23  1  0.541091  0.040629  0.877190  1
