# generated using pymatgen
data_Ta4Be3Al4Ga
_symmetry_space_group_name_H-M   'P 1'
_cell_length_a   4.89358903
_cell_length_b   4.89359034
_cell_length_c   8.09795600
_cell_angle_alpha   90.00000000
_cell_angle_beta   90.00000000
_cell_angle_gamma   119.30771944
_symmetry_Int_Tables_number   1
_chemical_formula_structural   Ta4Be3Al4Ga
_chemical_formula_sum   'Ta4 Be3 Al4 Ga1'
_cell_volume   169.10196761
_cell_formula_units_Z   1
loop_
 _symmetry_equiv_pos_site_id
 _symmetry_equiv_pos_as_xyz
  1  'x, y, z'
loop_
 _atom_site_type_symbol
 _atom_site_label
 _atom_site_symmetry_multiplicity
 _atom_site_fract_x
 _atom_site_fract_y
 _atom_site_fract_z
 _atom_site_occupancy
  Ta  Ta0  1  0.664615  0.335385  0.308215  1
  Ta  Ta1  1  0.336337  0.663663  0.186530  1
  Ta  Ta2  1  0.336337  0.663663  0.813470  1
  Ta  Ta3  1  0.664615  0.335385  0.691785  1
  Be  Be4  1  0.166732  0.833268  0.500000  1
  Be  Be5  1  0.355435  0.190449  0.000000  1
  Be  Be6  1  0.809551  0.644565  0.000000  1
  Al  Al7  1  0.013827  0.986173  0.239113  1
  Al  Al8  1  0.013827  0.986173  0.760887  1
  Al  Al9  1  0.653683  0.836006  0.500000  1
  Al  Al10  1  0.163994  0.346317  0.500000  1
  Ga  Ga11  1  0.821090  0.178910  0.000000  1
