# generated using pymatgen
data_BaTb3(ZnSn)4
_symmetry_space_group_name_H-M   'P 1'
_cell_length_a   4.58272600
_cell_length_b   4.58272538
_cell_length_c   16.84494400
_cell_angle_alpha   90.00000000
_cell_angle_beta   90.00000000
_cell_angle_gamma   119.99999001
_symmetry_Int_Tables_number   1
_chemical_formula_structural   BaTb3(ZnSn)4
_chemical_formula_sum   'Ba1 Tb3 Zn4 Sn4'
_cell_volume   306.37122413
_cell_formula_units_Z   1
loop_
 _symmetry_equiv_pos_site_id
 _symmetry_equiv_pos_as_xyz
  1  'x, y, z'
loop_
 _atom_site_type_symbol
 _atom_site_label
 _atom_site_symmetry_multiplicity
 _atom_site_fract_x
 _atom_site_fract_y
 _atom_site_fract_z
 _atom_site_occupancy
  Ba  Ba0  1  0.000000  0.000000  0.500000  1
  Tb  Tb1  1  0.000000  0.000000  0.765984  1
  Tb  Tb2  1  0.000000  0.000000  0.234016  1
  Tb  Tb3  1  0.000000  0.000000  0.000000  1
  Zn  Zn4  1  0.666667  0.333333  0.850889  1
  Zn  Zn5  1  0.666667  0.333333  0.683684  1
  Zn  Zn6  1  0.333333  0.666667  0.149111  1
  Zn  Zn7  1  0.333333  0.666667  0.316316  1
  Sn  Sn8  1  0.666667  0.333333  0.104172  1
  Sn  Sn9  1  0.666667  0.333333  0.358737  1
  Sn  Sn10  1  0.333333  0.666667  0.895828  1
  Sn  Sn11  1  0.333333  0.666667  0.641263  1
