# generated using pymatgen
data_Tb10AgPPb6
_symmetry_space_group_name_H-M   'P 1'
_cell_length_a   9.25043600
_cell_length_b   9.25043500
_cell_length_c   6.81137900
_cell_angle_alpha   90.00000000
_cell_angle_beta   90.00000000
_cell_angle_gamma   119.99999641
_symmetry_Int_Tables_number   1
_chemical_formula_structural   Tb10AgPPb6
_chemical_formula_sum   'Tb10 Ag1 P1 Pb6'
_cell_volume   504.76595149
_cell_formula_units_Z   1
loop_
 _symmetry_equiv_pos_site_id
 _symmetry_equiv_pos_as_xyz
  1  'x, y, z'
loop_
 _atom_site_type_symbol
 _atom_site_label
 _atom_site_symmetry_multiplicity
 _atom_site_fract_x
 _atom_site_fract_y
 _atom_site_fract_z
 _atom_site_occupancy
  Tb  Tb0  1  0.251118  0.000000  0.228454  1
  Tb  Tb1  1  0.748882  0.000000  0.771546  1
  Tb  Tb2  1  0.000000  0.251118  0.228454  1
  Tb  Tb3  1  0.000000  0.748882  0.771546  1
  Tb  Tb4  1  0.748882  0.748882  0.228454  1
  Tb  Tb5  1  0.251118  0.251118  0.771546  1
  Tb  Tb6  1  0.333333  0.666667  0.000000  1
  Tb  Tb7  1  0.666667  0.333333  0.000000  1
  Tb  Tb8  1  0.666667  0.333333  0.500000  1
  Tb  Tb9  1  0.333333  0.666667  0.500000  1
  Ag  Ag10  1  0.000000  0.000000  0.500000  1
  P  P11  1  0.000000  0.000000  0.000000  1
  Pb  Pb12  1  0.606566  0.000000  0.250374  1
  Pb  Pb13  1  0.393434  0.000000  0.749626  1
  Pb  Pb14  1  0.000000  0.606566  0.250374  1
  Pb  Pb15  1  0.000000  0.393434  0.749626  1
  Pb  Pb16  1  0.393434  0.393434  0.250374  1
  Pb  Pb17  1  0.606566  0.606566  0.749626  1
