# generated using pymatgen
data_Ac2Al16MoPt8
_symmetry_space_group_name_H-M   'P 1'
_cell_length_a   11.27899742
_cell_length_b   11.27899898
_cell_length_c   11.27899900
_cell_angle_alpha   158.64584236
_cell_angle_beta   116.77723406
_cell_angle_gamma   67.55042188
_symmetry_Int_Tables_number   1
_chemical_formula_structural   Ac2Al16MoPt8
_chemical_formula_sum   'Ac2 Al16 Mo1 Pt8'
_cell_volume   463.30115407
_cell_formula_units_Z   1
loop_
 _symmetry_equiv_pos_site_id
 _symmetry_equiv_pos_as_xyz
  1  'x, y, z'
loop_
 _atom_site_type_symbol
 _atom_site_label
 _atom_site_symmetry_multiplicity
 _atom_site_fract_x
 _atom_site_fract_y
 _atom_site_fract_z
 _atom_site_occupancy
  Ac  Ac0  1  0.229784  0.230821  0.998962  1
  Ac  Ac1  1  0.768141  0.769179  0.998962  1
  Al  Al2  1  0.277687  0.394486  0.883201  1
  Al  Al3  1  0.092052  0.926256  0.165797  1
  Al  Al4  1  0.499627  0.199331  0.300296  1
  Al  Al5  1  0.239541  0.073744  0.165797  1
  Al  Al6  1  0.911945  0.418354  0.493592  1
  Al  Al7  1  0.720635  0.596505  0.124130  1
  Al  Al8  1  0.906439  0.209337  0.697102  1
  Al  Al9  1  0.487765  0.790663  0.697102  1
  Al  Al10  1  0.388959  0.000000  0.388959  1
  Al  Al11  1  0.627119  0.000000  0.627119  1
  Al  Al12  1  0.488715  0.605514  0.883201  1
  Al  Al13  1  0.100966  0.800669  0.300296  1
  Al  Al14  1  0.907470  0.086908  0.820563  1
  Al  Al15  1  0.733655  0.913092  0.820563  1
  Al  Al16  1  0.527624  0.403495  0.124130  1
  Al  Al17  1  0.075238  0.581646  0.493592  1
  Mo  Mo18  1  0.788242  0.500000  0.288242  1
  Pt  Pt19  1  0.029167  0.345245  0.683923  1
  Pt  Pt20  1  0.625623  0.123086  0.502537  1
  Pt  Pt21  1  0.255631  0.500000  0.755631  1
  Pt  Pt22  1  0.379452  0.876914  0.502537  1
  Pt  Pt23  1  0.983517  0.000000  0.983517  1
  Pt  Pt24  1  0.643492  0.335328  0.308164  1
  Pt  Pt25  1  0.338678  0.654755  0.683923  1
  Pt  Pt26  1  0.972836  0.664672  0.308164  1
