# generated using pymatgen
data_Tb2Y10TcRu3
_symmetry_space_group_name_H-M   'P 1'
_cell_length_a   6.34511903
_cell_length_b   7.38351479
_cell_length_c   9.24414400
_cell_angle_alpha   90.00000000
_cell_angle_beta   90.00000000
_cell_angle_gamma   89.96828581
_symmetry_Int_Tables_number   1
_chemical_formula_structural   Tb2Y10TcRu3
_chemical_formula_sum   'Tb2 Y10 Tc1 Ru3'
_cell_volume   433.08142566
_cell_formula_units_Z   1
loop_
 _symmetry_equiv_pos_site_id
 _symmetry_equiv_pos_as_xyz
  1  'x, y, z'
loop_
 _atom_site_type_symbol
 _atom_site_label
 _atom_site_symmetry_multiplicity
 _atom_site_fract_x
 _atom_site_fract_y
 _atom_site_fract_z
 _atom_site_occupancy
  Tb  Tb0  1  0.364796  0.955685  0.750000  1
  Tb  Tb1  1  0.134682  0.456276  0.750000  1
  Y  Y2  1  0.631740  0.040893  0.250000  1
  Y  Y3  1  0.872341  0.542384  0.250000  1
  Y  Y4  1  0.167358  0.176189  0.065077  1
  Y  Y5  1  0.831711  0.823772  0.935369  1
  Y  Y6  1  0.665868  0.324518  0.936753  1
  Y  Y7  1  0.831711  0.823772  0.564631  1
  Y  Y8  1  0.332511  0.676142  0.064692  1
  Y  Y9  1  0.167358  0.176189  0.434923  1
  Y  Y10  1  0.332511  0.676142  0.435308  1
  Y  Y11  1  0.665868  0.324518  0.563247  1
  Tc  Tc12  1  0.462436  0.385890  0.250000  1
  Ru  Ru13  1  0.535771  0.617212  0.750000  1
  Ru  Ru14  1  0.965058  0.115645  0.750000  1
  Ru  Ru15  1  0.038281  0.884774  0.250000  1
