# generated using pymatgen
data_Tb3PaGa12Tc
_symmetry_space_group_name_H-M   'P 1'
_cell_length_a   7.51668463
_cell_length_b   7.51668505
_cell_length_c   7.47428700
_cell_angle_alpha   109.35700003
_cell_angle_beta   109.35700116
_cell_angle_gamma   109.58520088
_symmetry_Int_Tables_number   1
_chemical_formula_structural   Tb3PaGa12Tc
_chemical_formula_sum   'Tb3 Pa1 Ga12 Tc1'
_cell_volume   325.54483129
_cell_formula_units_Z   1
loop_
 _symmetry_equiv_pos_site_id
 _symmetry_equiv_pos_as_xyz
  1  'x, y, z'
loop_
 _atom_site_type_symbol
 _atom_site_label
 _atom_site_symmetry_multiplicity
 _atom_site_fract_x
 _atom_site_fract_y
 _atom_site_fract_z
 _atom_site_occupancy
  Tb  Tb0  1  0.500000  0.000000  0.000000  1
  Tb  Tb1  1  0.500000  0.500000  0.500000  1
  Tb  Tb2  1  0.000000  0.500000  0.000000  1
  Pa  Pa3  1  0.000000  0.000000  0.500000  1
  Ga  Ga4  1  0.290715  0.000000  0.292916  1
  Ga  Ga5  1  0.498078  0.249039  0.749039  1
  Ga  Ga6  1  0.000000  0.709285  0.707084  1
  Ga  Ga7  1  0.709285  0.000000  0.707084  1
  Ga  Ga8  1  0.750961  0.501922  0.250961  1
  Ga  Ga9  1  0.249039  0.750961  0.500000  1
  Ga  Ga10  1  0.750961  0.249039  0.500000  1
  Ga  Ga11  1  0.709285  0.709285  0.002201  1
  Ga  Ga12  1  0.249039  0.498078  0.749039  1
  Ga  Ga13  1  0.501922  0.750961  0.250961  1
  Ga  Ga14  1  0.290715  0.290715  0.997799  1
  Ga  Ga15  1  0.000000  0.290715  0.292916  1
  Tc  Tc16  1  0.000000  0.000000  0.000000  1
