# generated using pymatgen
data_Nd2Al3SiIr3Pt
_symmetry_space_group_name_H-M   'P 1'
_cell_length_a   4.22322400
_cell_length_b   4.22322400
_cell_length_c   10.35941600
_cell_angle_alpha   90.00000000
_cell_angle_beta   90.00000000
_cell_angle_gamma   90.00000000
_symmetry_Int_Tables_number   1
_chemical_formula_structural   Nd2Al3SiIr3Pt
_chemical_formula_sum   'Nd2 Al3 Si1 Ir3 Pt1'
_cell_volume   184.76661708
_cell_formula_units_Z   1
loop_
 _symmetry_equiv_pos_site_id
 _symmetry_equiv_pos_as_xyz
  1  'x, y, z'
loop_
 _atom_site_type_symbol
 _atom_site_label
 _atom_site_symmetry_multiplicity
 _atom_site_fract_x
 _atom_site_fract_y
 _atom_site_fract_z
 _atom_site_occupancy
  Nd  Nd0  1  0.000000  0.500000  0.241177  1
  Nd  Nd1  1  0.500000  0.000000  0.758073  1
  Al  Al2  1  0.000000  0.000000  0.494710  1
  Al  Al3  1  0.500000  0.500000  0.494710  1
  Al  Al4  1  0.000000  0.500000  0.879375  1
  Si  Si5  1  0.500000  0.000000  0.122707  1
  Ir  Ir6  1  0.000000  0.000000  0.007371  1
  Ir  Ir7  1  0.500000  0.500000  0.007371  1
  Ir  Ir8  1  0.500000  0.000000  0.359428  1
  Pt  Pt9  1  0.000000  0.500000  0.635079  1
