# generated using pymatgen
data_Dy3Mg3HgRuPt
_symmetry_space_group_name_H-M   'P 1'
_cell_length_a   7.56004900
_cell_length_b   7.56004919
_cell_length_c   4.05603900
_cell_angle_alpha   90.00000000
_cell_angle_beta   90.00000000
_cell_angle_gamma   119.99999478
_symmetry_Int_Tables_number   1
_chemical_formula_structural   Dy3Mg3HgRuPt
_chemical_formula_sum   'Dy3 Mg3 Hg1 Ru1 Pt1'
_cell_volume   200.76222888
_cell_formula_units_Z   1
loop_
 _symmetry_equiv_pos_site_id
 _symmetry_equiv_pos_as_xyz
  1  'x, y, z'
loop_
 _atom_site_type_symbol
 _atom_site_label
 _atom_site_symmetry_multiplicity
 _atom_site_fract_x
 _atom_site_fract_y
 _atom_site_fract_z
 _atom_site_occupancy
  Dy  Dy0  1  0.037937  0.616861  0.500000  1
  Dy  Dy1  1  0.578922  0.962063  0.500000  1
  Dy  Dy2  1  0.383139  0.421078  0.500000  1
  Mg  Mg3  1  0.998890  0.242473  0.000000  1
  Mg  Mg4  1  0.243583  0.001110  0.000000  1
  Mg  Mg5  1  0.757527  0.756417  0.000000  1
  Hg  Hg6  1  0.666667  0.333333  0.000000  1
  Ru  Ru7  1  0.333333  0.666667  0.000000  1
  Pt  Pt8  1  0.000000  0.000000  0.500000  1
