# generated using pymatgen
data_Hf8ZnMo3Ir4
_symmetry_space_group_name_H-M   'P 1'
_cell_length_a   6.57432600
_cell_length_b   4.64781800
_cell_length_c   9.30180200
_cell_angle_alpha   90.00000000
_cell_angle_beta   89.99987484
_cell_angle_gamma   90.00000000
_symmetry_Int_Tables_number   1
_chemical_formula_structural   Hf8ZnMo3Ir4
_chemical_formula_sum   'Hf8 Zn1 Mo3 Ir4'
_cell_volume   284.22838010
_cell_formula_units_Z   1
loop_
 _symmetry_equiv_pos_site_id
 _symmetry_equiv_pos_as_xyz
  1  'x, y, z'
loop_
 _atom_site_type_symbol
 _atom_site_label
 _atom_site_symmetry_multiplicity
 _atom_site_fract_x
 _atom_site_fract_y
 _atom_site_fract_z
 _atom_site_occupancy
  Hf  Hf0  1  0.005697  0.750000  0.125004  1
  Hf  Hf1  1  0.494291  0.750000  0.125005  1
  Hf  Hf2  1  0.002410  0.250001  0.378132  1
  Hf  Hf3  1  0.497584  0.250001  0.378131  1
  Hf  Hf4  1  0.498961  0.750000  0.625021  1
  Hf  Hf5  1  0.001048  0.750000  0.625022  1
  Hf  Hf6  1  0.497596  0.250001  0.871861  1
  Hf  Hf7  1  0.002416  0.250001  0.871863  1
  Zn  Zn8  1  0.749993  0.250001  0.124980  1
  Mo  Mo9  1  0.249996  0.750000  0.373408  1
  Mo  Mo10  1  0.750004  0.250001  0.625001  1
  Mo  Mo11  1  0.250004  0.750000  0.876585  1
  Ir  Ir12  1  0.249997  0.250001  0.124994  1
  Ir  Ir13  1  0.749996  0.750000  0.371481  1
  Ir  Ir14  1  0.250004  0.250001  0.624994  1
  Ir  Ir15  1  0.750004  0.750000  0.878518  1
