# generated using pymatgen
data_Dy4Be7BRu10
_symmetry_space_group_name_H-M   'P 1'
_cell_length_a   3.21528800
_cell_length_b   8.94950063
_cell_length_c   10.33048928
_cell_angle_alpha   90.16753252
_cell_angle_beta   90.00000000
_cell_angle_gamma   90.00000000
_symmetry_Int_Tables_number   1
_chemical_formula_structural   Dy4Be7BRu10
_chemical_formula_sum   'Dy4 Be7 B1 Ru10'
_cell_volume   297.26085148
_cell_formula_units_Z   1
loop_
 _symmetry_equiv_pos_site_id
 _symmetry_equiv_pos_as_xyz
  1  'x, y, z'
loop_
 _atom_site_type_symbol
 _atom_site_label
 _atom_site_symmetry_multiplicity
 _atom_site_fract_x
 _atom_site_fract_y
 _atom_site_fract_z
 _atom_site_occupancy
  Dy  Dy0  1  0.500000  0.834476  0.181800  1
  Dy  Dy1  1  0.500000  0.162848  0.817477  1
  Dy  Dy2  1  0.500000  0.664817  0.683391  1
  Dy  Dy3  1  0.500000  0.339239  0.317219  1
  Be  Be4  1  0.500000  0.962674  0.592287  1
  Be  Be5  1  0.500000  0.033327  0.406698  1
  Be  Be6  1  0.500000  0.844226  0.905834  1
  Be  Be7  1  0.500000  0.162909  0.095074  1
  Be  Be8  1  0.500000  0.655998  0.403797  1
  Be  Be9  1  0.500000  0.335408  0.592454  1
  Be  Be10  1  0.500000  0.468454  0.909651  1
  B  B11  1  0.500000  0.534372  0.091424  1
  Ru  Ru12  1  0.000000  0.655203  0.962604  1
  Ru  Ru13  1  0.000000  0.352294  0.048102  1
  Ru  Ru14  1  0.000000  0.840892  0.452697  1
  Ru  Ru15  1  0.000000  0.153343  0.545250  1
  Ru  Ru16  1  0.000000  0.004649  0.002438  1
  Ru  Ru17  1  0.000000  0.409195  0.753059  1
  Ru  Ru18  1  0.000000  0.586327  0.235549  1
  Ru  Ru19  1  0.000000  0.501303  0.503024  1
  Ru  Ru20  1  0.000000  0.908181  0.746212  1
  Ru  Ru21  1  0.000000  0.089863  0.253957  1
