# generated using pymatgen
data_Lu8InAgPt2
_symmetry_space_group_name_H-M   'P 1'
_cell_length_a   9.45375707
_cell_length_b   9.45375777
_cell_length_c   9.44129800
_cell_angle_alpha   60.04359553
_cell_angle_beta   60.04359308
_cell_angle_gamma   59.68062944
_symmetry_Int_Tables_number   1
_chemical_formula_structural   Lu8InAgPt2
_chemical_formula_sum   'Lu16 In2 Ag2 Pt4'
_cell_volume   595.59479666
_cell_formula_units_Z   2
loop_
 _symmetry_equiv_pos_site_id
 _symmetry_equiv_pos_as_xyz
  1  'x, y, z'
loop_
 _atom_site_type_symbol
 _atom_site_label
 _atom_site_symmetry_multiplicity
 _atom_site_fract_x
 _atom_site_fract_y
 _atom_site_fract_z
 _atom_site_occupancy
  Lu  Lu0  1  0.603558  0.603558  0.602018  1
  Lu  Lu1  1  0.603558  0.603558  0.190867  1
  Lu  Lu2  1  0.608996  0.180877  0.605064  1
  Lu  Lu3  1  0.180877  0.608996  0.605064  1
  Lu  Lu4  1  0.061066  0.441131  0.438579  1
  Lu  Lu5  1  0.441131  0.061066  0.059224  1
  Lu  Lu6  1  0.441131  0.061066  0.438579  1
  Lu  Lu7  1  0.061066  0.441131  0.059224  1
  Lu  Lu8  1  0.441098  0.441098  0.058902  1
  Lu  Lu9  1  0.062373  0.062373  0.437627  1
  Lu  Lu10  1  0.181224  0.812026  0.815609  1
  Lu  Lu11  1  0.812026  0.181224  0.191140  1
  Lu  Lu12  1  0.812026  0.181224  0.815609  1
  Lu  Lu13  1  0.181224  0.812026  0.191140  1
  Lu  Lu14  1  0.813923  0.813923  0.186077  1
  Lu  Lu15  1  0.186860  0.186860  0.813140  1
  In  In16  1  0.832778  0.504834  0.831194  1
  In  In17  1  0.504834  0.832778  0.831194  1
  Ag  Ag18  1  0.835681  0.835681  0.834479  1
  Ag  Ag19  1  0.835681  0.835681  0.494160  1
  Pt  Pt20  1  0.393916  0.393916  0.395962  1
  Pt  Pt21  1  0.393916  0.393916  0.816206  1
  Pt  Pt22  1  0.392257  0.818801  0.394471  1
  Pt  Pt23  1  0.818801  0.392257  0.394471  1
