# generated using pymatgen
data_Np(CuP)2
_symmetry_space_group_name_H-M   'P 1'
_cell_length_a   3.91838900
_cell_length_b   3.91838976
_cell_length_c   6.34670400
_cell_angle_alpha   90.00000000
_cell_angle_beta   90.00000000
_cell_angle_gamma   120.00000206
_symmetry_Int_Tables_number   1
_chemical_formula_structural   Np(CuP)2
_chemical_formula_sum   'Np1 Cu2 P2'
_cell_volume   84.39059475
_cell_formula_units_Z   1
loop_
 _symmetry_equiv_pos_site_id
 _symmetry_equiv_pos_as_xyz
  1  'x, y, z'
loop_
 _atom_site_type_symbol
 _atom_site_label
 _atom_site_symmetry_multiplicity
 _atom_site_fract_x
 _atom_site_fract_y
 _atom_site_fract_z
 _atom_site_occupancy
  Np  Np0  1  0.000000  0.000000  0.000000  1
  Cu  Cu1  1  0.666667  0.333333  0.367990  1
  Cu  Cu2  1  0.333333  0.666667  0.632010  1
  P  P3  1  0.666667  0.333333  0.745323  1
  P  P4  1  0.333333  0.666667  0.254677  1
