# generated using pymatgen
data_PrAlCuGe
_symmetry_space_group_name_H-M   'P 1'
_cell_length_a   9.20826576
_cell_length_b   9.20826546
_cell_length_c   4.18990000
_cell_angle_alpha   90.00000000
_cell_angle_beta   90.00000000
_cell_angle_gamma   153.50117772
_symmetry_Int_Tables_number   1
_chemical_formula_structural   PrAlCuGe
_chemical_formula_sum   'Pr2 Al2 Cu2 Ge2'
_cell_volume   158.51445264
_cell_formula_units_Z   2
loop_
 _symmetry_equiv_pos_site_id
 _symmetry_equiv_pos_as_xyz
  1  'x, y, z'
loop_
 _atom_site_type_symbol
 _atom_site_label
 _atom_site_symmetry_multiplicity
 _atom_site_fract_x
 _atom_site_fract_y
 _atom_site_fract_z
 _atom_site_occupancy
  Pr  Pr0  1  0.899472  0.100528  0.750000  1
  Pr  Pr1  1  0.100528  0.899472  0.250000  1
  Al  Al2  1  0.249456  0.750544  0.750000  1
  Al  Al3  1  0.750544  0.249456  0.250000  1
  Cu  Cu4  1  0.674148  0.325852  0.750000  1
  Cu  Cu5  1  0.325852  0.674148  0.250000  1
  Ge  Ge6  1  0.540790  0.459210  0.750000  1
  Ge  Ge7  1  0.459210  0.540790  0.250000  1
