# generated using pymatgen
data_Er2Tm10CdCo4Ir
_symmetry_space_group_name_H-M   'P 1'
_cell_length_a   8.18088248
_cell_length_b   8.17720282
_cell_length_c   8.17827320
_cell_angle_alpha   111.26667045
_cell_angle_beta   110.68709558
_cell_angle_gamma   106.47242429
_symmetry_Int_Tables_number   1
_chemical_formula_structural   Er2Tm10CdCo4Ir
_chemical_formula_sum   'Er2 Tm10 Cd1 Co4 Ir1'
_cell_volume   420.44145070
_cell_formula_units_Z   1
loop_
 _symmetry_equiv_pos_site_id
 _symmetry_equiv_pos_as_xyz
  1  'x, y, z'
loop_
 _atom_site_type_symbol
 _atom_site_label
 _atom_site_symmetry_multiplicity
 _atom_site_fract_x
 _atom_site_fract_y
 _atom_site_fract_z
 _atom_site_occupancy
  Er  Er0  1  0.584943  0.278726  0.305759  1
  Er  Er1  1  0.181524  0.217861  0.399583  1
  Tm  Tm2  1  0.181110  0.781139  0.962510  1
  Tm  Tm3  1  0.684509  0.491396  0.808042  1
  Tm  Tm4  1  0.683895  0.876194  0.192908  1
  Tm  Tm5  1  0.973540  0.278936  0.694957  1
  Tm  Tm6  1  0.026771  0.720791  0.305670  1
  Tm  Tm7  1  0.316058  0.123278  0.807020  1
  Tm  Tm8  1  0.315912  0.509313  0.192639  1
  Tm  Tm9  1  0.818297  0.218233  0.036323  1
  Tm  Tm10  1  0.818510  0.781998  0.600267  1
  Tm  Tm11  1  0.415890  0.721534  0.694879  1
  Cd  Cd12  1  0.500081  0.999779  0.500266  1
  Co  Co13  1  0.886649  0.886911  0.999336  1
  Co  Co14  1  0.372889  0.500258  0.873361  1
  Co  Co15  1  0.626682  0.500017  0.126528  1
  Co  Co16  1  0.111758  0.112555  0.998747  1
  Ir  Ir17  1  0.000981  0.501077  0.501204  1
