# generated using pymatgen
data_Sr6Sn8AsI
_symmetry_space_group_name_H-M   'P 1'
_cell_length_a   9.01836360
_cell_length_b   9.01836413
_cell_length_c   9.01836480
_cell_angle_alpha   120.40833181
_cell_angle_beta   120.40833241
_cell_angle_gamma   89.29419613
_symmetry_Int_Tables_number   1
_chemical_formula_structural   Sr6Sn8AsI
_chemical_formula_sum   'Sr6 Sn8 As1 I1'
_cell_volume   515.39929983
_cell_formula_units_Z   1
loop_
 _symmetry_equiv_pos_site_id
 _symmetry_equiv_pos_as_xyz
  1  'x, y, z'
loop_
 _atom_site_type_symbol
 _atom_site_label
 _atom_site_symmetry_multiplicity
 _atom_site_fract_x
 _atom_site_fract_y
 _atom_site_fract_z
 _atom_site_occupancy
  Sr  Sr0  1  0.235253  0.235253  0.000000  1
  Sr  Sr1  1  0.764747  0.764747  0.000000  1
  Sr  Sr2  1  0.148191  0.682468  0.830661  1
  Sr  Sr3  1  0.851809  0.317532  0.169339  1
  Sr  Sr4  1  0.682468  0.851809  0.534278  1
  Sr  Sr5  1  0.317532  0.148191  0.465722  1
  Sn  Sn6  1  0.829360  0.334107  0.784109  1
  Sn  Sn7  1  0.170640  0.665893  0.215891  1
  Sn  Sn8  1  0.549999  0.045252  0.215891  1
  Sn  Sn9  1  0.334107  0.549999  0.504748  1
  Sn  Sn10  1  0.954748  0.170640  0.504748  1
  Sn  Sn11  1  0.450001  0.954748  0.784109  1
  Sn  Sn12  1  0.665893  0.450001  0.495252  1
  Sn  Sn13  1  0.045252  0.829360  0.495252  1
  As  As14  1  0.000000  0.000000  0.000000  1
  I  I15  1  0.500000  0.500000  0.000000  1
