# generated using pymatgen
data_Dy2Y18(Ir3Rh)3
_symmetry_space_group_name_H-M   'P 1'
_cell_length_a   10.92276600
_cell_length_b   10.92397100
_cell_length_c   6.40742600
_cell_angle_alpha   90.00000000
_cell_angle_beta   90.00000000
_cell_angle_gamma   90.00229742
_symmetry_Int_Tables_number   1
_chemical_formula_structural   Dy2Y18(Ir3Rh)3
_chemical_formula_sum   'Dy2 Y18 Ir9 Rh3'
_cell_volume   764.53393561
_cell_formula_units_Z   1
loop_
 _symmetry_equiv_pos_site_id
 _symmetry_equiv_pos_as_xyz
  1  'x, y, z'
loop_
 _atom_site_type_symbol
 _atom_site_label
 _atom_site_symmetry_multiplicity
 _atom_site_fract_x
 _atom_site_fract_y
 _atom_site_fract_z
 _atom_site_occupancy
  Dy  Dy0  1  0.500000  0.500000  0.000066  1
  Dy  Dy1  1  0.500000  0.500000  0.500308  1
  Y  Y2  1  0.290666  0.088743  0.380128  1
  Y  Y3  1  0.290550  0.910746  0.879902  1
  Y  Y4  1  0.709450  0.089254  0.879902  1
  Y  Y5  1  0.709334  0.911257  0.380128  1
  Y  Y6  1  0.589188  0.790548  0.879914  1
  Y  Y7  1  0.588689  0.209336  0.380162  1
  Y  Y8  1  0.411311  0.790664  0.380162  1
  Y  Y9  1  0.410812  0.209452  0.879914  1
  Y  Y10  1  0.208572  0.411229  0.618702  1
  Y  Y11  1  0.208990  0.589098  0.121214  1
  Y  Y12  1  0.791010  0.410902  0.121214  1
  Y  Y13  1  0.791428  0.588771  0.618702  1
  Y  Y14  1  0.910838  0.708999  0.121276  1
  Y  Y15  1  0.911167  0.291408  0.618769  1
  Y  Y16  1  0.088833  0.708592  0.618769  1
  Y  Y17  1  0.089162  0.291001  0.121276  1
  Y  Y18  1  0.000000  0.000000  0.500318  1
  Y  Y19  1  0.000000  0.000000  0.000079  1
  Ir  Ir20  1  0.845507  0.153181  0.249864  1
  Ir  Ir21  1  0.845785  0.846350  0.749896  1
  Ir  Ir22  1  0.154215  0.153650  0.749896  1
  Ir  Ir23  1  0.154493  0.846819  0.249864  1
  Ir  Ir24  1  0.652858  0.346604  0.749907  1
  Ir  Ir25  1  0.652388  0.653672  0.249866  1
  Ir  Ir26  1  0.347612  0.346328  0.249866  1
  Ir  Ir27  1  0.347142  0.653396  0.749907  1
  Ir  Ir28  1  0.000000  0.500000  0.374147  1
  Rh  Rh29  1  0.500000  0.000000  0.125114  1
  Rh  Rh30  1  0.500000  0.000000  0.625469  1
  Rh  Rh31  1  0.000000  0.500000  0.875304  1
