# generated using pymatgen
data_Ti6Tc5P6W
_symmetry_space_group_name_H-M   'P 1'
_cell_length_a   7.39662240
_cell_length_b   7.37920994
_cell_length_c   7.37947567
_cell_angle_alpha   127.07784894
_cell_angle_beta   125.24729799
_cell_angle_gamma   79.57237941
_symmetry_Int_Tables_number   1
_chemical_formula_structural   Ti6Tc5P6W
_chemical_formula_sum   'Ti6 Tc5 P6 W1'
_cell_volume   253.67202640
_cell_formula_units_Z   1
loop_
 _symmetry_equiv_pos_site_id
 _symmetry_equiv_pos_as_xyz
  1  'x, y, z'
loop_
 _atom_site_type_symbol
 _atom_site_label
 _atom_site_symmetry_multiplicity
 _atom_site_fract_x
 _atom_site_fract_y
 _atom_site_fract_z
 _atom_site_occupancy
  Ti  Ti0  1  0.460921  0.249265  0.291372  1
  Ti  Ti1  1  0.539115  0.830480  0.788354  1
  Ti  Ti2  1  0.744296  0.651422  0.404812  1
  Ti  Ti3  1  0.255529  0.660468  0.906990  1
  Ti  Ti4  1  0.055414  0.843411  0.289290  1
  Ti  Ti5  1  0.944487  0.233908  0.787884  1
  Tc  Tc6  1  0.658926  0.503305  0.905701  1
  Tc  Tc7  1  0.341037  0.246778  0.844425  1
  Tc  Tc8  1  0.900925  0.244175  0.400099  1
  Tc  Tc9  1  0.099184  0.499186  0.343301  1
  Tc  Tc10  1  0.000061  0.991549  0.991624  1
  P  P11  1  0.835240  0.575662  0.746681  1
  P  P12  1  0.164777  0.911439  0.740413  1
  P  P13  1  0.670730  0.911589  0.245558  1
  P  P14  1  0.329303  0.574795  0.240884  1
  P  P15  1  0.271678  0.281719  0.509323  1
  P  P16  1  0.728328  0.237693  0.010095  1
  W  W17  1  0.500050  0.993555  0.493595  1
