# generated using pymatgen
data_Pr10Al(ZnRu2)3
_symmetry_space_group_name_H-M   'P 1'
_cell_length_a   8.55025326
_cell_length_b   8.59764057
_cell_length_c   8.55025243
_cell_angle_alpha   109.58352577
_cell_angle_beta   109.35867618
_cell_angle_gamma   109.58353653
_symmetry_Int_Tables_number   1
_chemical_formula_structural   Pr10Al(ZnRu2)3
_chemical_formula_sum   'Pr10 Al1 Zn3 Ru6'
_cell_volume   483.18281188
_cell_formula_units_Z   1
loop_
 _symmetry_equiv_pos_site_id
 _symmetry_equiv_pos_as_xyz
  1  'x, y, z'
loop_
 _atom_site_type_symbol
 _atom_site_label
 _atom_site_symmetry_multiplicity
 _atom_site_fract_x
 _atom_site_fract_y
 _atom_site_fract_z
 _atom_site_occupancy
  Pr  Pr0  1  0.251127  0.685072  0.437464  1
  Pr  Pr1  1  0.749009  0.814467  0.062413  1
  Pr  Pr2  1  0.437587  0.252054  0.686596  1
  Pr  Pr3  1  0.686337  0.433945  0.248873  1
  Pr  Pr4  1  0.062536  0.747608  0.813663  1
  Pr  Pr5  1  0.813404  0.065458  0.750991  1
  Pr  Pr6  1  0.220926  0.221488  0.221147  1
  Pr  Pr7  1  0.500221  0.000562  0.279074  1
  Pr  Pr8  1  0.278853  0.500341  0.999779  1
  Pr  Pr9  1  0.000000  0.279078  0.500000  1
  Al  Al10  1  0.000000  0.909012  0.500000  1
  Zn  Zn11  1  0.590432  0.589654  0.588439  1
  Zn  Zn12  1  0.498007  0.999222  0.909568  1
  Zn  Zn13  1  0.911561  0.501216  0.001993  1
  Ru  Ru14  1  0.241968  0.120295  0.866435  1
  Ru  Ru15  1  0.748791  0.373028  0.621955  1
  Ru  Ru16  1  0.878044  0.251073  0.126836  1
  Ru  Ru17  1  0.124467  0.878326  0.258032  1
  Ru  Ru18  1  0.633565  0.753861  0.375533  1
  Ru  Ru19  1  0.373164  0.624238  0.751209  1
