# generated using pymatgen
data_Li6Dy5Tl(TeO6)4
_symmetry_space_group_name_H-M   'P 1'
_cell_length_a   10.76213890
_cell_length_b   10.74983417
_cell_length_c   10.75877796
_cell_angle_alpha   109.49086036
_cell_angle_beta   109.53708962
_cell_angle_gamma   109.37544424
_symmetry_Int_Tables_number   1
_chemical_formula_structural   Li6Dy5Tl(TeO6)4
_chemical_formula_sum   'Li12 Dy10 Tl2 Te8 O48'
_cell_volume   958.28732587
_cell_formula_units_Z   2
loop_
 _symmetry_equiv_pos_site_id
 _symmetry_equiv_pos_as_xyz
  1  'x, y, z'
loop_
 _atom_site_type_symbol
 _atom_site_label
 _atom_site_symmetry_multiplicity
 _atom_site_fract_x
 _atom_site_fract_y
 _atom_site_fract_z
 _atom_site_occupancy
  Li  Li0  1  0.251836  0.374389  0.125068  1
  Li  Li1  1  0.373233  0.750680  0.125067  1
  Li  Li2  1  0.126454  0.874609  0.249229  1
  Li  Li3  1  0.622775  0.374621  0.249230  1
  Li  Li4  1  0.126137  0.251890  0.377126  1
  Li  Li5  1  0.750991  0.125241  0.377125  1
  Li  Li6  1  0.249977  0.874823  0.624918  1
  Li  Li7  1  0.874938  0.750094  0.624918  1
  Li  Li8  1  0.874692  0.125422  0.748155  1
  Li  Li9  1  0.373460  0.622731  0.748150  1
  Li  Li10  1  0.750007  0.625699  0.875714  1
  Li  Li11  1  0.625709  0.250018  0.875717  1
  Dy  Dy12  1  0.876617  0.626617  0.253232  1
  Dy  Dy13  1  0.374944  0.124945  0.249887  1
  Dy  Dy14  1  0.624216  0.748338  0.374413  1
  Dy  Dy15  1  0.250197  0.626076  0.374414  1
  Dy  Dy16  1  0.750155  0.375397  0.625253  1
  Dy  Dy17  1  0.375098  0.249856  0.625251  1
  Dy  Dy18  1  0.125239  0.375238  0.750476  1
  Dy  Dy19  1  0.624637  0.874640  0.749277  1
  Dy  Dy20  1  0.249784  0.124742  0.874694  1
  Dy  Dy21  1  0.124909  0.749952  0.874694  1
  Tl  Tl22  1  0.749475  0.874769  0.124481  1
  Tl  Tl23  1  0.875007  0.249715  0.124483  1
  Te  Te24  1  0.000668  0.000336  0.999327  1
  Te  Te25  1  0.498659  0.998991  0.999327  1
  Te  Te26  1  0.499277  0.499702  0.999897  1
  Te  Te27  1  0.000622  0.500195  0.999898  1
  Te  Te28  1  0.001029  0.000288  0.500364  1
  Te  Te29  1  0.500253  0.000300  0.500142  1
  Te  Te30  1  0.999335  0.500077  0.500364  1
  Te  Te31  1  0.499890  0.499844  0.500142  1
  O  O32  1  0.700218  0.620243  0.027674  1
  O  O33  1  0.827457  0.407430  0.027674  1
  O  O34  1  0.200002  0.171458  0.077835  1
  O  O35  1  0.377834  0.906377  0.077834  1
  O  O36  1  0.472940  0.171876  0.093540  1
  O  O37  1  0.120602  0.921664  0.093539  1
  O  O38  1  0.520164  0.694228  0.119490  1
  O  O39  1  0.099327  0.425261  0.119489  1
  O  O40  1  0.696327  0.077128  0.174308  1
  O  O41  1  0.977982  0.097182  0.174310  1
  O  O42  1  0.621322  0.527427  0.199107  1
  O  O43  1  0.077786  0.671679  0.199108  1
  O  O44  1  0.826023  0.425466  0.306106  1
  O  O45  1  0.980083  0.880638  0.306105  1
  O  O46  1  0.421686  0.801068  0.328290  1
  O  O47  1  0.406603  0.527218  0.328288  1
  O  O48  1  0.800030  0.972367  0.380120  1
  O  O49  1  0.080091  0.407754  0.380121  1
  O  O50  1  0.577727  0.378955  0.406148  1
  O  O51  1  0.328420  0.027192  0.406147  1
  O  O52  1  0.328276  0.301077  0.422262  1
  O  O53  1  0.593986  0.121186  0.422261  1
  O  O54  1  0.878991  0.801065  0.473020  1
  O  O55  1  0.094030  0.671955  0.473020  1
  O  O56  1  0.121127  0.199522  0.527833  1
  O  O57  1  0.906707  0.328310  0.527831  1
  O  O58  1  0.406485  0.879577  0.578313  1
  O  O59  1  0.671829  0.698736  0.578310  1
  O  O60  1  0.671725  0.972649  0.593274  1
  O  O61  1  0.421550  0.620627  0.593271  1
  O  O62  1  0.922498  0.594500  0.622456  1
  O  O63  1  0.199957  0.027955  0.622455  1
  O  O64  1  0.593996  0.473131  0.672237  1
  O  O65  1  0.578241  0.199109  0.672237  1
  O  O66  1  0.026782  0.120847  0.698628  1
  O  O67  1  0.171847  0.577783  0.698629  1
  O  O68  1  0.921486  0.328313  0.800553  1
  O  O69  1  0.379067  0.472239  0.800552  1
  O  O70  1  0.027547  0.905260  0.827708  1
  O  O71  1  0.300160  0.922449  0.827711  1
  O  O72  1  0.905603  0.578091  0.879426  1
  O  O73  1  0.473823  0.301333  0.879424  1
  O  O74  1  0.879946  0.074266  0.900105  1
  O  O75  1  0.520157  0.825838  0.900103  1
  O  O76  1  0.799740  0.827138  0.919552  1
  O  O77  1  0.619810  0.092413  0.919552  1
  O  O78  1  0.300495  0.377439  0.971800  1
  O  O79  1  0.171308  0.594362  0.971803  1
