# generated using pymatgen
data_Dy9Ho(AlTe)4
_symmetry_space_group_name_H-M   'P 1'
_cell_length_a   8.63314612
_cell_length_b   8.63314757
_cell_length_c   7.89352700
_cell_angle_alpha   90.00957015
_cell_angle_beta   90.00956351
_cell_angle_gamma   125.78329883
_symmetry_Int_Tables_number   1
_chemical_formula_structural   Dy9Ho(AlTe)4
_chemical_formula_sum   'Dy9 Ho1 Al4 Te4'
_cell_volume   477.26064895
_cell_formula_units_Z   1
loop_
 _symmetry_equiv_pos_site_id
 _symmetry_equiv_pos_as_xyz
  1  'x, y, z'
loop_
 _atom_site_type_symbol
 _atom_site_label
 _atom_site_symmetry_multiplicity
 _atom_site_fract_x
 _atom_site_fract_y
 _atom_site_fract_z
 _atom_site_occupancy
  Dy  Dy0  1  0.000000  0.000000  0.000000  1
  Dy  Dy1  1  0.800132  0.538082  0.168555  1
  Dy  Dy2  1  0.461918  0.199868  0.831445  1
  Dy  Dy3  1  0.962346  0.699751  0.668543  1
  Dy  Dy4  1  0.300249  0.037654  0.331457  1
  Dy  Dy5  1  0.199868  0.461918  0.831445  1
  Dy  Dy6  1  0.538082  0.800132  0.168555  1
  Dy  Dy7  1  0.037654  0.300249  0.331457  1
  Dy  Dy8  1  0.699751  0.962346  0.668543  1
  Ho  Ho9  1  0.500000  0.500000  0.500000  1
  Al  Al10  1  0.876412  0.876412  0.377781  1
  Al  Al11  1  0.123588  0.123588  0.622219  1
  Al  Al12  1  0.623513  0.623513  0.876795  1
  Al  Al13  1  0.376487  0.376487  0.123205  1
  Te  Te14  1  0.204268  0.795732  0.000000  1
  Te  Te15  1  0.703800  0.296200  0.500000  1
  Te  Te16  1  0.795732  0.204268  0.000000  1
  Te  Te17  1  0.296200  0.703800  0.500000  1
