# generated using pymatgen
data_Y16MgIn3Ir4
_symmetry_space_group_name_H-M   'P 1'
_cell_length_a   9.71447492
_cell_length_b   9.71447499
_cell_length_c   9.71447573
_cell_angle_alpha   59.96372882
_cell_angle_beta   59.96372659
_cell_angle_gamma   59.96373247
_symmetry_Int_Tables_number   1
_chemical_formula_structural   Y16MgIn3Ir4
_chemical_formula_sum   'Y16 Mg1 In3 Ir4'
_cell_volume   647.71755261
_cell_formula_units_Z   1
loop_
 _symmetry_equiv_pos_site_id
 _symmetry_equiv_pos_as_xyz
  1  'x, y, z'
loop_
 _atom_site_type_symbol
 _atom_site_label
 _atom_site_symmetry_multiplicity
 _atom_site_fract_x
 _atom_site_fract_y
 _atom_site_fract_z
 _atom_site_occupancy
  Y  Y0  1  0.810490  0.189568  0.810490  1
  Y  Y1  1  0.938629  0.561900  0.561900  1
  Y  Y2  1  0.561900  0.938629  0.561900  1
  Y  Y3  1  0.808032  0.192019  0.192019  1
  Y  Y4  1  0.192019  0.808032  0.192019  1
  Y  Y5  1  0.348342  0.954843  0.348342  1
  Y  Y6  1  0.939538  0.939538  0.559929  1
  Y  Y7  1  0.559929  0.939538  0.939538  1
  Y  Y8  1  0.189568  0.810490  0.810490  1
  Y  Y9  1  0.348342  0.348342  0.954843  1
  Y  Y10  1  0.561900  0.561900  0.938629  1
  Y  Y11  1  0.349187  0.349187  0.349187  1
  Y  Y12  1  0.192019  0.192019  0.808032  1
  Y  Y13  1  0.810490  0.810490  0.189568  1
  Y  Y14  1  0.939538  0.559929  0.939538  1
  Y  Y15  1  0.954843  0.348342  0.348342  1
  Mg  Mg16  1  0.577275  0.577275  0.577275  1
  In  In17  1  0.583078  0.251422  0.583078  1
  In  In18  1  0.583078  0.583078  0.251422  1
  In  In19  1  0.251422  0.583078  0.583078  1
  Ir  Ir20  1  0.141422  0.141422  0.576451  1
  Ir  Ir21  1  0.576451  0.141422  0.141422  1
  Ir  Ir22  1  0.141422  0.576451  0.141422  1
  Ir  Ir23  1  0.141085  0.141085  0.141085  1
