# generated using pymatgen
data_Rb2NaPO4
_symmetry_space_group_name_H-M   'P 1'
_cell_length_a   5.93792500
_cell_length_b   5.85540591
_cell_length_c   7.88020368
_cell_angle_alpha   87.92387873
_cell_angle_beta   90.00000000
_cell_angle_gamma   90.00000000
_symmetry_Int_Tables_number   1
_chemical_formula_structural   Rb2NaPO4
_chemical_formula_sum   'Rb4 Na2 P2 O8'
_cell_volume   273.80664501
_cell_formula_units_Z   2
loop_
 _symmetry_equiv_pos_site_id
 _symmetry_equiv_pos_as_xyz
  1  'x, y, z'
loop_
 _atom_site_type_symbol
 _atom_site_label
 _atom_site_symmetry_multiplicity
 _atom_site_fract_x
 _atom_site_fract_y
 _atom_site_fract_z
 _atom_site_occupancy
  Rb  Rb0  1  0.250000  0.156152  0.813175  1
  Rb  Rb1  1  0.750000  0.843848  0.186825  1
  Rb  Rb2  1  0.250000  0.706420  0.508771  1
  Rb  Rb3  1  0.750000  0.293580  0.491229  1
  Na  Na4  1  0.750000  0.359405  0.975634  1
  Na  Na5  1  0.250000  0.640595  0.024366  1
  P  P6  1  0.250000  0.212563  0.245952  1
  P  P7  1  0.750000  0.787437  0.754048  1
  O  O8  1  0.963750  0.657363  0.823957  1
  O  O9  1  0.463750  0.342637  0.176043  1
  O  O10  1  0.036250  0.342637  0.176043  1
  O  O11  1  0.536250  0.657363  0.823957  1
  O  O12  1  0.750000  0.037078  0.819086  1
  O  O13  1  0.750000  0.792150  0.555892  1
  O  O14  1  0.250000  0.962922  0.180914  1
  O  O15  1  0.250000  0.207850  0.444108  1
