# generated using pymatgen
data_Ac4Sb3Pt5
_symmetry_space_group_name_H-M   'P 1'
_cell_length_a   4.61720500
_cell_length_b   8.77980835
_cell_length_c   8.00922800
_cell_angle_alpha   89.89284535
_cell_angle_beta   90.00000000
_cell_angle_gamma   90.00000000
_symmetry_Int_Tables_number   1
_chemical_formula_structural   Ac4Sb3Pt5
_chemical_formula_sum   'Ac4 Sb3 Pt5'
_cell_volume   324.67891873
_cell_formula_units_Z   1
loop_
 _symmetry_equiv_pos_site_id
 _symmetry_equiv_pos_as_xyz
  1  'x, y, z'
loop_
 _atom_site_type_symbol
 _atom_site_label
 _atom_site_symmetry_multiplicity
 _atom_site_fract_x
 _atom_site_fract_y
 _atom_site_fract_z
 _atom_site_occupancy
  Ac  Ac0  1  0.750000  0.984530  0.741211  1
  Ac  Ac1  1  0.250000  0.995944  0.261993  1
  Ac  Ac2  1  0.750000  0.513478  0.747803  1
  Ac  Ac3  1  0.250000  0.506896  0.255970  1
  Sb  Sb4  1  0.750000  0.755892  0.080812  1
  Sb  Sb5  1  0.250000  0.245008  0.915462  1
  Sb  Sb6  1  0.750000  0.255920  0.416807  1
  Pt  Pt7  1  0.250000  0.747128  0.581115  1
  Pt  Pt8  1  0.750000  0.749871  0.412360  1
  Pt  Pt9  1  0.250000  0.245763  0.582313  1
  Pt  Pt10  1  0.750000  0.252053  0.084563  1
  Pt  Pt11  1  0.250000  0.747515  0.919591  1
