# generated using pymatgen
data_NaNb8AlSe16
_symmetry_space_group_name_H-M   'P 1'
_cell_length_a   6.98148600
_cell_length_b   6.98148616
_cell_length_c   14.15465600
_cell_angle_alpha   90.00000000
_cell_angle_beta   90.00000000
_cell_angle_gamma   119.99998974
_symmetry_Int_Tables_number   1
_chemical_formula_structural   NaNb8AlSe16
_chemical_formula_sum   'Na1 Nb8 Al1 Se16'
_cell_volume   597.48326967
_cell_formula_units_Z   1
loop_
 _symmetry_equiv_pos_site_id
 _symmetry_equiv_pos_as_xyz
  1  'x, y, z'
loop_
 _atom_site_type_symbol
 _atom_site_label
 _atom_site_symmetry_multiplicity
 _atom_site_fract_x
 _atom_site_fract_y
 _atom_site_fract_z
 _atom_site_occupancy
  Na  Na0  1  0.000000  0.000000  0.500000  1
  Nb  Nb1  1  0.000000  0.000000  0.232196  1
  Nb  Nb2  1  0.000000  0.000000  0.767804  1
  Nb  Nb3  1  0.508693  0.491307  0.229272  1
  Nb  Nb4  1  0.508693  0.017385  0.229272  1
  Nb  Nb5  1  0.982615  0.491307  0.229272  1
  Nb  Nb6  1  0.491307  0.508693  0.770728  1
  Nb  Nb7  1  0.491307  0.982615  0.770728  1
  Nb  Nb8  1  0.017385  0.508693  0.770728  1
  Al  Al9  1  0.000000  0.000000  0.000000  1
  Se  Se10  1  0.333333  0.666667  0.893555  1
  Se  Se11  1  0.666667  0.333333  0.106445  1
  Se  Se12  1  0.666667  0.333333  0.353586  1
  Se  Se13  1  0.333333  0.666667  0.646414  1
  Se  Se14  1  0.169197  0.830803  0.346769  1
  Se  Se15  1  0.169197  0.338396  0.346769  1
  Se  Se16  1  0.661604  0.830803  0.346769  1
  Se  Se17  1  0.830803  0.169197  0.653231  1
  Se  Se18  1  0.830803  0.661604  0.653231  1
  Se  Se19  1  0.338396  0.169197  0.653231  1
  Se  Se20  1  0.832306  0.167694  0.888178  1
  Se  Se21  1  0.832306  0.664611  0.888178  1
  Se  Se22  1  0.335389  0.167694  0.888178  1
  Se  Se23  1  0.167694  0.832306  0.111822  1
  Se  Se24  1  0.167694  0.335389  0.111822  1
  Se  Se25  1  0.664611  0.832306  0.111822  1
