# generated using pymatgen
data_LuZr3(AlRe3)2
_symmetry_space_group_name_H-M   'P 1'
_cell_length_a   5.29622700
_cell_length_b   5.29622751
_cell_length_c   8.71196700
_cell_angle_alpha   90.00000000
_cell_angle_beta   90.00000000
_cell_angle_gamma   119.99999059
_symmetry_Int_Tables_number   1
_chemical_formula_structural   LuZr3(AlRe3)2
_chemical_formula_sum   'Lu1 Zr3 Al2 Re6'
_cell_volume   211.63140643
_cell_formula_units_Z   1
loop_
 _symmetry_equiv_pos_site_id
 _symmetry_equiv_pos_as_xyz
  1  'x, y, z'
loop_
 _atom_site_type_symbol
 _atom_site_label
 _atom_site_symmetry_multiplicity
 _atom_site_fract_x
 _atom_site_fract_y
 _atom_site_fract_z
 _atom_site_occupancy
  Lu  Lu0  1  0.333333  0.666667  0.435802  1
  Zr  Zr1  1  0.666667  0.333333  0.934223  1
  Zr  Zr2  1  0.666667  0.333333  0.565563  1
  Zr  Zr3  1  0.333333  0.666667  0.065734  1
  Al  Al4  1  0.000000  0.000000  0.999210  1
  Al  Al5  1  0.000000  0.000000  0.499825  1
  Re  Re6  1  0.170307  0.340613  0.751593  1
  Re  Re7  1  0.829994  0.170006  0.248288  1
  Re  Re8  1  0.340011  0.170006  0.248288  1
  Re  Re9  1  0.659387  0.829693  0.751593  1
  Re  Re10  1  0.829994  0.659989  0.248288  1
  Re  Re11  1  0.170307  0.829693  0.751593  1
