# generated using pymatgen
data_PmVO4
_symmetry_space_group_name_H-M   'P 1'
_cell_length_a   6.14892960
_cell_length_b   6.14893084
_cell_length_c   6.14892977
_cell_angle_alpha   106.03174828
_cell_angle_beta   116.59365056
_cell_angle_gamma   106.03174711
_symmetry_Int_Tables_number   1
_chemical_formula_structural   PmVO4
_chemical_formula_sum   'Pm2 V2 O8'
_cell_volume   176.86973212
_cell_formula_units_Z   2
loop_
 _symmetry_equiv_pos_site_id
 _symmetry_equiv_pos_as_xyz
  1  'x, y, z'
loop_
 _atom_site_type_symbol
 _atom_site_label
 _atom_site_symmetry_multiplicity
 _atom_site_fract_x
 _atom_site_fract_y
 _atom_site_fract_z
 _atom_site_occupancy
  Pm  Pm0  1  0.875000  0.250001  0.125000  1
  Pm  Pm1  1  0.125000  0.750000  0.875000  1
  V  V2  1  0.625000  0.750000  0.374999  1
  V  V3  1  0.375000  0.250000  0.624999  1
  O  O4  1  0.271217  0.569348  0.201868  1
  O  O5  1  0.632519  0.930651  0.201868  1
  O  O6  1  0.201868  0.069348  0.271217  1
  O  O7  1  0.798133  0.569349  0.367482  1
  O  O8  1  0.201868  0.430651  0.632518  1
  O  O9  1  0.798133  0.930651  0.728783  1
  O  O10  1  0.367482  0.069348  0.798132  1
  O  O11  1  0.728783  0.430651  0.798132  1
