# generated using pymatgen
data_TbHo3Al18(Ni2Rh)2
_symmetry_space_group_name_H-M   'P 1'
_cell_length_a   7.46158233
_cell_length_b   7.46012847
_cell_length_c   9.33431800
_cell_angle_alpha   90.00000000
_cell_angle_beta   90.00000000
_cell_angle_gamma   119.09680102
_symmetry_Int_Tables_number   1
_chemical_formula_structural   TbHo3Al18(Ni2Rh)2
_chemical_formula_sum   'Tb1 Ho3 Al18 Ni4 Rh2'
_cell_volume   454.01642424
_cell_formula_units_Z   1
loop_
 _symmetry_equiv_pos_site_id
 _symmetry_equiv_pos_as_xyz
  1  'x, y, z'
loop_
 _atom_site_type_symbol
 _atom_site_label
 _atom_site_symmetry_multiplicity
 _atom_site_fract_x
 _atom_site_fract_y
 _atom_site_fract_z
 _atom_site_occupancy
  Tb  Tb0  1  0.327365  0.005650  0.750000  1
  Ho  Ho1  1  0.994127  0.673029  0.250000  1
  Ho  Ho2  1  0.005662  0.327008  0.750000  1
  Ho  Ho3  1  0.673238  0.994360  0.250000  1
  Al  Al4  1  0.133332  0.133553  0.250000  1
  Al  Al5  1  0.866318  0.866526  0.750000  1
  Al  Al6  1  0.998029  0.338215  0.074098  1
  Al  Al7  1  0.001263  0.661386  0.926577  1
  Al  Al8  1  0.001263  0.661386  0.573423  1
  Al  Al9  1  0.338241  0.998108  0.425493  1
  Al  Al10  1  0.998029  0.338215  0.425902  1
  Al  Al11  1  0.662331  0.001757  0.573354  1
  Al  Al12  1  0.662331  0.001757  0.926646  1
  Al  Al13  1  0.338241  0.998108  0.074507  1
  Al  Al14  1  0.334994  0.335395  0.548588  1
  Al  Al15  1  0.664911  0.664925  0.449998  1
  Al  Al16  1  0.664911  0.664925  0.050002  1
  Al  Al17  1  0.334994  0.335395  0.951412  1
  Al  Al18  1  0.341276  0.556337  0.250000  1
  Al  Al19  1  0.658950  0.444413  0.750000  1
  Al  Al20  1  0.556290  0.341457  0.250000  1
  Al  Al21  1  0.444084  0.657979  0.750000  1
  Ni  Ni22  1  0.671048  0.329089  0.000345  1
  Ni  Ni23  1  0.329109  0.671064  0.000213  1
  Ni  Ni24  1  0.329109  0.671064  0.499787  1
  Ni  Ni25  1  0.671048  0.329089  0.499655  1
  Rh  Rh26  1  0.999756  0.999905  0.000386  1
  Rh  Rh27  1  0.999756  0.999905  0.499614  1
