# generated using pymatgen
data_Pr5Tm3(Si3Rh)4
_symmetry_space_group_name_H-M   'P 1'
_cell_length_a   8.24342200
_cell_length_b   8.24342262
_cell_length_c   8.17825400
_cell_angle_alpha   90.00000000
_cell_angle_beta   90.00000000
_cell_angle_gamma   120.00000555
_symmetry_Int_Tables_number   1
_chemical_formula_structural   Pr5Tm3(Si3Rh)4
_chemical_formula_sum   'Pr5 Tm3 Si12 Rh4'
_cell_volume   481.28940409
_cell_formula_units_Z   1
loop_
 _symmetry_equiv_pos_site_id
 _symmetry_equiv_pos_as_xyz
  1  'x, y, z'
loop_
 _atom_site_type_symbol
 _atom_site_label
 _atom_site_symmetry_multiplicity
 _atom_site_fract_x
 _atom_site_fract_y
 _atom_site_fract_z
 _atom_site_occupancy
  Pr  Pr0  1  0.000000  0.000000  0.250000  1
  Pr  Pr1  1  0.000000  0.000000  0.750000  1
  Pr  Pr2  1  0.499168  0.500832  0.250000  1
  Pr  Pr3  1  0.499168  0.998335  0.250000  1
  Pr  Pr4  1  0.001665  0.500832  0.250000  1
  Tm  Tm5  1  0.504528  0.495472  0.750000  1
  Tm  Tm6  1  0.990944  0.495472  0.750000  1
  Tm  Tm7  1  0.504528  0.009056  0.750000  1
  Si  Si8  1  0.833293  0.166707  0.506235  1
  Si  Si9  1  0.833293  0.666588  0.506235  1
  Si  Si10  1  0.333412  0.166707  0.506235  1
  Si  Si11  1  0.833293  0.166707  0.993765  1
  Si  Si12  1  0.833293  0.666588  0.993765  1
  Si  Si13  1  0.333412  0.166707  0.993765  1
  Si  Si14  1  0.168655  0.831345  0.992984  1
  Si  Si15  1  0.662691  0.831345  0.992984  1
  Si  Si16  1  0.168655  0.337309  0.992984  1
  Si  Si17  1  0.168655  0.831345  0.507016  1
  Si  Si18  1  0.662691  0.831345  0.507016  1
  Si  Si19  1  0.168655  0.337309  0.507016  1
  Rh  Rh20  1  0.666667  0.333333  0.521729  1
  Rh  Rh21  1  0.666667  0.333333  0.978271  1
  Rh  Rh22  1  0.333333  0.666667  0.952689  1
  Rh  Rh23  1  0.333333  0.666667  0.547311  1
