# generated using pymatgen
data_Dy4Tc2Ru5W
_symmetry_space_group_name_H-M   'P 1'
_cell_length_a   5.50933679
_cell_length_b   5.12954594
_cell_length_c   9.12323500
_cell_angle_alpha   90.00000000
_cell_angle_beta   90.00000000
_cell_angle_gamma   121.20163109
_symmetry_Int_Tables_number   1
_chemical_formula_structural   Dy4Tc2Ru5W
_chemical_formula_sum   'Dy4 Tc2 Ru5 W1'
_cell_volume   220.53154508
_cell_formula_units_Z   1
loop_
 _symmetry_equiv_pos_site_id
 _symmetry_equiv_pos_as_xyz
  1  'x, y, z'
loop_
 _atom_site_type_symbol
 _atom_site_label
 _atom_site_symmetry_multiplicity
 _atom_site_fract_x
 _atom_site_fract_y
 _atom_site_fract_z
 _atom_site_occupancy
  Dy  Dy0  1  0.673808  0.344783  0.564973  1
  Dy  Dy1  1  0.329702  0.665909  0.433559  1
  Dy  Dy2  1  0.329702  0.665909  0.066441  1
  Dy  Dy3  1  0.673808  0.344783  0.935027  1
  Tc  Tc4  1  0.835564  0.656897  0.250000  1
  Tc  Tc5  1  0.833914  0.172260  0.250000  1
  Ru  Ru6  1  0.996484  0.011572  0.499462  1
  Ru  Ru7  1  0.996484  0.011572  0.000538  1
  Ru  Ru8  1  0.171796  0.816309  0.750000  1
  Ru  Ru9  1  0.650652  0.819974  0.750000  1
  Ru  Ru10  1  0.345364  0.173531  0.250000  1
  W  W11  1  0.162722  0.316501  0.750000  1
