# generated using pymatgen
data_Tb8Y3Er9Pb16
_symmetry_space_group_name_H-M   'P 1'
_cell_length_a   8.20509994
_cell_length_b   8.28802241
_cell_length_c   15.62692105
_cell_angle_alpha   89.84389775
_cell_angle_beta   89.97109511
_cell_angle_gamma   89.87743510
_symmetry_Int_Tables_number   1
_chemical_formula_structural   Tb8Y3Er9Pb16
_chemical_formula_sum   'Tb8 Y3 Er9 Pb16'
_cell_volume   1062.68744655
_cell_formula_units_Z   1
loop_
 _symmetry_equiv_pos_site_id
 _symmetry_equiv_pos_as_xyz
  1  'x, y, z'
loop_
 _atom_site_type_symbol
 _atom_site_label
 _atom_site_symmetry_multiplicity
 _atom_site_fract_x
 _atom_site_fract_y
 _atom_site_fract_z
 _atom_site_occupancy
  Tb  Tb0  1  0.535204  0.323618  0.900420  1
  Tb  Tb1  1  0.034429  0.176571  0.599400  1
  Tb  Tb2  1  0.464959  0.676354  0.400155  1
  Tb  Tb3  1  0.965830  0.822975  0.099233  1
  Tb  Tb4  1  0.464102  0.675477  0.100004  1
  Tb  Tb5  1  0.964395  0.823740  0.400150  1
  Tb  Tb6  1  0.536169  0.324098  0.600086  1
  Tb  Tb7  1  0.035172  0.177156  0.901031  1
  Y  Y8  1  0.375913  0.841617  0.879113  1
  Y  Y9  1  0.875704  0.657614  0.621086  1
  Y  Y10  1  0.623581  0.158395  0.378376  1
  Er  Er11  1  0.124517  0.342510  0.121634  1
  Er  Er12  1  0.624662  0.157601  0.121391  1
  Er  Er13  1  0.125225  0.342563  0.378479  1
  Er  Er14  1  0.375744  0.842080  0.621689  1
  Er  Er15  1  0.874852  0.657666  0.878623  1
  Er  Er16  1  0.207818  0.504392  0.750071  1
  Er  Er17  1  0.707893  0.995444  0.750220  1
  Er  Er18  1  0.792421  0.495377  0.249539  1
  Er  Er19  1  0.291730  0.004702  0.249859  1
  Pb  Pb20  1  0.283296  0.035479  0.043959  1
  Pb  Pb21  1  0.783747  0.465445  0.456258  1
  Pb  Pb22  1  0.715676  0.966235  0.543678  1
  Pb  Pb23  1  0.215757  0.533988  0.957310  1
  Pb  Pb24  1  0.718259  0.965905  0.956960  1
  Pb  Pb25  1  0.218768  0.534750  0.542704  1
  Pb  Pb26  1  0.281735  0.033901  0.457003  1
  Pb  Pb27  1  0.783399  0.464388  0.042755  1
  Pb  Pb28  1  0.570212  0.625443  0.749735  1
  Pb  Pb29  1  0.070021  0.873771  0.750259  1
  Pb  Pb30  1  0.428921  0.374295  0.249113  1
  Pb  Pb31  1  0.930118  0.126604  0.249727  1
  Pb  Pb32  1  0.346337  0.154228  0.749815  1
  Pb  Pb33  1  0.846613  0.345756  0.750691  1
  Pb  Pb34  1  0.653242  0.845932  0.249394  1
  Pb  Pb35  1  0.153579  0.653927  0.250080  1
