# generated using pymatgen
data_CeNd15Cd4Ru3Pt
_symmetry_space_group_name_H-M   'P 1'
_cell_length_a   10.02940026
_cell_length_b   10.02939987
_cell_length_c   9.92830164
_cell_angle_alpha   59.57432683
_cell_angle_beta   59.57433396
_cell_angle_gamma   59.13336682
_symmetry_Int_Tables_number   1
_chemical_formula_structural   CeNd15Cd4Ru3Pt
_chemical_formula_sum   'Ce1 Nd15 Cd4 Ru3 Pt1'
_cell_volume   696.94202396
_cell_formula_units_Z   1
loop_
 _symmetry_equiv_pos_site_id
 _symmetry_equiv_pos_as_xyz
  1  'x, y, z'
loop_
 _atom_site_type_symbol
 _atom_site_label
 _atom_site_symmetry_multiplicity
 _atom_site_fract_x
 _atom_site_fract_y
 _atom_site_fract_z
 _atom_site_occupancy
  Ce  Ce0  1  0.349183  0.349183  0.323647  1
  Nd  Nd1  1  0.563643  0.563643  0.935172  1
  Nd  Nd2  1  0.938913  0.559065  0.937254  1
  Nd  Nd3  1  0.559065  0.938913  0.937254  1
  Nd  Nd4  1  0.938235  0.938235  0.559466  1
  Nd  Nd5  1  0.562142  0.943661  0.555925  1
  Nd  Nd6  1  0.943661  0.562142  0.555925  1
  Nd  Nd7  1  0.190743  0.190743  0.812029  1
  Nd  Nd8  1  0.802717  0.190587  0.815540  1
  Nd  Nd9  1  0.190586  0.802718  0.815540  1
  Nd  Nd10  1  0.810931  0.810932  0.189810  1
  Nd  Nd11  1  0.190973  0.812166  0.191094  1
  Nd  Nd12  1  0.812166  0.190974  0.191095  1
  Nd  Nd13  1  0.346437  0.346437  0.956499  1
  Nd  Nd14  1  0.347976  0.952466  0.347148  1
  Nd  Nd15  1  0.952466  0.347976  0.347148  1
  Cd  Cd16  1  0.579040  0.579040  0.259126  1
  Cd  Cd17  1  0.578432  0.260792  0.577733  1
  Cd  Cd18  1  0.260792  0.578432  0.577733  1
  Cd  Cd19  1  0.580306  0.580306  0.579970  1
  Ru  Ru20  1  0.152009  0.567143  0.159600  1
  Ru  Ru21  1  0.567143  0.152009  0.159600  1
  Ru  Ru22  1  0.139707  0.139707  0.140469  1
  Pt  Pt23  1  0.142733  0.142733  0.575222  1
