# generated using pymatgen
data_La2Mo(SeO5)2
_symmetry_space_group_name_H-M   'P 1'
_cell_length_a   5.52236679
_cell_length_b   7.05729693
_cell_length_c   12.96246437
_cell_angle_alpha   85.47446435
_cell_angle_beta   83.85677559
_cell_angle_gamma   70.02096590
_symmetry_Int_Tables_number   1
_chemical_formula_structural   La2Mo(SeO5)2
_chemical_formula_sum   'La4 Mo2 Se4 O20'
_cell_volume   471.57138052
_cell_formula_units_Z   2
loop_
 _symmetry_equiv_pos_site_id
 _symmetry_equiv_pos_as_xyz
  1  'x, y, z'
loop_
 _atom_site_type_symbol
 _atom_site_label
 _atom_site_symmetry_multiplicity
 _atom_site_fract_x
 _atom_site_fract_y
 _atom_site_fract_z
 _atom_site_occupancy
  La  La0  1  0.168428  0.696668  0.047306  1
  La  La1  1  0.084548  0.886982  0.352554  1
  La  La2  1  0.915454  0.113023  0.647445  1
  La  La3  1  0.831578  0.303330  0.952695  1
  Mo  Mo4  1  0.363138  0.278977  0.441269  1
  Mo  Mo5  1  0.636859  0.721027  0.558730  1
  Se  Se6  1  0.393224  0.103739  0.131599  1
  Se  Se7  1  0.738448  0.578353  0.222564  1
  Se  Se8  1  0.261552  0.421645  0.777437  1
  Se  Se9  1  0.606774  0.896258  0.868403  1
  O  O10  1  0.185676  0.059924  0.045949  1
  O  O11  1  0.435916  0.330733  0.081425  1
  O  O12  1  0.854863  0.508485  0.096578  1
  O  O13  1  0.417285  0.717317  0.203059  1
  O  O14  1  0.878746  0.766838  0.219890  1
  O  O15  1  0.183046  0.164346  0.240217  1
  O  O16  1  0.640407  0.162340  0.354565  1
  O  O17  1  0.174337  0.523962  0.394093  1
  O  O18  1  0.523361  0.710405  0.435798  1
  O  O19  1  0.152374  0.124482  0.469252  1
  O  O20  1  0.847627  0.875519  0.530746  1
  O  O21  1  0.476637  0.289598  0.564201  1
  O  O22  1  0.825662  0.476040  0.605906  1
  O  O23  1  0.359593  0.837663  0.645434  1
  O  O24  1  0.816949  0.835654  0.759785  1
  O  O25  1  0.121254  0.233161  0.780110  1
  O  O26  1  0.582715  0.282681  0.796941  1
  O  O27  1  0.145138  0.491512  0.903423  1
  O  O28  1  0.564082  0.669263  0.918577  1
  O  O29  1  0.814321  0.940072  0.954054  1
