# generated using pymatgen
data_SmMnGaO5
_symmetry_space_group_name_H-M   'P 1'
_cell_length_a   5.78378000
_cell_length_b   7.48192300
_cell_length_c   8.64424300
_cell_angle_alpha   90.00000000
_cell_angle_beta   90.00000000
_cell_angle_gamma   90.00000000
_symmetry_Int_Tables_number   1
_chemical_formula_structural   SmMnGaO5
_chemical_formula_sum   'Sm4 Mn4 Ga4 O20'
_cell_volume   374.06921342
_cell_formula_units_Z   4
loop_
 _symmetry_equiv_pos_site_id
 _symmetry_equiv_pos_as_xyz
  1  'x, y, z'
loop_
 _atom_site_type_symbol
 _atom_site_label
 _atom_site_symmetry_multiplicity
 _atom_site_fract_x
 _atom_site_fract_y
 _atom_site_fract_z
 _atom_site_occupancy
  Sm  Sm0  1  0.500000  0.365272  0.330290  1
  Sm  Sm1  1  0.500000  0.634728  0.669710  1
  Sm  Sm2  1  0.500000  0.134728  0.830290  1
  Sm  Sm3  1  0.500000  0.865272  0.169710  1
  Mn  Mn4  1  0.247330  0.000000  0.500000  1
  Mn  Mn5  1  0.752670  0.000000  0.500000  1
  Mn  Mn6  1  0.752670  0.500000  0.000000  1
  Mn  Mn7  1  0.247330  0.500000  0.000000  1
  Ga  Ga8  1  0.000000  0.109493  0.145078  1
  Ga  Ga9  1  0.000000  0.890507  0.854922  1
  Ga  Ga10  1  0.000000  0.390507  0.645078  1
  Ga  Ga11  1  0.000000  0.609493  0.354922  1
  O  O12  1  0.500000  0.341903  0.054954  1
  O  O13  1  0.500000  0.658097  0.945046  1
  O  O14  1  0.500000  0.158097  0.554954  1
  O  O15  1  0.500000  0.841903  0.445046  1
  O  O16  1  0.225008  0.000000  0.000000  1
  O  O17  1  0.774992  0.000000  0.000000  1
  O  O18  1  0.774992  0.500000  0.500000  1
  O  O19  1  0.225008  0.500000  0.500000  1
  O  O20  1  0.254475  0.103297  0.293963  1
  O  O21  1  0.745525  0.896703  0.706037  1
  O  O22  1  0.254475  0.896703  0.706037  1
  O  O23  1  0.745525  0.396703  0.793963  1
  O  O24  1  0.745525  0.103297  0.293963  1
  O  O25  1  0.254475  0.603297  0.206037  1
  O  O26  1  0.745525  0.603297  0.206037  1
  O  O27  1  0.254475  0.396703  0.793963  1
  O  O28  1  0.000000  0.348831  0.069261  1
  O  O29  1  0.000000  0.651169  0.930739  1
  O  O30  1  0.000000  0.151169  0.569261  1
  O  O31  1  0.000000  0.848831  0.430739  1
