# generated using pymatgen
data_Sr2Y2Cu3Sb8
_symmetry_space_group_name_H-M   'P 1'
_cell_length_a   11.00360467
_cell_length_b   11.00360388
_cell_length_c   11.01225872
_cell_angle_alpha   147.09085469
_cell_angle_beta   147.09084769
_cell_angle_gamma   47.12612701
_symmetry_Int_Tables_number   1
_chemical_formula_structural   Sr2Y2Cu3Sb8
_chemical_formula_sum   'Sr2 Y2 Cu3 Sb8'
_cell_volume   392.23557915
_cell_formula_units_Z   1
loop_
 _symmetry_equiv_pos_site_id
 _symmetry_equiv_pos_as_xyz
  1  'x, y, z'
loop_
 _atom_site_type_symbol
 _atom_site_label
 _atom_site_symmetry_multiplicity
 _atom_site_fract_x
 _atom_site_fract_y
 _atom_site_fract_z
 _atom_site_occupancy
  Sr  Sr0  1  0.631885  0.631885  0.506663  1
  Sr  Sr1  1  0.125221  0.125221  0.493337  1
  Y  Y2  1  0.364133  0.866652  0.000000  1
  Y  Y3  1  0.866652  0.364133  0.000000  1
  Cu  Cu4  1  0.004468  0.004468  0.000000  1
  Cu  Cu5  1  0.005831  0.505831  0.500000  1
  Cu  Cu6  1  0.505831  0.005831  0.500000  1
  Sb  Sb7  1  0.330802  0.330802  0.507980  1
  Sb  Sb8  1  0.822822  0.822822  0.492020  1
  Sb  Sb9  1  0.682545  0.198867  0.000000  1
  Sb  Sb10  1  0.198867  0.682545  0.000000  1
  Sb  Sb11  1  0.241038  0.241038  0.000000  1
  Sb  Sb12  1  0.740658  0.740658  0.000000  1
  Sb  Sb13  1  0.739623  0.239623  0.500000  1
  Sb  Sb14  1  0.239623  0.739623  0.500000  1
