# generated using pymatgen
data_Ba2Ti2MnO7
_symmetry_space_group_name_H-M   'P 1'
_cell_length_a   8.73639500
_cell_length_b   5.65702400
_cell_length_c   8.73639500
_cell_angle_alpha   90.00000000
_cell_angle_beta   90.00000000
_cell_angle_gamma   90.00000000
_symmetry_Int_Tables_number   1
_chemical_formula_structural   Ba2Ti2MnO7
_chemical_formula_sum   'Ba4 Ti4 Mn2 O14'
_cell_volume   431.77008039
_cell_formula_units_Z   2
loop_
 _symmetry_equiv_pos_site_id
 _symmetry_equiv_pos_as_xyz
  1  'x, y, z'
loop_
 _atom_site_type_symbol
 _atom_site_label
 _atom_site_symmetry_multiplicity
 _atom_site_fract_x
 _atom_site_fract_y
 _atom_site_fract_z
 _atom_site_occupancy
  Ba  Ba0  1  0.334975  0.007152  0.165025  1
  Ba  Ba1  1  0.834975  0.992848  0.334975  1
  Ba  Ba2  1  0.165025  0.992848  0.665025  1
  Ba  Ba3  1  0.665025  0.007152  0.834975  1
  Ti  Ti4  1  0.641144  0.547955  0.141144  1
  Ti  Ti5  1  0.141144  0.452046  0.358856  1
  Ti  Ti6  1  0.858856  0.452046  0.641144  1
  Ti  Ti7  1  0.358856  0.547955  0.858856  1
  Mn  Mn8  1  0.000000  0.500001  0.000000  1
  Mn  Mn9  1  0.500000  0.500001  0.500000  1
  O  O10  1  0.500000  0.673390  0.000000  1
  O  O11  1  0.820020  0.692428  0.088035  1
  O  O12  1  0.641224  0.229343  0.141223  1
  O  O13  1  0.088035  0.307573  0.179981  1
  O  O14  1  0.588035  0.692428  0.320020  1
  O  O15  1  0.141223  0.770659  0.358777  1
  O  O16  1  0.320020  0.307573  0.411965  1
  O  O17  1  0.000000  0.326611  0.500000  1
  O  O18  1  0.679980  0.307573  0.588035  1
  O  O19  1  0.858777  0.770659  0.641224  1
  O  O20  1  0.411965  0.692428  0.679980  1
  O  O21  1  0.911965  0.307573  0.820019  1
  O  O22  1  0.358777  0.229343  0.858777  1
  O  O23  1  0.179980  0.692428  0.911965  1
