# generated using pymatgen
data_LaEr2Th(Al3Ir)6
_symmetry_space_group_name_H-M   'P 1'
_cell_length_a   7.60393644
_cell_length_b   7.60414685
_cell_length_c   9.51223400
_cell_angle_alpha   90.00000000
_cell_angle_beta   90.00000000
_cell_angle_gamma   119.43604999
_symmetry_Int_Tables_number   1
_chemical_formula_structural   LaEr2Th(Al3Ir)6
_chemical_formula_sum   'La1 Er2 Th1 Al18 Ir6'
_cell_volume   479.00733767
_cell_formula_units_Z   1
loop_
 _symmetry_equiv_pos_site_id
 _symmetry_equiv_pos_as_xyz
  1  'x, y, z'
loop_
 _atom_site_type_symbol
 _atom_site_label
 _atom_site_symmetry_multiplicity
 _atom_site_fract_x
 _atom_site_fract_y
 _atom_site_fract_z
 _atom_site_occupancy
  La  La0  1  0.671522  0.994176  0.250000  1
  Er  Er1  1  0.003729  0.327668  0.750000  1
  Er  Er2  1  0.327811  0.004556  0.750000  1
  Th  Th3  1  0.995027  0.671598  0.250000  1
  Al  Al4  1  0.135805  0.134433  0.250000  1
  Al  Al5  1  0.873208  0.873837  0.750000  1
  Al  Al6  1  0.004408  0.334019  0.068617  1
  Al  Al7  1  0.000038  0.664033  0.917711  1
  Al  Al8  1  0.000038  0.664033  0.582289  1
  Al  Al9  1  0.336990  0.005425  0.431512  1
  Al  Al10  1  0.004408  0.334019  0.431383  1
  Al  Al11  1  0.664122  0.000352  0.580905  1
  Al  Al12  1  0.664122  0.000352  0.919095  1
  Al  Al13  1  0.336990  0.005425  0.068488  1
  Al  Al14  1  0.331806  0.331854  0.557742  1
  Al  Al15  1  0.663412  0.664379  0.460337  1
  Al  Al16  1  0.663412  0.664379  0.039663  1
  Al  Al17  1  0.331806  0.331854  0.942258  1
  Al  Al18  1  0.339242  0.543826  0.250000  1
  Al  Al19  1  0.657977  0.448492  0.750000  1
  Al  Al20  1  0.544926  0.341596  0.250000  1
  Al  Al21  1  0.447610  0.659141  0.750000  1
  Ir  Ir22  1  0.673073  0.329840  0.998757  1
  Ir  Ir23  1  0.326192  0.670919  0.998887  1
  Ir  Ir24  1  0.326192  0.670919  0.501113  1
  Ir  Ir25  1  0.673073  0.329840  0.501243  1
  Ir  Ir26  1  0.001529  0.999520  0.999040  1
  Ir  Ir27  1  0.001529  0.999520  0.500960  1
