# generated using pymatgen
data_CeNdSm6(Si3Pd)4
_symmetry_space_group_name_H-M   'P 1'
_cell_length_a   8.21537000
_cell_length_b   8.21537076
_cell_length_c   8.38361000
_cell_angle_alpha   90.00000000
_cell_angle_beta   90.00000000
_cell_angle_gamma   119.99999694
_symmetry_Int_Tables_number   1
_chemical_formula_structural   CeNdSm6(Si3Pd)4
_chemical_formula_sum   'Ce1 Nd1 Sm6 Si12 Pd4'
_cell_volume   490.02248443
_cell_formula_units_Z   1
loop_
 _symmetry_equiv_pos_site_id
 _symmetry_equiv_pos_as_xyz
  1  'x, y, z'
loop_
 _atom_site_type_symbol
 _atom_site_label
 _atom_site_symmetry_multiplicity
 _atom_site_fract_x
 _atom_site_fract_y
 _atom_site_fract_z
 _atom_site_occupancy
  Ce  Ce0  1  0.000000  0.000000  0.750000  1
  Nd  Nd1  1  0.000000  0.000000  0.250000  1
  Sm  Sm2  1  0.499868  0.500132  0.750000  1
  Sm  Sm3  1  0.500121  0.499879  0.250000  1
  Sm  Sm4  1  0.000264  0.500132  0.750000  1
  Sm  Sm5  1  0.999760  0.499879  0.250000  1
  Sm  Sm6  1  0.499868  0.999736  0.750000  1
  Sm  Sm7  1  0.500121  0.000240  0.250000  1
  Si  Si8  1  0.834447  0.165553  0.997901  1
  Si  Si9  1  0.165558  0.834442  0.998650  1
  Si  Si10  1  0.331105  0.165553  0.997901  1
  Si  Si11  1  0.165558  0.834442  0.501350  1
  Si  Si12  1  0.668883  0.834442  0.998650  1
  Si  Si13  1  0.834447  0.165553  0.502099  1
  Si  Si14  1  0.834447  0.668895  0.997901  1
  Si  Si15  1  0.668883  0.834442  0.501350  1
  Si  Si16  1  0.165558  0.331117  0.998650  1
  Si  Si17  1  0.331105  0.165553  0.502099  1
  Si  Si18  1  0.165558  0.331117  0.501350  1
  Si  Si19  1  0.834447  0.668895  0.502099  1
  Pd  Pd20  1  0.666667  0.333333  0.000493  1
  Pd  Pd21  1  0.333333  0.666667  0.001271  1
  Pd  Pd22  1  0.333333  0.666667  0.498729  1
  Pd  Pd23  1  0.666667  0.333333  0.499507  1
