# generated using pymatgen
data_Y2Ho3Pt4
_symmetry_space_group_name_H-M   'P 1'
_cell_length_a   7.48814500
_cell_length_b   7.56399000
_cell_length_c   14.71335700
_cell_angle_alpha   90.00000000
_cell_angle_beta   90.00000000
_cell_angle_gamma   90.00000000
_symmetry_Int_Tables_number   1
_chemical_formula_structural   Y2Ho3Pt4
_chemical_formula_sum   'Y8 Ho12 Pt16'
_cell_volume   833.36827618
_cell_formula_units_Z   4
loop_
 _symmetry_equiv_pos_site_id
 _symmetry_equiv_pos_as_xyz
  1  'x, y, z'
loop_
 _atom_site_type_symbol
 _atom_site_label
 _atom_site_symmetry_multiplicity
 _atom_site_fract_x
 _atom_site_fract_y
 _atom_site_fract_z
 _atom_site_occupancy
  Y  Y0  1  0.998228  0.819933  0.407062  1
  Y  Y1  1  0.498228  0.680067  0.092938  1
  Y  Y2  1  0.501772  0.319933  0.592938  1
  Y  Y3  1  0.001772  0.180067  0.907062  1
  Y  Y4  1  0.001772  0.180067  0.592938  1
  Y  Y5  1  0.501772  0.319933  0.907062  1
  Y  Y6  1  0.498228  0.680067  0.407062  1
  Y  Y7  1  0.998228  0.819933  0.092938  1
  Ho  Ho8  1  0.681284  0.988813  0.250000  1
  Ho  Ho9  1  0.181284  0.511187  0.250000  1
  Ho  Ho10  1  0.818716  0.488813  0.750000  1
  Ho  Ho11  1  0.318716  0.011187  0.750000  1
  Ho  Ho12  1  0.656289  0.832615  0.622367  1
  Ho  Ho13  1  0.156289  0.667385  0.877633  1
  Ho  Ho14  1  0.843711  0.332615  0.377633  1
  Ho  Ho15  1  0.343711  0.167385  0.122367  1
  Ho  Ho16  1  0.343711  0.167385  0.377633  1
  Ho  Ho17  1  0.843711  0.332615  0.122367  1
  Ho  Ho18  1  0.156289  0.667385  0.622367  1
  Ho  Ho19  1  0.656289  0.832615  0.877633  1
  Pt  Pt20  1  0.815702  0.641650  0.250000  1
  Pt  Pt21  1  0.315702  0.858350  0.250000  1
  Pt  Pt22  1  0.684298  0.141650  0.750000  1
  Pt  Pt23  1  0.184298  0.358350  0.750000  1
  Pt  Pt24  1  0.546600  0.386398  0.250000  1
  Pt  Pt25  1  0.046600  0.113602  0.250000  1
  Pt  Pt26  1  0.953400  0.886398  0.750000  1
  Pt  Pt27  1  0.453400  0.613602  0.750000  1
  Pt  Pt28  1  0.817268  0.532953  0.542049  1
  Pt  Pt29  1  0.317268  0.967047  0.957951  1
  Pt  Pt30  1  0.682732  0.032953  0.457951  1
  Pt  Pt31  1  0.182732  0.467047  0.042049  1
  Pt  Pt32  1  0.182732  0.467047  0.457951  1
  Pt  Pt33  1  0.682732  0.032953  0.042049  1
  Pt  Pt34  1  0.317268  0.967047  0.542049  1
  Pt  Pt35  1  0.817268  0.532953  0.957951  1
