# generated using pymatgen
data_SrCa3Al13Au9
_symmetry_space_group_name_H-M   'P 1'
_cell_length_a   11.75972000
_cell_length_b   11.75971927
_cell_length_c   4.24295400
_cell_angle_alpha   90.00000000
_cell_angle_beta   90.00000000
_cell_angle_gamma   119.99999642
_symmetry_Int_Tables_number   1
_chemical_formula_structural   SrCa3Al13Au9
_chemical_formula_sum   'Sr1 Ca3 Al13 Au9'
_cell_volume   508.15114264
_cell_formula_units_Z   1
loop_
 _symmetry_equiv_pos_site_id
 _symmetry_equiv_pos_as_xyz
  1  'x, y, z'
loop_
 _atom_site_type_symbol
 _atom_site_label
 _atom_site_symmetry_multiplicity
 _atom_site_fract_x
 _atom_site_fract_y
 _atom_site_fract_z
 _atom_site_occupancy
  Sr  Sr0  1  0.666667  0.333333  0.000000  1
  Ca  Ca1  1  0.204923  0.795077  0.500000  1
  Ca  Ca2  1  0.590153  0.795077  0.500000  1
  Ca  Ca3  1  0.204923  0.409847  0.500000  1
  Al  Al4  1  0.948579  0.291870  0.000000  1
  Al  Al5  1  0.708130  0.656709  0.000000  1
  Al  Al6  1  0.948579  0.656709  0.000000  1
  Al  Al7  1  0.343291  0.051421  0.000000  1
  Al  Al8  1  0.164156  0.082077  0.500000  1
  Al  Al9  1  0.917923  0.835844  0.500000  1
  Al  Al10  1  0.708130  0.051421  0.000000  1
  Al  Al11  1  0.530863  0.061726  0.500000  1
  Al  Al12  1  0.917923  0.082077  0.500000  1
  Al  Al13  1  0.343291  0.291870  0.000000  1
  Al  Al14  1  0.530863  0.469137  0.500000  1
  Al  Al15  1  0.938274  0.469137  0.500000  1
  Al  Al16  1  0.333333  0.666667  0.000000  1
  Au  Au17  1  0.456237  0.543763  0.000000  1
  Au  Au18  1  0.825443  0.912722  0.000000  1
  Au  Au19  1  0.456237  0.912473  0.000000  1
  Au  Au20  1  0.087278  0.174557  0.000000  1
  Au  Au21  1  0.087278  0.912722  0.000000  1
  Au  Au22  1  0.790985  0.581970  0.500000  1
  Au  Au23  1  0.087527  0.543763  0.000000  1
  Au  Au24  1  0.790985  0.209015  0.500000  1
  Au  Au25  1  0.418030  0.209015  0.500000  1
