# generated using pymatgen
data_Ho6Tm10MgIn3Rh4
_symmetry_space_group_name_H-M   'P 1'
_cell_length_a   9.57079081
_cell_length_b   9.56183526
_cell_length_c   9.57013160
_cell_angle_alpha   59.99575038
_cell_angle_beta   59.98314921
_cell_angle_gamma   59.90917511
_symmetry_Int_Tables_number   1
_chemical_formula_structural   Ho6Tm10MgIn3Rh4
_chemical_formula_sum   'Ho6 Tm10 Mg1 In3 Rh4'
_cell_volume   618.76225441
_cell_formula_units_Z   1
loop_
 _symmetry_equiv_pos_site_id
 _symmetry_equiv_pos_as_xyz
  1  'x, y, z'
loop_
 _atom_site_type_symbol
 _atom_site_label
 _atom_site_symmetry_multiplicity
 _atom_site_fract_x
 _atom_site_fract_y
 _atom_site_fract_z
 _atom_site_occupancy
  Ho  Ho0  1  0.061850  0.061665  0.437919  1
  Ho  Ho1  1  0.435778  0.064337  0.435604  1
  Ho  Ho2  1  0.061540  0.438091  0.061618  1
  Ho  Ho3  1  0.048785  0.649574  0.649736  1
  Ho  Ho4  1  0.435950  0.435788  0.063973  1
  Ho  Ho5  1  0.649590  0.048667  0.649945  1
  Tm  Tm6  1  0.187055  0.812799  0.186768  1
  Tm  Tm7  1  0.186685  0.186750  0.812955  1
  Tm  Tm8  1  0.809901  0.809995  0.190363  1
  Tm  Tm9  1  0.438797  0.060741  0.060967  1
  Tm  Tm10  1  0.812974  0.186987  0.186638  1
  Tm  Tm11  1  0.062974  0.436668  0.436644  1
  Tm  Tm12  1  0.810284  0.190148  0.810351  1
  Tm  Tm13  1  0.190133  0.810384  0.810282  1
  Tm  Tm14  1  0.649796  0.650036  0.047777  1
  Tm  Tm15  1  0.651434  0.651458  0.651719  1
  Mg  Mg16  1  0.422843  0.423108  0.422185  1
  In  In17  1  0.748174  0.418299  0.417593  1
  In  In18  1  0.418561  0.748125  0.417072  1
  In  In19  1  0.418189  0.417536  0.748199  1
  Rh  Rh20  1  0.858516  0.857813  0.425057  1
  Rh  Rh21  1  0.856718  0.857271  0.858753  1
  Rh  Rh22  1  0.425714  0.857844  0.859360  1
  Rh  Rh23  1  0.857762  0.425917  0.858524  1
