# generated using pymatgen
data_Tb7YBe3Si12Pt
_symmetry_space_group_name_H-M   'P 1'
_cell_length_a   7.95132200
_cell_length_b   7.94979039
_cell_length_c   8.14125201
_cell_angle_alpha   89.99628141
_cell_angle_beta   89.99975080
_cell_angle_gamma   120.00544723
_symmetry_Int_Tables_number   1
_chemical_formula_structural   Tb7YBe3Si12Pt
_chemical_formula_sum   'Tb7 Y1 Be3 Si12 Pt1'
_cell_volume   445.64907263
_cell_formula_units_Z   1
loop_
 _symmetry_equiv_pos_site_id
 _symmetry_equiv_pos_as_xyz
  1  'x, y, z'
loop_
 _atom_site_type_symbol
 _atom_site_label
 _atom_site_symmetry_multiplicity
 _atom_site_fract_x
 _atom_site_fract_y
 _atom_site_fract_z
 _atom_site_occupancy
  Tb  Tb0  1  0.501416  0.002832  0.752279  1
  Tb  Tb1  1  0.997877  0.498888  0.247783  1
  Tb  Tb2  1  0.997109  0.498572  0.752281  1
  Tb  Tb3  1  0.501011  0.498886  0.247784  1
  Tb  Tb4  1  0.501463  0.498572  0.752281  1
  Tb  Tb5  1  0.999997  0.999992  0.248225  1
  Tb  Tb6  1  0.000001  0.000002  0.751581  1
  Y  Y7  1  0.501162  0.002331  0.247669  1
  Be  Be8  1  0.333341  0.666683  0.000799  1
  Be  Be9  1  0.666618  0.333235  0.000822  1
  Be  Be10  1  0.666627  0.333252  0.498539  1
  Si  Si11  1  0.172278  0.344555  0.999639  1
  Si  Si12  1  0.826770  0.653540  0.000436  1
  Si  Si13  1  0.655436  0.827733  0.999573  1
  Si  Si14  1  0.827961  0.655922  0.499927  1
  Si  Si15  1  0.346466  0.173220  0.000326  1
  Si  Si16  1  0.165460  0.330919  0.499561  1
  Si  Si17  1  0.172297  0.827733  0.999573  1
  Si  Si18  1  0.344113  0.172052  0.500068  1
  Si  Si19  1  0.826754  0.173220  0.000326  1
  Si  Si20  1  0.669050  0.834523  0.499625  1
  Si  Si21  1  0.827939  0.172052  0.500068  1
  Si  Si22  1  0.165474  0.834523  0.499625  1
  Pt  Pt23  1  0.333382  0.666763  0.501210  1
