# generated using pymatgen
data_Dy10Si5Sn
_symmetry_space_group_name_H-M   'P 1'
_cell_length_a   8.52477100
_cell_length_b   8.55160413
_cell_length_c   6.40711000
_cell_angle_alpha   90.00000000
_cell_angle_beta   90.00000000
_cell_angle_gamma   119.89626082
_symmetry_Int_Tables_number   1
_chemical_formula_structural   Dy10Si5Sn
_chemical_formula_sum   'Dy10 Si5 Sn1'
_cell_volume   404.92646353
_cell_formula_units_Z   1
loop_
 _symmetry_equiv_pos_site_id
 _symmetry_equiv_pos_as_xyz
  1  'x, y, z'
loop_
 _atom_site_type_symbol
 _atom_site_label
 _atom_site_symmetry_multiplicity
 _atom_site_fract_x
 _atom_site_fract_y
 _atom_site_fract_z
 _atom_site_occupancy
  Dy  Dy0  1  0.989341  0.748685  0.750000  1
  Dy  Dy1  1  0.999012  0.242942  0.250000  1
  Dy  Dy2  1  0.756070  0.757058  0.250000  1
  Dy  Dy3  1  0.764697  0.000000  0.750000  1
  Dy  Dy4  1  0.240656  0.251315  0.750000  1
  Dy  Dy5  1  0.241468  0.000000  0.250000  1
  Dy  Dy6  1  0.673308  0.341671  0.003182  1
  Dy  Dy7  1  0.331636  0.658329  0.496818  1
  Dy  Dy8  1  0.331636  0.658329  0.003182  1
  Dy  Dy9  1  0.673308  0.341671  0.496818  1
  Si  Si10  1  0.393558  0.392376  0.250000  1
  Si  Si11  1  0.001182  0.607624  0.250000  1
  Si  Si12  1  0.998819  0.394253  0.750000  1
  Si  Si13  1  0.604566  0.605747  0.750000  1
  Si  Si14  1  0.605861  0.000000  0.250000  1
  Sn  Sn15  1  0.394880  0.000000  0.750000  1
