# generated using pymatgen
data_Tb9NdSb9Te
_symmetry_space_group_name_H-M   'P 1'
_cell_length_a   7.62660739
_cell_length_b   8.87463138
_cell_length_c   9.86266305
_cell_angle_alpha   103.03017870
_cell_angle_beta   97.34081195
_cell_angle_gamma   106.92942559
_symmetry_Int_Tables_number   1
_chemical_formula_structural   Tb9NdSb9Te
_chemical_formula_sum   'Tb9 Nd1 Sb9 Te1'
_cell_volume   608.62083561
_cell_formula_units_Z   1
loop_
 _symmetry_equiv_pos_site_id
 _symmetry_equiv_pos_as_xyz
  1  'x, y, z'
loop_
 _atom_site_type_symbol
 _atom_site_label
 _atom_site_symmetry_multiplicity
 _atom_site_fract_x
 _atom_site_fract_y
 _atom_site_fract_z
 _atom_site_occupancy
  Tb  Tb0  1  0.901445  0.550052  0.800123  1
  Tb  Tb1  1  0.693698  0.152389  0.399587  1
  Tb  Tb2  1  0.502142  0.750676  0.001651  1
  Tb  Tb3  1  0.695335  0.644152  0.397967  1
  Tb  Tb4  1  0.302696  0.355042  0.601169  1
  Tb  Tb5  1  0.101197  0.947928  0.194320  1
  Tb  Tb6  1  0.499447  0.250012  0.999350  1
  Tb  Tb7  1  0.305725  0.847658  0.601122  1
  Tb  Tb8  1  0.098649  0.450317  0.200184  1
  Nd  Nd9  1  0.899334  0.052015  0.804996  1
  Sb  Sb10  1  0.799987  0.600567  0.101000  1
  Sb  Sb11  1  0.595633  0.200984  0.698873  1
  Sb  Sb12  1  0.400584  0.800629  0.300209  1
  Sb  Sb13  1  0.799648  0.100837  0.105591  1
  Sb  Sb14  1  0.203901  0.403556  0.900317  1
  Sb  Sb15  1  0.598811  0.697090  0.698611  1
  Sb  Sb16  1  0.397751  0.298889  0.299848  1
  Sb  Sb17  1  0.203219  0.898137  0.899134  1
  Sb  Sb18  1  0.999703  0.500047  0.499920  1
  Te  Te19  1  0.001096  0.999024  0.496028  1
