# generated using pymatgen
data_CeDy15Cd3HgRu4
_symmetry_space_group_name_H-M   'P 1'
_cell_length_a   9.64953084
_cell_length_b   9.64952922
_cell_length_c   9.64617707
_cell_angle_alpha   59.37183320
_cell_angle_beta   59.37183836
_cell_angle_gamma   59.39579483
_symmetry_Int_Tables_number   1
_chemical_formula_structural   CeDy15Cd3HgRu4
_chemical_formula_sum   'Ce1 Dy15 Cd3 Hg1 Ru4'
_cell_volume   626.15070522
_cell_formula_units_Z   1
loop_
 _symmetry_equiv_pos_site_id
 _symmetry_equiv_pos_as_xyz
  1  'x, y, z'
loop_
 _atom_site_type_symbol
 _atom_site_label
 _atom_site_symmetry_multiplicity
 _atom_site_fract_x
 _atom_site_fract_y
 _atom_site_fract_z
 _atom_site_occupancy
  Ce  Ce0  1  0.342614  0.342614  0.342717  1
  Dy  Dy1  1  0.561984  0.561984  0.939992  1
  Dy  Dy2  1  0.937569  0.561071  0.939581  1
  Dy  Dy3  1  0.561071  0.937569  0.939581  1
  Dy  Dy4  1  0.938506  0.938506  0.561026  1
  Dy  Dy5  1  0.562143  0.938078  0.562254  1
  Dy  Dy6  1  0.938078  0.562143  0.562254  1
  Dy  Dy7  1  0.189034  0.189034  0.812549  1
  Dy  Dy8  1  0.810993  0.188058  0.811248  1
  Dy  Dy9  1  0.188057  0.810994  0.811248  1
  Dy  Dy10  1  0.810697  0.810698  0.188822  1
  Dy  Dy11  1  0.189539  0.811702  0.189801  1
  Dy  Dy12  1  0.811702  0.189540  0.189802  1
  Dy  Dy13  1  0.346403  0.346403  0.957723  1
  Dy  Dy14  1  0.346876  0.956277  0.346637  1
  Dy  Dy15  1  0.956277  0.346876  0.346637  1
  Cd  Cd16  1  0.579372  0.258412  0.579987  1
  Cd  Cd17  1  0.258412  0.579372  0.579987  1
  Cd  Cd18  1  0.579471  0.579471  0.580181  1
  Hg  Hg19  1  0.583299  0.583299  0.248273  1
  Ru  Ru20  1  0.146691  0.146691  0.575616  1
  Ru  Ru21  1  0.146757  0.575242  0.147111  1
  Ru  Ru22  1  0.575242  0.146757  0.147111  1
  Ru  Ru23  1  0.139212  0.139212  0.139858  1
