# generated using pymatgen
data_Eu2YTm(Mo2O7)2
_symmetry_space_group_name_H-M   'P 1'
_cell_length_a   7.38108039
_cell_length_b   7.47782430
_cell_length_c   7.34609900
_cell_angle_alpha   60.58101936
_cell_angle_beta   60.15664791
_cell_angle_gamma   60.18945476
_symmetry_Int_Tables_number   1
_chemical_formula_structural   Eu2YTm(Mo2O7)2
_chemical_formula_sum   'Eu2 Y1 Tm1 Mo4 O14'
_cell_volume   288.70130365
_cell_formula_units_Z   1
loop_
 _symmetry_equiv_pos_site_id
 _symmetry_equiv_pos_as_xyz
  1  'x, y, z'
loop_
 _atom_site_type_symbol
 _atom_site_label
 _atom_site_symmetry_multiplicity
 _atom_site_fract_x
 _atom_site_fract_y
 _atom_site_fract_z
 _atom_site_occupancy
  Eu  Eu0  1  0.125000  0.125000  0.125000  1
  Eu  Eu1  1  0.125000  0.125000  0.625000  1
  Y  Y2  1  0.125000  0.625000  0.125000  1
  Tm  Tm3  1  0.625000  0.125000  0.125000  1
  Mo  Mo4  1  0.625000  0.625000  0.625000  1
  Mo  Mo5  1  0.125000  0.625000  0.625000  1
  Mo  Mo6  1  0.625000  0.125000  0.625000  1
  Mo  Mo7  1  0.625000  0.625000  0.125000  1
  O  O8  1  0.263076  0.260257  0.238334  1
  O  O9  1  0.986924  0.989743  0.011666  1
  O  O10  1  0.552183  0.959397  0.535945  1
  O  O11  1  0.290510  0.710988  0.289417  1
  O  O12  1  0.550020  0.524500  0.962739  1
  O  O13  1  0.959490  0.539012  0.540914  1
  O  O14  1  0.552183  0.959397  0.952474  1
  O  O15  1  0.947437  0.958676  0.546944  1
  O  O16  1  0.959490  0.539012  0.960583  1
  O  O17  1  0.697817  0.290603  0.297526  1
  O  O18  1  0.290510  0.710988  0.709086  1
  O  O19  1  0.699980  0.725500  0.287261  1
  O  O20  1  0.302563  0.291324  0.703056  1
  O  O21  1  0.697817  0.290603  0.714055  1
