# generated using pymatgen
data_FeAg3(SeO4)4
_symmetry_space_group_name_H-M   'P 1'
_cell_length_a   5.22271346
_cell_length_b   7.58310154
_cell_length_c   9.33269856
_cell_angle_alpha   91.49421662
_cell_angle_beta   91.00558304
_cell_angle_gamma   85.42715940
_symmetry_Int_Tables_number   1
_chemical_formula_structural   FeAg3(SeO4)4
_chemical_formula_sum   'Fe1 Ag3 Se4 O16'
_cell_volume   368.26937098
_cell_formula_units_Z   1
loop_
 _symmetry_equiv_pos_site_id
 _symmetry_equiv_pos_as_xyz
  1  'x, y, z'
loop_
 _atom_site_type_symbol
 _atom_site_label
 _atom_site_symmetry_multiplicity
 _atom_site_fract_x
 _atom_site_fract_y
 _atom_site_fract_z
 _atom_site_occupancy
  Fe  Fe0  1  0.500000  0.500000  0.500000  1
  Ag  Ag1  1  0.000000  0.000000  0.000000  1
  Ag  Ag2  1  0.500000  0.000000  0.500000  1
  Ag  Ag3  1  0.000000  0.500000  0.000000  1
  Se  Se4  1  0.525245  0.754598  0.811739  1
  Se  Se5  1  0.034826  0.286157  0.673621  1
  Se  Se6  1  0.474755  0.245402  0.188261  1
  Se  Se7  1  0.965174  0.713843  0.326379  1
  O  O8  1  0.200203  0.455216  0.623274  1
  O  O9  1  0.655149  0.567120  0.886354  1
  O  O10  1  0.851605  0.912909  0.383327  1
  O  O11  1  0.331708  0.061209  0.150732  1
  O  O12  1  0.799797  0.544784  0.376726  1
  O  O13  1  0.344851  0.432880  0.113646  1
  O  O14  1  0.148395  0.087091  0.616673  1
  O  O15  1  0.668292  0.938791  0.849268  1
  O  O16  1  0.217527  0.773445  0.859129  1
  O  O17  1  0.725824  0.323482  0.620428  1
  O  O18  1  0.782473  0.226555  0.140871  1
  O  O19  1  0.274176  0.676518  0.379572  1
  O  O20  1  0.551407  0.719729  0.628340  1
  O  O21  1  0.052033  0.275849  0.855547  1
  O  O22  1  0.448593  0.280271  0.371660  1
  O  O23  1  0.947967  0.724151  0.144453  1
