# generated using pymatgen
data_MnZnNiO4
_symmetry_space_group_name_H-M   'P 1'
_cell_length_a   5.95424257
_cell_length_b   5.95424250
_cell_length_c   5.95424258
_cell_angle_alpha   120.49000032
_cell_angle_beta   120.21864192
_cell_angle_gamma   89.38755205
_symmetry_Int_Tables_number   1
_chemical_formula_structural   MnZnNiO4
_chemical_formula_sum   'Mn2 Zn2 Ni2 O8'
_cell_volume   148.45759902
_cell_formula_units_Z   2
loop_
 _symmetry_equiv_pos_site_id
 _symmetry_equiv_pos_as_xyz
  1  'x, y, z'
loop_
 _atom_site_type_symbol
 _atom_site_label
 _atom_site_symmetry_multiplicity
 _atom_site_fract_x
 _atom_site_fract_y
 _atom_site_fract_z
 _atom_site_occupancy
  Mn  Mn0  1  0.000000  0.500000  0.500000  1
  Mn  Mn1  1  0.500000  0.500000  0.000000  1
  Zn  Zn2  1  0.110621  0.860621  0.250000  1
  Zn  Zn3  1  0.889379  0.139379  0.750000  1
  Ni  Ni4  1  0.500000  0.500000  0.500000  1
  Ni  Ni5  1  0.500000  0.000000  0.000000  1
  O  O6  1  0.251403  0.281281  0.529876  1
  O  O7  1  0.242462  0.726418  0.516044  1
  O  O8  1  0.710374  0.726418  0.983956  1
  O  O9  1  0.251403  0.721527  0.970124  1
  O  O10  1  0.748597  0.278473  0.029876  1
  O  O11  1  0.757538  0.273582  0.483956  1
  O  O12  1  0.289626  0.273582  0.016044  1
  O  O13  1  0.748597  0.718719  0.470124  1
