# generated using pymatgen
data_CaCe2NdH11
_symmetry_space_group_name_H-M   'P 1'
_cell_length_a   6.64823671
_cell_length_b   6.64823693
_cell_length_c   6.64823555
_cell_angle_alpha   131.13159465
_cell_angle_beta   133.34136932
_cell_angle_gamma   69.87103474
_symmetry_Int_Tables_number   1
_chemical_formula_structural   CaCe2NdH11
_chemical_formula_sum   'Ca1 Ce2 Nd1 H11'
_cell_volume   157.84421305
_cell_formula_units_Z   1
loop_
 _symmetry_equiv_pos_site_id
 _symmetry_equiv_pos_as_xyz
  1  'x, y, z'
loop_
 _atom_site_type_symbol
 _atom_site_label
 _atom_site_symmetry_multiplicity
 _atom_site_fract_x
 _atom_site_fract_y
 _atom_site_fract_z
 _atom_site_occupancy
  Ca  Ca0  1  0.500000  0.000000  0.500000  1
  Ce  Ce1  1  0.261323  0.261323  0.000000  1
  Ce  Ce2  1  0.738677  0.738677  0.000000  1
  Nd  Nd3  1  0.000000  0.500000  0.500000  1
  H  H4  1  0.645494  0.108518  0.993247  1
  H  H5  1  0.354506  0.347753  0.463024  1
  H  H6  1  0.115270  0.652247  0.006753  1
  H  H7  1  0.884730  0.891482  0.536976  1
  H  H8  1  0.884730  0.347753  0.993247  1
  H  H9  1  0.645494  0.652247  0.536976  1
  H  H10  1  0.354506  0.891482  0.006753  1
  H  H11  1  0.115270  0.108518  0.463024  1
  H  H12  1  0.762645  0.262645  0.500000  1
  H  H13  1  0.500000  0.500000  0.000000  1
  H  H14  1  0.237355  0.737355  0.500000  1
