# generated using pymatgen
data_KRb4Au3O4
_symmetry_space_group_name_H-M   'P 1'
_cell_length_a   8.63222023
_cell_length_b   8.63222156
_cell_length_c   7.48934761
_cell_angle_alpha   97.62352373
_cell_angle_beta   97.62351927
_cell_angle_gamma   140.33608379
_symmetry_Int_Tables_number   1
_chemical_formula_structural   KRb4Au3O4
_chemical_formula_sum   'K1 Rb4 Au3 O4'
_cell_volume   327.84442892
_cell_formula_units_Z   1
loop_
 _symmetry_equiv_pos_site_id
 _symmetry_equiv_pos_as_xyz
  1  'x, y, z'
loop_
 _atom_site_type_symbol
 _atom_site_label
 _atom_site_symmetry_multiplicity
 _atom_site_fract_x
 _atom_site_fract_y
 _atom_site_fract_z
 _atom_site_occupancy
  K  K0  1  0.833925  0.833925  0.667850  1
  Rb  Rb1  1  0.486650  0.821364  0.308014  1
  Rb  Rb2  1  0.184653  0.518190  0.702843  1
  Rb  Rb3  1  0.821364  0.486650  0.308014  1
  Rb  Rb4  1  0.518190  0.184653  0.702843  1
  Au  Au5  1  0.144282  0.854350  0.998632  1
  Au  Au6  1  0.151164  0.151164  0.302327  1
  Au  Au7  1  0.854350  0.144282  0.998632  1
  O  O8  1  0.021502  0.275324  0.296826  1
  O  O9  1  0.014092  0.694504  0.708596  1
  O  O10  1  0.275324  0.021502  0.296826  1
  O  O11  1  0.694504  0.014092  0.708596  1
