# generated using pymatgen
data_TbY2AgSn3Rh2
_symmetry_space_group_name_H-M   'P 1'
_cell_length_a   7.75394325
_cell_length_b   7.74625981
_cell_length_c   3.82204200
_cell_angle_alpha   90.00000000
_cell_angle_beta   90.00000000
_cell_angle_gamma   120.06185784
_symmetry_Int_Tables_number   1
_chemical_formula_structural   TbY2AgSn3Rh2
_chemical_formula_sum   'Tb1 Y2 Ag1 Sn3 Rh2'
_cell_volume   198.68712336
_cell_formula_units_Z   1
loop_
 _symmetry_equiv_pos_site_id
 _symmetry_equiv_pos_as_xyz
  1  'x, y, z'
loop_
 _atom_site_type_symbol
 _atom_site_label
 _atom_site_symmetry_multiplicity
 _atom_site_fract_x
 _atom_site_fract_y
 _atom_site_fract_z
 _atom_site_occupancy
  Tb  Tb0  1  0.409955  0.020022  0.500000  1
  Y  Y1  1  0.980541  0.389945  0.500000  1
  Y  Y2  1  0.610596  0.590705  0.500000  1
  Ag  Ag3  1  0.333164  0.666675  0.000000  1
  Sn  Sn4  1  0.740579  0.998404  0.000000  1
  Sn  Sn5  1  0.001528  0.741710  0.000000  1
  Sn  Sn6  1  0.258083  0.259771  0.000000  1
  Rh  Rh7  1  0.665661  0.332693  0.000000  1
  Rh  Rh8  1  0.999892  0.000076  0.500000  1
