# generated using pymatgen
data_DyLu9(Ga2Sb)2
_symmetry_space_group_name_H-M   'P 1'
_cell_length_a   8.50811300
_cell_length_b   8.52562814
_cell_length_c   6.37561600
_cell_angle_alpha   90.00000000
_cell_angle_beta   90.00000000
_cell_angle_gamma   120.03191400
_symmetry_Int_Tables_number   1
_chemical_formula_structural   DyLu9(Ga2Sb)2
_chemical_formula_sum   'Dy1 Lu9 Ga4 Sb2'
_cell_volume   400.38026795
_cell_formula_units_Z   1
loop_
 _symmetry_equiv_pos_site_id
 _symmetry_equiv_pos_as_xyz
  1  'x, y, z'
loop_
 _atom_site_type_symbol
 _atom_site_label
 _atom_site_symmetry_multiplicity
 _atom_site_fract_x
 _atom_site_fract_y
 _atom_site_fract_z
 _atom_site_occupancy
  Dy  Dy0  1  0.235113  0.986683  0.250000  1
  Lu  Lu1  1  0.985630  0.750481  0.750000  1
  Lu  Lu2  1  0.986033  0.235141  0.250000  1
  Lu  Lu3  1  0.765751  0.766560  0.250000  1
  Lu  Lu4  1  0.767329  0.999909  0.750000  1
  Lu  Lu5  1  0.235715  0.249812  0.750000  1
  Lu  Lu6  1  0.331840  0.665568  0.500429  1
  Lu  Lu7  1  0.686004  0.343139  0.999944  1
  Lu  Lu8  1  0.686004  0.343139  0.500056  1
  Lu  Lu9  1  0.331840  0.665568  0.999571  1
  Ga  Ga10  1  0.000540  0.599522  0.250000  1
  Ga  Ga11  1  0.001849  0.400062  0.750000  1
  Ga  Ga12  1  0.597445  0.601538  0.750000  1
  Ga  Ga13  1  0.598816  0.996127  0.250000  1
  Sb  Sb14  1  0.394551  0.004771  0.750000  1
  Sb  Sb15  1  0.395539  0.391981  0.250000  1
