# generated using pymatgen
data_Sr2Co2PdN3
_symmetry_space_group_name_H-M   'P 1'
_cell_length_a   6.50477242
_cell_length_b   6.50477513
_cell_length_c   6.48663401
_cell_angle_alpha   89.98106308
_cell_angle_beta   89.98106154
_cell_angle_gamma   116.74821686
_symmetry_Int_Tables_number   1
_chemical_formula_structural   Sr2Co2PdN3
_chemical_formula_sum   'Sr4 Co4 Pd2 N6'
_cell_volume   245.09346625
_cell_formula_units_Z   2
loop_
 _symmetry_equiv_pos_site_id
 _symmetry_equiv_pos_as_xyz
  1  'x, y, z'
loop_
 _atom_site_type_symbol
 _atom_site_label
 _atom_site_symmetry_multiplicity
 _atom_site_fract_x
 _atom_site_fract_y
 _atom_site_fract_z
 _atom_site_occupancy
  Sr  Sr0  1  0.827768  0.675801  0.896902  1
  Sr  Sr1  1  0.324199  0.172232  0.603098  1
  Sr  Sr2  1  0.172232  0.324199  0.103098  1
  Sr  Sr3  1  0.675801  0.827768  0.396902  1
  Co  Co4  1  0.567761  0.166884  0.098971  1
  Co  Co5  1  0.432239  0.833116  0.901029  1
  Co  Co6  1  0.833116  0.432239  0.401029  1
  Co  Co7  1  0.166884  0.567761  0.598971  1
  Pd  Pd8  1  0.810451  0.189549  0.750000  1
  Pd  Pd9  1  0.189549  0.810451  0.250000  1
  N  N10  1  0.408098  0.591902  0.750000  1
  N  N11  1  0.591902  0.408098  0.250000  1
  N  N12  1  0.996664  0.719534  0.518124  1
  N  N13  1  0.719534  0.996664  0.018124  1
  N  N14  1  0.003336  0.280466  0.481876  1
  N  N15  1  0.280466  0.003336  0.981876  1
