# generated using pymatgen
data_Sm7Ho(GeO5)4
_symmetry_space_group_name_H-M   'P 1'
_cell_length_a   8.35197494
_cell_length_b   8.37475252
_cell_length_c   10.79205152
_cell_angle_alpha   61.45821849
_cell_angle_beta   61.29667351
_cell_angle_gamma   49.67103907
_symmetry_Int_Tables_number   1
_chemical_formula_structural   Sm7Ho(GeO5)4
_chemical_formula_sum   'Sm7 Ho1 Ge4 O20'
_cell_volume   488.75473797
_cell_formula_units_Z   1
loop_
 _symmetry_equiv_pos_site_id
 _symmetry_equiv_pos_as_xyz
  1  'x, y, z'
loop_
 _atom_site_type_symbol
 _atom_site_label
 _atom_site_symmetry_multiplicity
 _atom_site_fract_x
 _atom_site_fract_y
 _atom_site_fract_z
 _atom_site_occupancy
  Sm  Sm0  1  0.719369  0.208927  0.966123  1
  Sm  Sm1  1  0.791694  0.275205  0.536285  1
  Sm  Sm2  1  0.276405  0.794083  0.035126  1
  Sm  Sm3  1  0.207254  0.721471  0.464242  1
  Sm  Sm4  1  0.987858  0.734841  0.837209  1
  Sm  Sm5  1  0.266876  0.016040  0.659631  1
  Sm  Sm6  1  0.008647  0.266127  0.165224  1
  Ho  Ho7  1  0.742278  0.979888  0.337331  1
  Ge  Ge8  1  0.778188  0.592004  0.689856  1
  Ge  Ge9  1  0.407653  0.223440  0.808587  1
  Ge  Ge10  1  0.225288  0.407383  0.306256  1
  Ge  Ge11  1  0.590261  0.779008  0.194748  1
  O  O12  1  0.775746  0.633833  0.058299  1
  O  O13  1  0.382638  0.218711  0.435168  1
  O  O14  1  0.221370  0.368726  0.944560  1
  O  O15  1  0.635271  0.781737  0.552933  1
  O  O16  1  0.583607  0.587072  0.364864  1
  O  O17  1  0.404008  0.424498  0.130641  1
  O  O18  1  0.416291  0.411288  0.636748  1
  O  O19  1  0.589253  0.582814  0.862027  1
  O  O20  1  0.957697  0.646549  0.675742  1
  O  O21  1  0.349522  0.045559  0.825370  1
  O  O22  1  0.047223  0.345493  0.327302  1
  O  O23  1  0.649628  0.954768  0.180771  1
  O  O24  1  0.883922  0.075084  0.397969  1
  O  O25  1  0.915716  0.109017  0.109120  1
  O  O26  1  0.112189  0.921127  0.602798  1
  O  O27  1  0.077985  0.892426  0.895031  1
  O  O28  1  0.085705  0.676369  0.322455  1
  O  O29  1  0.321505  0.911845  0.181103  1
  O  O30  1  0.912322  0.324889  0.674806  1
  O  O31  1  0.676629  0.089779  0.821672  1
