# generated using pymatgen
data_Nd2Er4MnCo17P12
_symmetry_space_group_name_H-M   'P 1'
_cell_length_a   3.70620200
_cell_length_b   10.55598800
_cell_length_c   12.22583500
_cell_angle_alpha   90.00000000
_cell_angle_beta   90.00000000
_cell_angle_gamma   90.00000000
_symmetry_Int_Tables_number   1
_chemical_formula_structural   Nd2Er4MnCo17P12
_chemical_formula_sum   'Nd2 Er4 Mn1 Co17 P12'
_cell_volume   478.30674381
_cell_formula_units_Z   1
loop_
 _symmetry_equiv_pos_site_id
 _symmetry_equiv_pos_as_xyz
  1  'x, y, z'
loop_
 _atom_site_type_symbol
 _atom_site_label
 _atom_site_symmetry_multiplicity
 _atom_site_fract_x
 _atom_site_fract_y
 _atom_site_fract_z
 _atom_site_occupancy
  Nd  Nd0  1  0.750000  0.250000  0.476610  1
  Nd  Nd1  1  0.250000  0.750000  0.522625  1
  Er  Er2  1  0.250000  0.931443  0.795088  1
  Er  Er3  1  0.250000  0.568557  0.795088  1
  Er  Er4  1  0.750000  0.067564  0.203787  1
  Er  Er5  1  0.750000  0.432436  0.203787  1
  Mn  Mn6  1  0.250000  0.250000  0.842936  1
  Co  Co7  1  0.750000  0.750000  0.157479  1
  Co  Co8  1  0.250000  0.250000  0.293464  1
  Co  Co9  1  0.750000  0.750000  0.707130  1
  Co  Co10  1  0.750000  0.250000  0.013605  1
  Co  Co11  1  0.250000  0.750000  0.986432  1
  Co  Co12  1  0.250000  0.416925  0.005768  1
  Co  Co13  1  0.250000  0.083075  0.005768  1
  Co  Co14  1  0.750000  0.583284  0.994467  1
  Co  Co15  1  0.750000  0.916716  0.994467  1
  Co  Co16  1  0.250000  0.453732  0.571598  1
  Co  Co17  1  0.250000  0.046268  0.571598  1
  Co  Co18  1  0.750000  0.546136  0.429237  1
  Co  Co19  1  0.750000  0.953864  0.429237  1
  Co  Co20  1  0.250000  0.870684  0.287643  1
  Co  Co21  1  0.250000  0.629316  0.287643  1
  Co  Co22  1  0.750000  0.129392  0.712672  1
  Co  Co23  1  0.750000  0.370608  0.712672  1
  P  P24  1  0.250000  0.250000  0.116574  1
  P  P25  1  0.750000  0.750000  0.884013  1
  P  P26  1  0.250000  0.250000  0.658690  1
  P  P27  1  0.750000  0.750000  0.339185  1
  P  P28  1  0.250000  0.442174  0.381462  1
  P  P29  1  0.250000  0.057826  0.381462  1
  P  P30  1  0.750000  0.558346  0.618168  1
  P  P31  1  0.750000  0.941654  0.618168  1
  P  P32  1  0.250000  0.902825  0.106485  1
  P  P33  1  0.250000  0.597175  0.106485  1
  P  P34  1  0.750000  0.095984  0.894253  1
  P  P35  1  0.750000  0.404016  0.894253  1
