# generated using pymatgen
data_Er2PSe
_symmetry_space_group_name_H-M   'P 1'
_cell_length_a   6.99443291
_cell_length_b   6.99443306
_cell_length_c   6.99443293
_cell_angle_alpha   33.16359385
_cell_angle_beta   33.16359578
_cell_angle_gamma   33.16359739
_symmetry_Int_Tables_number   1
_chemical_formula_structural   Er2PSe
_chemical_formula_sum   'Er2 P1 Se1'
_cell_volume   91.14763128
_cell_formula_units_Z   1
loop_
 _symmetry_equiv_pos_site_id
 _symmetry_equiv_pos_as_xyz
  1  'x, y, z'
loop_
 _atom_site_type_symbol
 _atom_site_label
 _atom_site_symmetry_multiplicity
 _atom_site_fract_x
 _atom_site_fract_y
 _atom_site_fract_z
 _atom_site_occupancy
  Er  Er0  1  0.257579  0.257579  0.257579  1
  Er  Er1  1  0.742421  0.742421  0.742421  1
  P  P2  1  0.000000  0.000000  0.000000  1
  Se  Se3  1  0.500000  0.500000  0.500000  1
