# generated using pymatgen
data_TbTh3Pd7Pt5
_symmetry_space_group_name_H-M   'P 1'
_cell_length_a   5.92323700
_cell_length_b   5.92617736
_cell_length_c   9.78904673
_cell_angle_alpha   89.96154084
_cell_angle_beta   90.00000000
_cell_angle_gamma   119.98359392
_symmetry_Int_Tables_number   1
_chemical_formula_structural   TbTh3Pd7Pt5
_chemical_formula_sum   'Tb1 Th3 Pd7 Pt5'
_cell_volume   297.62981311
_cell_formula_units_Z   1
loop_
 _symmetry_equiv_pos_site_id
 _symmetry_equiv_pos_as_xyz
  1  'x, y, z'
loop_
 _atom_site_type_symbol
 _atom_site_label
 _atom_site_symmetry_multiplicity
 _atom_site_fract_x
 _atom_site_fract_y
 _atom_site_fract_z
 _atom_site_occupancy
  Tb  Tb0  1  0.000000  0.000000  0.500000  1
  Th  Th1  1  0.000000  0.000000  0.000000  1
  Th  Th2  1  0.333236  0.666474  0.253969  1
  Th  Th3  1  0.666764  0.333526  0.746031  1
  Pd  Pd4  1  0.500000  0.000000  0.500000  1
  Pd  Pd5  1  0.825595  0.651191  0.250802  1
  Pd  Pd6  1  0.348254  0.173973  0.250424  1
  Pd  Pd7  1  0.825718  0.173973  0.250424  1
  Pd  Pd8  1  0.174405  0.348809  0.749198  1
  Pd  Pd9  1  0.651746  0.826027  0.749576  1
  Pd  Pd10  1  0.174282  0.826027  0.749576  1
  Pt  Pt11  1  0.500000  0.500000  0.500000  1
  Pt  Pt12  1  0.000000  0.500000  0.500000  1
  Pt  Pt13  1  0.500000  0.500000  0.000000  1
  Pt  Pt14  1  0.500000  0.000000  0.000000  1
  Pt  Pt15  1  0.000000  0.500000  0.000000  1
