# generated using pymatgen
data_La4Nd(Sn5Ir2)2
_symmetry_space_group_name_H-M   'P 1'
_cell_length_a   14.25516405
_cell_length_b   14.25516405
_cell_length_c   4.72928000
_cell_angle_alpha   90.00000000
_cell_angle_beta   90.00000000
_cell_angle_gamma   90.00934889
_symmetry_Int_Tables_number   1
_chemical_formula_structural   La4Nd(Sn5Ir2)2
_chemical_formula_sum   'La8 Nd2 Sn20 Ir8'
_cell_volume   961.03556677
_cell_formula_units_Z   2
loop_
 _symmetry_equiv_pos_site_id
 _symmetry_equiv_pos_as_xyz
  1  'x, y, z'
loop_
 _atom_site_type_symbol
 _atom_site_label
 _atom_site_symmetry_multiplicity
 _atom_site_fract_x
 _atom_site_fract_y
 _atom_site_fract_z
 _atom_site_occupancy
  La  La0  1  0.500000  0.500000  0.000000  1
  La  La1  1  0.000000  0.000000  0.000000  1
  La  La2  1  0.176743  0.323257  0.500000  1
  La  La3  1  0.823257  0.676743  0.500000  1
  La  La4  1  0.887364  0.387364  0.500000  1
  La  La5  1  0.112636  0.612636  0.500000  1
  La  La6  1  0.387608  0.112392  0.500000  1
  La  La7  1  0.612392  0.887608  0.500000  1
  Nd  Nd8  1  0.676509  0.176509  0.500000  1
  Nd  Nd9  1  0.323491  0.823491  0.500000  1
  Sn  Sn10  1  0.569813  0.069813  0.000000  1
  Sn  Sn11  1  0.430187  0.930187  0.000000  1
  Sn  Sn12  1  0.069312  0.430688  0.000000  1
  Sn  Sn13  1  0.930688  0.569312  0.000000  1
  Sn  Sn14  1  0.654288  0.698247  0.000000  1
  Sn  Sn15  1  0.345712  0.301753  0.000000  1
  Sn  Sn16  1  0.155016  0.801967  0.000000  1
  Sn  Sn17  1  0.844984  0.198033  0.000000  1
  Sn  Sn18  1  0.301967  0.655016  0.000000  1
  Sn  Sn19  1  0.698033  0.344984  0.000000  1
  Sn  Sn20  1  0.198247  0.154288  0.000000  1
  Sn  Sn21  1  0.801753  0.845712  0.000000  1
  Sn  Sn22  1  0.663668  0.504750  0.500000  1
  Sn  Sn23  1  0.336332  0.495250  0.500000  1
  Sn  Sn24  1  0.163909  0.994810  0.500000  1
  Sn  Sn25  1  0.836091  0.005190  0.500000  1
  Sn  Sn26  1  0.494810  0.663909  0.500000  1
  Sn  Sn27  1  0.505190  0.336091  0.500000  1
  Sn  Sn28  1  0.004750  0.163668  0.500000  1
  Sn  Sn29  1  0.995250  0.836332  0.500000  1
  Ir  Ir30  1  0.746186  0.527978  0.000000  1
  Ir  Ir31  1  0.253814  0.472022  0.000000  1
  Ir  Ir32  1  0.246370  0.971746  0.000000  1
  Ir  Ir33  1  0.753630  0.028254  0.000000  1
  Ir  Ir34  1  0.471746  0.746370  0.000000  1
  Ir  Ir35  1  0.528254  0.253630  0.000000  1
  Ir  Ir36  1  0.027978  0.246186  0.000000  1
  Ir  Ir37  1  0.972022  0.753814  0.000000  1
