# generated using pymatgen
data_Tb3Sn2SbIr3
_symmetry_space_group_name_H-M   'P 1'
_cell_length_a   7.45166300
_cell_length_b   7.44094130
_cell_length_c   4.03562200
_cell_angle_alpha   90.00000000
_cell_angle_beta   90.00000000
_cell_angle_gamma   120.04766291
_symmetry_Int_Tables_number   1
_chemical_formula_structural   Tb3Sn2SbIr3
_chemical_formula_sum   'Tb3 Sn2 Sb1 Ir3'
_cell_volume   193.69277097
_cell_formula_units_Z   1
loop_
 _symmetry_equiv_pos_site_id
 _symmetry_equiv_pos_as_xyz
  1  'x, y, z'
loop_
 _atom_site_type_symbol
 _atom_site_label
 _atom_site_symmetry_multiplicity
 _atom_site_fract_x
 _atom_site_fract_y
 _atom_site_fract_z
 _atom_site_occupancy
  Tb  Tb0  1  0.594759  0.000000  0.000000  1
  Tb  Tb1  1  0.998830  0.592031  0.000000  1
  Tb  Tb2  1  0.406799  0.407969  0.000000  1
  Sn  Sn3  1  0.998306  0.257350  0.500000  1
  Sn  Sn4  1  0.740957  0.742650  0.500000  1
  Sb  Sb5  1  0.258300  0.000000  0.500000  1
  Ir  Ir6  1  0.333688  0.667259  0.500000  1
  Ir  Ir7  1  0.666430  0.332741  0.500000  1
  Ir  Ir8  1  0.001932  0.000000  0.000000  1
