# generated using pymatgen
data_YbEu(MnN2)2
_symmetry_space_group_name_H-M   'P 1'
_cell_length_a   7.21925400
_cell_length_b   5.75725488
_cell_length_c   5.66362421
_cell_angle_alpha   66.43793925
_cell_angle_beta   90.00000000
_cell_angle_gamma   90.00000000
_symmetry_Int_Tables_number   1
_chemical_formula_structural   YbEu(MnN2)2
_chemical_formula_sum   'Yb2 Eu2 Mn4 N8'
_cell_volume   215.77203151
_cell_formula_units_Z   2
loop_
 _symmetry_equiv_pos_site_id
 _symmetry_equiv_pos_as_xyz
  1  'x, y, z'
loop_
 _atom_site_type_symbol
 _atom_site_label
 _atom_site_symmetry_multiplicity
 _atom_site_fract_x
 _atom_site_fract_y
 _atom_site_fract_z
 _atom_site_occupancy
  Yb  Yb0  1  0.918807  0.695583  0.682509  1
  Yb  Yb1  1  0.418807  0.804417  0.317491  1
  Eu  Eu2  1  0.081620  0.310425  0.327065  1
  Eu  Eu3  1  0.581620  0.189575  0.672935  1
  Mn  Mn4  1  0.637133  0.400376  0.095127  1
  Mn  Mn5  1  0.137133  0.099624  0.904873  1
  Mn  Mn6  1  0.364146  0.602946  0.891062  1
  Mn  Mn7  1  0.864146  0.897054  0.108938  1
  N  N8  1  0.085395  0.919582  0.260652  1
  N  N9  1  0.585395  0.580418  0.739348  1
  N  N10  1  0.918030  0.069035  0.755224  1
  N  N11  1  0.418030  0.430965  0.244776  1
  N  N12  1  0.683415  0.076136  0.166462  1
  N  N13  1  0.183415  0.423864  0.833538  1
  N  N14  1  0.311456  0.919057  0.839883  1
  N  N15  1  0.811456  0.580943  0.160117  1
