# generated using pymatgen
data_Nb12Al8CuPt3C4
_symmetry_space_group_name_H-M   'P 1'
_cell_length_a   8.35915554
_cell_length_b   8.35895749
_cell_length_c   8.35918770
_cell_angle_alpha   60.11408920
_cell_angle_beta   60.11157924
_cell_angle_gamma   60.11285862
_symmetry_Int_Tables_number   1
_chemical_formula_structural   Nb12Al8CuPt3C4
_chemical_formula_sum   'Nb12 Al8 Cu1 Pt3 C4'
_cell_volume   414.06879124
_cell_formula_units_Z   1
loop_
 _symmetry_equiv_pos_site_id
 _symmetry_equiv_pos_as_xyz
  1  'x, y, z'
loop_
 _atom_site_type_symbol
 _atom_site_label
 _atom_site_symmetry_multiplicity
 _atom_site_fract_x
 _atom_site_fract_y
 _atom_site_fract_z
 _atom_site_occupancy
  Nb  Nb0  1  0.566755  0.933118  0.566744  1
  Nb  Nb1  1  0.316884  0.683236  0.683251  1
  Nb  Nb2  1  0.683848  0.316044  0.316043  1
  Nb  Nb3  1  0.316032  0.683854  0.316027  1
  Nb  Nb4  1  0.683252  0.683248  0.316875  1
  Nb  Nb5  1  0.316039  0.316034  0.683860  1
  Nb  Nb6  1  0.566748  0.566752  0.933125  1
  Nb  Nb7  1  0.933116  0.566764  0.566749  1
  Nb  Nb8  1  0.566152  0.933956  0.933957  1
  Nb  Nb9  1  0.933961  0.933966  0.566140  1
  Nb  Nb10  1  0.683245  0.316882  0.683256  1
  Nb  Nb11  1  0.933968  0.566146  0.933973  1
  Al  Al12  1  0.915817  0.915802  0.915815  1
  Al  Al13  1  0.997426  0.331831  0.331827  1
  Al  Al14  1  0.331828  0.997429  0.331824  1
  Al  Al15  1  0.331829  0.331829  0.997426  1
  Al  Al16  1  0.918172  0.252571  0.918176  1
  Al  Al17  1  0.918171  0.918171  0.252574  1
  Al  Al18  1  0.252574  0.918169  0.918173  1
  Al  Al19  1  0.334183  0.334198  0.334185  1
  Cu  Cu20  1  0.125000  0.125000  0.125000  1
  Pt  Pt21  1  0.625000  0.125000  0.125000  1
  Pt  Pt22  1  0.125000  0.625000  0.125000  1
  Pt  Pt23  1  0.125000  0.125000  0.625000  1
  C  C24  1  0.625000  0.625000  0.625000  1
  C  C25  1  0.125000  0.625000  0.625000  1
  C  C26  1  0.625000  0.125000  0.625000  1
  C  C27  1  0.625000  0.625000  0.125000  1
