# generated using pymatgen
data_Sc3SiTc2P2Ir
_symmetry_space_group_name_H-M   'P 1'
_cell_length_a   6.68477100
_cell_length_b   6.74440461
_cell_length_c   3.54554100
_cell_angle_alpha   90.00000000
_cell_angle_beta   90.00000000
_cell_angle_gamma   119.70794444
_symmetry_Int_Tables_number   1
_chemical_formula_structural   Sc3SiTc2P2Ir
_chemical_formula_sum   'Sc3 Si1 Tc2 P2 Ir1'
_cell_volume   138.83977176
_cell_formula_units_Z   1
loop_
 _symmetry_equiv_pos_site_id
 _symmetry_equiv_pos_as_xyz
  1  'x, y, z'
loop_
 _atom_site_type_symbol
 _atom_site_label
 _atom_site_symmetry_multiplicity
 _atom_site_fract_x
 _atom_site_fract_y
 _atom_site_fract_z
 _atom_site_occupancy
  Sc  Sc0  1  0.001790  0.410863  0.500000  1
  Sc  Sc1  1  0.590927  0.589137  0.500000  1
  Sc  Sc2  1  0.408028  0.000000  0.500000  1
  Si  Si3  1  0.999810  0.000000  0.500000  1
  Tc  Tc4  1  0.999428  0.747724  0.000000  1
  Tc  Tc5  1  0.251705  0.252276  0.000000  1
  P  P6  1  0.666834  0.333999  0.000000  1
  P  P7  1  0.332833  0.666001  0.000000  1
  Ir  Ir8  1  0.748644  0.000000  0.000000  1
