# generated using pymatgen
data_Ce(LuRu)2
_symmetry_space_group_name_H-M   'P 1'
_cell_length_a   5.70877626
_cell_length_b   5.70877471
_cell_length_c   5.70877576
_cell_angle_alpha   137.00356174
_cell_angle_beta   117.68099424
_cell_angle_gamma   78.70009944
_symmetry_Int_Tables_number   1
_chemical_formula_structural   Ce(LuRu)2
_chemical_formula_sum   'Ce1 Lu2 Ru2'
_cell_volume   109.12285334
_cell_formula_units_Z   1
loop_
 _symmetry_equiv_pos_site_id
 _symmetry_equiv_pos_as_xyz
  1  'x, y, z'
loop_
 _atom_site_type_symbol
 _atom_site_label
 _atom_site_symmetry_multiplicity
 _atom_site_fract_x
 _atom_site_fract_y
 _atom_site_fract_z
 _atom_site_occupancy
  Ce  Ce0  1  0.000000  0.000000  0.000000  1
  Lu  Lu1  1  0.692891  0.192891  0.500000  1
  Lu  Lu2  1  0.307110  0.807109  0.499999  1
  Ru  Ru3  1  0.735600  0.500000  0.235600  1
  Ru  Ru4  1  0.264400  0.499999  0.764399  1
