# generated using pymatgen
data_LaSn3SbRh6
_symmetry_space_group_name_H-M   'P 1'
_cell_length_a   7.65892300
_cell_length_b   7.65892285
_cell_length_c   4.10638900
_cell_angle_alpha   90.00000000
_cell_angle_beta   90.00000000
_cell_angle_gamma   119.99999633
_symmetry_Int_Tables_number   1
_chemical_formula_structural   LaSn3SbRh6
_chemical_formula_sum   'La1 Sn3 Sb1 Rh6'
_cell_volume   208.60568212
_cell_formula_units_Z   1
loop_
 _symmetry_equiv_pos_site_id
 _symmetry_equiv_pos_as_xyz
  1  'x, y, z'
loop_
 _atom_site_type_symbol
 _atom_site_label
 _atom_site_symmetry_multiplicity
 _atom_site_fract_x
 _atom_site_fract_y
 _atom_site_fract_z
 _atom_site_occupancy
  La  La0  1  0.000000  0.000000  0.000000  1
  Sn  Sn1  1  0.392179  0.196090  0.499999  1
  Sn  Sn2  1  0.803910  0.196090  0.499999  1
  Sn  Sn3  1  0.803910  0.607821  0.499999  1
  Sb  Sb4  1  0.333333  0.666666  0.000000  1
  Rh  Rh5  1  0.531902  0.063805  0.000000  1
  Rh  Rh6  1  0.531902  0.468098  0.000000  1
  Rh  Rh7  1  0.936195  0.468098  0.000000  1
  Rh  Rh8  1  0.203446  0.406892  0.499999  1
  Rh  Rh9  1  0.203446  0.796554  0.499999  1
  Rh  Rh10  1  0.593108  0.796554  0.499999  1
