# generated using pymatgen
data_Er4NbOs6W
_symmetry_space_group_name_H-M   'P 1'
_cell_length_a   5.26111604
_cell_length_b   5.26111632
_cell_length_c   8.98682500
_cell_angle_alpha   90.00000000
_cell_angle_beta   90.00000000
_cell_angle_gamma   116.36960638
_symmetry_Int_Tables_number   1
_chemical_formula_structural   Er4NbOs6W
_chemical_formula_sum   'Er4 Nb1 Os6 W1'
_cell_volume   222.86641709
_cell_formula_units_Z   1
loop_
 _symmetry_equiv_pos_site_id
 _symmetry_equiv_pos_as_xyz
  1  'x, y, z'
loop_
 _atom_site_type_symbol
 _atom_site_label
 _atom_site_symmetry_multiplicity
 _atom_site_fract_x
 _atom_site_fract_y
 _atom_site_fract_z
 _atom_site_occupancy
  Er  Er0  1  0.329190  0.670810  0.433160  1
  Er  Er1  1  0.669981  0.330019  0.562239  1
  Er  Er2  1  0.669981  0.330019  0.937761  1
  Er  Er3  1  0.329190  0.670810  0.066840  1
  Nb  Nb4  1  0.163198  0.836802  0.750000  1
  Os  Os5  1  0.996175  0.003825  0.497870  1
  Os  Os6  1  0.996175  0.003825  0.002130  1
  Os  Os7  1  0.823762  0.647819  0.250000  1
  Os  Os8  1  0.352181  0.176238  0.250000  1
  Os  Os9  1  0.177708  0.347233  0.750000  1
  Os  Os10  1  0.652767  0.822292  0.750000  1
  W  W11  1  0.839691  0.160309  0.250000  1
