# generated using pymatgen
data_Sm8GaPd7Pt17
_symmetry_space_group_name_H-M   'P 1'
_cell_length_a   8.42735900
_cell_length_b   8.43714600
_cell_length_c   8.49119100
_cell_angle_alpha   90.00000000
_cell_angle_beta   90.00000000
_cell_angle_gamma   90.00000000
_symmetry_Int_Tables_number   1
_chemical_formula_structural   Sm8GaPd7Pt17
_chemical_formula_sum   'Sm8 Ga1 Pd7 Pt17'
_cell_volume   603.74795028
_cell_formula_units_Z   1
loop_
 _symmetry_equiv_pos_site_id
 _symmetry_equiv_pos_as_xyz
  1  'x, y, z'
loop_
 _atom_site_type_symbol
 _atom_site_label
 _atom_site_symmetry_multiplicity
 _atom_site_fract_x
 _atom_site_fract_y
 _atom_site_fract_z
 _atom_site_occupancy
  Sm  Sm0  1  0.251364  0.251375  0.251895  1
  Sm  Sm1  1  0.748778  0.748632  0.748107  1
  Sm  Sm2  1  0.748778  0.748632  0.251893  1
  Sm  Sm3  1  0.748778  0.251368  0.748107  1
  Sm  Sm4  1  0.251364  0.251375  0.748105  1
  Sm  Sm5  1  0.251364  0.748625  0.251895  1
  Sm  Sm6  1  0.251364  0.748625  0.748105  1
  Sm  Sm7  1  0.748778  0.251368  0.251893  1
  Ga  Ga8  1  0.000096  0.000000  0.000000  1
  Pd  Pd9  1  0.746913  0.500000  0.500000  1
  Pd  Pd10  1  0.499677  0.253371  0.500000  1
  Pd  Pd11  1  0.499677  0.746629  0.500000  1
  Pd  Pd12  1  0.499673  0.500000  0.253735  1
  Pd  Pd13  1  0.499673  0.500000  0.746265  1
  Pd  Pd14  1  0.999831  0.000000  0.296660  1
  Pd  Pd15  1  0.999831  0.000000  0.703340  1
  Pt  Pt16  1  0.262063  0.500000  0.000000  1
  Pt  Pt17  1  0.737661  0.500000  0.000000  1
  Pt  Pt18  1  0.000145  0.261040  0.500000  1
  Pt  Pt19  1  0.500116  0.262078  0.000000  1
  Pt  Pt20  1  0.000145  0.738960  0.500000  1
  Pt  Pt21  1  0.500116  0.737922  0.000000  1
  Pt  Pt22  1  0.500115  0.000000  0.262469  1
  Pt  Pt23  1  0.261194  0.000000  0.500000  1
  Pt  Pt24  1  0.500115  0.000000  0.737531  1
  Pt  Pt25  1  0.738562  0.000000  0.500000  1
  Pt  Pt26  1  0.000147  0.500000  0.262233  1
  Pt  Pt27  1  0.000147  0.500000  0.737767  1
  Pt  Pt28  1  0.253245  0.500000  0.500000  1
  Pt  Pt29  1  0.295495  0.000000  0.000000  1
  Pt  Pt30  1  0.705110  0.000000  0.000000  1
  Pt  Pt31  1  0.999842  0.294917  0.000000  1
  Pt  Pt32  1  0.999842  0.705083  0.000000  1
