# generated using pymatgen
data_Y8Be(Pd3Pt)6
_symmetry_space_group_name_H-M   'P 1'
_cell_length_a   8.36323300
_cell_length_b   8.35620000
_cell_length_c   8.36214700
_cell_angle_alpha   90.00000000
_cell_angle_beta   90.00000000
_cell_angle_gamma   90.00000000
_symmetry_Int_Tables_number   1
_chemical_formula_structural   Y8Be(Pd3Pt)6
_chemical_formula_sum   'Y8 Be1 Pd18 Pt6'
_cell_volume   584.38736866
_cell_formula_units_Z   1
loop_
 _symmetry_equiv_pos_site_id
 _symmetry_equiv_pos_as_xyz
  1  'x, y, z'
loop_
 _atom_site_type_symbol
 _atom_site_label
 _atom_site_symmetry_multiplicity
 _atom_site_fract_x
 _atom_site_fract_y
 _atom_site_fract_z
 _atom_site_occupancy
  Y  Y0  1  0.250129  0.249851  0.250062  1
  Y  Y1  1  0.749427  0.749318  0.749120  1
  Y  Y2  1  0.749427  0.749318  0.250880  1
  Y  Y3  1  0.749871  0.249851  0.749938  1
  Y  Y4  1  0.250129  0.249851  0.749938  1
  Y  Y5  1  0.250573  0.749318  0.250880  1
  Y  Y6  1  0.250573  0.749318  0.749120  1
  Y  Y7  1  0.749871  0.249851  0.250062  1
  Be  Be8  1  0.000000  0.004544  0.000000  1
  Pd  Pd9  1  0.254963  0.500360  0.000000  1
  Pd  Pd10  1  0.745037  0.500360  0.000000  1
  Pd  Pd11  1  0.000000  0.255611  0.500000  1
  Pd  Pd12  1  0.500000  0.253389  0.000000  1
  Pd  Pd13  1  0.000000  0.743705  0.500000  1
  Pd  Pd14  1  0.500000  0.745802  0.000000  1
  Pd  Pd15  1  0.500000  0.000228  0.254462  1
  Pd  Pd16  1  0.255975  0.000462  0.500000  1
  Pd  Pd17  1  0.500000  0.000228  0.745538  1
  Pd  Pd18  1  0.744025  0.000462  0.500000  1
  Pd  Pd19  1  0.000000  0.500266  0.255574  1
  Pd  Pd20  1  0.000000  0.500266  0.744426  1
  Pd  Pd21  1  0.500000  0.747496  0.500000  1
  Pd  Pd22  1  0.500000  0.499653  0.252135  1
  Pd  Pd23  1  0.500000  0.499653  0.747865  1
  Pd  Pd24  1  0.000000  0.733005  0.000000  1
  Pd  Pd25  1  0.000000  0.998853  0.271321  1
  Pd  Pd26  1  0.000000  0.998853  0.728679  1
  Pt  Pt27  1  0.252049  0.499155  0.500000  1
  Pt  Pt28  1  0.747951  0.499155  0.500000  1
  Pt  Pt29  1  0.500000  0.251913  0.500000  1
  Pt  Pt30  1  0.267763  0.998334  0.000000  1
  Pt  Pt31  1  0.732237  0.998334  0.000000  1
  Pt  Pt32  1  0.000000  0.273239  0.000000  1
