# generated using pymatgen
data_Gd2YEr3Ta2O14
_symmetry_space_group_name_H-M   'P 1'
_cell_length_a   6.44815282
_cell_length_b   6.46103915
_cell_length_c   7.53127300
_cell_angle_alpha   90.00000000
_cell_angle_beta   90.00000000
_cell_angle_gamma   109.26692633
_symmetry_Int_Tables_number   1
_chemical_formula_structural   Gd2YEr3Ta2O14
_chemical_formula_sum   'Gd2 Y1 Er3 Ta2 O14'
_cell_volume   296.19260171
_cell_formula_units_Z   1
loop_
 _symmetry_equiv_pos_site_id
 _symmetry_equiv_pos_as_xyz
  1  'x, y, z'
loop_
 _atom_site_type_symbol
 _atom_site_label
 _atom_site_symmetry_multiplicity
 _atom_site_fract_x
 _atom_site_fract_y
 _atom_site_fract_z
 _atom_site_occupancy
  Gd  Gd0  1  0.499592  0.499213  0.499425  1
  Gd  Gd1  1  0.499592  0.499213  0.000575  1
  Y  Y2  1  0.999820  0.465909  0.750000  1
  Er  Er3  1  0.533509  0.001023  0.750000  1
  Er  Er4  1  0.000952  0.534378  0.250000  1
  Er  Er5  1  0.466274  0.998940  0.250000  1
  Ta  Ta6  1  0.999710  0.999976  0.499400  1
  Ta  Ta7  1  0.999710  0.999976  0.000600  1
  O  O8  1  0.678252  0.931215  0.466529  1
  O  O9  1  0.928964  0.678224  0.530705  1
  O  O10  1  0.678252  0.931215  0.033471  1
  O  O11  1  0.928964  0.678224  0.969295  1
  O  O12  1  0.321838  0.069850  0.533378  1
  O  O13  1  0.070807  0.321384  0.465128  1
  O  O14  1  0.321838  0.069850  0.966622  1
  O  O15  1  0.070807  0.321384  0.034872  1
  O  O16  1  0.932506  0.065371  0.750000  1
  O  O17  1  0.068110  0.933362  0.250000  1
  O  O18  1  0.370210  0.634620  0.750000  1
  O  O19  1  0.633008  0.366515  0.250000  1
  O  O20  1  0.638256  0.358568  0.750000  1
  O  O21  1  0.359029  0.641590  0.250000  1
