# generated using pymatgen
data_TbNdHoP4Pd7
_symmetry_space_group_name_H-M   'P 1'
_cell_length_a   7.96069031
_cell_length_b   7.96069041
_cell_length_c   9.48828920
_cell_angle_alpha   55.85163420
_cell_angle_beta   55.85163480
_cell_angle_gamma   29.27463694
_symmetry_Int_Tables_number   1
_chemical_formula_structural   TbNdHoP4Pd7
_chemical_formula_sum   'Tb1 Nd1 Ho1 P4 Pd7'
_cell_volume   239.48851779
_cell_formula_units_Z   1
loop_
 _symmetry_equiv_pos_site_id
 _symmetry_equiv_pos_as_xyz
  1  'x, y, z'
loop_
 _atom_site_type_symbol
 _atom_site_label
 _atom_site_symmetry_multiplicity
 _atom_site_fract_x
 _atom_site_fract_y
 _atom_site_fract_z
 _atom_site_occupancy
  Tb  Tb0  1  0.320568  0.320568  0.676173  1
  Nd  Nd1  1  0.999934  0.999934  0.000065  1
  Ho  Ho2  1  0.679429  0.679429  0.323861  1
  P  P3  1  0.337601  0.337601  0.258798  1
  P  P4  1  0.661809  0.661809  0.741719  1
  P  P5  1  0.893492  0.893492  0.817503  1
  P  P6  1  0.106801  0.106801  0.182818  1
  Pd  Pd7  1  0.304579  0.304579  0.031193  1
  Pd  Pd8  1  0.695163  0.695163  0.969812  1
  Pd  Pd9  1  0.509821  0.509821  0.712804  1
  Pd  Pd10  1  0.830211  0.830211  0.424461  1
  Pd  Pd11  1  0.490405  0.490405  0.286913  1
  Pd  Pd12  1  0.169567  0.169567  0.574493  1
  Pd  Pd13  1  0.000621  0.000621  0.499388  1
