# generated using pymatgen
data_TbBi3Ir3RhO14
_symmetry_space_group_name_H-M   'P 1'
_cell_length_a   7.31356624
_cell_length_b   7.31356686
_cell_length_c   7.33925913
_cell_angle_alpha   60.41114617
_cell_angle_beta   60.41114407
_cell_angle_gamma   60.44142911
_symmetry_Int_Tables_number   1
_chemical_formula_structural   TbBi3Ir3RhO14
_chemical_formula_sum   'Tb1 Bi3 Ir3 Rh1 O14'
_cell_volume   280.22869008
_cell_formula_units_Z   1
loop_
 _symmetry_equiv_pos_site_id
 _symmetry_equiv_pos_as_xyz
  1  'x, y, z'
loop_
 _atom_site_type_symbol
 _atom_site_label
 _atom_site_symmetry_multiplicity
 _atom_site_fract_x
 _atom_site_fract_y
 _atom_site_fract_z
 _atom_site_occupancy
  Tb  Tb0  1  0.125000  0.125000  0.125000  1
  Bi  Bi1  1  0.125000  0.625000  0.125000  1
  Bi  Bi2  1  0.625000  0.125000  0.125000  1
  Bi  Bi3  1  0.125000  0.125000  0.625000  1
  Ir  Ir4  1  0.625000  0.625000  0.625000  1
  Ir  Ir5  1  0.125000  0.625000  0.625000  1
  Ir  Ir6  1  0.625000  0.125000  0.625000  1
  Rh  Rh7  1  0.625000  0.625000  0.125000  1
  O  O8  1  0.247343  0.247343  0.250480  1
  O  O9  1  0.286336  0.716251  0.292215  1
  O  O10  1  0.958759  0.958759  0.537646  1
  O  O11  1  0.543298  0.954830  0.547096  1
  O  O12  1  0.707245  0.707245  0.296142  1
  O  O13  1  0.954830  0.543298  0.547096  1
  O  O14  1  0.706702  0.295170  0.702904  1
  O  O15  1  0.291241  0.291241  0.712354  1
  O  O16  1  0.716251  0.286336  0.292215  1
  O  O17  1  0.295170  0.706702  0.702904  1
  O  O18  1  0.963664  0.533749  0.957785  1
  O  O19  1  0.542755  0.542755  0.953858  1
  O  O20  1  0.002657  0.002657  0.999520  1
  O  O21  1  0.533749  0.963664  0.957785  1
