# generated using pymatgen
data_Sm8Dy12Si15Hg
_symmetry_space_group_name_H-M   'P 1'
_cell_length_a   7.48957270
_cell_length_b   7.79148495
_cell_length_c   14.83287536
_cell_angle_alpha   89.91912156
_cell_angle_beta   89.37469693
_cell_angle_gamma   90.16884770
_symmetry_Int_Tables_number   1
_chemical_formula_structural   Sm8Dy12Si15Hg
_chemical_formula_sum   'Sm8 Dy12 Si15 Hg1'
_cell_volume   865.51464686
_cell_formula_units_Z   1
loop_
 _symmetry_equiv_pos_site_id
 _symmetry_equiv_pos_as_xyz
  1  'x, y, z'
loop_
 _atom_site_type_symbol
 _atom_site_label
 _atom_site_symmetry_multiplicity
 _atom_site_fract_x
 _atom_site_fract_y
 _atom_site_fract_z
 _atom_site_occupancy
  Sm  Sm0  1  0.019695  0.181754  0.099457  1
  Sm  Sm1  1  0.979870  0.819530  0.902918  1
  Sm  Sm2  1  0.480176  0.682151  0.902688  1
  Sm  Sm3  1  0.982709  0.827611  0.599614  1
  Sm  Sm4  1  0.518476  0.317311  0.098170  1
  Sm  Sm5  1  0.013482  0.175142  0.397387  1
  Sm  Sm6  1  0.517167  0.317243  0.398086  1
  Sm  Sm7  1  0.490877  0.687549  0.601104  1
  Dy  Dy8  1  0.162882  0.510702  0.752866  1
  Dy  Dy9  1  0.837543  0.489445  0.250783  1
  Dy  Dy10  1  0.338262  0.008643  0.249466  1
  Dy  Dy11  1  0.664634  0.988340  0.751177  1
  Dy  Dy12  1  0.337669  0.169931  0.626249  1
  Dy  Dy13  1  0.666592  0.822851  0.375633  1
  Dy  Dy14  1  0.168891  0.678580  0.373244  1
  Dy  Dy15  1  0.672918  0.820962  0.122646  1
  Dy  Dy16  1  0.825308  0.325479  0.622742  1
  Dy  Dy17  1  0.325882  0.178064  0.877962  1
  Dy  Dy18  1  0.825734  0.319739  0.878210  1
  Dy  Dy19  1  0.172812  0.678823  0.122959  1
  Si  Si20  1  0.035991  0.112816  0.751583  1
  Si  Si21  1  0.963991  0.891626  0.248188  1
  Si  Si22  1  0.465033  0.607100  0.247902  1
  Si  Si23  1  0.535426  0.393452  0.752241  1
  Si  Si24  1  0.277032  0.876360  0.751887  1
  Si  Si25  1  0.720588  0.124401  0.247754  1
  Si  Si26  1  0.221858  0.373376  0.248152  1
  Si  Si27  1  0.780130  0.623966  0.752944  1
  Si  Si28  1  0.834277  0.534357  0.458460  1
  Si  Si29  1  0.340002  0.966656  0.460230  1
  Si  Si30  1  0.848568  0.532259  0.038279  1
  Si  Si31  1  0.658377  0.034642  0.537297  1
  Si  Si32  1  0.149697  0.466696  0.962642  1
  Si  Si33  1  0.650465  0.031252  0.961500  1
  Si  Si34  1  0.348324  0.968128  0.039199  1
  Hg  Hg35  1  0.168667  0.463067  0.538379  1
