# generated using pymatgen
data_Dy4Ho16Ir7Rh5
_symmetry_space_group_name_H-M   'P 1'
_cell_length_a   10.83989427
_cell_length_b   10.83984089
_cell_length_c   6.36631300
_cell_angle_alpha   89.99126478
_cell_angle_beta   89.99022542
_cell_angle_gamma   89.93212540
_symmetry_Int_Tables_number   1
_chemical_formula_structural   Dy4Ho16Ir7Rh5
_chemical_formula_sum   'Dy4 Ho16 Ir7 Rh5'
_cell_volume   748.05860753
_cell_formula_units_Z   1
loop_
 _symmetry_equiv_pos_site_id
 _symmetry_equiv_pos_as_xyz
  1  'x, y, z'
loop_
 _atom_site_type_symbol
 _atom_site_label
 _atom_site_symmetry_multiplicity
 _atom_site_fract_x
 _atom_site_fract_y
 _atom_site_fract_z
 _atom_site_occupancy
  Dy  Dy0  1  0.290168  0.088830  0.379550  1
  Dy  Dy1  1  0.290465  0.911053  0.878930  1
  Dy  Dy2  1  0.708988  0.088490  0.878266  1
  Dy  Dy3  1  0.709003  0.909423  0.379616  1
  Ho  Ho4  1  0.588800  0.790119  0.879590  1
  Ho  Ho5  1  0.587277  0.209967  0.379288  1
  Ho  Ho6  1  0.410838  0.790232  0.379442  1
  Ho  Ho7  1  0.411007  0.209644  0.879214  1
  Ho  Ho8  1  0.209619  0.411307  0.620356  1
  Ho  Ho9  1  0.209480  0.589065  0.120508  1
  Ho  Ho10  1  0.790285  0.412826  0.120668  1
  Ho  Ho11  1  0.790607  0.588903  0.620744  1
  Ho  Ho12  1  0.911423  0.709610  0.120122  1
  Ho  Ho13  1  0.911805  0.291284  0.621526  1
  Ho  Ho14  1  0.088684  0.709326  0.620767  1
  Ho  Ho15  1  0.090365  0.291250  0.120024  1
  Ho  Ho16  1  0.999992  0.999747  0.500078  1
  Ho  Ho17  1  0.000256  0.999994  0.000267  1
  Ho  Ho18  1  0.499911  0.499756  0.999949  1
  Ho  Ho19  1  0.500257  0.500077  0.500241  1
  Ir  Ir20  1  0.846254  0.846525  0.750327  1
  Ir  Ir21  1  0.152962  0.154260  0.750295  1
  Ir  Ir22  1  0.153751  0.845742  0.250326  1
  Ir  Ir23  1  0.654556  0.345627  0.749848  1
  Ir  Ir24  1  0.654068  0.653400  0.249598  1
  Ir  Ir25  1  0.346432  0.346101  0.250147  1
  Ir  Ir26  1  0.346111  0.653714  0.749851  1
  Rh  Rh27  1  0.846102  0.154284  0.250247  1
  Rh  Rh28  1  0.500611  0.000253  0.123349  1
  Rh  Rh29  1  0.500412  0.000243  0.622686  1
  Rh  Rh30  1  0.999770  0.499572  0.877424  1
  Rh  Rh31  1  0.999739  0.499376  0.376756  1
