# generated using pymatgen
data_LaCd3As(PN2)6
_symmetry_space_group_name_H-M   'P 1'
_cell_length_a   7.52984235
_cell_length_b   7.53823029
_cell_length_c   7.53823098
_cell_angle_alpha   109.49374078
_cell_angle_beta   109.44868186
_cell_angle_gamma   109.44868852
_symmetry_Int_Tables_number   1
_chemical_formula_structural   LaCd3As(PN2)6
_chemical_formula_sum   'La1 Cd3 As1 P6 N12'
_cell_volume   329.47584128
_cell_formula_units_Z   1
loop_
 _symmetry_equiv_pos_site_id
 _symmetry_equiv_pos_as_xyz
  1  'x, y, z'
loop_
 _atom_site_type_symbol
 _atom_site_label
 _atom_site_symmetry_multiplicity
 _atom_site_fract_x
 _atom_site_fract_y
 _atom_site_fract_z
 _atom_site_occupancy
  La  La0  1  0.639172  0.000000  0.000000  1
  Cd  Cd1  1  0.999660  0.000000  0.656622  1
  Cd  Cd2  1  0.999660  0.656622  0.000000  1
  Cd  Cd3  1  0.343038  0.343378  0.343378  1
  As  As4  1  0.023746  0.000000  0.000000  1
  P  P5  1  0.245482  0.748774  0.493807  1
  P  P6  1  0.751675  0.254967  0.506193  1
  P  P7  1  0.751675  0.506193  0.254967  1
  P  P8  1  0.245482  0.493807  0.748774  1
  P  P9  1  0.496708  0.745033  0.251226  1
  P  P10  1  0.496708  0.251226  0.745033  1
  N  N11  1  0.721638  0.309045  0.309045  1
  N  N12  1  0.286779  0.698070  0.287157  1
  N  N13  1  0.303782  0.600699  0.600699  1
  N  N14  1  0.588709  0.589088  0.301930  1
  N  N15  1  0.412593  0.690955  0.000000  1
  N  N16  1  0.999622  0.712843  0.410912  1
  N  N17  1  0.588709  0.301930  0.589088  1
  N  N18  1  0.703084  0.000000  0.399301  1
  N  N19  1  0.412593  0.000000  0.690955  1
  N  N20  1  0.703084  0.399301  0.000000  1
  N  N21  1  0.286779  0.287157  0.698070  1
  N  N22  1  0.999622  0.410912  0.712843  1
