# generated using pymatgen
data_Dy2Y8B2I15
_symmetry_space_group_name_H-M   'P 1'
_cell_length_a   9.62242133
_cell_length_b   10.37117511
_cell_length_c   11.31929306
_cell_angle_alpha   91.76673385
_cell_angle_beta   114.40326051
_cell_angle_gamma   110.43400749
_symmetry_Int_Tables_number   1
_chemical_formula_structural   Dy2Y8B2I15
_chemical_formula_sum   'Dy2 Y8 B2 I15'
_cell_volume   943.46213057
_cell_formula_units_Z   1
loop_
 _symmetry_equiv_pos_site_id
 _symmetry_equiv_pos_as_xyz
  1  'x, y, z'
loop_
 _atom_site_type_symbol
 _atom_site_label
 _atom_site_symmetry_multiplicity
 _atom_site_fract_x
 _atom_site_fract_y
 _atom_site_fract_z
 _atom_site_occupancy
  Dy  Dy0  1  0.707329  0.069898  0.045556  1
  Dy  Dy1  1  0.292671  0.930102  0.954444  1
  Y  Y2  1  0.784241  0.393337  0.267775  1
  Y  Y3  1  0.215759  0.606663  0.732225  1
  Y  Y4  1  0.663039  0.752116  0.825436  1
  Y  Y5  1  0.336961  0.247884  0.174564  1
  Y  Y6  1  0.523130  0.712942  0.085720  1
  Y  Y7  1  0.476870  0.287058  0.914280  1
  Y  Y8  1  0.580434  0.043828  0.308893  1
  Y  Y9  1  0.419566  0.956172  0.691107  1
  B  B10  1  0.468615  0.823269  0.880390  1
  B  B11  1  0.531385  0.176731  0.119610  1
  I  I12  1  0.000000  0.000000  0.000000  1
  I  I13  1  0.638496  0.882461  0.582961  1
  I  I14  1  0.361504  0.117539  0.417039  1
  I  I15  1  0.884792  0.299333  0.531132  1
  I  I16  1  0.115208  0.700667  0.468868  1
  I  I17  1  0.284648  0.760208  0.177413  1
  I  I18  1  0.715352  0.239792  0.822587  1
  I  I19  1  0.054803  0.340078  0.225589  1
  I  I20  1  0.160164  0.055932  0.702063  1
  I  I21  1  0.839836  0.944068  0.297937  1
  I  I22  1  0.228281  0.409878  0.942038  1
  I  I23  1  0.771719  0.590122  0.057962  1
  I  I24  1  0.409796  0.459543  0.660012  1
  I  I25  1  0.590204  0.540457  0.339988  1
  I  I26  1  0.945197  0.659922  0.774411  1
