# generated using pymatgen
data_Dy2Np3O10
_symmetry_space_group_name_H-M   'P 1'
_cell_length_a   6.54599339
_cell_length_b   7.59456422
_cell_length_c   8.48185750
_cell_angle_alpha   103.16471955
_cell_angle_beta   97.31174717
_cell_angle_gamma   106.77290180
_symmetry_Int_Tables_number   1
_chemical_formula_structural   Dy2Np3O10
_chemical_formula_sum   'Dy4 Np6 O20'
_cell_volume   384.60198849
_cell_formula_units_Z   2
loop_
 _symmetry_equiv_pos_site_id
 _symmetry_equiv_pos_as_xyz
  1  'x, y, z'
loop_
 _atom_site_type_symbol
 _atom_site_label
 _atom_site_symmetry_multiplicity
 _atom_site_fract_x
 _atom_site_fract_y
 _atom_site_fract_z
 _atom_site_occupancy
  Dy  Dy0  1  0.002993  0.502185  0.999696  1
  Dy  Dy1  1  0.199606  0.899892  0.398376  1
  Dy  Dy2  1  0.395953  0.800429  0.800102  1
  Dy  Dy3  1  0.997569  0.997501  0.999195  1
  Np  Np4  1  0.804800  0.603778  0.604668  1
  Np  Np5  1  0.600429  0.199062  0.199222  1
  Np  Np6  1  0.797938  0.098433  0.603084  1
  Np  Np7  1  0.605429  0.701413  0.197756  1
  Np  Np8  1  0.201261  0.399917  0.398616  1
  Np  Np9  1  0.397426  0.296717  0.801094  1
  O  O10  1  0.844161  0.322306  0.455084  1
  O  O11  1  0.641736  0.926892  0.057676  1
  O  O12  1  0.937073  0.771551  0.153966  1
  O  O13  1  0.843527  0.828404  0.455517  1
  O  O14  1  0.449759  0.514850  0.639825  1
  O  O15  1  0.643806  0.417956  0.050333  1
  O  O16  1  0.741512  0.371664  0.747919  1
  O  O17  1  0.263356  0.137383  0.254569  1
  O  O18  1  0.449054  0.034944  0.652685  1
  O  O19  1  0.947917  0.280020  0.162021  1
  O  O20  1  0.561271  0.980921  0.352802  1
  O  O21  1  0.041620  0.720532  0.842473  1
  O  O22  1  0.272988  0.625331  0.249471  1
  O  O23  1  0.745926  0.873938  0.742695  1
  O  O24  1  0.362803  0.566954  0.945537  1
  O  O25  1  0.048009  0.222301  0.841826  1
  O  O26  1  0.565832  0.478476  0.349815  1
  O  O27  1  0.141053  0.179592  0.549793  1
  O  O28  1  0.355559  0.084271  0.953418  1
  O  O29  1  0.139634  0.662386  0.540768  1
