# generated using pymatgen
data_Li4Eu3HgBi4
_symmetry_space_group_name_H-M   'P 1'
_cell_length_a   4.88211300
_cell_length_b   7.91837805
_cell_length_c   8.57033774
_cell_angle_alpha   90.14267267
_cell_angle_beta   90.00000000
_cell_angle_gamma   90.00000000
_symmetry_Int_Tables_number   1
_chemical_formula_structural   Li4Eu3HgBi4
_chemical_formula_sum   'Li4 Eu3 Hg1 Bi4'
_cell_volume   331.31465792
_cell_formula_units_Z   1
loop_
 _symmetry_equiv_pos_site_id
 _symmetry_equiv_pos_as_xyz
  1  'x, y, z'
loop_
 _atom_site_type_symbol
 _atom_site_label
 _atom_site_symmetry_multiplicity
 _atom_site_fract_x
 _atom_site_fract_y
 _atom_site_fract_z
 _atom_site_occupancy
  Li  Li0  1  0.250000  0.136997  0.947879  1
  Li  Li1  1  0.250000  0.675514  0.568339  1
  Li  Li2  1  0.750000  0.869367  0.097611  1
  Li  Li3  1  0.750000  0.312051  0.411470  1
  Eu  Eu4  1  0.250000  0.508622  0.203796  1
  Eu  Eu5  1  0.750000  0.992523  0.701183  1
  Eu  Eu6  1  0.750000  0.500961  0.781183  1
  Hg  Hg7  1  0.250000  0.012275  0.310732  1
  Bi  Bi8  1  0.250000  0.272069  0.597909  1
  Bi  Bi9  1  0.250000  0.770291  0.894077  1
  Bi  Bi10  1  0.750000  0.710410  0.406838  1
  Bi  Bi11  1  0.750000  0.238920  0.078982  1
