# generated using pymatgen
data_Y8Lu11ScSb12
_symmetry_space_group_name_H-M   'P 1'
_cell_length_a   7.95146801
_cell_length_b   9.12928500
_cell_length_c   11.67089800
_cell_angle_alpha   90.00000000
_cell_angle_beta   89.99734110
_cell_angle_gamma   90.00000000
_symmetry_Int_Tables_number   1
_chemical_formula_structural   Y8Lu11ScSb12
_chemical_formula_sum   'Y8 Lu11 Sc1 Sb12'
_cell_volume   847.20469561
_cell_formula_units_Z   1
loop_
 _symmetry_equiv_pos_site_id
 _symmetry_equiv_pos_as_xyz
  1  'x, y, z'
loop_
 _atom_site_type_symbol
 _atom_site_label
 _atom_site_symmetry_multiplicity
 _atom_site_fract_x
 _atom_site_fract_y
 _atom_site_fract_z
 _atom_site_occupancy
  Y  Y0  1  0.183491  0.750000  0.721761  1
  Y  Y1  1  0.683258  0.750000  0.780900  1
  Y  Y2  1  0.816314  0.250000  0.279720  1
  Y  Y3  1  0.314440  0.250000  0.219579  1
  Y  Y4  1  0.351289  0.750000  0.213759  1
  Y  Y5  1  0.852196  0.750000  0.285323  1
  Y  Y6  1  0.649045  0.250000  0.785868  1
  Y  Y7  1  0.147189  0.250000  0.714960  1
  Lu  Lu8  1  0.526053  0.750000  0.510894  1
  Lu  Lu9  1  0.973947  0.250000  0.010726  1
  Lu  Lu10  1  0.474291  0.250000  0.489296  1
  Lu  Lu11  1  0.308011  0.438029  0.941007  1
  Lu  Lu12  1  0.809052  0.062813  0.559625  1
  Lu  Lu13  1  0.693592  0.936242  0.057844  1
  Lu  Lu14  1  0.191121  0.562924  0.440303  1
  Lu  Lu15  1  0.693592  0.563758  0.057844  1
  Lu  Lu16  1  0.191121  0.937076  0.440303  1
  Lu  Lu17  1  0.308011  0.061971  0.941007  1
  Lu  Lu18  1  0.809052  0.437187  0.559625  1
  Sc  Sc19  1  0.025018  0.750000  0.989059  1
  Sb  Sb20  1  0.434238  0.004019  0.671040  1
  Sb  Sb21  1  0.935642  0.498334  0.831305  1
  Sb  Sb22  1  0.565940  0.504260  0.328914  1
  Sb  Sb23  1  0.065601  0.993512  0.168506  1
  Sb  Sb24  1  0.565940  0.995740  0.328914  1
  Sb  Sb25  1  0.065601  0.506488  0.168506  1
  Sb  Sb26  1  0.434238  0.495981  0.671040  1
  Sb  Sb27  1  0.935642  0.001666  0.831305  1
  Sb  Sb28  1  0.403221  0.750000  0.958772  1
  Sb  Sb29  1  0.907200  0.750000  0.542261  1
  Sb  Sb30  1  0.592906  0.250000  0.042146  1
  Sb  Sb31  1  0.093747  0.250000  0.457886  1
