# generated using pymatgen
data_Ac3CdSnPt3Pb
_symmetry_space_group_name_H-M   'P 1'
_cell_length_a   7.90961567
_cell_length_b   7.97175866
_cell_length_c   4.34819400
_cell_angle_alpha   90.00000000
_cell_angle_beta   90.00000000
_cell_angle_gamma   119.71880063
_symmetry_Int_Tables_number   1
_chemical_formula_structural   Ac3CdSnPt3Pb
_chemical_formula_sum   'Ac3 Cd1 Sn1 Pt3 Pb1'
_cell_volume   238.10729602
_cell_formula_units_Z   1
loop_
 _symmetry_equiv_pos_site_id
 _symmetry_equiv_pos_as_xyz
  1  'x, y, z'
loop_
 _atom_site_type_symbol
 _atom_site_label
 _atom_site_symmetry_multiplicity
 _atom_site_fract_x
 _atom_site_fract_y
 _atom_site_fract_z
 _atom_site_occupancy
  Ac  Ac0  1  0.584301  0.583959  0.000000  1
  Ac  Ac1  1  0.413450  0.002187  0.000000  1
  Ac  Ac2  1  0.002225  0.410822  0.000000  1
  Cd  Cd3  1  0.245653  0.244744  0.500000  1
  Sn  Sn4  1  0.758210  0.001465  0.500000  1
  Pt  Pt5  1  0.984666  0.005175  0.000000  1
  Pt  Pt6  1  0.345167  0.669555  0.500000  1
  Pt  Pt7  1  0.663904  0.321728  0.500000  1
  Pb  Pb8  1  0.002423  0.760362  0.500000  1
