# generated using pymatgen
data_Y3HfGa2Ir3
_symmetry_space_group_name_H-M   'P 1'
_cell_length_a   7.18218545
_cell_length_b   7.18218674
_cell_length_c   4.14631900
_cell_angle_alpha   90.00000000
_cell_angle_beta   90.00000000
_cell_angle_gamma   121.37131882
_symmetry_Int_Tables_number   1
_chemical_formula_structural   Y3HfGa2Ir3
_chemical_formula_sum   'Y3 Hf1 Ga2 Ir3'
_cell_volume   182.61566049
_cell_formula_units_Z   1
loop_
 _symmetry_equiv_pos_site_id
 _symmetry_equiv_pos_as_xyz
  1  'x, y, z'
loop_
 _atom_site_type_symbol
 _atom_site_label
 _atom_site_symmetry_multiplicity
 _atom_site_fract_x
 _atom_site_fract_y
 _atom_site_fract_z
 _atom_site_occupancy
  Y  Y0  1  0.391657  0.391657  0.500000  1
  Y  Y1  1  0.580429  0.012399  0.500000  1
  Y  Y2  1  0.012399  0.580429  0.500000  1
  Hf  Hf3  1  0.761532  0.761532  0.000000  1
  Ga  Ga4  1  0.248401  0.999431  0.000000  1
  Ga  Ga5  1  0.999431  0.248401  0.000000  1
  Ir  Ir6  1  0.669124  0.343549  0.000000  1
  Ir  Ir7  1  0.343549  0.669124  0.000000  1
  Ir  Ir8  1  0.993479  0.993479  0.500000  1
