# generated using pymatgen
data_Tb4Cr3PtF28
_symmetry_space_group_name_H-M   'P 1'
_cell_length_a   5.53892980
_cell_length_b   8.85403564
_cell_length_c   11.81615160
_cell_angle_alpha   62.73844422
_cell_angle_beta   90.14367330
_cell_angle_gamma   90.14431779
_symmetry_Int_Tables_number   1
_chemical_formula_structural   Tb4Cr3PtF28
_chemical_formula_sum   'Tb4 Cr3 Pt1 F28'
_cell_volume   515.11750808
_cell_formula_units_Z   1
loop_
 _symmetry_equiv_pos_site_id
 _symmetry_equiv_pos_as_xyz
  1  'x, y, z'
loop_
 _atom_site_type_symbol
 _atom_site_label
 _atom_site_symmetry_multiplicity
 _atom_site_fract_x
 _atom_site_fract_y
 _atom_site_fract_z
 _atom_site_occupancy
  Tb  Tb0  1  0.260922  0.810700  0.263560  1
  Tb  Tb1  1  0.738394  0.190463  0.732445  1
  Tb  Tb2  1  0.763486  0.190789  0.233691  1
  Tb  Tb3  1  0.235840  0.810417  0.769308  1
  Cr  Cr4  1  0.754230  0.725207  0.043905  1
  Cr  Cr5  1  0.245664  0.273150  0.956315  1
  Cr  Cr6  1  0.257286  0.275780  0.454301  1
  Pt  Pt7  1  0.742645  0.728648  0.543434  1
  F  F8  1  0.933265  0.698640  0.415084  1
  F  F9  1  0.057982  0.292469  0.572757  1
  F  F10  1  0.448760  0.291480  0.075055  1
  F  F11  1  0.552210  0.706901  0.926691  1
  F  F12  1  0.483075  0.731588  0.138148  1
  F  F13  1  0.515421  0.264473  0.864582  1
  F  F14  1  0.985860  0.274613  0.356853  1
  F  F15  1  0.041249  0.730266  0.633262  1
  F  F16  1  0.954250  0.744304  0.163699  1
  F  F17  1  0.045652  0.251568  0.835397  1
  F  F18  1  0.453142  0.258862  0.332343  1
  F  F19  1  0.556090  0.749214  0.677570  1
  F  F20  1  0.762283  0.492444  0.137394  1
  F  F21  1  0.236100  0.506564  0.861420  1
  F  F22  1  0.268555  0.509958  0.361889  1
  F  F23  1  0.734810  0.480731  0.645357  1
  F  F24  1  0.969317  0.284464  0.044945  1
  F  F25  1  0.033093  0.713114  0.954610  1
  F  F26  1  0.438787  0.716630  0.460866  1
  F  F27  1  0.537761  0.284000  0.544709  1
  F  F28  1  0.740917  0.977710  0.450534  1
  F  F29  1  0.255714  0.043787  0.545013  1
  F  F30  1  0.241360  0.040183  0.047975  1
  F  F31  1  0.756888  0.956979  0.952788  1
  F  F32  1  0.585181  0.969093  0.233542  1
  F  F33  1  0.415499  0.026956  0.771565  1
  F  F34  1  0.082497  0.024852  0.270984  1
  F  F35  1  0.915816  0.973005  0.728007  1
