# generated using pymatgen
data_Li8Tb3Y5(Sn3Bi)2
_symmetry_space_group_name_H-M   'P 1'
_cell_length_a   9.44228052
_cell_length_b   9.43636435
_cell_length_c   7.31089225
_cell_angle_alpha   90.10567781
_cell_angle_beta   89.77620202
_cell_angle_gamma   120.01816468
_symmetry_Int_Tables_number   1
_chemical_formula_structural   Li8Tb3Y5(Sn3Bi)2
_chemical_formula_sum   'Li8 Tb3 Y5 Sn6 Bi2'
_cell_volume   564.02684644
_cell_formula_units_Z   1
loop_
 _symmetry_equiv_pos_site_id
 _symmetry_equiv_pos_as_xyz
  1  'x, y, z'
loop_
 _atom_site_type_symbol
 _atom_site_label
 _atom_site_symmetry_multiplicity
 _atom_site_fract_x
 _atom_site_fract_y
 _atom_site_fract_z
 _atom_site_occupancy
  Li  Li0  1  0.164394  0.828847  0.196474  1
  Li  Li1  1  0.335527  0.171176  0.696624  1
  Li  Li2  1  0.829454  0.663721  0.692726  1
  Li  Li3  1  0.165717  0.336248  0.192509  1
  Li  Li4  1  0.665730  0.832073  0.196981  1
  Li  Li5  1  0.833716  0.167956  0.697141  1
  Li  Li6  1  0.334461  0.664189  0.813900  1
  Li  Li7  1  0.670309  0.335884  0.313799  1
  Tb  Tb8  1  0.515233  0.492456  0.989134  1
  Tb  Tb9  1  0.022699  0.507472  0.489096  1
  Tb  Tb10  1  0.495624  0.975883  0.491299  1
  Y  Y11  1  0.519927  0.024311  0.991326  1
  Y  Y12  1  0.972029  0.482337  0.993132  1
  Y  Y13  1  0.489693  0.517553  0.493120  1
  Y  Y14  1  0.992879  0.000347  0.985476  1
  Y  Y15  1  0.992581  0.999642  0.485473  1
  Sn  Sn16  1  0.833546  0.667183  0.254714  1
  Sn  Sn17  1  0.166313  0.332730  0.754632  1
  Sn  Sn18  1  0.667106  0.833944  0.754420  1
  Sn  Sn19  1  0.833174  0.166039  0.254312  1
  Sn  Sn20  1  0.333633  0.667578  0.223682  1
  Sn  Sn21  1  0.666080  0.332456  0.723785  1
  Bi  Bi22  1  0.167148  0.834089  0.753232  1
  Bi  Bi23  1  0.333028  0.165886  0.253018  1
