# generated using pymatgen
data_Dy12ZnIn(CoSi)2
_symmetry_space_group_name_H-M   'P 1'
_cell_length_a   8.42678564
_cell_length_b   8.42679035
_cell_length_c   8.42678483
_cell_angle_alpha   113.62758907
_cell_angle_beta   110.46943223
_cell_angle_gamma   104.44804090
_symmetry_Int_Tables_number   1
_chemical_formula_structural   Dy12ZnIn(CoSi)2
_chemical_formula_sum   'Dy12 Zn1 In1 Co2 Si2'
_cell_volume   457.63539416
_cell_formula_units_Z   1
loop_
 _symmetry_equiv_pos_site_id
 _symmetry_equiv_pos_as_xyz
  1  'x, y, z'
loop_
 _atom_site_type_symbol
 _atom_site_label
 _atom_site_symmetry_multiplicity
 _atom_site_fract_x
 _atom_site_fract_y
 _atom_site_fract_z
 _atom_site_occupancy
  Dy  Dy0  1  0.431223  0.234406  0.196817  1
  Dy  Dy1  1  0.568777  0.765594  0.803183  1
  Dy  Dy2  1  0.037589  0.234406  0.803183  1
  Dy  Dy3  1  0.962411  0.765594  0.196817  1
  Dy  Dy4  1  0.185173  0.286446  0.471618  1
  Dy  Dy5  1  0.814827  0.713554  0.528382  1
  Dy  Dy6  1  0.185172  0.713554  0.898726  1
  Dy  Dy7  1  0.814828  0.286446  0.101274  1
  Dy  Dy8  1  0.304608  0.615050  0.310442  1
  Dy  Dy9  1  0.695392  0.384950  0.689558  1
  Dy  Dy10  1  0.304608  0.994166  0.689558  1
  Dy  Dy11  1  0.695392  0.005834  0.310442  1
  Zn  Zn12  1  0.000000  0.000000  0.000000  1
  In  In13  1  0.500000  0.500000  0.000000  1
  Co  Co14  1  0.107811  0.607811  0.500000  1
  Co  Co15  1  0.892189  0.392189  0.500000  1
  Si  Si16  1  0.362483  0.000000  0.362483  1
  Si  Si17  1  0.637517  0.000000  0.637517  1
