# generated using pymatgen
data_Pa4(Al8Ir3)3
_symmetry_space_group_name_H-M   'P 1'
_cell_length_a   7.57907485
_cell_length_b   7.59549132
_cell_length_c   13.15273100
_cell_angle_alpha   84.44058770
_cell_angle_beta   78.93025450
_cell_angle_gamma   59.92378658
_symmetry_Int_Tables_number   1
_chemical_formula_structural   Pa4(Al8Ir3)3
_chemical_formula_sum   'Pa4 Al24 Ir9'
_cell_volume   643.02513473
_cell_formula_units_Z   1
loop_
 _symmetry_equiv_pos_site_id
 _symmetry_equiv_pos_as_xyz
  1  'x, y, z'
loop_
 _atom_site_type_symbol
 _atom_site_label
 _atom_site_symmetry_multiplicity
 _atom_site_fract_x
 _atom_site_fract_y
 _atom_site_fract_z
 _atom_site_occupancy
  Pa  Pa0  1  0.396929  0.168383  0.799499  1
  Pa  Pa1  1  0.603071  0.831617  0.200501  1
  Pa  Pa2  1  0.736405  0.498909  0.799480  1
  Pa  Pa3  1  0.263595  0.501091  0.200520  1
  Al  Al4  1  0.682453  0.833939  0.947525  1
  Al  Al5  1  0.317547  0.166061  0.052475  1
  Al  Al6  1  0.147713  0.833095  0.556239  1
  Al  Al7  1  0.852287  0.166905  0.443761  1
  Al  Al8  1  0.482568  0.166300  0.553559  1
  Al  Al9  1  0.517432  0.833700  0.446441  1
  Al  Al10  1  0.206687  0.165565  0.334205  1
  Al  Al11  1  0.793313  0.834435  0.665795  1
  Al  Al12  1  0.430057  0.515439  0.665921  1
  Al  Al13  1  0.569943  0.484561  0.334079  1
  Al  Al14  1  0.111597  0.150213  0.664316  1
  Al  Al15  1  0.888403  0.849787  0.335684  1
  Al  Al16  1  0.352476  0.498772  0.947437  1
  Al  Al17  1  0.647524  0.501228  0.052563  1
  Al  Al18  1  0.014172  0.168530  0.956958  1
  Al  Al19  1  0.985828  0.831470  0.043042  1
  Al  Al20  1  0.184819  0.499640  0.446477  1
  Al  Al21  1  0.815181  0.500360  0.553523  1
  Al  Al22  1  0.737276  0.163785  0.178869  1
  Al  Al23  1  0.262724  0.836215  0.821131  1
  Al  Al24  1  0.059923  0.632539  0.819608  1
  Al  Al25  1  0.940077  0.367461  0.180392  1
  Al  Al26  1  0.855478  0.040131  0.820757  1
  Al  Al27  1  0.144522  0.959869  0.179243  1
  Ir  Ir28  1  0.118137  0.484952  0.645894  1
  Ir  Ir29  1  0.881863  0.515048  0.354106  1
  Ir  Ir30  1  0.655263  0.172381  0.000028  1
  Ir  Ir31  1  0.344737  0.827619  0.999972  1
  Ir  Ir32  1  0.533438  0.167053  0.354471  1
  Ir  Ir33  1  0.466562  0.832947  0.645529  1
  Ir  Ir34  1  0.770787  0.180878  0.644239  1
  Ir  Ir35  1  0.229213  0.819122  0.355761  1
  Ir  Ir36  1  0.000000  0.500000  0.000000  1
