# generated using pymatgen
data_K2MnBr4
_symmetry_space_group_name_H-M   'P 1'
_cell_length_a   7.52728098
_cell_length_b   7.68966400
_cell_length_c   9.16899639
_cell_angle_alpha   90.00000000
_cell_angle_beta   108.07018935
_cell_angle_gamma   90.00000000
_symmetry_Int_Tables_number   1
_chemical_formula_structural   K2MnBr4
_chemical_formula_sum   'K4 Mn2 Br8'
_cell_volume   504.54556500
_cell_formula_units_Z   2
loop_
 _symmetry_equiv_pos_site_id
 _symmetry_equiv_pos_as_xyz
  1  'x, y, z'
loop_
 _atom_site_type_symbol
 _atom_site_label
 _atom_site_symmetry_multiplicity
 _atom_site_fract_x
 _atom_site_fract_y
 _atom_site_fract_z
 _atom_site_occupancy
  K  K0  1  0.218282  0.250000  0.551156  1
  K  K1  1  0.781718  0.750000  0.448844  1
  K  K2  1  0.264723  0.250000  0.067572  1
  K  K3  1  0.735277  0.750000  0.932428  1
  Mn  Mn4  1  0.773183  0.250000  0.699821  1
  Mn  Mn5  1  0.226817  0.750000  0.300179  1
  Br  Br6  1  0.593942  0.250000  0.421847  1
  Br  Br7  1  0.406058  0.750000  0.578153  1
  Br  Br8  1  0.004673  0.001254  0.240360  1
  Br  Br9  1  0.995327  0.998746  0.759640  1
  Br  Br10  1  0.995327  0.501254  0.759640  1
  Br  Br11  1  0.004673  0.498746  0.240360  1
  Br  Br12  1  0.575198  0.250000  0.872345  1
  Br  Br13  1  0.424802  0.750000  0.127655  1
