# generated using pymatgen
data_Ho2TmSc2(In2Rh)2
_symmetry_space_group_name_H-M   'P 1'
_cell_length_a   3.52992300
_cell_length_b   7.87464798
_cell_length_c   17.93560037
_cell_angle_alpha   90.12898829
_cell_angle_beta   90.00000000
_cell_angle_gamma   90.00000000
_symmetry_Int_Tables_number   1
_chemical_formula_structural   Ho2TmSc2(In2Rh)2
_chemical_formula_sum   'Ho4 Tm2 Sc4 In8 Rh4'
_cell_volume   498.55284521
_cell_formula_units_Z   2
loop_
 _symmetry_equiv_pos_site_id
 _symmetry_equiv_pos_as_xyz
  1  'x, y, z'
loop_
 _atom_site_type_symbol
 _atom_site_label
 _atom_site_symmetry_multiplicity
 _atom_site_fract_x
 _atom_site_fract_y
 _atom_site_fract_z
 _atom_site_occupancy
  Ho  Ho0  1  0.000000  0.000000  0.000000  1
  Ho  Ho1  1  0.000000  0.500000  0.500000  1
  Ho  Ho2  1  0.000000  0.748555  0.781703  1
  Ho  Ho3  1  0.000000  0.251445  0.218297  1
  Tm  Tm4  1  0.000000  0.248363  0.718471  1
  Tm  Tm5  1  0.000000  0.751637  0.281529  1
  Sc  Sc6  1  0.000000  0.878065  0.588674  1
  Sc  Sc7  1  0.000000  0.121935  0.411326  1
  Sc  Sc8  1  0.000000  0.377635  0.911291  1
  Sc  Sc9  1  0.000000  0.622365  0.088709  1
  In  In10  1  0.500000  0.808538  0.437723  1
  In  In11  1  0.500000  0.191462  0.562277  1
  In  In12  1  0.500000  0.309312  0.061933  1
  In  In13  1  0.500000  0.690688  0.938067  1
  In  In14  1  0.500000  0.924553  0.149759  1
  In  In15  1  0.500000  0.075447  0.850241  1
  In  In16  1  0.500000  0.426530  0.350468  1
  In  In17  1  0.500000  0.573470  0.649532  1
  Rh  Rh18  1  0.500000  0.965053  0.692645  1
  Rh  Rh19  1  0.500000  0.034947  0.307355  1
  Rh  Rh20  1  0.500000  0.461891  0.806964  1
  Rh  Rh21  1  0.500000  0.538109  0.193036  1
