# generated using pymatgen
data_NaTiIrS4
_symmetry_space_group_name_H-M   'P 1'
_cell_length_a   7.27264052
_cell_length_b   7.27264106
_cell_length_c   5.73650811
_cell_angle_alpha   80.51325593
_cell_angle_beta   80.51325580
_cell_angle_gamma   28.18192529
_symmetry_Int_Tables_number   1
_chemical_formula_structural   NaTiIrS4
_chemical_formula_sum   'Na1 Ti1 Ir1 S4'
_cell_volume   141.20882814
_cell_formula_units_Z   1
loop_
 _symmetry_equiv_pos_site_id
 _symmetry_equiv_pos_as_xyz
  1  'x, y, z'
loop_
 _atom_site_type_symbol
 _atom_site_label
 _atom_site_symmetry_multiplicity
 _atom_site_fract_x
 _atom_site_fract_y
 _atom_site_fract_z
 _atom_site_occupancy
  Na  Na0  1  0.244111  0.244111  0.877061  1
  Ti  Ti1  1  0.496224  0.496224  0.453954  1
  Ir  Ir2  1  0.990607  0.990607  0.043136  1
  S  S3  1  0.903005  0.903005  0.715702  1
  S  S4  1  0.382851  0.382851  0.209990  1
  S  S5  1  0.578913  0.578913  0.823734  1
  S  S6  1  0.105288  0.105288  0.309423  1
