# generated using pymatgen
data_Tb3Sm4Tm13Pt16
_symmetry_space_group_name_H-M   'P 1'
_cell_length_a   7.47780000
_cell_length_b   7.54420508
_cell_length_c   14.67757900
_cell_angle_alpha   89.99200281
_cell_angle_beta   89.99803850
_cell_angle_gamma   89.94092834
_symmetry_Int_Tables_number   1
_chemical_formula_structural   Tb3Sm4Tm13Pt16
_chemical_formula_sum   'Tb3 Sm4 Tm13 Pt16'
_cell_volume   828.02132681
_cell_formula_units_Z   1
loop_
 _symmetry_equiv_pos_site_id
 _symmetry_equiv_pos_as_xyz
  1  'x, y, z'
loop_
 _atom_site_type_symbol
 _atom_site_label
 _atom_site_symmetry_multiplicity
 _atom_site_fract_x
 _atom_site_fract_y
 _atom_site_fract_z
 _atom_site_occupancy
  Tb  Tb0  1  0.501691  0.320890  0.906434  1
  Tb  Tb1  1  0.498353  0.680083  0.406399  1
  Tb  Tb2  1  0.998718  0.820603  0.093759  1
  Sm  Sm3  1  0.499742  0.678360  0.093134  1
  Sm  Sm4  1  0.500638  0.322013  0.592871  1
  Sm  Sm5  1  0.000494  0.178337  0.907310  1
  Sm  Sm6  1  0.000117  0.176849  0.592552  1
  Tm  Tm7  1  0.681267  0.990279  0.250754  1
  Tm  Tm8  1  0.180509  0.509903  0.250842  1
  Tm  Tm9  1  0.819187  0.490692  0.750121  1
  Tm  Tm10  1  0.319725  0.009175  0.750170  1
  Tm  Tm11  1  0.655437  0.832150  0.622400  1
  Tm  Tm12  1  0.156098  0.667363  0.877453  1
  Tm  Tm13  1  0.843549  0.332687  0.377167  1
  Tm  Tm14  1  0.343762  0.167398  0.123081  1
  Tm  Tm15  1  0.342428  0.166309  0.377338  1
  Tm  Tm16  1  0.844142  0.332430  0.123508  1
  Tm  Tm17  1  0.154864  0.668342  0.622169  1
  Tm  Tm18  1  0.656085  0.832507  0.877248  1
  Tm  Tm19  1  0.997479  0.818961  0.406092  1
  Pt  Pt20  1  0.818955  0.642805  0.251854  1
  Pt  Pt21  1  0.314639  0.859240  0.251566  1
  Pt  Pt22  1  0.682914  0.140737  0.750862  1
  Pt  Pt23  1  0.184829  0.360349  0.750279  1
  Pt  Pt24  1  0.547081  0.382090  0.250746  1
  Pt  Pt25  1  0.045655  0.116573  0.250623  1
  Pt  Pt26  1  0.953327  0.880408  0.749953  1
  Pt  Pt27  1  0.453679  0.618987  0.750420  1
  Pt  Pt28  1  0.819755  0.539345  0.540384  1
  Pt  Pt29  1  0.319867  0.965301  0.957901  1
  Pt  Pt30  1  0.685333  0.030258  0.456084  1
  Pt  Pt31  1  0.179488  0.465627  0.042470  1
  Pt  Pt32  1  0.180990  0.470438  0.455628  1
  Pt  Pt33  1  0.682173  0.035851  0.042259  1
  Pt  Pt34  1  0.319708  0.961386  0.540315  1
  Pt  Pt35  1  0.817323  0.535276  0.957854  1
