# generated using pymatgen
data_CsK2SbSe3
_symmetry_space_group_name_H-M   'P 1'
_cell_length_a   10.22995400
_cell_length_b   10.22995400
_cell_length_c   10.22995400
_cell_angle_alpha   90.00000000
_cell_angle_beta   90.00000000
_cell_angle_gamma   90.00000000
_symmetry_Int_Tables_number   1
_chemical_formula_structural   CsK2SbSe3
_chemical_formula_sum   'Cs4 K8 Sb4 Se12'
_cell_volume   1070.58472496
_cell_formula_units_Z   4
loop_
 _symmetry_equiv_pos_site_id
 _symmetry_equiv_pos_as_xyz
  1  'x, y, z'
loop_
 _atom_site_type_symbol
 _atom_site_label
 _atom_site_symmetry_multiplicity
 _atom_site_fract_x
 _atom_site_fract_y
 _atom_site_fract_z
 _atom_site_occupancy
  Cs  Cs0  1  0.928373  0.428373  0.071627  1
  Cs  Cs1  1  0.428373  0.071627  0.928373  1
  Cs  Cs2  1  0.071627  0.928373  0.428373  1
  Cs  Cs3  1  0.571627  0.571627  0.571627  1
  K  K4  1  0.183132  0.683132  0.816868  1
  K  K5  1  0.683132  0.816868  0.183132  1
  K  K6  1  0.816868  0.183132  0.683132  1
  K  K7  1  0.316868  0.316868  0.316868  1
  K  K8  1  0.688739  0.188739  0.311261  1
  K  K9  1  0.188739  0.311261  0.688739  1
  K  K10  1  0.311261  0.688739  0.188739  1
  K  K11  1  0.811261  0.811261  0.811261  1
  Sb  Sb12  1  0.474580  0.974580  0.525420  1
  Sb  Sb13  1  0.974580  0.525420  0.474580  1
  Sb  Sb14  1  0.525420  0.474580  0.974580  1
  Sb  Sb15  1  0.025420  0.025420  0.025420  1
  Se  Se16  1  0.003089  0.782334  0.094112  1
  Se  Se17  1  0.905888  0.503089  0.717666  1
  Se  Se18  1  0.282334  0.405888  0.996911  1
  Se  Se19  1  0.503089  0.717666  0.905888  1
  Se  Se20  1  0.405888  0.996911  0.282334  1
  Se  Se21  1  0.782334  0.094112  0.003089  1
  Se  Se22  1  0.996911  0.282334  0.405888  1
  Se  Se23  1  0.094112  0.003089  0.782334  1
  Se  Se24  1  0.717666  0.905888  0.503089  1
  Se  Se25  1  0.496911  0.217666  0.594112  1
  Se  Se26  1  0.594112  0.496911  0.217666  1
  Se  Se27  1  0.217666  0.594112  0.496911  1
