# generated using pymatgen
data_CeRe4SiGe
_symmetry_space_group_name_H-M   'P 1'
_cell_length_a   7.41419712
_cell_length_b   7.41419758
_cell_length_c   4.09085800
_cell_angle_alpha   90.00000000
_cell_angle_beta   90.00000000
_cell_angle_gamma   147.37625457
_symmetry_Int_Tables_number   1
_chemical_formula_structural   CeRe4SiGe
_chemical_formula_sum   'Ce1 Re4 Si1 Ge1'
_cell_volume   121.23500537
_cell_formula_units_Z   1
loop_
 _symmetry_equiv_pos_site_id
 _symmetry_equiv_pos_as_xyz
  1  'x, y, z'
loop_
 _atom_site_type_symbol
 _atom_site_label
 _atom_site_symmetry_multiplicity
 _atom_site_fract_x
 _atom_site_fract_y
 _atom_site_fract_z
 _atom_site_occupancy
  Ce  Ce0  1  0.001099  0.998901  0.000000  1
  Re  Re1  1  0.185676  0.814324  0.500000  1
  Re  Re2  1  0.301753  0.698247  0.000000  1
  Re  Re3  1  0.810279  0.189721  0.500000  1
  Re  Re4  1  0.693694  0.306306  0.000000  1
  Si  Si5  1  0.590653  0.409347  0.500000  1
  Ge  Ge6  1  0.416847  0.583153  0.500000  1
