# generated using pymatgen
data_Mo3P4Ru5
_symmetry_space_group_name_H-M   'P 1'
_cell_length_a   6.03304236
_cell_length_b   3.92238900
_cell_length_c   6.92759748
_cell_angle_alpha   90.00000000
_cell_angle_beta   90.24554244
_cell_angle_gamma   90.00000000
_symmetry_Int_Tables_number   1
_chemical_formula_structural   Mo3P4Ru5
_chemical_formula_sum   'Mo3 P4 Ru5'
_cell_volume   163.93273865
_cell_formula_units_Z   1
loop_
 _symmetry_equiv_pos_site_id
 _symmetry_equiv_pos_as_xyz
  1  'x, y, z'
loop_
 _atom_site_type_symbol
 _atom_site_label
 _atom_site_symmetry_multiplicity
 _atom_site_fract_x
 _atom_site_fract_y
 _atom_site_fract_z
 _atom_site_occupancy
  Mo  Mo0  1  0.972692  0.250000  0.663265  1
  Mo  Mo1  1  0.521115  0.750000  0.168575  1
  Mo  Mo2  1  0.477735  0.250000  0.831268  1
  P  P3  1  0.248311  0.250000  0.109376  1
  P  P4  1  0.257511  0.750000  0.614579  1
  P  P5  1  0.741541  0.250000  0.385940  1
  P  P6  1  0.753759  0.750000  0.887084  1
  Ru  Ru7  1  0.031274  0.750000  0.340944  1
  Ru  Ru8  1  0.863497  0.250000  0.075596  1
  Ru  Ru9  1  0.639777  0.750000  0.567817  1
  Ru  Ru10  1  0.354474  0.250000  0.428416  1
  Ru  Ru11  1  0.138313  0.750000  0.927142  1
