# generated using pymatgen
data_Dy9YS10
_symmetry_space_group_name_H-M   'P 1'
_cell_length_a   6.77135808
_cell_length_b   7.76578634
_cell_length_c   8.78536842
_cell_angle_alpha   103.20327614
_cell_angle_beta   97.02000565
_cell_angle_gamma   106.82417780
_symmetry_Int_Tables_number   1
_chemical_formula_structural   Dy9YS10
_chemical_formula_sum   'Dy9 Y1 S10'
_cell_volume   421.63210212
_cell_formula_units_Z   1
loop_
 _symmetry_equiv_pos_site_id
 _symmetry_equiv_pos_as_xyz
  1  'x, y, z'
loop_
 _atom_site_type_symbol
 _atom_site_label
 _atom_site_symmetry_multiplicity
 _atom_site_fract_x
 _atom_site_fract_y
 _atom_site_fract_z
 _atom_site_occupancy
  Dy  Dy0  1  0.799650  0.599998  0.599459  1
  Dy  Dy1  1  0.599078  0.199593  0.200737  1
  Dy  Dy2  1  0.400922  0.800407  0.799263  1
  Dy  Dy3  1  0.600154  0.701027  0.201208  1
  Dy  Dy4  1  0.200350  0.400002  0.400541  1
  Dy  Dy5  1  0.399846  0.298973  0.798792  1
  Dy  Dy6  1  0.000000  0.000000  0.000000  1
  Dy  Dy7  1  0.201185  0.900686  0.401105  1
  Dy  Dy8  1  0.798815  0.099314  0.598895  1
  Y  Y9  1  0.000000  0.500000  0.000000  1
  S  S10  1  0.698965  0.649928  0.900147  1
  S  S11  1  0.500215  0.250486  0.500033  1
  S  S12  1  0.699556  0.149502  0.900118  1
  S  S13  1  0.300444  0.850498  0.099882  1
  S  S14  1  0.499785  0.749514  0.499967  1
  S  S15  1  0.099767  0.449785  0.699542  1
  S  S16  1  0.301035  0.350072  0.099853  1
  S  S17  1  0.900916  0.050219  0.299838  1
  S  S18  1  0.099084  0.949781  0.700162  1
  S  S19  1  0.900233  0.550215  0.300458  1
