# generated using pymatgen
data_Hf7Sc(InAu2)4
_symmetry_space_group_name_H-M   'P 1'
_cell_length_a   7.60547025
_cell_length_b   7.60547025
_cell_length_c   7.03418000
_cell_angle_alpha   90.00000000
_cell_angle_beta   90.00000000
_cell_angle_gamma   89.87886136
_symmetry_Int_Tables_number   1
_chemical_formula_structural   Hf7Sc(InAu2)4
_chemical_formula_sum   'Hf7 Sc1 In4 Au8'
_cell_volume   406.87841444
_cell_formula_units_Z   1
loop_
 _symmetry_equiv_pos_site_id
 _symmetry_equiv_pos_as_xyz
  1  'x, y, z'
loop_
 _atom_site_type_symbol
 _atom_site_label
 _atom_site_symmetry_multiplicity
 _atom_site_fract_x
 _atom_site_fract_y
 _atom_site_fract_z
 _atom_site_occupancy
  Hf  Hf0  1  0.147074  0.147074  0.000000  1
  Hf  Hf1  1  0.852765  0.852765  0.000000  1
  Hf  Hf2  1  0.649596  0.354442  0.500000  1
  Hf  Hf3  1  0.354442  0.649596  0.500000  1
  Hf  Hf4  1  0.692942  0.304615  0.000000  1
  Hf  Hf5  1  0.304615  0.692942  0.000000  1
  Hf  Hf6  1  0.806347  0.806347  0.500000  1
  Sc  Sc7  1  0.193182  0.193182  0.500000  1
  In  In8  1  0.499620  0.999800  0.250109  1
  In  In9  1  0.499620  0.999800  0.749891  1
  In  In10  1  0.999800  0.499620  0.250109  1
  In  In11  1  0.999800  0.499620  0.749891  1
  Au  Au12  1  0.369653  0.369653  0.208793  1
  Au  Au13  1  0.630305  0.630305  0.793300  1
  Au  Au14  1  0.630305  0.630305  0.206700  1
  Au  Au15  1  0.869876  0.130264  0.708250  1
  Au  Au16  1  0.869876  0.130264  0.291750  1
  Au  Au17  1  0.369653  0.369653  0.791207  1
  Au  Au18  1  0.130264  0.869876  0.291750  1
  Au  Au19  1  0.130264  0.869876  0.708250  1
