# generated using pymatgen
data_Ce2Y(InPd)3
_symmetry_space_group_name_H-M   'P 1'
_cell_length_a   7.70469972
_cell_length_b   7.70453934
_cell_length_c   3.98049700
_cell_angle_alpha   90.00000000
_cell_angle_beta   90.00000000
_cell_angle_gamma   119.90263072
_symmetry_Int_Tables_number   1
_chemical_formula_structural   Ce2Y(InPd)3
_chemical_formula_sum   'Ce2 Y1 In3 Pd3'
_cell_volume   204.83096105
_cell_formula_units_Z   1
loop_
 _symmetry_equiv_pos_site_id
 _symmetry_equiv_pos_as_xyz
  1  'x, y, z'
loop_
 _atom_site_type_symbol
 _atom_site_label
 _atom_site_symmetry_multiplicity
 _atom_site_fract_x
 _atom_site_fract_y
 _atom_site_fract_z
 _atom_site_occupancy
  Ce  Ce0  1  0.588946  0.000736  0.000000  1
  Ce  Ce1  1  0.001123  0.588750  0.000000  1
  Y  Y2  1  0.408562  0.408254  0.000000  1
  In  In3  1  0.740636  0.740331  0.500000  1
  In  In4  1  0.255157  0.004841  0.500000  1
  In  In5  1  0.005116  0.255502  0.500000  1
  Pd  Pd6  1  0.997621  0.997982  0.000000  1
  Pd  Pd7  1  0.670976  0.332638  0.500000  1
  Pd  Pd8  1  0.331861  0.670965  0.500000  1
