# generated using pymatgen
data_Dy18Sc2Sn7Pb9
_symmetry_space_group_name_H-M   'P 1'
_cell_length_a   8.15493900
_cell_length_b   8.21321861
_cell_length_c   15.58899000
_cell_angle_alpha   90.00000000
_cell_angle_beta   90.00000000
_cell_angle_gamma   90.02206523
_symmetry_Int_Tables_number   1
_chemical_formula_structural   Dy18Sc2Sn7Pb9
_chemical_formula_sum   'Dy18 Sc2 Sn7 Pb9'
_cell_volume   1044.12392083
_cell_formula_units_Z   1
loop_
 _symmetry_equiv_pos_site_id
 _symmetry_equiv_pos_as_xyz
  1  'x, y, z'
loop_
 _atom_site_type_symbol
 _atom_site_label
 _atom_site_symmetry_multiplicity
 _atom_site_fract_x
 _atom_site_fract_y
 _atom_site_fract_z
 _atom_site_occupancy
  Dy  Dy0  1  0.380608  0.837831  0.875662  1
  Dy  Dy1  1  0.881195  0.661725  0.624457  1
  Dy  Dy2  1  0.619879  0.162066  0.377838  1
  Dy  Dy3  1  0.119548  0.336422  0.122363  1
  Dy  Dy4  1  0.619879  0.162066  0.122162  1
  Dy  Dy5  1  0.119548  0.336422  0.377637  1
  Dy  Dy6  1  0.380608  0.837831  0.624338  1
  Dy  Dy7  1  0.881195  0.661725  0.875543  1
  Dy  Dy8  1  0.536958  0.324110  0.895164  1
  Dy  Dy9  1  0.037453  0.175611  0.605079  1
  Dy  Dy10  1  0.465618  0.675557  0.397486  1
  Dy  Dy11  1  0.960731  0.826580  0.101173  1
  Dy  Dy12  1  0.465618  0.675557  0.102514  1
  Dy  Dy13  1  0.960731  0.826580  0.398827  1
  Dy  Dy14  1  0.536958  0.324110  0.604836  1
  Dy  Dy15  1  0.037453  0.175611  0.894921  1
  Dy  Dy16  1  0.787141  0.495372  0.250000  1
  Dy  Dy17  1  0.291074  0.006208  0.250000  1
  Sc  Sc18  1  0.211720  0.503202  0.750000  1
  Sc  Sc19  1  0.711329  0.996542  0.750000  1
  Sn  Sn20  1  0.573276  0.621387  0.750000  1
  Sn  Sn21  1  0.073470  0.878321  0.750000  1
  Sn  Sn22  1  0.423898  0.377176  0.250000  1
  Sn  Sn23  1  0.923234  0.120317  0.250000  1
  Sn  Sn24  1  0.345002  0.151714  0.750000  1
  Sn  Sn25  1  0.844815  0.348113  0.750000  1
  Sn  Sn26  1  0.656387  0.851948  0.250000  1
  Pb  Pb27  1  0.281341  0.031524  0.040371  1
  Pb  Pb28  1  0.782174  0.467535  0.459610  1
  Pb  Pb29  1  0.718328  0.969322  0.544668  1
  Pb  Pb30  1  0.218952  0.530796  0.956314  1
  Pb  Pb31  1  0.718328  0.969322  0.955332  1
  Pb  Pb32  1  0.218952  0.530796  0.543686  1
  Pb  Pb33  1  0.281341  0.031524  0.459629  1
  Pb  Pb34  1  0.782174  0.467535  0.040390  1
  Pb  Pb35  1  0.153077  0.651541  0.250000  1
