# generated using pymatgen
data_Li3Ca4CdAu4
_symmetry_space_group_name_H-M   'P 1'
_cell_length_a   4.40646800
_cell_length_b   7.35605958
_cell_length_c   8.62476280
_cell_angle_alpha   91.08380650
_cell_angle_beta   90.00000000
_cell_angle_gamma   90.00000000
_symmetry_Int_Tables_number   1
_chemical_formula_structural   Li3Ca4CdAu4
_chemical_formula_sum   'Li3 Ca4 Cd1 Au4'
_cell_volume   279.51512642
_cell_formula_units_Z   1
loop_
 _symmetry_equiv_pos_site_id
 _symmetry_equiv_pos_as_xyz
  1  'x, y, z'
loop_
 _atom_site_type_symbol
 _atom_site_label
 _atom_site_symmetry_multiplicity
 _atom_site_fract_x
 _atom_site_fract_y
 _atom_site_fract_z
 _atom_site_occupancy
  Li  Li0  1  0.750000  0.867980  0.057811  1
  Li  Li1  1  0.250000  0.131724  0.939210  1
  Li  Li2  1  0.250000  0.631369  0.557459  1
  Ca  Ca3  1  0.250000  0.040739  0.320190  1
  Ca  Ca4  1  0.750000  0.463835  0.821357  1
  Ca  Ca5  1  0.750000  0.965138  0.681306  1
  Ca  Ca6  1  0.250000  0.537512  0.178781  1
  Cd  Cd7  1  0.750000  0.362315  0.440541  1
  Au  Au8  1  0.250000  0.258242  0.638557  1
  Au  Au9  1  0.250000  0.763447  0.876486  1
  Au  Au10  1  0.750000  0.746291  0.372906  1
  Au  Au11  1  0.750000  0.231407  0.115397  1
