# generated using pymatgen
data_TbGd5(CI5)2
_symmetry_space_group_name_H-M   'P 1'
_cell_length_a   7.81013836
_cell_length_b   9.62338179
_cell_length_c   9.71641600
_cell_angle_alpha   107.03952251
_cell_angle_beta   96.56978845
_cell_angle_gamma   104.28829444
_symmetry_Int_Tables_number   1
_chemical_formula_structural   TbGd5(CI5)2
_chemical_formula_sum   'Tb1 Gd5 C2 I10'
_cell_volume   662.74451133
_cell_formula_units_Z   1
loop_
 _symmetry_equiv_pos_site_id
 _symmetry_equiv_pos_as_xyz
  1  'x, y, z'
loop_
 _atom_site_type_symbol
 _atom_site_label
 _atom_site_symmetry_multiplicity
 _atom_site_fract_x
 _atom_site_fract_y
 _atom_site_fract_z
 _atom_site_occupancy
  Tb  Tb0  1  0.630210  0.869052  0.822998  1
  Gd  Gd1  1  0.103878  0.038492  0.780842  1
  Gd  Gd2  1  0.372168  0.131854  0.178177  1
  Gd  Gd3  1  0.895216  0.961065  0.218897  1
  Gd  Gd4  1  0.029790  0.741084  0.924563  1
  Gd  Gd5  1  0.969314  0.258788  0.074684  1
  C  C6  1  0.910471  0.970291  0.958966  1
  C  C7  1  0.089744  0.030300  0.041559  1
  I  I8  1  0.198001  0.737842  0.650707  1
  I  I9  1  0.086829  0.365952  0.822013  1
  I  I10  1  0.458575  0.810880  0.089568  1
  I  I11  1  0.251708  0.082887  0.457466  1
  I  I12  1  0.543156  0.186574  0.906626  1
  I  I13  1  0.805044  0.263150  0.351031  1
  I  I14  1  0.341285  0.451644  0.271142  1
  I  I15  1  0.912799  0.634018  0.177824  1
  I  I16  1  0.656567  0.550177  0.728514  1
  I  I17  1  0.745248  0.915948  0.544421  1
