# generated using pymatgen
data_Dy8Ho2(IrRh)3
_symmetry_space_group_name_H-M   'P 1'
_cell_length_a   10.87875226
_cell_length_b   10.87922300
_cell_length_c   6.38364315
_cell_angle_alpha   90.00000000
_cell_angle_beta   89.97518595
_cell_angle_gamma   90.00000000
_symmetry_Int_Tables_number   1
_chemical_formula_structural   Dy8Ho2(IrRh)3
_chemical_formula_sum   'Dy16 Ho4 Ir6 Rh6'
_cell_volume   755.51923628
_cell_formula_units_Z   2
loop_
 _symmetry_equiv_pos_site_id
 _symmetry_equiv_pos_as_xyz
  1  'x, y, z'
loop_
 _atom_site_type_symbol
 _atom_site_label
 _atom_site_symmetry_multiplicity
 _atom_site_fract_x
 _atom_site_fract_y
 _atom_site_fract_z
 _atom_site_occupancy
  Dy  Dy0  1  0.290154  0.088642  0.379410  1
  Dy  Dy1  1  0.290154  0.911358  0.879410  1
  Dy  Dy2  1  0.708484  0.089784  0.878921  1
  Dy  Dy3  1  0.708484  0.910216  0.378921  1
  Dy  Dy4  1  0.587252  0.789975  0.879588  1
  Dy  Dy5  1  0.587252  0.210025  0.379588  1
  Dy  Dy6  1  0.410870  0.790377  0.379374  1
  Dy  Dy7  1  0.410870  0.209623  0.879374  1
  Dy  Dy8  1  0.209788  0.411049  0.620299  1
  Dy  Dy9  1  0.209788  0.588951  0.120299  1
  Dy  Dy10  1  0.790139  0.412656  0.120688  1
  Dy  Dy11  1  0.790139  0.587344  0.620688  1
  Dy  Dy12  1  0.911783  0.709261  0.121285  1
  Dy  Dy13  1  0.911783  0.290739  0.621285  1
  Dy  Dy14  1  0.090236  0.709086  0.620531  1
  Dy  Dy15  1  0.090236  0.290914  0.120531  1
  Ho  Ho16  1  0.000266  0.999825  0.500047  1
  Ho  Ho17  1  0.000266  0.000175  0.000047  1
  Ho  Ho18  1  0.500151  0.499689  0.999950  1
  Ho  Ho19  1  0.500151  0.500311  0.499950  1
  Ir  Ir20  1  0.152816  0.153598  0.750035  1
  Ir  Ir21  1  0.152816  0.846402  0.250035  1
  Ir  Ir22  1  0.654369  0.345985  0.749802  1
  Ir  Ir23  1  0.654369  0.654015  0.249802  1
  Ir  Ir24  1  0.346654  0.346303  0.250225  1
  Ir  Ir25  1  0.346654  0.653697  0.750225  1
  Rh  Rh26  1  0.846487  0.152871  0.249896  1
  Rh  Rh27  1  0.846487  0.847129  0.749896  1
  Rh  Rh28  1  0.501084  0.000028  0.123339  1
  Rh  Rh29  1  0.501084  0.999972  0.623339  1
  Rh  Rh30  1  0.999466  0.500201  0.876608  1
  Rh  Rh31  1  0.999466  0.499799  0.376608  1
