# generated using pymatgen
data_DyI29
_symmetry_space_group_name_H-M   'P 1'
_cell_length_a   10.21176200
_cell_length_b   9.81771912
_cell_length_c   19.97706516
_cell_angle_alpha   72.68221101
_cell_angle_beta   90.00000000
_cell_angle_gamma   90.00000000
_symmetry_Int_Tables_number   1
_chemical_formula_structural   DyI29
_chemical_formula_sum   'Dy1 I29'
_cell_volume   1912.03365561
_cell_formula_units_Z   1
loop_
 _symmetry_equiv_pos_site_id
 _symmetry_equiv_pos_as_xyz
  1  'x, y, z'
loop_
 _atom_site_type_symbol
 _atom_site_label
 _atom_site_symmetry_multiplicity
 _atom_site_fract_x
 _atom_site_fract_y
 _atom_site_fract_z
 _atom_site_occupancy
  Dy  Dy0  1  0.397286  0.000000  0.250000  1
  I  I1  1  0.752238  0.775568  0.586562  1
  I  I2  1  0.098643  0.142560  0.414439  1
  I  I3  1  0.667314  0.000000  0.750000  1
  I  I4  1  0.752238  0.224432  0.913438  1
  I  I5  1  0.098643  0.857440  0.085561  1
  I  I6  1  0.060517  0.551606  0.857115  1
  I  I7  1  0.618952  0.780963  0.306285  1
  I  I8  1  0.167308  0.110663  0.563401  1
  I  I9  1  0.515468  0.343987  0.473760  1
  I  I10  1  0.341146  0.698640  0.256852  1
  I  I11  1  0.341146  0.301360  0.243148  1
  I  I12  1  0.167308  0.889337  0.936599  1
  I  I13  1  0.235047  0.148618  0.700091  1
  I  I14  1  0.912372  0.640639  0.101322  1
  I  I15  1  0.857249  0.237009  0.695557  1
  I  I16  1  0.235047  0.851382  0.799909  1
  I  I17  1  0.912372  0.359361  0.398678  1
  I  I18  1  0.618952  0.219037  0.193715  1
  I  I19  1  0.633225  0.058475  0.529433  1
  I  I20  1  0.305092  0.916802  0.401739  1
  I  I21  1  0.857249  0.762991  0.804443  1
  I  I22  1  0.060517  0.448394  0.642885  1
  I  I23  1  0.632823  0.439215  0.969214  1
  I  I24  1  0.305092  0.083198  0.098261  1
  I  I25  1  0.837620  0.108395  0.142761  1
  I  I26  1  0.632823  0.560785  0.530786  1
  I  I27  1  0.633225  0.941525  0.970567  1
  I  I28  1  0.515468  0.656013  0.026240  1
  I  I29  1  0.837620  0.891605  0.357239  1
