# generated using pymatgen
data_La6Ir17Pd
_symmetry_space_group_name_H-M   'P 1'
_cell_length_a   5.41929400
_cell_length_b   5.41929190
_cell_length_c   17.76032000
_cell_angle_alpha   90.00000000
_cell_angle_beta   90.00000000
_cell_angle_gamma   119.99998843
_symmetry_Int_Tables_number   1
_chemical_formula_structural   La6Ir17Pd
_chemical_formula_sum   'La6 Ir17 Pd1'
_cell_volume   451.71730147
_cell_formula_units_Z   1
loop_
 _symmetry_equiv_pos_site_id
 _symmetry_equiv_pos_as_xyz
  1  'x, y, z'
loop_
 _atom_site_type_symbol
 _atom_site_label
 _atom_site_symmetry_multiplicity
 _atom_site_fract_x
 _atom_site_fract_y
 _atom_site_fract_z
 _atom_site_occupancy
  La  La0  1  0.333333  0.666667  0.541121  1
  La  La1  1  0.666667  0.333333  0.041017  1
  La  La2  1  0.666667  0.333333  0.458983  1
  La  La3  1  0.333333  0.666667  0.958879  1
  La  La4  1  0.333333  0.666667  0.750000  1
  La  La5  1  0.666667  0.333333  0.250000  1
  Ir  Ir6  1  0.166124  0.332248  0.128718  1
  Ir  Ir7  1  0.833326  0.666651  0.627395  1
  Ir  Ir8  1  0.667752  0.833876  0.128718  1
  Ir  Ir9  1  0.166124  0.833876  0.128718  1
  Ir  Ir10  1  0.833326  0.166674  0.627395  1
  Ir  Ir11  1  0.333349  0.166674  0.627395  1
  Ir  Ir12  1  0.833326  0.666651  0.872605  1
  Ir  Ir13  1  0.833326  0.166674  0.872605  1
  Ir  Ir14  1  0.333349  0.166674  0.872605  1
  Ir  Ir15  1  0.667752  0.833876  0.371282  1
  Ir  Ir16  1  0.166124  0.833876  0.371282  1
  Ir  Ir17  1  0.166124  0.332248  0.371282  1
  Ir  Ir18  1  0.000000  0.000000  0.250000  1
  Ir  Ir19  1  0.000000  0.000000  0.750000  1
  Ir  Ir20  1  0.333333  0.666667  0.250000  1
  Ir  Ir21  1  0.000000  0.000000  0.999038  1
  Ir  Ir22  1  0.000000  0.000000  0.500962  1
  Pd  Pd23  1  0.666667  0.333333  0.750000  1
