# generated using pymatgen
data_Na16HfSnAs8
_symmetry_space_group_name_H-M   'P 1'
_cell_length_a   9.94907105
_cell_length_b   9.94907268
_cell_length_c   9.94907200
_cell_angle_alpha   60.00000227
_cell_angle_beta   59.99999684
_cell_angle_gamma   59.99999948
_symmetry_Int_Tables_number   1
_chemical_formula_structural   Na16HfSnAs8
_chemical_formula_sum   'Na16 Hf1 Sn1 As8'
_cell_volume   696.35822127
_cell_formula_units_Z   1
loop_
 _symmetry_equiv_pos_site_id
 _symmetry_equiv_pos_as_xyz
  1  'x, y, z'
loop_
 _atom_site_type_symbol
 _atom_site_label
 _atom_site_symmetry_multiplicity
 _atom_site_fract_x
 _atom_site_fract_y
 _atom_site_fract_z
 _atom_site_occupancy
  Na  Na0  1  0.626478  0.120567  0.626478  1
  Na  Na1  1  0.626478  0.626478  0.120567  1
  Na  Na2  1  0.120567  0.626478  0.626478  1
  Na  Na3  1  0.626478  0.626478  0.626478  1
  Na  Na4  1  0.027325  0.027325  0.472675  1
  Na  Na5  1  0.770547  0.229453  0.229453  1
  Na  Na6  1  0.229453  0.770547  0.770547  1
  Na  Na7  1  0.770547  0.770547  0.229453  1
  Na  Na8  1  0.770547  0.229453  0.770547  1
  Na  Na9  1  0.229453  0.770547  0.229453  1
  Na  Na10  1  0.472675  0.027325  0.472675  1
  Na  Na11  1  0.472675  0.027325  0.027325  1
  Na  Na12  1  0.027325  0.472675  0.472675  1
  Na  Na13  1  0.027325  0.472675  0.027325  1
  Na  Na14  1  0.229453  0.229453  0.770547  1
  Na  Na15  1  0.472675  0.472675  0.027325  1
  Hf  Hf16  1  0.500000  0.500000  0.500000  1
  Sn  Sn17  1  0.750000  0.750000  0.750000  1
  As  As18  1  0.419278  0.860241  0.860241  1
  As  As19  1  0.860241  0.860241  0.860241  1
  As  As20  1  0.821767  0.392745  0.392745  1
  As  As21  1  0.392745  0.392745  0.392745  1
  As  As22  1  0.392745  0.392745  0.821767  1
  As  As23  1  0.860241  0.419278  0.860241  1
  As  As24  1  0.860241  0.860241  0.419278  1
  As  As25  1  0.392745  0.821767  0.392745  1
