# generated using pymatgen
data_Sr6Ni2RuO12
_symmetry_space_group_name_H-M   'P 1'
_cell_length_a   8.77501137
_cell_length_b   8.77501101
_cell_length_c   6.89295352
_cell_angle_alpha   67.60860683
_cell_angle_beta   67.60860755
_cell_angle_gamma   36.67870269
_symmetry_Int_Tables_number   1
_chemical_formula_structural   Sr6Ni2RuO12
_chemical_formula_sum   'Sr6 Ni2 Ru1 O12'
_cell_volume   290.38896541
_cell_formula_units_Z   1
loop_
 _symmetry_equiv_pos_site_id
 _symmetry_equiv_pos_as_xyz
  1  'x, y, z'
loop_
 _atom_site_type_symbol
 _atom_site_label
 _atom_site_symmetry_multiplicity
 _atom_site_fract_x
 _atom_site_fract_y
 _atom_site_fract_z
 _atom_site_occupancy
  Sr  Sr0  1  0.874426  0.874426  0.717880  1
  Sr  Sr1  1  0.220112  0.220112  0.714057  1
  Sr  Sr2  1  0.548603  0.548603  0.707238  1
  Sr  Sr3  1  0.451397  0.451397  0.292762  1
  Sr  Sr4  1  0.779888  0.779888  0.285943  1
  Sr  Sr5  1  0.125574  0.125574  0.282120  1
  Ni  Ni6  1  0.667362  0.667362  0.999779  1
  Ni  Ni7  1  0.332638  0.332638  0.000221  1
  Ru  Ru8  1  0.000000  0.000000  0.000000  1
  O  O9  1  0.947016  0.947016  0.317931  1
  O  O10  1  0.280656  0.280656  0.320382  1
  O  O11  1  0.612390  0.612390  0.320915  1
  O  O12  1  0.387610  0.387610  0.679085  1
  O  O13  1  0.719344  0.719344  0.679618  1
  O  O14  1  0.052984  0.052984  0.682069  1
  O  O15  1  0.500000  0.000000  0.000000  1
  O  O16  1  0.834966  0.326441  0.999681  1
  O  O17  1  0.165034  0.673559  0.000319  1
  O  O18  1  0.000000  0.500000  0.000000  1
  O  O19  1  0.326441  0.834966  0.999681  1
  O  O20  1  0.673559  0.165034  0.000319  1
