# generated using pymatgen
data_V13Si2Ge
_symmetry_space_group_name_H-M   'P 1'
_cell_length_a   4.75371700
_cell_length_b   4.72699300
_cell_length_c   9.47875100
_cell_angle_alpha   90.00000000
_cell_angle_beta   90.00000000
_cell_angle_gamma   90.00000000
_symmetry_Int_Tables_number   1
_chemical_formula_structural   V13Si2Ge
_chemical_formula_sum   'V13 Si2 Ge1'
_cell_volume   212.99499459
_cell_formula_units_Z   1
loop_
 _symmetry_equiv_pos_site_id
 _symmetry_equiv_pos_as_xyz
  1  'x, y, z'
loop_
 _atom_site_type_symbol
 _atom_site_label
 _atom_site_symmetry_multiplicity
 _atom_site_fract_x
 _atom_site_fract_y
 _atom_site_fract_z
 _atom_site_occupancy
  V  V0  1  0.500000  0.500000  0.500000  1
  V  V1  1  0.500000  0.000000  0.624945  1
  V  V2  1  0.500000  0.000000  0.128623  1
  V  V3  1  0.749000  0.500000  0.253091  1
  V  V4  1  0.749000  0.500000  0.746909  1
  V  V5  1  0.000000  0.749502  0.500000  1
  V  V6  1  0.000000  0.756903  0.000000  1
  V  V7  1  0.500000  0.000000  0.375055  1
  V  V8  1  0.500000  0.000000  0.871377  1
  V  V9  1  0.251000  0.500000  0.253091  1
  V  V10  1  0.251000  0.500000  0.746909  1
  V  V11  1  0.000000  0.250498  0.500000  1
  V  V12  1  0.000000  0.243097  0.000000  1
  Si  Si13  1  0.000000  0.000000  0.248811  1
  Si  Si14  1  0.000000  0.000000  0.751189  1
  Ge  Ge15  1  0.500000  0.500000  0.000000  1
