# generated using pymatgen
data_LaNdSm4OsI10
_symmetry_space_group_name_H-M   'P 1'
_cell_length_a   7.97347088
_cell_length_b   10.04606396
_cell_length_c   9.93455937
_cell_angle_alpha   107.13797277
_cell_angle_beta   96.35527040
_cell_angle_gamma   105.39163262
_symmetry_Int_Tables_number   1
_chemical_formula_structural   LaNdSm4OsI10
_chemical_formula_sum   'La1 Nd1 Sm4 Os1 I10'
_cell_volume   717.59342668
_cell_formula_units_Z   1
loop_
 _symmetry_equiv_pos_site_id
 _symmetry_equiv_pos_as_xyz
  1  'x, y, z'
loop_
 _atom_site_type_symbol
 _atom_site_label
 _atom_site_symmetry_multiplicity
 _atom_site_fract_x
 _atom_site_fract_y
 _atom_site_fract_z
 _atom_site_occupancy
  La  La0  1  0.613840  0.042123  0.270618  1
  Nd  Nd1  1  0.386116  0.957886  0.729229  1
  Sm  Sm2  1  0.470427  0.292214  0.589915  1
  Sm  Sm3  1  0.529835  0.708385  0.411420  1
  Sm  Sm4  1  0.855882  0.129809  0.672119  1
  Sm  Sm5  1  0.143785  0.869637  0.327562  1
  Os  Os6  1  0.503535  0.001821  0.494068  1
  I  I7  1  0.414946  0.631888  0.678927  1
  I  I8  1  0.582878  0.374752  0.324682  1
  I  I9  1  0.286419  0.257498  0.847602  1
  I  I10  1  0.714949  0.734999  0.152672  1
  I  I11  1  0.853855  0.452068  0.770548  1
  I  I12  1  0.146646  0.547753  0.229809  1
  I  I13  1  0.050493  0.181059  0.413283  1
  I  I14  1  0.233438  0.911179  0.041450  1
  I  I15  1  0.756176  0.085362  0.955017  1
  I  I16  1  0.956781  0.821565  0.591079  1
