# generated using pymatgen
data_PrNd16Er3Sn16
_symmetry_space_group_name_H-M   'P 1'
_cell_length_a   8.25471712
_cell_length_b   8.40667193
_cell_length_c   15.94969210
_cell_angle_alpha   90.00512361
_cell_angle_beta   89.98842801
_cell_angle_gamma   89.95326475
_symmetry_Int_Tables_number   1
_chemical_formula_structural   PrNd16Er3Sn16
_chemical_formula_sum   'Pr1 Nd16 Er3 Sn16'
_cell_volume   1106.82368253
_cell_formula_units_Z   1
loop_
 _symmetry_equiv_pos_site_id
 _symmetry_equiv_pos_as_xyz
  1  'x, y, z'
loop_
 _atom_site_type_symbol
 _atom_site_label
 _atom_site_symmetry_multiplicity
 _atom_site_fract_x
 _atom_site_fract_y
 _atom_site_fract_z
 _atom_site_occupancy
  Pr  Pr0  1  0.017726  0.181159  0.401278  1
  Nd  Nd1  1  0.368041  0.837309  0.120722  1
  Nd  Nd2  1  0.132767  0.336643  0.620681  1
  Nd  Nd3  1  0.481490  0.681635  0.901522  1
  Nd  Nd4  1  0.867880  0.662710  0.121477  1
  Nd  Nd5  1  0.132741  0.336611  0.879369  1
  Nd  Nd6  1  0.481494  0.681656  0.598482  1
  Nd  Nd7  1  0.631291  0.162544  0.620327  1
  Nd  Nd8  1  0.802805  0.497994  0.750001  1
  Nd  Nd9  1  0.867821  0.662737  0.378503  1
  Nd  Nd10  1  0.017694  0.181129  0.098884  1
  Nd  Nd11  1  0.982460  0.819627  0.901371  1
  Nd  Nd12  1  0.631291  0.162563  0.879699  1
  Nd  Nd13  1  0.517900  0.318989  0.099144  1
  Nd  Nd14  1  0.368097  0.837242  0.379264  1
  Nd  Nd15  1  0.982464  0.819590  0.598659  1
  Nd  Nd16  1  0.517913  0.319033  0.400838  1
  Er  Er17  1  0.199462  0.502247  0.249958  1
  Er  Er18  1  0.699508  0.998037  0.249964  1
  Er  Er19  1  0.300749  0.002443  0.749973  1
  Sn  Sn20  1  0.791671  0.463540  0.541607  1
  Sn  Sn21  1  0.707926  0.964625  0.455982  1
  Sn  Sn22  1  0.674408  0.858158  0.750004  1
  Sn  Sn23  1  0.208270  0.534973  0.455987  1
  Sn  Sn24  1  0.291832  0.034985  0.956220  1
  Sn  Sn25  1  0.824416  0.353502  0.249784  1
  Sn  Sn26  1  0.791742  0.463467  0.958422  1
  Sn  Sn27  1  0.564298  0.617074  0.249993  1
  Sn  Sn28  1  0.208132  0.534723  0.044043  1
  Sn  Sn29  1  0.431829  0.382223  0.750002  1
  Sn  Sn30  1  0.177707  0.647663  0.750003  1
  Sn  Sn31  1  0.936680  0.114527  0.749993  1
  Sn  Sn32  1  0.292109  0.034843  0.543902  1
  Sn  Sn33  1  0.708306  0.964929  0.044107  1
  Sn  Sn34  1  0.324331  0.146043  0.249900  1
  Sn  Sn35  1  0.064750  0.882827  0.249938  1
