# generated using pymatgen
data_DyHo7VOs3C8
_symmetry_space_group_name_H-M   'P 1'
_cell_length_a   5.08191700
_cell_length_b   6.50288598
_cell_length_c   9.77861446
_cell_angle_alpha   89.78917696
_cell_angle_beta   90.00000000
_cell_angle_gamma   90.00000000
_symmetry_Int_Tables_number   1
_chemical_formula_structural   DyHo7VOs3C8
_chemical_formula_sum   'Dy1 Ho7 V1 Os3 C8'
_cell_volume   323.15292442
_cell_formula_units_Z   1
loop_
 _symmetry_equiv_pos_site_id
 _symmetry_equiv_pos_as_xyz
  1  'x, y, z'
loop_
 _atom_site_type_symbol
 _atom_site_label
 _atom_site_symmetry_multiplicity
 _atom_site_fract_x
 _atom_site_fract_y
 _atom_site_fract_z
 _atom_site_occupancy
  Dy  Dy0  1  0.750000  0.972465  0.716020  1
  Ho  Ho1  1  0.250000  0.682884  0.557634  1
  Ho  Ho2  1  0.750000  0.321058  0.444413  1
  Ho  Ho3  1  0.750000  0.819753  0.054733  1
  Ho  Ho4  1  0.250000  0.176037  0.942774  1
  Ho  Ho5  1  0.250000  0.533183  0.213439  1
  Ho  Ho6  1  0.750000  0.468172  0.779828  1
  Ho  Ho7  1  0.250000  0.029490  0.283567  1
  V  V8  1  0.250000  0.722792  0.866677  1
  Os  Os9  1  0.750000  0.278103  0.134596  1
  Os  Os10  1  0.750000  0.777186  0.364332  1
  Os  Os11  1  0.250000  0.225416  0.634908  1
  C  C12  1  0.250000  0.458669  0.762367  1
  C  C13  1  0.750000  0.542446  0.242229  1
  C  C14  1  0.750000  0.043153  0.259012  1
  C  C15  1  0.250000  0.956319  0.741614  1
  C  C16  1  0.250000  0.819640  0.051297  1
  C  C17  1  0.750000  0.175147  0.951098  1
  C  C18  1  0.750000  0.675198  0.550666  1
  C  C19  1  0.250000  0.322890  0.448794  1
