# generated using pymatgen
data_Hf6ZnGa5Ni6
_symmetry_space_group_name_H-M   'P 1'
_cell_length_a   6.87062400
_cell_length_b   6.87357557
_cell_length_c   6.80039623
_cell_angle_alpha   90.05874051
_cell_angle_beta   90.00000000
_cell_angle_gamma   119.98579631
_symmetry_Int_Tables_number   1
_chemical_formula_structural   Hf6ZnGa5Ni6
_chemical_formula_sum   'Hf6 Zn1 Ga5 Ni6'
_cell_volume   278.16698287
_cell_formula_units_Z   1
loop_
 _symmetry_equiv_pos_site_id
 _symmetry_equiv_pos_as_xyz
  1  'x, y, z'
loop_
 _atom_site_type_symbol
 _atom_site_label
 _atom_site_symmetry_multiplicity
 _atom_site_fract_x
 _atom_site_fract_y
 _atom_site_fract_z
 _atom_site_occupancy
  Hf  Hf0  1  0.409474  0.395346  0.248228  1
  Hf  Hf1  1  0.588046  0.988298  0.751546  1
  Hf  Hf2  1  0.397404  0.407327  0.752093  1
  Hf  Hf3  1  0.014129  0.604654  0.751772  1
  Hf  Hf4  1  0.990078  0.592673  0.247907  1
  Hf  Hf5  1  0.599748  0.011702  0.248454  1
  Zn  Zn6  1  0.262514  0.000000  0.000000  1
  Ga  Ga7  1  0.261244  0.000000  0.500000  1
  Ga  Ga8  1  0.999801  0.263852  0.499742  1
  Ga  Ga9  1  0.000641  0.258426  0.000340  1
  Ga  Ga10  1  0.742215  0.741574  0.999660  1
  Ga  Ga11  1  0.735950  0.736148  0.500258  1
  Ni  Ni12  1  0.666821  0.333606  0.524871  1
  Ni  Ni13  1  0.997330  0.000108  0.746094  1
  Ni  Ni14  1  0.670266  0.336363  0.976286  1
  Ni  Ni15  1  0.333901  0.663637  0.023714  1
  Ni  Ni16  1  0.333214  0.666394  0.475129  1
  Ni  Ni17  1  0.997223  0.999892  0.253906  1
