# generated using pymatgen
data_NdDy2Lu(NiAs)4
_symmetry_space_group_name_H-M   'P 1'
_cell_length_a   4.05263000
_cell_length_b   4.05262954
_cell_length_c   15.67559100
_cell_angle_alpha   90.00000000
_cell_angle_beta   90.00000000
_cell_angle_gamma   120.00000376
_symmetry_Int_Tables_number   1
_chemical_formula_structural   NdDy2Lu(NiAs)4
_chemical_formula_sum   'Nd1 Dy2 Lu1 Ni4 As4'
_cell_volume   222.96074119
_cell_formula_units_Z   1
loop_
 _symmetry_equiv_pos_site_id
 _symmetry_equiv_pos_as_xyz
  1  'x, y, z'
loop_
 _atom_site_type_symbol
 _atom_site_label
 _atom_site_symmetry_multiplicity
 _atom_site_fract_x
 _atom_site_fract_y
 _atom_site_fract_z
 _atom_site_occupancy
  Nd  Nd0  1  0.000000  0.000000  0.504099  1
  Dy  Dy1  1  0.000000  0.000000  0.244942  1
  Dy  Dy2  1  0.000000  0.000000  0.996748  1
  Lu  Lu3  1  0.000000  0.000000  0.754402  1
  Ni  Ni4  1  0.333333  0.666667  0.128664  1
  Ni  Ni5  1  0.666667  0.333333  0.858439  1
  Ni  Ni6  1  0.666667  0.333333  0.650477  1
  Ni  Ni7  1  0.333333  0.666667  0.362366  1
  As  As8  1  0.333333  0.666667  0.629655  1
  As  As9  1  0.666667  0.333333  0.373231  1
  As  As10  1  0.666667  0.333333  0.117394  1
  As  As11  1  0.333333  0.666667  0.879582  1
