# generated using pymatgen
data_CaYMg2(SiIr2)2
_symmetry_space_group_name_H-M   'P 1'
_cell_length_a   4.10930300
_cell_length_b   4.10930300
_cell_length_c   10.83589000
_cell_angle_alpha   90.00000000
_cell_angle_beta   90.00000000
_cell_angle_gamma   90.00000000
_symmetry_Int_Tables_number   1
_chemical_formula_structural   CaYMg2(SiIr2)2
_chemical_formula_sum   'Ca1 Y1 Mg2 Si2 Ir4'
_cell_volume   182.97886024
_cell_formula_units_Z   1
loop_
 _symmetry_equiv_pos_site_id
 _symmetry_equiv_pos_as_xyz
  1  'x, y, z'
loop_
 _atom_site_type_symbol
 _atom_site_label
 _atom_site_symmetry_multiplicity
 _atom_site_fract_x
 _atom_site_fract_y
 _atom_site_fract_z
 _atom_site_occupancy
  Ca  Ca0  1  0.500000  0.000000  0.238741  1
  Y  Y1  1  0.000000  0.500000  0.763128  1
  Mg  Mg2  1  0.500000  0.500000  0.498024  1
  Mg  Mg3  1  0.000000  0.000000  0.498024  1
  Si  Si4  1  0.000000  0.500000  0.117351  1
  Si  Si5  1  0.500000  0.000000  0.883917  1
  Ir  Ir6  1  0.000000  0.500000  0.334662  1
  Ir  Ir7  1  0.500000  0.000000  0.668118  1
  Ir  Ir8  1  0.500000  0.500000  0.999018  1
  Ir  Ir9  1  0.000000  0.000000  0.999018  1
