# generated using pymatgen
data_Y4Co6P12Ir11Rh3
_symmetry_space_group_name_H-M   'P 1'
_cell_length_a   3.89259900
_cell_length_b   10.63417116
_cell_length_c   12.33660129
_cell_angle_alpha   90.20805848
_cell_angle_beta   90.00000000
_cell_angle_gamma   90.00000000
_symmetry_Int_Tables_number   1
_chemical_formula_structural   Y4Co6P12Ir11Rh3
_chemical_formula_sum   'Y4 Co6 P12 Ir11 Rh3'
_cell_volume   510.66486526
_cell_formula_units_Z   1
loop_
 _symmetry_equiv_pos_site_id
 _symmetry_equiv_pos_as_xyz
  1  'x, y, z'
loop_
 _atom_site_type_symbol
 _atom_site_label
 _atom_site_symmetry_multiplicity
 _atom_site_fract_x
 _atom_site_fract_y
 _atom_site_fract_z
 _atom_site_occupancy
  Y  Y0  1  0.250000  0.919392  0.211725  1
  Y  Y1  1  0.750000  0.081696  0.788217  1
  Y  Y2  1  0.750000  0.412851  0.290465  1
  Y  Y3  1  0.250000  0.587219  0.708782  1
  Co  Co4  1  0.750000  0.116965  0.304092  1
  Co  Co5  1  0.250000  0.881789  0.696054  1
  Co  Co6  1  0.250000  0.037066  0.433959  1
  Co  Co7  1  0.750000  0.962636  0.566412  1
  Co  Co8  1  0.750000  0.540205  0.064900  1
  Co  Co9  1  0.250000  0.463688  0.933943  1
  P  P10  1  0.250000  0.064785  0.609999  1
  P  P11  1  0.750000  0.934961  0.390393  1
  P  P12  1  0.750000  0.576788  0.893109  1
  P  P13  1  0.250000  0.421404  0.105564  1
  P  P14  1  0.250000  0.225140  0.370483  1
  P  P15  1  0.750000  0.774699  0.629839  1
  P  P16  1  0.750000  0.730494  0.130033  1
  P  P17  1  0.250000  0.269987  0.870840  1
  P  P18  1  0.250000  0.903558  0.875608  1
  P  P19  1  0.750000  0.097682  0.123372  1
  P  P20  1  0.750000  0.400576  0.613297  1
  P  P21  1  0.250000  0.598853  0.386531  1
  Ir  Ir22  1  0.250000  0.722151  0.982701  1
  Ir  Ir23  1  0.250000  0.089529  0.975286  1
  Ir  Ir24  1  0.750000  0.909517  0.025372  1
  Ir  Ir25  1  0.750000  0.592101  0.522406  1
  Ir  Ir26  1  0.250000  0.407823  0.477560  1
  Ir  Ir27  1  0.250000  0.267417  0.676967  1
  Ir  Ir28  1  0.750000  0.732674  0.322447  1
  Ir  Ir29  1  0.750000  0.776834  0.820354  1
  Ir  Ir30  1  0.250000  0.222232  0.180924  1
  Ir  Ir31  1  0.250000  0.612984  0.198257  1
  Ir  Ir32  1  0.750000  0.385382  0.801578  1
  Rh  Rh33  1  0.250000  0.780927  0.488966  1
  Rh  Rh34  1  0.750000  0.218735  0.510775  1
  Rh  Rh35  1  0.750000  0.279262  0.018790  1
