# generated using pymatgen
data_Hf2Sc(Cu2Si)2
_symmetry_space_group_name_H-M   'P 1'
_cell_length_a   6.37426789
_cell_length_b   6.35120536
_cell_length_c   3.93325300
_cell_angle_alpha   90.00000000
_cell_angle_beta   90.00000000
_cell_angle_gamma   119.88039188
_symmetry_Int_Tables_number   1
_chemical_formula_structural   Hf2Sc(Cu2Si)2
_chemical_formula_sum   'Hf2 Sc1 Cu4 Si2'
_cell_volume   138.06740242
_cell_formula_units_Z   1
loop_
 _symmetry_equiv_pos_site_id
 _symmetry_equiv_pos_as_xyz
  1  'x, y, z'
loop_
 _atom_site_type_symbol
 _atom_site_label
 _atom_site_symmetry_multiplicity
 _atom_site_fract_x
 _atom_site_fract_y
 _atom_site_fract_z
 _atom_site_occupancy
  Hf  Hf0  1  0.412535  0.411621  0.500000  1
  Hf  Hf1  1  0.587465  0.999086  0.500000  1
  Sc  Sc2  1  0.000000  0.588879  0.500000  1
  Cu  Cu3  1  0.247566  0.000115  0.000000  1
  Cu  Cu4  1  0.000000  0.247671  0.000000  1
  Cu  Cu5  1  0.000000  0.999839  0.500000  1
  Cu  Cu6  1  0.752434  0.752549  0.000000  1
  Si  Si7  1  0.664758  0.332499  0.000000  1
  Si  Si8  1  0.335242  0.667742  0.000000  1
