# generated using pymatgen
data_K2Ga3CuS6
_symmetry_space_group_name_H-M   'P 1'
_cell_length_a   7.48777018
_cell_length_b   7.48777007
_cell_length_c   20.02449900
_cell_angle_alpha   95.33778163
_cell_angle_beta   95.33778156
_cell_angle_gamma   90.17300051
_symmetry_Int_Tables_number   1
_chemical_formula_structural   K2Ga3CuS6
_chemical_formula_sum   'K8 Ga12 Cu4 S24'
_cell_volume   1112.91447069
_cell_formula_units_Z   4
loop_
 _symmetry_equiv_pos_site_id
 _symmetry_equiv_pos_as_xyz
  1  'x, y, z'
loop_
 _atom_site_type_symbol
 _atom_site_label
 _atom_site_symmetry_multiplicity
 _atom_site_fract_x
 _atom_site_fract_y
 _atom_site_fract_z
 _atom_site_occupancy
  K  K0  1  0.394105  0.776023  0.080503  1
  K  K1  1  0.896147  0.767398  0.080693  1
  K  K2  1  0.232602  0.103853  0.419307  1
  K  K3  1  0.223977  0.605895  0.419497  1
  K  K4  1  0.776023  0.394105  0.580502  1
  K  K5  1  0.767398  0.896147  0.580692  1
  K  K6  1  0.103853  0.232602  0.919307  1
  K  K7  1  0.605895  0.223977  0.919498  1
  Ga  Ga8  1  0.654498  0.279677  0.119133  1
  Ga  Ga9  1  0.154909  0.280636  0.120069  1
  Ga  Ga10  1  0.932122  0.067877  0.250000  1
  Ga  Ga11  1  0.442533  0.557467  0.250000  1
  Ga  Ga12  1  0.719365  0.845091  0.379930  1
  Ga  Ga13  1  0.720323  0.345502  0.380867  1
  Ga  Ga14  1  0.279677  0.654498  0.619133  1
  Ga  Ga15  1  0.280635  0.154908  0.620070  1
  Ga  Ga16  1  0.557467  0.442533  0.750000  1
  Ga  Ga17  1  0.067878  0.932122  0.750000  1
  Ga  Ga18  1  0.845092  0.719365  0.879930  1
  Ga  Ga19  1  0.345503  0.720323  0.880867  1
  Cu  Cu20  1  0.937121  0.562673  0.249811  1
  Cu  Cu21  1  0.437327  0.062880  0.250189  1
  Cu  Cu22  1  0.562673  0.937121  0.749811  1
  Cu  Cu23  1  0.062880  0.437328  0.750189  1
  S  S24  1  0.386542  0.240096  0.050779  1
  S  S25  1  0.888313  0.285081  0.050866  1
  S  S26  1  0.670350  0.553925  0.180633  1
  S  S27  1  0.669323  0.036864  0.180935  1
  S  S28  1  0.174200  0.554096  0.182489  1
  S  S29  1  0.166954  0.038225  0.182583  1
  S  S30  1  0.961775  0.833047  0.317417  1
  S  S31  1  0.445904  0.825800  0.317511  1
  S  S32  1  0.963136  0.330677  0.319065  1
  S  S33  1  0.446075  0.329649  0.319367  1
  S  S34  1  0.714919  0.111687  0.449135  1
  S  S35  1  0.759904  0.613458  0.449221  1
  S  S36  1  0.240096  0.386543  0.550779  1
  S  S37  1  0.285081  0.888312  0.550866  1
  S  S38  1  0.553925  0.670350  0.680633  1
  S  S39  1  0.036864  0.669323  0.680935  1
  S  S40  1  0.554096  0.174199  0.682488  1
  S  S41  1  0.038226  0.166954  0.682583  1
  S  S42  1  0.833047  0.961775  0.817417  1
  S  S43  1  0.825801  0.445904  0.817512  1
  S  S44  1  0.330677  0.963136  0.819065  1
  S  S45  1  0.329649  0.446075  0.819367  1
  S  S46  1  0.111687  0.714919  0.949134  1
  S  S47  1  0.613458  0.759904  0.949221  1
