# generated using pymatgen
data_Tm2PSe
_symmetry_space_group_name_H-M   'P 1'
_cell_length_a   6.96409553
_cell_length_b   6.96409586
_cell_length_c   6.96409523
_cell_angle_alpha   33.13740936
_cell_angle_beta   33.13740629
_cell_angle_gamma   33.13741437
_symmetry_Int_Tables_number   1
_chemical_formula_structural   Tm2PSe
_chemical_formula_sum   'Tm2 P1 Se1'
_cell_volume   89.83710362
_cell_formula_units_Z   1
loop_
 _symmetry_equiv_pos_site_id
 _symmetry_equiv_pos_as_xyz
  1  'x, y, z'
loop_
 _atom_site_type_symbol
 _atom_site_label
 _atom_site_symmetry_multiplicity
 _atom_site_fract_x
 _atom_site_fract_y
 _atom_site_fract_z
 _atom_site_occupancy
  Tm  Tm0  1  0.257660  0.257660  0.257660  1
  Tm  Tm1  1  0.742340  0.742340  0.742340  1
  P  P2  1  0.000000  0.000000  0.000000  1
  Se  Se3  1  0.500000  0.500000  0.500000  1
