# generated using pymatgen
data_Tm4Al4Ru3Rh
_symmetry_space_group_name_H-M   'P 1'
_cell_length_a   4.02110500
_cell_length_b   6.95338202
_cell_length_c   8.03140101
_cell_angle_alpha   89.99266231
_cell_angle_beta   90.00000000
_cell_angle_gamma   90.00000000
_symmetry_Int_Tables_number   1
_chemical_formula_structural   Tm4Al4Ru3Rh
_chemical_formula_sum   'Tm4 Al4 Ru3 Rh1'
_cell_volume   224.56021282
_cell_formula_units_Z   1
loop_
 _symmetry_equiv_pos_site_id
 _symmetry_equiv_pos_as_xyz
  1  'x, y, z'
loop_
 _atom_site_type_symbol
 _atom_site_label
 _atom_site_symmetry_multiplicity
 _atom_site_fract_x
 _atom_site_fract_y
 _atom_site_fract_z
 _atom_site_occupancy
  Tm  Tm0  1  0.250000  0.966192  0.321184  1
  Tm  Tm1  1  0.750000  0.532672  0.824403  1
  Tm  Tm2  1  0.250000  0.465161  0.176494  1
  Tm  Tm3  1  0.750000  0.037517  0.678276  1
  Al  Al4  1  0.750000  0.636088  0.440078  1
  Al  Al5  1  0.750000  0.136183  0.058240  1
  Al  Al6  1  0.250000  0.361715  0.558517  1
  Al  Al7  1  0.250000  0.864180  0.942534  1
  Ru  Ru8  1  0.750000  0.766394  0.126384  1
  Ru  Ru9  1  0.750000  0.267961  0.375076  1
  Ru  Ru10  1  0.250000  0.234252  0.873288  1
  Rh  Rh11  1  0.250000  0.731684  0.625525  1
