# generated using pymatgen
data_Er8Cd3Cu8Sn
_symmetry_space_group_name_H-M   'P 1'
_cell_length_a   7.56061800
_cell_length_b   7.56061800
_cell_length_c   7.29848900
_cell_angle_alpha   90.00000000
_cell_angle_beta   90.00000000
_cell_angle_gamma   90.00000000
_symmetry_Int_Tables_number   1
_chemical_formula_structural   Er8Cd3Cu8Sn
_chemical_formula_sum   'Er8 Cd3 Cu8 Sn1'
_cell_volume   417.20312195
_cell_formula_units_Z   1
loop_
 _symmetry_equiv_pos_site_id
 _symmetry_equiv_pos_as_xyz
  1  'x, y, z'
loop_
 _atom_site_type_symbol
 _atom_site_label
 _atom_site_symmetry_multiplicity
 _atom_site_fract_x
 _atom_site_fract_y
 _atom_site_fract_z
 _atom_site_occupancy
  Er  Er0  1  0.831555  0.171784  0.499969  1
  Er  Er1  1  0.168445  0.828216  0.499969  1
  Er  Er2  1  0.328216  0.331555  0.000031  1
  Er  Er3  1  0.671784  0.668445  0.000031  1
  Er  Er4  1  0.680154  0.677388  0.500365  1
  Er  Er5  1  0.319846  0.322612  0.500365  1
  Er  Er6  1  0.177388  0.819846  0.999635  1
  Er  Er7  1  0.822612  0.180154  0.999635  1
  Cd  Cd8  1  0.500000  0.000000  0.250000  1
  Cd  Cd9  1  0.000000  0.500000  0.750000  1
  Cd  Cd10  1  0.500000  0.000000  0.750000  1
  Cu  Cu11  1  0.616319  0.377639  0.259655  1
  Cu  Cu12  1  0.383681  0.622361  0.259655  1
  Cu  Cu13  1  0.120653  0.117437  0.759081  1
  Cu  Cu14  1  0.879347  0.882563  0.759081  1
  Cu  Cu15  1  0.382563  0.620653  0.740919  1
  Cu  Cu16  1  0.617437  0.379347  0.740919  1
  Cu  Cu17  1  0.877639  0.883681  0.240345  1
  Cu  Cu18  1  0.122361  0.116319  0.240345  1
  Sn  Sn19  1  0.000000  0.500000  0.250000  1
