# generated using pymatgen
data_Tb3Sc2(Tl2Pt)2
_symmetry_space_group_name_H-M   'P 1'
_cell_length_a   3.62307700
_cell_length_b   7.91744000
_cell_length_c   17.60278100
_cell_angle_alpha   90.00000000
_cell_angle_beta   90.00000000
_cell_angle_gamma   90.00000000
_symmetry_Int_Tables_number   1
_chemical_formula_structural   Tb3Sc2(Tl2Pt)2
_chemical_formula_sum   'Tb6 Sc4 Tl8 Pt4'
_cell_volume   504.94448219
_cell_formula_units_Z   2
loop_
 _symmetry_equiv_pos_site_id
 _symmetry_equiv_pos_as_xyz
  1  'x, y, z'
loop_
 _atom_site_type_symbol
 _atom_site_label
 _atom_site_symmetry_multiplicity
 _atom_site_fract_x
 _atom_site_fract_y
 _atom_site_fract_z
 _atom_site_occupancy
  Tb  Tb0  1  0.000000  0.236462  0.213919  1
  Tb  Tb1  1  0.000000  0.763538  0.786081  1
  Tb  Tb2  1  0.000000  0.263538  0.713919  1
  Tb  Tb3  1  0.000000  0.736462  0.286081  1
  Tb  Tb4  1  0.000000  0.000000  0.000000  1
  Tb  Tb5  1  0.000000  0.500000  0.500000  1
  Sc  Sc6  1  0.000000  0.111920  0.412691  1
  Sc  Sc7  1  0.000000  0.888080  0.587309  1
  Sc  Sc8  1  0.000000  0.388080  0.912691  1
  Sc  Sc9  1  0.000000  0.611920  0.087309  1
  Tl  Tl10  1  0.500000  0.408091  0.352611  1
  Tl  Tl11  1  0.500000  0.591909  0.647389  1
  Tl  Tl12  1  0.500000  0.091909  0.852611  1
  Tl  Tl13  1  0.500000  0.908091  0.147389  1
  Tl  Tl14  1  0.500000  0.305729  0.056134  1
  Tl  Tl15  1  0.500000  0.694271  0.943866  1
  Tl  Tl16  1  0.500000  0.194271  0.556134  1
  Tl  Tl17  1  0.500000  0.805729  0.443866  1
  Pt  Pt18  1  0.500000  0.028355  0.307087  1
  Pt  Pt19  1  0.500000  0.971645  0.692913  1
  Pt  Pt20  1  0.500000  0.471645  0.807087  1
  Pt  Pt21  1  0.500000  0.528355  0.192913  1
