# generated using pymatgen
data_CeHgPt3Rh
_symmetry_space_group_name_H-M   'P 1'
_cell_length_a   5.39699185
_cell_length_b   5.39699228
_cell_length_c   5.40868431
_cell_angle_alpha   60.07147554
_cell_angle_beta   60.07147430
_cell_angle_gamma   60.00000558
_symmetry_Int_Tables_number   1
_chemical_formula_structural   CeHgPt3Rh
_chemical_formula_sum   'Ce1 Hg1 Pt3 Rh1'
_cell_volume   111.51892040
_cell_formula_units_Z   1
loop_
 _symmetry_equiv_pos_site_id
 _symmetry_equiv_pos_as_xyz
  1  'x, y, z'
loop_
 _atom_site_type_symbol
 _atom_site_label
 _atom_site_symmetry_multiplicity
 _atom_site_fract_x
 _atom_site_fract_y
 _atom_site_fract_z
 _atom_site_occupancy
  Ce  Ce0  1  0.999978  0.999978  0.000067  1
  Hg  Hg1  1  0.250068  0.250068  0.249796  1
  Pt  Pt2  1  0.624490  0.126507  0.624513  1
  Pt  Pt3  1  0.126507  0.624490  0.624513  1
  Pt  Pt4  1  0.624490  0.624490  0.624513  1
  Rh  Rh5  1  0.624467  0.624467  0.126597  1
