# generated using pymatgen
data_YbEr(Ga2Cu)2
_symmetry_space_group_name_H-M   'P 1'
_cell_length_a   4.32515100
_cell_length_b   6.47448587
_cell_length_c   10.12992328
_cell_angle_alpha   90.22481235
_cell_angle_beta   90.00000000
_cell_angle_gamma   90.00000000
_symmetry_Int_Tables_number   1
_chemical_formula_structural   YbEr(Ga2Cu)2
_chemical_formula_sum   'Yb2 Er2 Ga8 Cu4'
_cell_volume   283.66736528
_cell_formula_units_Z   2
loop_
 _symmetry_equiv_pos_site_id
 _symmetry_equiv_pos_as_xyz
  1  'x, y, z'
loop_
 _atom_site_type_symbol
 _atom_site_label
 _atom_site_symmetry_multiplicity
 _atom_site_fract_x
 _atom_site_fract_y
 _atom_site_fract_z
 _atom_site_occupancy
  Yb  Yb0  1  0.750000  0.749642  0.341662  1
  Yb  Yb1  1  0.250000  0.250358  0.658338  1
  Er  Er2  1  0.250000  0.754856  0.841221  1
  Er  Er3  1  0.750000  0.245144  0.158779  1
  Ga  Ga4  1  0.250000  0.735625  0.542021  1
  Ga  Ga5  1  0.750000  0.264375  0.457979  1
  Ga  Ga6  1  0.750000  0.761867  0.044704  1
  Ga  Ga7  1  0.250000  0.238133  0.955296  1
  Ga  Ga8  1  0.250000  0.932413  0.151886  1
  Ga  Ga9  1  0.750000  0.067587  0.848114  1
  Ga  Ga10  1  0.750000  0.564980  0.652801  1
  Ga  Ga11  1  0.250000  0.435020  0.347199  1
  Cu  Cu12  1  0.250000  0.550073  0.107754  1
  Cu  Cu13  1  0.750000  0.449927  0.892246  1
  Cu  Cu14  1  0.750000  0.949219  0.608358  1
  Cu  Cu15  1  0.250000  0.050781  0.391642  1
