# generated using pymatgen
data_Tb3GaPt3Au2
_symmetry_space_group_name_H-M   'P 1'
_cell_length_a   7.51137887
_cell_length_b   7.43663838
_cell_length_c   3.84762100
_cell_angle_alpha   90.00000000
_cell_angle_beta   90.00000000
_cell_angle_gamma   119.67139374
_symmetry_Int_Tables_number   1
_chemical_formula_structural   Tb3GaPt3Au2
_chemical_formula_sum   'Tb3 Ga1 Pt3 Au2'
_cell_volume   186.74449431
_cell_formula_units_Z   1
loop_
 _symmetry_equiv_pos_site_id
 _symmetry_equiv_pos_as_xyz
  1  'x, y, z'
loop_
 _atom_site_type_symbol
 _atom_site_label
 _atom_site_symmetry_multiplicity
 _atom_site_fract_x
 _atom_site_fract_y
 _atom_site_fract_z
 _atom_site_occupancy
  Tb  Tb0  1  0.406490  0.395003  0.500000  1
  Tb  Tb1  1  0.593510  0.988513  0.500000  1
  Tb  Tb2  1  0.000000  0.617768  0.500000  1
  Ga  Ga3  1  0.000000  0.261002  0.000000  1
  Pt  Pt4  1  0.687072  0.327011  0.000000  1
  Pt  Pt5  1  0.312928  0.639941  0.000000  1
  Pt  Pt6  1  0.000000  0.039586  0.500000  1
  Au  Au7  1  0.737348  0.734263  0.000000  1
  Au  Au8  1  0.262652  0.996914  0.000000  1
