# generated using pymatgen
data_Sr2Al20Os3Pd
_symmetry_space_group_name_H-M   'P 1'
_cell_length_a   6.93548620
_cell_length_b   6.93630463
_cell_length_c   9.25809058
_cell_angle_alpha   90.25375661
_cell_angle_beta   90.02322122
_cell_angle_gamma   96.61112343
_symmetry_Int_Tables_number   1
_chemical_formula_structural   Sr2Al20Os3Pd
_chemical_formula_sum   'Sr2 Al20 Os3 Pd1'
_cell_volume   442.40959511
_cell_formula_units_Z   1
loop_
 _symmetry_equiv_pos_site_id
 _symmetry_equiv_pos_as_xyz
  1  'x, y, z'
loop_
 _atom_site_type_symbol
 _atom_site_label
 _atom_site_symmetry_multiplicity
 _atom_site_fract_x
 _atom_site_fract_y
 _atom_site_fract_z
 _atom_site_occupancy
  Sr  Sr0  1  0.623257  0.377506  0.750643  1
  Sr  Sr1  1  0.376743  0.622494  0.249357  1
  Al  Al2  1  0.275084  0.018026  0.743044  1
  Al  Al3  1  0.018434  0.282380  0.249862  1
  Al  Al4  1  0.724916  0.981974  0.256956  1
  Al  Al5  1  0.981566  0.717620  0.750138  1
  Al  Al6  1  0.883836  0.124419  0.950700  1
  Al  Al7  1  0.116164  0.875581  0.049300  1
  Al  Al8  1  0.878103  0.123929  0.544695  1
  Al  Al9  1  0.121897  0.876071  0.455305  1
  Al  Al10  1  0.646062  0.912944  0.747391  1
  Al  Al11  1  0.912055  0.642815  0.251150  1
  Al  Al12  1  0.353938  0.087056  0.252609  1
  Al  Al13  1  0.087945  0.357185  0.748850  1
  Al  Al14  1  0.335153  0.659527  0.894624  1
  Al  Al15  1  0.664847  0.340473  0.105376  1
  Al  Al16  1  0.340339  0.660717  0.599382  1
  Al  Al17  1  0.659661  0.339283  0.400618  1
  Al  Al18  1  0.728005  0.723170  0.996745  1
  Al  Al19  1  0.724377  0.722904  0.501209  1
  Al  Al20  1  0.271995  0.276830  0.003255  1
  Al  Al21  1  0.275623  0.277096  0.498791  1
  Os  Os22  1  0.000000  0.500000  0.000000  1
  Os  Os23  1  0.500000  0.000000  0.500000  1
  Os  Os24  1  0.000000  0.500000  0.500000  1
  Pd  Pd25  1  0.500000  0.000000  0.000000  1
