# generated using pymatgen
data_Y8Lu4InCo4Au
_symmetry_space_group_name_H-M   'P 1'
_cell_length_a   8.31748773
_cell_length_b   8.31748727
_cell_length_c   8.31748814
_cell_angle_alpha   111.38312368
_cell_angle_beta   110.34279822
_cell_angle_gamma   106.72398461
_symmetry_Int_Tables_number   1
_chemical_formula_structural   Y8Lu4InCo4Au
_chemical_formula_sum   'Y8 Lu4 In1 Co4 Au1'
_cell_volume   442.15234398
_cell_formula_units_Z   1
loop_
 _symmetry_equiv_pos_site_id
 _symmetry_equiv_pos_as_xyz
  1  'x, y, z'
loop_
 _atom_site_type_symbol
 _atom_site_label
 _atom_site_symmetry_multiplicity
 _atom_site_fract_x
 _atom_site_fract_y
 _atom_site_fract_z
 _atom_site_occupancy
  Y  Y0  1  0.426603  0.223217  0.203386  1
  Y  Y1  1  0.573397  0.776783  0.796614  1
  Y  Y2  1  0.019830  0.223217  0.796614  1
  Y  Y3  1  0.980170  0.776783  0.203386  1
  Y  Y4  1  0.187348  0.289944  0.477292  1
  Y  Y5  1  0.812652  0.710056  0.522708  1
  Y  Y6  1  0.187348  0.710056  0.897404  1
  Y  Y7  1  0.812652  0.289944  0.102596  1
  Lu  Lu8  1  0.317098  0.625266  0.308167  1
  Lu  Lu9  1  0.682902  0.374734  0.691833  1
  Lu  Lu10  1  0.317098  0.008930  0.691833  1
  Lu  Lu11  1  0.682902  0.991070  0.308167  1
  In  In12  1  0.500000  0.500000  0.000000  1
  Co  Co13  1  0.380294  0.000000  0.380294  1
  Co  Co14  1  0.619706  0.000000  0.619706  1
  Co  Co15  1  0.112609  0.612609  0.500000  1
  Co  Co16  1  0.887391  0.387391  0.500000  1
  Au  Au17  1  0.000000  0.000000  0.000000  1
