# generated using pymatgen
data_YbSc2(SbAu)4
_symmetry_space_group_name_H-M   'P 1'
_cell_length_a   7.95470609
_cell_length_b   7.95470540
_cell_length_c   7.95470600
_cell_angle_alpha   131.54219151
_cell_angle_beta   131.54218711
_cell_angle_gamma   70.95305801
_symmetry_Int_Tables_number   1
_chemical_formula_structural   YbSc2(SbAu)4
_chemical_formula_sum   'Yb1 Sc2 Sb4 Au4'
_cell_volume   276.13678348
_cell_formula_units_Z   1
loop_
 _symmetry_equiv_pos_site_id
 _symmetry_equiv_pos_as_xyz
  1  'x, y, z'
loop_
 _atom_site_type_symbol
 _atom_site_label
 _atom_site_symmetry_multiplicity
 _atom_site_fract_x
 _atom_site_fract_y
 _atom_site_fract_z
 _atom_site_occupancy
  Yb  Yb0  1  0.000000  0.000000  0.000000  1
  Sc  Sc1  1  0.750001  0.250000  0.500001  1
  Sc  Sc2  1  0.250000  0.750001  0.500001  1
  Sb  Sb3  1  0.251847  0.251847  0.000000  1
  Sb  Sb4  1  0.748153  0.748153  0.000000  1
  Sb  Sb5  1  0.500001  0.000000  0.500001  1
  Sb  Sb6  1  0.000000  0.500001  0.500001  1
  Au  Au7  1  0.618066  0.132690  0.000000  1
  Au  Au8  1  0.132690  0.618066  0.000000  1
  Au  Au9  1  0.867310  0.867310  0.485376  1
  Au  Au10  1  0.381934  0.381934  0.514625  1
