# generated using pymatgen
data_Er12In2Fe3
_symmetry_space_group_name_H-M   'P 1'
_cell_length_a   8.27761865
_cell_length_b   8.27761926
_cell_length_c   8.27761921
_cell_angle_alpha   108.54307136
_cell_angle_beta   108.54307794
_cell_angle_gamma   111.34390727
_symmetry_Int_Tables_number   1
_chemical_formula_structural   Er12In2Fe3
_chemical_formula_sum   'Er12 In2 Fe3'
_cell_volume   436.25960192
_cell_formula_units_Z   1
loop_
 _symmetry_equiv_pos_site_id
 _symmetry_equiv_pos_as_xyz
  1  'x, y, z'
loop_
 _atom_site_type_symbol
 _atom_site_label
 _atom_site_symmetry_multiplicity
 _atom_site_fract_x
 _atom_site_fract_y
 _atom_site_fract_z
 _atom_site_occupancy
  Er  Er0  1  0.190835  0.427244  0.236409  1
  Er  Er1  1  0.809165  0.572756  0.763591  1
  Er  Er2  1  0.190835  0.954427  0.763591  1
  Er  Er3  1  0.954427  0.190835  0.763591  1
  Er  Er4  1  0.809165  0.045573  0.236409  1
  Er  Er5  1  0.045573  0.809165  0.236409  1
  Er  Er6  1  0.427244  0.190835  0.236409  1
  Er  Er7  1  0.572756  0.809165  0.763591  1
  Er  Er8  1  0.307492  0.307492  0.614983  1
  Er  Er9  1  0.692508  0.692508  0.385017  1
  Er  Er10  1  0.692508  0.307492  0.000000  1
  Er  Er11  1  0.307492  0.692508  0.000000  1
  In  In12  1  0.000000  0.500000  0.500000  1
  In  In13  1  0.500000  0.000000  0.500000  1
  Fe  Fe14  1  0.384794  0.384794  0.000000  1
  Fe  Fe15  1  0.615206  0.615206  0.000000  1
  Fe  Fe16  1  0.000000  0.000000  0.000000  1
