# generated using pymatgen
data_Yb3ErMnRu7
_symmetry_space_group_name_H-M   'P 1'
_cell_length_a   5.27696506
_cell_length_b   5.27696563
_cell_length_c   8.68488112
_cell_angle_alpha   90.00075378
_cell_angle_beta   89.99924700
_cell_angle_gamma   119.99653117
_symmetry_Int_Tables_number   1
_chemical_formula_structural   Yb3ErMnRu7
_chemical_formula_sum   'Yb3 Er1 Mn1 Ru7'
_cell_volume   209.44894325
_cell_formula_units_Z   1
loop_
 _symmetry_equiv_pos_site_id
 _symmetry_equiv_pos_as_xyz
  1  'x, y, z'
loop_
 _atom_site_type_symbol
 _atom_site_label
 _atom_site_symmetry_multiplicity
 _atom_site_fract_x
 _atom_site_fract_y
 _atom_site_fract_z
 _atom_site_occupancy
  Yb  Yb0  1  0.333358  0.666642  0.428023  1
  Yb  Yb1  1  0.333365  0.666635  0.065835  1
  Yb  Yb2  1  0.666673  0.333327  0.938921  1
  Er  Er3  1  0.666608  0.333392  0.571463  1
  Mn  Mn4  1  0.999991  0.000009  0.499656  1
  Ru  Ru5  1  0.000011  0.999989  0.997559  1
  Ru  Ru6  1  0.170588  0.341268  0.745185  1
  Ru  Ru7  1  0.170636  0.829364  0.745215  1
  Ru  Ru8  1  0.658732  0.829412  0.745185  1
  Ru  Ru9  1  0.829616  0.659144  0.254323  1
  Ru  Ru10  1  0.829568  0.170432  0.254311  1
  Ru  Ru11  1  0.340856  0.170384  0.254323  1
