# generated using pymatgen
data_Eu3In3AgSn2
_symmetry_space_group_name_H-M   'P 1'
_cell_length_a   7.85484600
_cell_length_b   7.85484585
_cell_length_c   4.73533800
_cell_angle_alpha   90.00000000
_cell_angle_beta   90.00000000
_cell_angle_gamma   120.00000065
_symmetry_Int_Tables_number   1
_chemical_formula_structural   Eu3In3AgSn2
_chemical_formula_sum   'Eu3 In3 Ag1 Sn2'
_cell_volume   253.02122468
_cell_formula_units_Z   1
loop_
 _symmetry_equiv_pos_site_id
 _symmetry_equiv_pos_as_xyz
  1  'x, y, z'
loop_
 _atom_site_type_symbol
 _atom_site_label
 _atom_site_symmetry_multiplicity
 _atom_site_fract_x
 _atom_site_fract_y
 _atom_site_fract_z
 _atom_site_occupancy
  Eu  Eu0  1  0.411262  0.000000  0.500000  1
  Eu  Eu1  1  0.000000  0.411262  0.500000  1
  Eu  Eu2  1  0.588738  0.588738  0.500000  1
  In  In3  1  0.762660  0.000000  0.000000  1
  In  In4  1  0.000000  0.762660  0.000000  1
  In  In5  1  0.237340  0.237340  0.000000  1
  Ag  Ag6  1  0.000000  0.000000  0.500000  1
  Sn  Sn7  1  0.333333  0.666667  0.000000  1
  Sn  Sn8  1  0.666667  0.333333  0.000000  1
