# generated using pymatgen
data_Ta3Be2(B2Mo)2
_symmetry_space_group_name_H-M   'P 1'
_cell_length_a   11.63141482
_cell_length_b   11.63141507
_cell_length_c   3.24572700
_cell_angle_alpha   90.00000000
_cell_angle_beta   90.00000000
_cell_angle_gamma   164.24539966
_symmetry_Int_Tables_number   1
_chemical_formula_structural   Ta3Be2(B2Mo)2
_chemical_formula_sum   'Ta3 Be2 B4 Mo2'
_cell_volume   119.22718050
_cell_formula_units_Z   1
loop_
 _symmetry_equiv_pos_site_id
 _symmetry_equiv_pos_as_xyz
  1  'x, y, z'
loop_
 _atom_site_type_symbol
 _atom_site_label
 _atom_site_symmetry_multiplicity
 _atom_site_fract_x
 _atom_site_fract_y
 _atom_site_fract_z
 _atom_site_occupancy
  Ta  Ta0  1  0.382527  0.617473  0.000000  1
  Ta  Ta1  1  0.617555  0.382445  0.000000  1
  Ta  Ta2  1  0.002045  0.997955  0.000000  1
  Be  Be3  1  0.460008  0.539992  0.500000  1
  Be  Be4  1  0.273053  0.726947  0.000000  1
  B  B5  1  0.542627  0.457373  0.500000  1
  B  B6  1  0.725319  0.274681  0.000000  1
  B  B7  1  0.083600  0.916400  0.500000  1
  B  B8  1  0.914854  0.085146  0.500000  1
  Mo  Mo9  1  0.193812  0.806188  0.500000  1
  Mo  Mo10  1  0.804599  0.195401  0.500000  1
