# generated using pymatgen
data_Dy4Y2Al24Os7Au
_symmetry_space_group_name_H-M   'P 1'
_cell_length_a   8.86536477
_cell_length_b   8.86981665
_cell_length_c   9.56703697
_cell_angle_alpha   89.82072850
_cell_angle_beta   90.16875589
_cell_angle_gamma   119.96308237
_symmetry_Int_Tables_number   1
_chemical_formula_structural   Dy4Y2Al24Os7Au
_chemical_formula_sum   'Dy4 Y2 Al24 Os7 Au1'
_cell_volume   651.74558402
_cell_formula_units_Z   1
loop_
 _symmetry_equiv_pos_site_id
 _symmetry_equiv_pos_as_xyz
  1  'x, y, z'
loop_
 _atom_site_type_symbol
 _atom_site_label
 _atom_site_symmetry_multiplicity
 _atom_site_fract_x
 _atom_site_fract_y
 _atom_site_fract_z
 _atom_site_occupancy
  Dy  Dy0  1  0.613871  0.809755  0.251143  1
  Dy  Dy1  1  0.386129  0.190245  0.748857  1
  Dy  Dy2  1  0.194322  0.805758  0.253704  1
  Dy  Dy3  1  0.805678  0.194242  0.746296  1
  Y  Y4  1  0.190402  0.386087  0.251020  1
  Y  Y5  1  0.809598  0.613913  0.748980  1
  Al  Al6  1  0.328623  0.671557  0.021169  1
  Al  Al7  1  0.671377  0.328443  0.978831  1
  Al  Al8  1  0.666264  0.333689  0.517479  1
  Al  Al9  1  0.333736  0.666311  0.482521  1
  Al  Al10  1  0.162618  0.325660  0.575454  1
  Al  Al11  1  0.837382  0.674340  0.424546  1
  Al  Al12  1  0.674282  0.837362  0.575254  1
  Al  Al13  1  0.848569  0.677684  0.079384  1
  Al  Al14  1  0.325718  0.162638  0.424746  1
  Al  Al15  1  0.151431  0.322316  0.920616  1
  Al  Al16  1  0.163120  0.836883  0.575174  1
  Al  Al17  1  0.322417  0.151450  0.079151  1
  Al  Al18  1  0.836880  0.163117  0.424826  1
  Al  Al19  1  0.677583  0.848550  0.920849  1
  Al  Al20  1  0.836744  0.163186  0.075359  1
  Al  Al21  1  0.163256  0.836814  0.924641  1
  Al  Al22  1  0.560848  0.121270  0.249119  1
  Al  Al23  1  0.439152  0.878730  0.750881  1
  Al  Al24  1  0.878694  0.439219  0.249154  1
  Al  Al25  1  0.121306  0.560781  0.750846  1
  Al  Al26  1  0.563780  0.436436  0.255774  1
  Al  Al27  1  0.436220  0.563564  0.744226  1
  Al  Al28  1  0.999232  0.000218  0.250376  1
  Al  Al29  1  0.000768  0.999782  0.749624  1
  Os  Os30  1  0.500000  0.000000  0.000000  1
  Os  Os31  1  0.000000  0.500000  0.000000  1
  Os  Os32  1  0.500000  0.000000  0.500000  1
  Os  Os33  1  0.000000  0.500000  0.500000  1
  Os  Os34  1  0.500000  0.500000  0.500000  1
  Os  Os35  1  0.000000  0.000000  0.000000  1
  Os  Os36  1  0.000000  0.000000  0.500000  1
  Au  Au37  1  0.500000  0.500000  0.000000  1
