# generated using pymatgen
data_Pr6As5S
_symmetry_space_group_name_H-M   'P 1'
_cell_length_a   4.25609579
_cell_length_b   10.47661548
_cell_length_c   8.50844100
_cell_angle_alpha   90.04557252
_cell_angle_beta   60.00260980
_cell_angle_gamma   89.99085673
_symmetry_Int_Tables_number   1
_chemical_formula_structural   Pr6As5S
_chemical_formula_sum   'Pr6 As5 S1'
_cell_volume   328.56720595
_cell_formula_units_Z   1
loop_
 _symmetry_equiv_pos_site_id
 _symmetry_equiv_pos_as_xyz
  1  'x, y, z'
loop_
 _atom_site_type_symbol
 _atom_site_label
 _atom_site_symmetry_multiplicity
 _atom_site_fract_x
 _atom_site_fract_y
 _atom_site_fract_z
 _atom_site_occupancy
  Pr  Pr0  1  0.936765  0.898445  0.657245  1
  Pr  Pr1  1  0.273858  0.231532  0.320953  1
  Pr  Pr2  1  0.605440  0.564970  0.989054  1
  Pr  Pr3  1  0.272942  0.232331  0.822160  1
  Pr  Pr4  1  0.605374  0.564967  0.489056  1
  Pr  Pr5  1  0.937419  0.897679  0.156092  1
  As  As6  1  0.271989  0.734853  0.321873  1
  As  As7  1  0.938616  0.395045  0.656195  1
  As  As8  1  0.605315  0.065027  0.489111  1
  As  As9  1  0.940255  0.396117  0.154545  1
  As  As10  1  0.270475  0.733738  0.823660  1
  S  S11  1  0.605059  0.065027  0.989148  1
