# generated using pymatgen
data_Tb6YbSI12
_symmetry_space_group_name_H-M   'P 1'
_cell_length_a   9.66945184
_cell_length_b   9.66945223
_cell_length_c   9.66945148
_cell_angle_alpha   107.21833264
_cell_angle_beta   107.21832427
_cell_angle_gamma   107.21831940
_symmetry_Int_Tables_number   1
_chemical_formula_structural   Tb6YbSI12
_chemical_formula_sum   'Tb6 Yb1 S1 I12'
_cell_volume   748.39478169
_cell_formula_units_Z   1
loop_
 _symmetry_equiv_pos_site_id
 _symmetry_equiv_pos_as_xyz
  1  'x, y, z'
loop_
 _atom_site_type_symbol
 _atom_site_label
 _atom_site_symmetry_multiplicity
 _atom_site_fract_x
 _atom_site_fract_y
 _atom_site_fract_z
 _atom_site_occupancy
  Tb  Tb0  1  0.903290  0.703365  0.973637  1
  Tb  Tb1  1  0.973637  0.903290  0.703365  1
  Tb  Tb2  1  0.703365  0.973637  0.903290  1
  Tb  Tb3  1  0.096710  0.296635  0.026363  1
  Tb  Tb4  1  0.026363  0.096710  0.296635  1
  Tb  Tb5  1  0.296635  0.026363  0.096710  1
  Yb  Yb6  1  0.500000  0.500000  0.500000  1
  S  S7  1  0.000000  0.000000  0.000000  1
  I  I8  1  0.621835  0.852089  0.542480  1
  I  I9  1  0.542480  0.621835  0.852089  1
  I  I10  1  0.852089  0.542480  0.621835  1
  I  I11  1  0.378165  0.147911  0.457520  1
  I  I12  1  0.457520  0.378165  0.147911  1
  I  I13  1  0.147911  0.457520  0.378165  1
  I  I14  1  0.683174  0.074058  0.225457  1
  I  I15  1  0.225457  0.683174  0.074058  1
  I  I16  1  0.074058  0.225457  0.683174  1
  I  I17  1  0.316826  0.925942  0.774543  1
  I  I18  1  0.774543  0.316826  0.925942  1
  I  I19  1  0.925942  0.774543  0.316826  1
