# generated using pymatgen
data_K6GaTe4F
_symmetry_space_group_name_H-M   'P 1'
_cell_length_a   11.23191300
_cell_length_b   11.23191326
_cell_length_c   7.89409300
_cell_angle_alpha   90.00000000
_cell_angle_beta   90.00000000
_cell_angle_gamma   120.00000219
_symmetry_Int_Tables_number   1
_chemical_formula_structural   K6GaTe4F
_chemical_formula_sum   'K12 Ga2 Te8 F2'
_cell_volume   862.46272106
_cell_formula_units_Z   2
loop_
 _symmetry_equiv_pos_site_id
 _symmetry_equiv_pos_as_xyz
  1  'x, y, z'
loop_
 _atom_site_type_symbol
 _atom_site_label
 _atom_site_symmetry_multiplicity
 _atom_site_fract_x
 _atom_site_fract_y
 _atom_site_fract_z
 _atom_site_occupancy
  K  K0  1  0.110132  0.889868  0.508791  1
  K  K1  1  0.779735  0.889868  0.508791  1
  K  K2  1  0.960521  0.480261  0.317556  1
  K  K3  1  0.519739  0.480261  0.317556  1
  K  K4  1  0.889868  0.779735  0.008791  1
  K  K5  1  0.220265  0.110132  0.008791  1
  K  K6  1  0.519739  0.039479  0.317556  1
  K  K7  1  0.110132  0.220265  0.508791  1
  K  K8  1  0.889868  0.110132  0.008791  1
  K  K9  1  0.039479  0.519739  0.817556  1
  K  K10  1  0.480261  0.960521  0.817556  1
  K  K11  1  0.480261  0.519739  0.817556  1
  Ga  Ga12  1  0.666667  0.333333  0.711856  1
  Ga  Ga13  1  0.333333  0.666667  0.211856  1
  Te  Te14  1  0.405387  0.202694  0.604291  1
  Te  Te15  1  0.594613  0.797306  0.104291  1
  Te  Te16  1  0.666667  0.333333  0.045577  1
  Te  Te17  1  0.797306  0.594613  0.604291  1
  Te  Te18  1  0.202694  0.405387  0.104291  1
  Te  Te19  1  0.333333  0.666667  0.545577  1
  Te  Te20  1  0.202694  0.797306  0.104291  1
  Te  Te21  1  0.797306  0.202694  0.604291  1
  F  F22  1  0.000000  0.000000  0.291256  1
  F  F23  1  0.000000  0.000000  0.791256  1
