# generated using pymatgen
data_TbDy11AlInCo4
_symmetry_space_group_name_H-M   'P 1'
_cell_length_a   8.33635378
_cell_length_b   8.33650344
_cell_length_c   8.33635284
_cell_angle_alpha   112.26421550
_cell_angle_beta   109.63304058
_cell_angle_gamma   106.56572592
_symmetry_Int_Tables_number   1
_chemical_formula_structural   TbDy11AlInCo4
_chemical_formula_sum   'Tb1 Dy11 Al1 In1 Co4'
_cell_volume   444.88048606
_cell_formula_units_Z   1
loop_
 _symmetry_equiv_pos_site_id
 _symmetry_equiv_pos_as_xyz
  1  'x, y, z'
loop_
 _atom_site_type_symbol
 _atom_site_label
 _atom_site_symmetry_multiplicity
 _atom_site_fract_x
 _atom_site_fract_y
 _atom_site_fract_z
 _atom_site_occupancy
  Tb  Tb0  1  0.676521  0.989924  0.313404  1
  Dy  Dy1  1  0.434093  0.234312  0.200236  1
  Dy  Dy2  1  0.565655  0.765929  0.799411  1
  Dy  Dy3  1  0.034077  0.234312  0.800219  1
  Dy  Dy4  1  0.966517  0.765929  0.200274  1
  Dy  Dy5  1  0.181593  0.283764  0.465035  1
  Dy  Dy6  1  0.818771  0.716151  0.535209  1
  Dy  Dy7  1  0.180942  0.716151  0.897380  1
  Dy  Dy8  1  0.818729  0.283764  0.102171  1
  Dy  Dy9  1  0.323374  0.637001  0.313628  1
  Dy  Dy10  1  0.676512  0.363229  0.686716  1
  Dy  Dy11  1  0.323601  0.009793  0.686191  1
  Al  Al12  1  0.000002  0.999983  0.999981  1
  In  In13  1  0.499816  0.499525  0.999709  1
  Co  Co14  1  0.330798  0.999977  0.331146  1
  Co  Co15  1  0.668832  0.999977  0.669179  1
  Co  Co16  1  0.114372  0.614352  0.499980  1
  Co  Co17  1  0.885795  0.385925  0.500130  1
