# generated using pymatgen
data_Sr3Sc2(PO4)4
_symmetry_space_group_name_H-M   'P 1'
_cell_length_a   9.55703100
_cell_length_b   8.84847743
_cell_length_c   9.06944400
_cell_angle_alpha   64.80617895
_cell_angle_beta   90.00000000
_cell_angle_gamma   90.00000000
_symmetry_Int_Tables_number   1
_chemical_formula_structural   Sr3Sc2(PO4)4
_chemical_formula_sum   'Sr6 Sc4 P8 O32'
_cell_volume   694.00055580
_cell_formula_units_Z   2
loop_
 _symmetry_equiv_pos_site_id
 _symmetry_equiv_pos_as_xyz
  1  'x, y, z'
loop_
 _atom_site_type_symbol
 _atom_site_label
 _atom_site_symmetry_multiplicity
 _atom_site_fract_x
 _atom_site_fract_y
 _atom_site_fract_z
 _atom_site_occupancy
  Sr  Sr0  1  0.000000  0.000000  0.000000  1
  Sr  Sr1  1  0.500000  0.000000  0.500000  1
  Sr  Sr2  1  0.654136  0.255551  0.046051  1
  Sr  Sr3  1  0.154136  0.744449  0.453949  1
  Sr  Sr4  1  0.345864  0.744449  0.953949  1
  Sr  Sr5  1  0.845864  0.255551  0.546051  1
  Sc  Sc6  1  0.127543  0.261715  0.229708  1
  Sc  Sc7  1  0.627543  0.738285  0.270292  1
  Sc  Sc8  1  0.872457  0.738285  0.770292  1
  Sc  Sc9  1  0.372457  0.261715  0.729708  1
  P  P10  1  0.361486  0.030016  0.148352  1
  P  P11  1  0.861486  0.969984  0.351648  1
  P  P12  1  0.638514  0.969984  0.851648  1
  P  P13  1  0.138514  0.030016  0.648352  1
  P  P14  1  0.917486  0.590219  0.194942  1
  P  P15  1  0.417486  0.409781  0.305058  1
  P  P16  1  0.082514  0.409781  0.805058  1
  P  P17  1  0.582514  0.590219  0.694942  1
  O  O18  1  0.404467  0.180428  0.988026  1
  O  O19  1  0.904467  0.819572  0.511974  1
  O  O20  1  0.595533  0.819572  0.011974  1
  O  O21  1  0.095533  0.180428  0.488026  1
  O  O22  1  0.501451  0.950268  0.236772  1
  O  O23  1  0.001451  0.049732  0.263228  1
  O  O24  1  0.498549  0.049732  0.763228  1
  O  O25  1  0.998549  0.950268  0.736772  1
  O  O26  1  0.266344  0.903801  0.121235  1
  O  O27  1  0.766344  0.096199  0.378765  1
  O  O28  1  0.733656  0.096199  0.878765  1
  O  O29  1  0.233656  0.903801  0.621235  1
  O  O30  1  0.288689  0.083158  0.272869  1
  O  O31  1  0.788689  0.916842  0.227131  1
  O  O32  1  0.711311  0.916842  0.727131  1
  O  O33  1  0.211311  0.083158  0.772869  1
  O  O34  1  0.784319  0.559442  0.306065  1
  O  O35  1  0.284319  0.440558  0.193935  1
  O  O36  1  0.215681  0.440558  0.693935  1
  O  O37  1  0.715681  0.559442  0.806065  1
  O  O38  1  0.959799  0.412939  0.215176  1
  O  O39  1  0.459799  0.587061  0.284824  1
  O  O40  1  0.040201  0.587061  0.784824  1
  O  O41  1  0.540201  0.412939  0.715176  1
  O  O42  1  0.882943  0.703104  0.013660  1
  O  O43  1  0.382943  0.296896  0.486340  1
  O  O44  1  0.117057  0.296896  0.986340  1
  O  O45  1  0.617057  0.703104  0.513660  1
  O  O46  1  0.032968  0.677344  0.248036  1
  O  O47  1  0.532968  0.322656  0.251964  1
  O  O48  1  0.967032  0.322656  0.751964  1
  O  O49  1  0.467032  0.677344  0.748036  1
