# generated using pymatgen
data_NdPa7Zn8Ir7Rh
_symmetry_space_group_name_H-M   'P 1'
_cell_length_a   3.85107000
_cell_length_b   7.40392485
_cell_length_c   16.37729069
_cell_angle_alpha   90.45211972
_cell_angle_beta   90.00000000
_cell_angle_gamma   90.00000000
_symmetry_Int_Tables_number   1
_chemical_formula_structural   NdPa7Zn8Ir7Rh
_chemical_formula_sum   'Nd1 Pa7 Zn8 Ir7 Rh1'
_cell_volume   466.95168939
_cell_formula_units_Z   1
loop_
 _symmetry_equiv_pos_site_id
 _symmetry_equiv_pos_as_xyz
  1  'x, y, z'
loop_
 _atom_site_type_symbol
 _atom_site_label
 _atom_site_symmetry_multiplicity
 _atom_site_fract_x
 _atom_site_fract_y
 _atom_site_fract_z
 _atom_site_occupancy
  Nd  Nd0  1  0.250000  0.555955  0.787163  1
  Pa  Pa1  1  0.250000  0.170124  0.939445  1
  Pa  Pa2  1  0.250000  0.676587  0.560444  1
  Pa  Pa3  1  0.750000  0.335875  0.439292  1
  Pa  Pa4  1  0.750000  0.940329  0.285139  1
  Pa  Pa5  1  0.750000  0.831077  0.061466  1
  Pa  Pa6  1  0.750000  0.439560  0.215038  1
  Pa  Pa7  1  0.250000  0.055865  0.714687  1
  Zn  Zn8  1  0.750000  0.014706  0.556563  1
  Zn  Zn9  1  0.250000  0.610977  0.344049  1
  Zn  Zn10  1  0.750000  0.393020  0.656620  1
  Zn  Zn11  1  0.250000  0.492046  0.061775  1
  Zn  Zn12  1  0.750000  0.502249  0.939793  1
  Zn  Zn13  1  0.250000  0.998564  0.438662  1
  Zn  Zn14  1  0.250000  0.110632  0.155586  1
  Zn  Zn15  1  0.750000  0.873525  0.846201  1
  Ir  Ir16  1  0.750000  0.739288  0.438924  1
  Ir  Ir17  1  0.250000  0.239359  0.313056  1
  Ir  Ir18  1  0.750000  0.224667  0.815970  1
  Ir  Ir19  1  0.750000  0.782754  0.676874  1
  Ir  Ir20  1  0.250000  0.272325  0.558575  1
  Ir  Ir21  1  0.250000  0.739613  0.186697  1
  Ir  Ir22  1  0.750000  0.235107  0.059213  1
  Rh  Rh23  1  0.250000  0.765795  0.948768  1
