# generated using pymatgen
data_Ti4SnAsRh10
_symmetry_space_group_name_H-M   'P 1'
_cell_length_a   4.00087300
_cell_length_b   5.50377197
_cell_length_c   10.79050175
_cell_angle_alpha   90.93886782
_cell_angle_beta   90.00000000
_cell_angle_gamma   90.00000000
_symmetry_Int_Tables_number   1
_chemical_formula_structural   Ti4SnAsRh10
_chemical_formula_sum   'Ti4 Sn1 As1 Rh10'
_cell_volume   237.57379099
_cell_formula_units_Z   1
loop_
 _symmetry_equiv_pos_site_id
 _symmetry_equiv_pos_as_xyz
  1  'x, y, z'
loop_
 _atom_site_type_symbol
 _atom_site_label
 _atom_site_symmetry_multiplicity
 _atom_site_fract_x
 _atom_site_fract_y
 _atom_site_fract_z
 _atom_site_occupancy
  Ti  Ti0  1  0.500000  0.325890  0.145416  1
  Ti  Ti1  1  0.500000  0.674110  0.854584  1
  Ti  Ti2  1  0.500000  0.832097  0.358087  1
  Ti  Ti3  1  0.500000  0.167903  0.641913  1
  Sn  Sn4  1  0.000000  0.000000  0.000000  1
  As  As5  1  0.000000  0.500000  0.500000  1
  Rh  Rh6  1  0.000000  0.000000  0.500000  1
  Rh  Rh7  1  0.000000  0.500000  0.000000  1
  Rh  Rh8  1  0.000000  0.069411  0.250002  1
  Rh  Rh9  1  0.000000  0.930589  0.749998  1
  Rh  Rh10  1  0.000000  0.567247  0.260334  1
  Rh  Rh11  1  0.000000  0.432753  0.739666  1
  Rh  Rh12  1  0.500000  0.309770  0.393958  1
  Rh  Rh13  1  0.500000  0.690230  0.606042  1
  Rh  Rh14  1  0.500000  0.789084  0.120718  1
  Rh  Rh15  1  0.500000  0.210916  0.879282  1
