# generated using pymatgen
data_Cs7RbY6BBr20
_symmetry_space_group_name_H-M   'P 1'
_cell_length_a   12.62827783
_cell_length_b   12.59442469
_cell_length_c   12.59442500
_cell_angle_alpha   60.00000182
_cell_angle_beta   60.08864045
_cell_angle_gamma   60.08864453
_symmetry_Int_Tables_number   1
_chemical_formula_structural   Cs7RbY6BBr20
_chemical_formula_sum   'Cs7 Rb1 Y6 B1 Br20'
_cell_volume   1418.29443306
_cell_formula_units_Z   1
loop_
 _symmetry_equiv_pos_site_id
 _symmetry_equiv_pos_as_xyz
  1  'x, y, z'
loop_
 _atom_site_type_symbol
 _atom_site_label
 _atom_site_symmetry_multiplicity
 _atom_site_fract_x
 _atom_site_fract_y
 _atom_site_fract_z
 _atom_site_occupancy
  Cs  Cs0  1  0.359623  0.359999  0.359999  1
  Cs  Cs1  1  0.639958  0.641211  0.641211  1
  Cs  Cs2  1  0.359623  0.359999  0.920379  1
  Cs  Cs3  1  0.359623  0.920379  0.359999  1
  Cs  Cs4  1  0.639958  0.641211  0.077620  1
  Cs  Cs5  1  0.639958  0.077620  0.641211  1
  Cs  Cs6  1  0.921225  0.359592  0.359592  1
  Rb  Rb7  1  0.082660  0.639113  0.639113  1
  Y  Y8  1  0.849726  0.147493  0.147493  1
  Y  Y9  1  0.149851  0.852442  0.852442  1
  Y  Y10  1  0.149851  0.852442  0.145265  1
  Y  Y11  1  0.849726  0.147493  0.855288  1
  Y  Y12  1  0.149851  0.145265  0.852442  1
  Y  Y13  1  0.849726  0.855288  0.147493  1
  B  B14  1  0.000229  0.999924  0.999924  1
  Br  Br15  1  0.322691  0.001065  0.001065  1
  Br  Br16  1  0.677712  0.998668  0.998668  1
  Br  Br17  1  0.999687  0.318772  0.681194  1
  Br  Br18  1  0.999687  0.681194  0.318772  1
  Br  Br19  1  0.999687  0.318772  0.000347  1
  Br  Br20  1  0.677712  0.998668  0.324951  1
  Br  Br21  1  0.999687  0.681194  0.000347  1
  Br  Br22  1  0.322691  0.001065  0.675179  1
  Br  Br23  1  0.999687  0.000347  0.318772  1
  Br  Br24  1  0.999687  0.000347  0.681194  1
  Br  Br25  1  0.677712  0.324951  0.998668  1
  Br  Br26  1  0.322691  0.675179  0.001065  1
  Br  Br27  1  0.688223  0.311336  0.311336  1
  Br  Br28  1  0.306286  0.688452  0.688452  1
  Br  Br29  1  0.306286  0.688452  0.316810  1
  Br  Br30  1  0.688223  0.311336  0.689105  1
  Br  Br31  1  0.306286  0.316810  0.688452  1
  Br  Br32  1  0.688223  0.689105  0.311336  1
  Br  Br33  1  0.249687  0.250104  0.250104  1
  Br  Br34  1  0.765868  0.744711  0.744711  1
