# generated using pymatgen
data_Nd3VCo7P6Rh
_symmetry_space_group_name_H-M   'P 1'
_cell_length_a   3.75199900
_cell_length_b   10.76346600
_cell_length_c   12.47885400
_cell_angle_alpha   90.00000000
_cell_angle_beta   90.00000000
_cell_angle_gamma   90.00000000
_symmetry_Int_Tables_number   1
_chemical_formula_structural   Nd3VCo7P6Rh
_chemical_formula_sum   'Nd6 V2 Co14 P12 Rh2'
_cell_volume   503.95244993
_cell_formula_units_Z   2
loop_
 _symmetry_equiv_pos_site_id
 _symmetry_equiv_pos_as_xyz
  1  'x, y, z'
loop_
 _atom_site_type_symbol
 _atom_site_label
 _atom_site_symmetry_multiplicity
 _atom_site_fract_x
 _atom_site_fract_y
 _atom_site_fract_z
 _atom_site_occupancy
  Nd  Nd0  1  0.000000  0.500000  0.519317  1
  Nd  Nd1  1  0.500000  0.000000  0.480683  1
  Nd  Nd2  1  0.500000  0.816714  0.203164  1
  Nd  Nd3  1  0.500000  0.183286  0.203164  1
  Nd  Nd4  1  0.000000  0.683286  0.796836  1
  Nd  Nd5  1  0.000000  0.316714  0.796836  1
  V  V6  1  0.500000  0.500000  0.152139  1
  V  V7  1  0.000000  0.000000  0.847861  1
  Co  Co8  1  0.000000  0.500000  0.989941  1
  Co  Co9  1  0.500000  0.000000  0.010059  1
  Co  Co10  1  0.500000  0.331943  0.994779  1
  Co  Co11  1  0.500000  0.668057  0.994779  1
  Co  Co12  1  0.000000  0.168057  0.005221  1
  Co  Co13  1  0.000000  0.831943  0.005221  1
  Co  Co14  1  0.500000  0.297422  0.430709  1
  Co  Co15  1  0.500000  0.702578  0.430709  1
  Co  Co16  1  0.000000  0.202578  0.569291  1
  Co  Co17  1  0.000000  0.797422  0.569291  1
  Co  Co18  1  0.500000  0.882012  0.710337  1
  Co  Co19  1  0.500000  0.117988  0.710337  1
  Co  Co20  1  0.000000  0.617988  0.289663  1
  Co  Co21  1  0.000000  0.382012  0.289663  1
  P  P22  1  0.500000  0.500000  0.893167  1
  P  P23  1  0.000000  0.000000  0.106833  1
  P  P24  1  0.500000  0.500000  0.340079  1
  P  P25  1  0.000000  0.000000  0.659921  1
  P  P26  1  0.500000  0.299536  0.612647  1
  P  P27  1  0.500000  0.700464  0.612647  1
  P  P28  1  0.000000  0.200464  0.387353  1
  P  P29  1  0.000000  0.799536  0.387353  1
  P  P30  1  0.500000  0.847899  0.894262  1
  P  P31  1  0.500000  0.152101  0.894262  1
  P  P32  1  0.000000  0.652101  0.105738  1
  P  P33  1  0.000000  0.347899  0.105738  1
  Rh  Rh34  1  0.500000  0.500000  0.702267  1
  Rh  Rh35  1  0.000000  0.000000  0.297733  1
