# generated using pymatgen
data_Nd3Y5Cd2OsPd
_symmetry_space_group_name_H-M   'P 1'
_cell_length_a   9.80261627
_cell_length_b   9.80261664
_cell_length_c   9.86193800
_cell_angle_alpha   59.79961249
_cell_angle_beta   59.79961121
_cell_angle_gamma   59.76959098
_symmetry_Int_Tables_number   1
_chemical_formula_structural   Nd3Y5Cd2OsPd
_chemical_formula_sum   'Nd6 Y10 Cd4 Os2 Pd2'
_cell_volume   666.88638616
_cell_formula_units_Z   2
loop_
 _symmetry_equiv_pos_site_id
 _symmetry_equiv_pos_as_xyz
  1  'x, y, z'
loop_
 _atom_site_type_symbol
 _atom_site_label
 _atom_site_symmetry_multiplicity
 _atom_site_fract_x
 _atom_site_fract_y
 _atom_site_fract_z
 _atom_site_occupancy
  Nd  Nd0  1  0.938927  0.554617  0.565003  1
  Nd  Nd1  1  0.554617  0.938927  0.941452  1
  Nd  Nd2  1  0.554617  0.938927  0.565003  1
  Nd  Nd3  1  0.938927  0.554617  0.941452  1
  Nd  Nd4  1  0.562389  0.562389  0.937611  1
  Nd  Nd5  1  0.941157  0.941157  0.558843  1
  Y  Y6  1  0.349240  0.349240  0.354715  1
  Y  Y7  1  0.349240  0.349240  0.946806  1
  Y  Y8  1  0.344130  0.957000  0.349435  1
  Y  Y9  1  0.957000  0.344130  0.349435  1
  Y  Y10  1  0.818010  0.185362  0.189603  1
  Y  Y11  1  0.185362  0.818010  0.807026  1
  Y  Y12  1  0.185362  0.818010  0.189603  1
  Y  Y13  1  0.818010  0.185362  0.807026  1
  Y  Y14  1  0.186202  0.186202  0.813798  1
  Y  Y15  1  0.810309  0.810309  0.189691  1
  Cd  Cd16  1  0.579155  0.579155  0.579670  1
  Cd  Cd17  1  0.579155  0.579155  0.262022  1
  Cd  Cd18  1  0.579873  0.259406  0.580361  1
  Cd  Cd19  1  0.259406  0.579873  0.580361  1
  Os  Os20  1  0.144672  0.144672  0.137088  1
  Os  Os21  1  0.144672  0.144672  0.573568  1
  Pd  Pd22  1  0.146146  0.573424  0.140214  1
  Pd  Pd23  1  0.573424  0.146146  0.140214  1
