# generated using pymatgen
data_Na5Si2P10Ir19
_symmetry_space_group_name_H-M   'P 1'
_cell_length_a   12.63802105
_cell_length_b   12.66799778
_cell_length_c   3.95288200
_cell_angle_alpha   90.00000000
_cell_angle_beta   90.00000000
_cell_angle_gamma   120.07850045
_symmetry_Int_Tables_number   1
_chemical_formula_structural   Na5Si2P10Ir19
_chemical_formula_sum   'Na5 Si2 P10 Ir19'
_cell_volume   547.63028099
_cell_formula_units_Z   1
loop_
 _symmetry_equiv_pos_site_id
 _symmetry_equiv_pos_as_xyz
  1  'x, y, z'
loop_
 _atom_site_type_symbol
 _atom_site_label
 _atom_site_symmetry_multiplicity
 _atom_site_fract_x
 _atom_site_fract_y
 _atom_site_fract_z
 _atom_site_occupancy
  Na  Na0  1  0.664100  0.331306  0.000000  1
  Na  Na1  1  0.335900  0.667207  0.000000  1
  Na  Na2  1  0.822283  0.819816  0.500000  1
  Na  Na3  1  0.177717  0.997533  0.500000  1
  Na  Na4  1  0.000000  0.178787  0.500000  1
  Si  Si5  1  0.638523  0.639648  0.000000  1
  Si  Si6  1  0.361477  0.001125  0.000000  1
  P  P7  1  0.686419  0.172837  0.500000  1
  P  P8  1  0.821059  0.511696  0.500000  1
  P  P9  1  0.481888  0.311159  0.500000  1
  P  P10  1  0.178941  0.690637  0.500000  1
  P  P11  1  0.518112  0.829271  0.500000  1
  P  P12  1  0.313581  0.486419  0.500000  1
  P  P13  1  0.000000  0.359281  0.000000  1
  P  P14  1  0.175788  0.178396  0.000000  1
  P  P15  1  0.824212  0.002607  0.000000  1
  P  P16  1  0.000000  0.815250  0.000000  1
  Ir  Ir17  1  0.807161  0.183905  0.000000  1
  Ir  Ir18  1  0.818793  0.616819  0.000000  1
  Ir  Ir19  1  0.376350  0.200199  0.000000  1
  Ir  Ir20  1  0.181207  0.798026  0.000000  1
  Ir  Ir21  1  0.623650  0.823848  0.000000  1
  Ir  Ir22  1  0.192839  0.376746  0.000000  1
  Ir  Ir23  1  0.448117  0.456881  0.000000  1
  Ir  Ir24  1  0.551883  0.008765  0.000000  1
  Ir  Ir25  1  0.000000  0.538884  0.000000  1
  Ir  Ir26  1  0.286361  0.290184  0.500000  1
  Ir  Ir27  1  0.713639  0.003824  0.500000  1
  Ir  Ir28  1  0.000000  0.703820  0.500000  1
  Ir  Ir29  1  0.868710  0.359819  0.500000  1
  Ir  Ir30  1  0.635459  0.510437  0.500000  1
  Ir  Ir31  1  0.487192  0.130221  0.500000  1
  Ir  Ir32  1  0.364541  0.874976  0.500000  1
  Ir  Ir33  1  0.512808  0.643027  0.500000  1
  Ir  Ir34  1  0.131290  0.491109  0.500000  1
  Ir  Ir35  1  0.000000  0.995535  0.000000  1
