# generated using pymatgen
data_Tb8Ti3Re8Si16W
_symmetry_space_group_name_H-M   'P 1'
_cell_length_a   6.78989318
_cell_length_b   6.78989399
_cell_length_c   13.04816950
_cell_angle_alpha   89.95102157
_cell_angle_beta   90.04897909
_cell_angle_gamma   89.69836777
_symmetry_Int_Tables_number   1
_chemical_formula_structural   Tb8Ti3Re8Si16W
_chemical_formula_sum   'Tb8 Ti3 Re8 Si16 W1'
_cell_volume   601.54647705
_cell_formula_units_Z   1
loop_
 _symmetry_equiv_pos_site_id
 _symmetry_equiv_pos_as_xyz
  1  'x, y, z'
loop_
 _atom_site_type_symbol
 _atom_site_label
 _atom_site_symmetry_multiplicity
 _atom_site_fract_x
 _atom_site_fract_y
 _atom_site_fract_z
 _atom_site_occupancy
  Tb  Tb0  1  0.335099  0.994189  0.469293  1
  Tb  Tb1  1  0.510784  0.828209  0.717739  1
  Tb  Tb2  1  0.487259  0.173041  0.217330  1
  Tb  Tb3  1  0.828209  0.510784  0.282261  1
  Tb  Tb4  1  0.173041  0.487259  0.782670  1
  Tb  Tb5  1  0.663718  0.006767  0.969892  1
  Tb  Tb6  1  0.994189  0.335099  0.530707  1
  Tb  Tb7  1  0.006767  0.663718  0.030108  1
  Ti  Ti8  1  0.153905  0.847652  0.248190  1
  Ti  Ti9  1  0.847652  0.153905  0.751810  1
  Ti  Ti10  1  0.656988  0.656988  0.500000  1
  Re  Re11  1  0.183277  0.992577  0.863135  1
  Re  Re12  1  0.492388  0.694734  0.120688  1
  Re  Re13  1  0.506987  0.313113  0.619569  1
  Re  Re14  1  0.694734  0.492388  0.879312  1
  Re  Re15  1  0.313113  0.506987  0.380431  1
  Re  Re16  1  0.814412  0.005193  0.364441  1
  Re  Re17  1  0.992577  0.183277  0.136865  1
  Re  Re18  1  0.005193  0.814412  0.635559  1
  Si  Si19  1  0.209563  0.115446  0.679571  1
  Si  Si20  1  0.389168  0.695629  0.931979  1
  Si  Si21  1  0.614771  0.299163  0.432276  1
  Si  Si22  1  0.695629  0.389168  0.068021  1
  Si  Si23  1  0.299163  0.614771  0.567724  1
  Si  Si24  1  0.790115  0.885382  0.181048  1
  Si  Si25  1  0.115446  0.209563  0.320429  1
  Si  Si26  1  0.885382  0.790115  0.818952  1
  Si  Si27  1  0.268937  0.986113  0.054649  1
  Si  Si28  1  0.515523  0.787430  0.308064  1
  Si  Si29  1  0.482896  0.213639  0.809281  1
  Si  Si30  1  0.787430  0.515523  0.691936  1
  Si  Si31  1  0.213639  0.482896  0.190719  1
  Si  Si32  1  0.727965  0.016291  0.555911  1
  Si  Si33  1  0.986113  0.268937  0.945351  1
  Si  Si34  1  0.016291  0.727965  0.444089  1
  W  W35  1  0.341680  0.341680  0.000000  1
