# generated using pymatgen
data_Li3Nd4Dy(P3Ir4)4
_symmetry_space_group_name_H-M   'P 1'
_cell_length_a   12.79928500
_cell_length_b   12.79928478
_cell_length_c   4.00505000
_cell_angle_alpha   90.00000000
_cell_angle_beta   90.00000000
_cell_angle_gamma   119.99999797
_symmetry_Int_Tables_number   1
_chemical_formula_structural   Li3Nd4Dy(P3Ir4)4
_chemical_formula_sum   'Li3 Nd4 Dy1 P12 Ir16'
_cell_volume   568.21146796
_cell_formula_units_Z   1
loop_
 _symmetry_equiv_pos_site_id
 _symmetry_equiv_pos_as_xyz
  1  'x, y, z'
loop_
 _atom_site_type_symbol
 _atom_site_label
 _atom_site_symmetry_multiplicity
 _atom_site_fract_x
 _atom_site_fract_y
 _atom_site_fract_z
 _atom_site_occupancy
  Li  Li0  1  0.999689  0.440797  0.500000  1
  Li  Li1  1  0.559203  0.558892  0.500000  1
  Li  Li2  1  0.441108  0.000311  0.500000  1
  Nd  Nd3  1  0.333333  0.666667  0.500000  1
  Nd  Nd4  1  0.000119  0.808439  0.000000  1
  Nd  Nd5  1  0.191561  0.191680  0.000000  1
  Nd  Nd6  1  0.808320  0.999881  0.000000  1
  Dy  Dy7  1  0.666667  0.333333  0.500000  1
  P  P8  1  0.000532  0.627282  0.500000  1
  P  P9  1  0.372718  0.373250  0.500000  1
  P  P10  1  0.626750  0.999468  0.500000  1
  P  P11  1  0.517616  0.687825  0.000000  1
  P  P12  1  0.312175  0.829791  0.000000  1
  P  P13  1  0.170209  0.482384  0.000000  1
  P  P14  1  0.484292  0.172410  0.000000  1
  P  P15  1  0.688117  0.515708  0.000000  1
  P  P16  1  0.827590  0.311883  0.000000  1
  P  P17  1  0.999273  0.181759  0.500000  1
  P  P18  1  0.818241  0.817514  0.500000  1
  P  P19  1  0.182486  0.000727  0.500000  1
  Ir  Ir20  1  0.511379  0.870778  0.000000  1
  Ir  Ir21  1  0.129222  0.640602  0.000000  1
  Ir  Ir22  1  0.359398  0.488621  0.000000  1
  Ir  Ir23  1  0.492212  0.359380  0.000000  1
  Ir  Ir24  1  0.867168  0.507788  0.000000  1
  Ir  Ir25  1  0.640620  0.132832  0.000000  1
  Ir  Ir26  1  0.999140  0.282155  0.000000  1
  Ir  Ir27  1  0.717845  0.716985  0.000000  1
  Ir  Ir28  1  0.283015  0.000860  0.000000  1
  Ir  Ir29  1  0.624690  0.803826  0.500000  1
  Ir  Ir30  1  0.196174  0.820864  0.500000  1
  Ir  Ir31  1  0.179136  0.375310  0.500000  1
  Ir  Ir32  1  0.376576  0.181032  0.500000  1
  Ir  Ir33  1  0.804456  0.623424  0.500000  1
  Ir  Ir34  1  0.818968  0.195544  0.500000  1
  Ir  Ir35  1  0.000000  0.000000  0.500000  1
