# generated using pymatgen
data_TbPa2Ga8Tc3
_symmetry_space_group_name_H-M   'P 1'
_cell_length_a   8.14852906
_cell_length_b   8.14852970
_cell_length_c   8.14852932
_cell_angle_alpha   149.23656651
_cell_angle_beta   105.34922206
_cell_angle_gamma   82.87766954
_symmetry_Int_Tables_number   1
_chemical_formula_structural   TbPa2Ga8Tc3
_chemical_formula_sum   'Tb1 Pa2 Ga8 Tc3'
_cell_volume   260.93555503
_cell_formula_units_Z   1
loop_
 _symmetry_equiv_pos_site_id
 _symmetry_equiv_pos_as_xyz
  1  'x, y, z'
loop_
 _atom_site_type_symbol
 _atom_site_label
 _atom_site_symmetry_multiplicity
 _atom_site_fract_x
 _atom_site_fract_y
 _atom_site_fract_z
 _atom_site_occupancy
  Tb  Tb0  1  0.500000  0.500000  0.000000  1
  Pa  Pa1  1  0.158624  0.158624  0.000000  1
  Pa  Pa2  1  0.841376  0.841376  0.000000  1
  Ga  Ga3  1  0.097119  0.375759  0.721360  1
  Ga  Ga4  1  0.902881  0.624241  0.278640  1
  Ga  Ga5  1  0.654400  0.375759  0.278640  1
  Ga  Ga6  1  0.345600  0.624241  0.721360  1
  Ga  Ga7  1  0.796353  0.167447  0.628906  1
  Ga  Ga8  1  0.203647  0.832553  0.371094  1
  Ga  Ga9  1  0.538541  0.167447  0.371094  1
  Ga  Ga10  1  0.461459  0.832553  0.628906  1
  Tc  Tc11  1  0.000000  0.500000  0.500000  1
  Tc  Tc12  1  0.789307  0.000000  0.789307  1
  Tc  Tc13  1  0.210693  0.000000  0.210693  1
