# generated using pymatgen
data_Dy4MoOs7
_symmetry_space_group_name_H-M   'P 1'
_cell_length_a   5.29362310
_cell_length_b   5.29362420
_cell_length_c   8.89146100
_cell_angle_alpha   90.00000000
_cell_angle_beta   90.00000000
_cell_angle_gamma   118.01387658
_symmetry_Int_Tables_number   1
_chemical_formula_structural   Dy4MoOs7
_chemical_formula_sum   'Dy4 Mo1 Os7'
_cell_volume   219.96735664
_cell_formula_units_Z   1
loop_
 _symmetry_equiv_pos_site_id
 _symmetry_equiv_pos_as_xyz
  1  'x, y, z'
loop_
 _atom_site_type_symbol
 _atom_site_label
 _atom_site_symmetry_multiplicity
 _atom_site_fract_x
 _atom_site_fract_y
 _atom_site_fract_z
 _atom_site_occupancy
  Dy  Dy0  1  0.330270  0.669730  0.437612  1
  Dy  Dy1  1  0.666772  0.333228  0.565678  1
  Dy  Dy2  1  0.666772  0.333228  0.934322  1
  Dy  Dy3  1  0.330270  0.669730  0.062388  1
  Mo  Mo4  1  0.832533  0.167467  0.250000  1
  Os  Os5  1  0.993457  0.006543  0.501743  1
  Os  Os6  1  0.993457  0.006543  0.998257  1
  Os  Os7  1  0.827447  0.653152  0.250000  1
  Os  Os8  1  0.346848  0.172553  0.250000  1
  Os  Os9  1  0.177495  0.822505  0.750000  1
  Os  Os10  1  0.173002  0.338323  0.750000  1
  Os  Os11  1  0.661677  0.826998  0.750000  1
