# generated using pymatgen
data_Tb6Er7Tm3(Tl3Co)2
_symmetry_space_group_name_H-M   'P 1'
_cell_length_a   10.27262210
_cell_length_b   10.27267073
_cell_length_c   7.11605201
_cell_angle_alpha   90.00107236
_cell_angle_beta   89.99603101
_cell_angle_gamma   120.00121360
_symmetry_Int_Tables_number   1
_chemical_formula_structural   Tb6Er7Tm3(Tl3Co)2
_chemical_formula_sum   'Tb6 Er7 Tm3 Tl6 Co2'
_cell_volume   650.32299882
_cell_formula_units_Z   1
loop_
 _symmetry_equiv_pos_site_id
 _symmetry_equiv_pos_as_xyz
  1  'x, y, z'
loop_
 _atom_site_type_symbol
 _atom_site_label
 _atom_site_symmetry_multiplicity
 _atom_site_fract_x
 _atom_site_fract_y
 _atom_site_fract_z
 _atom_site_occupancy
  Tb  Tb0  1  0.537045  0.074093  0.791529  1
  Tb  Tb1  1  0.925906  0.462956  0.791536  1
  Tb  Tb2  1  0.537038  0.462951  0.791526  1
  Tb  Tb3  1  0.463187  0.926380  0.292620  1
  Tb  Tb4  1  0.073610  0.536805  0.292621  1
  Tb  Tb5  1  0.463181  0.536818  0.292631  1
  Er  Er6  1  0.178259  0.356540  0.994520  1
  Er  Er7  1  0.643449  0.821739  0.994521  1
  Er  Er8  1  0.178262  0.821718  0.994516  1
  Er  Er9  1  0.666666  0.333336  0.186484  1
  Er  Er10  1  0.333323  0.666671  0.686145  1
  Er  Er11  1  0.000057  0.000009  0.777415  1
  Er  Er12  1  0.000014  0.000003  0.278353  1
  Tm  Tm13  1  0.821597  0.643214  0.493558  1
  Tm  Tm14  1  0.356792  0.178395  0.493545  1
  Tm  Tm15  1  0.821604  0.178384  0.493570  1
  Tl  Tl16  1  0.837041  0.674093  0.044983  1
  Tl  Tl17  1  0.325922  0.162974  0.044989  1
  Tl  Tl18  1  0.837060  0.162959  0.045027  1
  Tl  Tl19  1  0.162537  0.325018  0.544034  1
  Tl  Tl20  1  0.674955  0.837479  0.544069  1
  Tl  Tl21  1  0.162511  0.837463  0.544024  1
  Co  Co22  1  0.666660  0.333334  0.561467  1
  Co  Co23  1  0.333322  0.666672  0.062224  1
