# generated using pymatgen
data_Sc6Al19Fe8Si5
_symmetry_space_group_name_H-M   'P 1'
_cell_length_a   8.36715101
_cell_length_b   8.36715190
_cell_length_c   9.21269100
_cell_angle_alpha   90.00000000
_cell_angle_beta   90.00000000
_cell_angle_gamma   120.00512336
_symmetry_Int_Tables_number   1
_chemical_formula_structural   Sc6Al19Fe8Si5
_chemical_formula_sum   'Sc6 Al19 Fe8 Si5'
_cell_volume   558.53446068
_cell_formula_units_Z   1
loop_
 _symmetry_equiv_pos_site_id
 _symmetry_equiv_pos_as_xyz
  1  'x, y, z'
loop_
 _atom_site_type_symbol
 _atom_site_label
 _atom_site_symmetry_multiplicity
 _atom_site_fract_x
 _atom_site_fract_y
 _atom_site_fract_z
 _atom_site_occupancy
  Sc  Sc0  1  0.803309  0.196691  0.750000  1
  Sc  Sc1  1  0.196607  0.803393  0.250000  1
  Sc  Sc2  1  0.396959  0.202074  0.750000  1
  Sc  Sc3  1  0.606232  0.804040  0.250000  1
  Sc  Sc4  1  0.797926  0.603041  0.750000  1
  Sc  Sc5  1  0.195960  0.393768  0.250000  1
  Al  Al6  1  0.836877  0.163123  0.425200  1
  Al  Al7  1  0.163594  0.836406  0.574779  1
  Al  Al8  1  0.326889  0.163510  0.426196  1
  Al  Al9  1  0.163594  0.836406  0.925221  1
  Al  Al10  1  0.672642  0.836872  0.575555  1
  Al  Al11  1  0.836877  0.163123  0.074800  1
  Al  Al12  1  0.836490  0.673111  0.426196  1
  Al  Al13  1  0.672642  0.836872  0.924445  1
  Al  Al14  1  0.163128  0.327358  0.575555  1
  Al  Al15  1  0.326889  0.163510  0.073804  1
  Al  Al16  1  0.163128  0.327358  0.924445  1
  Al  Al17  1  0.836490  0.673111  0.073804  1
  Al  Al18  1  0.558018  0.441982  0.250000  1
  Al  Al19  1  0.117711  0.557058  0.750000  1
  Al  Al20  1  0.882095  0.441689  0.250000  1
  Al  Al21  1  0.442942  0.882289  0.750000  1
  Al  Al22  1  0.558311  0.117905  0.250000  1
  Al  Al23  1  0.000203  0.999797  0.750000  1
  Al  Al24  1  0.999857  0.000143  0.250000  1
  Fe  Fe25  1  0.499809  0.500191  0.992327  1
  Fe  Fe26  1  0.001632  0.500364  0.999799  1
  Fe  Fe27  1  0.499809  0.500191  0.507673  1
  Fe  Fe28  1  0.499636  0.998368  0.999799  1
  Fe  Fe29  1  0.001632  0.500364  0.500201  1
  Fe  Fe30  1  0.499636  0.998368  0.500201  1
  Fe  Fe31  1  0.000148  0.999852  0.999967  1
  Fe  Fe32  1  0.000148  0.999852  0.500033  1
  Si  Si33  1  0.667928  0.332072  0.964368  1
  Si  Si34  1  0.332499  0.667501  0.038233  1
  Si  Si35  1  0.332499  0.667501  0.461767  1
  Si  Si36  1  0.667928  0.332072  0.535632  1
  Si  Si37  1  0.441325  0.558675  0.750000  1
