# generated using pymatgen
data_Hf18FeCu(Re3Mo)2
_symmetry_space_group_name_H-M   'P 1'
_cell_length_a   8.45739200
_cell_length_b   8.63133323
_cell_length_c   8.63133300
_cell_angle_alpha   119.99962622
_cell_angle_beta   90.00000000
_cell_angle_gamma   90.00000000
_symmetry_Int_Tables_number   1
_chemical_formula_structural   Hf18FeCu(Re3Mo)2
_chemical_formula_sum   'Hf18 Fe1 Cu1 Re6 Mo2'
_cell_volume   545.66297201
_cell_formula_units_Z   1
loop_
 _symmetry_equiv_pos_site_id
 _symmetry_equiv_pos_as_xyz
  1  'x, y, z'
loop_
 _atom_site_type_symbol
 _atom_site_label
 _atom_site_symmetry_multiplicity
 _atom_site_fract_x
 _atom_site_fract_y
 _atom_site_fract_z
 _atom_site_occupancy
  Hf  Hf0  1  0.554515  0.804014  0.608035  1
  Hf  Hf1  1  0.554524  0.804008  0.195992  1
  Hf  Hf2  1  0.554515  0.391965  0.195986  1
  Hf  Hf3  1  0.441565  0.201566  0.403117  1
  Hf  Hf4  1  0.441546  0.201568  0.798432  1
  Hf  Hf5  1  0.441565  0.596883  0.798434  1
  Hf  Hf6  1  0.058435  0.201566  0.403117  1
  Hf  Hf7  1  0.058454  0.201568  0.798432  1
  Hf  Hf8  1  0.058435  0.596883  0.798434  1
  Hf  Hf9  1  0.945485  0.804014  0.608035  1
  Hf  Hf10  1  0.945476  0.804008  0.195992  1
  Hf  Hf11  1  0.945485  0.391965  0.195986  1
  Hf  Hf12  1  0.750000  0.458763  0.917563  1
  Hf  Hf13  1  0.750000  0.458781  0.541219  1
  Hf  Hf14  1  0.750000  0.082437  0.541236  1
  Hf  Hf15  1  0.250000  0.540505  0.081000  1
  Hf  Hf16  1  0.250000  0.540501  0.459499  1
  Hf  Hf17  1  0.250000  0.919000  0.459494  1
  Fe  Fe18  1  0.250000  0.333361  0.666639  1
  Cu  Cu19  1  0.750000  0.666660  0.333340  1
  Re  Re20  1  0.750000  0.111516  0.223042  1
  Re  Re21  1  0.750000  0.111511  0.888489  1
  Re  Re22  1  0.750000  0.776958  0.888484  1
  Re  Re23  1  0.250000  0.888976  0.777937  1
  Re  Re24  1  0.250000  0.888967  0.111033  1
  Re  Re25  1  0.250000  0.222063  0.111024  1
  Mo  Mo26  1  0.499684  0.999996  0.000004  1
  Mo  Mo27  1  0.000316  0.999996  0.000004  1
