# generated using pymatgen
data_Ho7Lu(InNi)2
_symmetry_space_group_name_H-M   'P 1'
_cell_length_a   9.57177940
_cell_length_b   9.58128289
_cell_length_c   9.55659600
_cell_angle_alpha   59.91450901
_cell_angle_beta   59.79386319
_cell_angle_gamma   59.96714408
_symmetry_Int_Tables_number   1
_chemical_formula_structural   Ho7Lu(InNi)2
_chemical_formula_sum   'Ho14 Lu2 In4 Ni4'
_cell_volume   618.20915611
_cell_formula_units_Z   2
loop_
 _symmetry_equiv_pos_site_id
 _symmetry_equiv_pos_as_xyz
  1  'x, y, z'
loop_
 _atom_site_type_symbol
 _atom_site_label
 _atom_site_symmetry_multiplicity
 _atom_site_fract_x
 _atom_site_fract_y
 _atom_site_fract_z
 _atom_site_occupancy
  Ho  Ho0  1  0.314593  0.686562  0.312283  1
  Ho  Ho1  1  0.935175  0.938627  0.562467  1
  Ho  Ho2  1  0.151964  0.152291  0.543452  1
  Ho  Ho3  1  0.562039  0.938897  0.560168  1
  Ho  Ho4  1  0.151839  0.152039  0.153814  1
  Ho  Ho5  1  0.312645  0.312003  0.686679  1
  Ho  Ho6  1  0.935175  0.563730  0.562467  1
  Ho  Ho7  1  0.562278  0.561562  0.938700  1
  Ho  Ho8  1  0.562278  0.937460  0.938700  1
  Ho  Ho9  1  0.934611  0.563108  0.939174  1
  Ho  Ho10  1  0.151839  0.542310  0.153814  1
  Ho  Ho11  1  0.312645  0.688675  0.686679  1
  Ho  Ho12  1  0.687668  0.312738  0.686856  1
  Ho  Ho13  1  0.546144  0.150478  0.152897  1
  Lu  Lu14  1  0.687965  0.313157  0.310994  1
  Lu  Lu15  1  0.687965  0.687886  0.310994  1
  In  In16  1  0.918236  0.917442  0.246880  1
  In  In17  1  0.246990  0.917289  0.918433  1
  In  In18  1  0.917533  0.247962  0.917971  1
  In  In19  1  0.917533  0.916534  0.917971  1
  Ni  Ni20  1  0.360713  0.355705  0.356909  1
  Ni  Ni21  1  0.923191  0.359742  0.357326  1
  Ni  Ni22  1  0.358270  0.357130  0.927472  1
  Ni  Ni23  1  0.360713  0.926674  0.356909  1
