# generated using pymatgen
data_Ho3Be(SiIr3)2
_symmetry_space_group_name_H-M   'P 1'
_cell_length_a   5.53448700
_cell_length_b   5.53448696
_cell_length_c   14.94475700
_cell_angle_alpha   90.00000000
_cell_angle_beta   90.00000000
_cell_angle_gamma   120.00000624
_symmetry_Int_Tables_number   1
_chemical_formula_structural   Ho3Be(SiIr3)2
_chemical_formula_sum   'Ho6 Be2 Si4 Ir12'
_cell_volume   396.43701933
_cell_formula_units_Z   2
loop_
 _symmetry_equiv_pos_site_id
 _symmetry_equiv_pos_as_xyz
  1  'x, y, z'
loop_
 _atom_site_type_symbol
 _atom_site_label
 _atom_site_symmetry_multiplicity
 _atom_site_fract_x
 _atom_site_fract_y
 _atom_site_fract_z
 _atom_site_occupancy
  Ho  Ho0  1  0.333333  0.666667  0.538446  1
  Ho  Ho1  1  0.666667  0.333333  0.461554  1
  Ho  Ho2  1  0.666667  0.333333  0.038446  1
  Ho  Ho3  1  0.333333  0.666667  0.961554  1
  Ho  Ho4  1  0.333333  0.666667  0.750000  1
  Ho  Ho5  1  0.666667  0.333333  0.250000  1
  Be  Be6  1  0.000000  0.000000  0.250000  1
  Be  Be7  1  0.000000  0.000000  0.750000  1
  Si  Si8  1  0.333333  0.666667  0.250000  1
  Si  Si9  1  0.666667  0.333333  0.750000  1
  Si  Si10  1  0.000000  0.000000  0.000000  1
  Si  Si11  1  0.000000  0.000000  0.500000  1
  Ir  Ir12  1  0.164986  0.329972  0.131538  1
  Ir  Ir13  1  0.835014  0.670028  0.868462  1
  Ir  Ir14  1  0.670028  0.835014  0.131538  1
  Ir  Ir15  1  0.835014  0.670028  0.631538  1
  Ir  Ir16  1  0.329972  0.164986  0.868462  1
  Ir  Ir17  1  0.164986  0.329972  0.368462  1
  Ir  Ir18  1  0.164986  0.835014  0.131538  1
  Ir  Ir19  1  0.329972  0.164986  0.631538  1
  Ir  Ir20  1  0.835014  0.164986  0.868462  1
  Ir  Ir21  1  0.670028  0.835014  0.368462  1
  Ir  Ir22  1  0.835014  0.164986  0.631538  1
  Ir  Ir23  1  0.164986  0.835014  0.368462  1
