# generated using pymatgen
data_Zr18Be4Si3P5
_symmetry_space_group_name_H-M   'P 1'
_cell_length_a   12.08447608
_cell_length_b   12.07906808
_cell_length_c   3.68695800
_cell_angle_alpha   90.00000000
_cell_angle_beta   90.00000000
_cell_angle_gamma   90.08177205
_symmetry_Int_Tables_number   1
_chemical_formula_structural   Zr18Be4Si3P5
_chemical_formula_sum   'Zr18 Be4 Si3 P5'
_cell_volume   538.18179546
_cell_formula_units_Z   1
loop_
 _symmetry_equiv_pos_site_id
 _symmetry_equiv_pos_as_xyz
  1  'x, y, z'
loop_
 _atom_site_type_symbol
 _atom_site_label
 _atom_site_symmetry_multiplicity
 _atom_site_fract_x
 _atom_site_fract_y
 _atom_site_fract_z
 _atom_site_occupancy
  Zr  Zr0  1  0.997718  0.999557  0.000000  1
  Zr  Zr1  1  0.500398  0.500625  0.000000  1
  Zr  Zr2  1  0.107957  0.185171  0.500000  1
  Zr  Zr3  1  0.185597  0.891781  0.500000  1
  Zr  Zr4  1  0.813267  0.105648  0.500000  1
  Zr  Zr5  1  0.890504  0.817047  0.500000  1
  Zr  Zr6  1  0.395459  0.681556  0.500000  1
  Zr  Zr7  1  0.605201  0.318319  0.500000  1
  Zr  Zr8  1  0.681406  0.605936  0.500000  1
  Zr  Zr9  1  0.319505  0.394737  0.500000  1
  Zr  Zr10  1  0.100158  0.402426  0.000000  1
  Zr  Zr11  1  0.402163  0.900047  0.000000  1
  Zr  Zr12  1  0.598787  0.099545  0.000000  1
  Zr  Zr13  1  0.899297  0.598025  0.000000  1
  Zr  Zr14  1  0.386267  0.119364  0.500000  1
  Zr  Zr15  1  0.119888  0.614417  0.500000  1
  Zr  Zr16  1  0.879408  0.385211  0.500000  1
  Zr  Zr17  1  0.616966  0.881163  0.500000  1
  Be  Be18  1  0.263568  0.240914  0.000000  1
  Be  Be19  1  0.241128  0.736976  0.000000  1
  Be  Be20  1  0.758622  0.262412  0.000000  1
  Be  Be21  1  0.737913  0.759911  0.000000  1
  Si  Si22  1  0.226407  0.056714  0.000000  1
  Si  Si23  1  0.056389  0.773282  0.000000  1
  Si  Si24  1  0.942488  0.226272  0.000000  1
  P  P25  1  0.772704  0.942330  0.000000  1
  P  P26  1  0.276456  0.556917  0.000000  1
  P  P27  1  0.723389  0.443072  0.000000  1
  P  P28  1  0.557235  0.724834  0.000000  1
  P  P29  1  0.443754  0.275792  0.000000  1
