# generated using pymatgen
data_Tb2DyZr2Sn3O
_symmetry_space_group_name_H-M   'P 1'
_cell_length_a   8.79124007
_cell_length_b   8.78929323
_cell_length_c   6.05497400
_cell_angle_alpha   90.00000000
_cell_angle_beta   90.00000000
_cell_angle_gamma   119.99267736
_symmetry_Int_Tables_number   1
_chemical_formula_structural   Tb2DyZr2Sn3O
_chemical_formula_sum   'Tb4 Dy2 Zr4 Sn6 O2'
_cell_volume   405.20896852
_cell_formula_units_Z   2
loop_
 _symmetry_equiv_pos_site_id
 _symmetry_equiv_pos_as_xyz
  1  'x, y, z'
loop_
 _atom_site_type_symbol
 _atom_site_label
 _atom_site_symmetry_multiplicity
 _atom_site_fract_x
 _atom_site_fract_y
 _atom_site_fract_z
 _atom_site_occupancy
  Tb  Tb0  1  0.227436  0.227532  0.750000  1
  Tb  Tb1  1  0.227436  0.999904  0.250000  1
  Tb  Tb2  1  0.772564  0.772468  0.250000  1
  Tb  Tb3  1  0.772564  0.000096  0.750000  1
  Dy  Dy4  1  0.000000  0.773347  0.750000  1
  Dy  Dy5  1  0.000000  0.226653  0.250000  1
  Zr  Zr6  1  0.333342  0.666671  0.000000  1
  Zr  Zr7  1  0.333342  0.666671  0.500000  1
  Zr  Zr8  1  0.666658  0.333329  0.000000  1
  Zr  Zr9  1  0.666658  0.333329  0.500000  1
  Sn  Sn10  1  0.000000  0.593064  0.250000  1
  Sn  Sn11  1  0.000000  0.406936  0.750000  1
  Sn  Sn12  1  0.406101  0.406436  0.250000  1
  Sn  Sn13  1  0.593899  0.593564  0.750000  1
  Sn  Sn14  1  0.406101  0.999665  0.750000  1
  Sn  Sn15  1  0.593899  0.000335  0.250000  1
  O  O16  1  0.000000  0.000000  0.000000  1
  O  O17  1  0.000000  0.000000  0.500000  1
