# generated using pymatgen
data_KSr2As2Pd3
_symmetry_space_group_name_H-M   'P 1'
_cell_length_a   7.63545531
_cell_length_b   7.63545637
_cell_length_c   7.63545558
_cell_angle_alpha   43.75141936
_cell_angle_beta   43.75140836
_cell_angle_gamma   43.75142053
_symmetry_Int_Tables_number   1
_chemical_formula_structural   KSr2As2Pd3
_chemical_formula_sum   'K1 Sr2 As2 Pd3'
_cell_volume   193.25008646
_cell_formula_units_Z   1
loop_
 _symmetry_equiv_pos_site_id
 _symmetry_equiv_pos_as_xyz
  1  'x, y, z'
loop_
 _atom_site_type_symbol
 _atom_site_label
 _atom_site_symmetry_multiplicity
 _atom_site_fract_x
 _atom_site_fract_y
 _atom_site_fract_z
 _atom_site_occupancy
  K  K0  1  0.500000  0.500000  0.500000  1
  Sr  Sr1  1  0.086067  0.086067  0.086067  1
  Sr  Sr2  1  0.913933  0.913933  0.913933  1
  As  As3  1  0.240156  0.240156  0.240156  1
  As  As4  1  0.759844  0.759844  0.759844  1
  Pd  Pd5  1  0.500000  0.500000  0.000000  1
  Pd  Pd6  1  0.499999  0.000000  0.500001  1
  Pd  Pd7  1  0.000000  0.499999  0.500001  1
