# generated using pymatgen
data_ZnCd4Ir3O14
_symmetry_space_group_name_H-M   'P 1'
_cell_length_a   7.27984504
_cell_length_b   7.27984440
_cell_length_c   7.26644605
_cell_angle_alpha   59.93897785
_cell_angle_beta   59.93897946
_cell_angle_gamma   59.99999415
_symmetry_Int_Tables_number   1
_chemical_formula_structural   ZnCd4Ir3O14
_chemical_formula_sum   'Zn1 Cd4 Ir3 O14'
_cell_volume   272.05084906
_cell_formula_units_Z   1
loop_
 _symmetry_equiv_pos_site_id
 _symmetry_equiv_pos_as_xyz
  1  'x, y, z'
loop_
 _atom_site_type_symbol
 _atom_site_label
 _atom_site_symmetry_multiplicity
 _atom_site_fract_x
 _atom_site_fract_y
 _atom_site_fract_z
 _atom_site_occupancy
  Zn  Zn0  1  0.625000  0.625000  0.125000  1
  Cd  Cd1  1  0.125000  0.125000  0.125000  1
  Cd  Cd2  1  0.625000  0.125000  0.125000  1
  Cd  Cd3  1  0.125000  0.625000  0.125000  1
  Cd  Cd4  1  0.125000  0.125000  0.625000  1
  Ir  Ir5  1  0.625000  0.625000  0.625000  1
  Ir  Ir6  1  0.125000  0.625000  0.625000  1
  Ir  Ir7  1  0.625000  0.125000  0.625000  1
  O  O8  1  0.251895  0.251895  0.244315  1
  O  O9  1  0.998105  0.998105  0.005685  1
  O  O10  1  0.536876  0.946736  0.569652  1
  O  O11  1  0.285941  0.701686  0.310687  1
  O  O12  1  0.548314  0.548314  0.939313  1
  O  O13  1  0.946736  0.536876  0.569652  1
  O  O14  1  0.548314  0.964059  0.939313  1
  O  O15  1  0.946736  0.946736  0.569652  1
  O  O16  1  0.964059  0.548314  0.939313  1
  O  O17  1  0.701686  0.285941  0.310687  1
  O  O18  1  0.303264  0.713124  0.680348  1
  O  O19  1  0.713124  0.303264  0.680348  1
  O  O20  1  0.303264  0.303264  0.680348  1
  O  O21  1  0.701686  0.701686  0.310687  1
