# generated using pymatgen
data_MnP2S7
_symmetry_space_group_name_H-M   'P 1'
_cell_length_a   6.37086319
_cell_length_b   6.37086359
_cell_length_c   6.58923061
_cell_angle_alpha   85.15360972
_cell_angle_beta   85.15360989
_cell_angle_gamma   95.52452321
_symmetry_Int_Tables_number   1
_chemical_formula_structural   MnP2S7
_chemical_formula_sum   'Mn1 P2 S7'
_cell_volume   264.08995918
_cell_formula_units_Z   1
loop_
 _symmetry_equiv_pos_site_id
 _symmetry_equiv_pos_as_xyz
  1  'x, y, z'
loop_
 _atom_site_type_symbol
 _atom_site_label
 _atom_site_symmetry_multiplicity
 _atom_site_fract_x
 _atom_site_fract_y
 _atom_site_fract_z
 _atom_site_occupancy
  Mn  Mn0  1  0.503289  0.496711  0.000000  1
  P  P1  1  0.955093  0.651600  0.073013  1
  P  P2  1  0.348400  0.044907  0.926987  1
  S  S3  1  0.847366  0.502746  0.833533  1
  S  S4  1  0.476454  0.811530  0.782805  1
  S  S5  1  0.682007  0.633154  0.263324  1
  S  S6  1  0.015321  0.984679  0.000000  1
  S  S7  1  0.366846  0.317993  0.736676  1
  S  S8  1  0.188470  0.523546  0.217195  1
  S  S9  1  0.497254  0.152634  0.166467  1
