# generated using pymatgen
data_Er10Cd3Co
_symmetry_space_group_name_H-M   'P 1'
_cell_length_a   9.48427700
_cell_length_b   9.48427691
_cell_length_c   9.67253700
_cell_angle_alpha   90.00000000
_cell_angle_beta   90.00000000
_cell_angle_gamma   119.99999684
_symmetry_Int_Tables_number   1
_chemical_formula_structural   Er10Cd3Co
_chemical_formula_sum   'Er20 Cd6 Co2'
_cell_volume   753.49348255
_cell_formula_units_Z   2
loop_
 _symmetry_equiv_pos_site_id
 _symmetry_equiv_pos_as_xyz
  1  'x, y, z'
loop_
 _atom_site_type_symbol
 _atom_site_label
 _atom_site_symmetry_multiplicity
 _atom_site_fract_x
 _atom_site_fract_y
 _atom_site_fract_z
 _atom_site_occupancy
  Er  Er0  1  0.000000  0.000000  0.500000  1
  Er  Er1  1  0.000000  0.000000  0.000000  1
  Er  Er2  1  0.542366  0.457634  0.250000  1
  Er  Er3  1  0.542366  0.084733  0.250000  1
  Er  Er4  1  0.915267  0.457634  0.250000  1
  Er  Er5  1  0.457634  0.542366  0.750000  1
  Er  Er6  1  0.457634  0.915267  0.750000  1
  Er  Er7  1  0.084733  0.542366  0.750000  1
  Er  Er8  1  0.212130  0.787870  0.436804  1
  Er  Er9  1  0.212130  0.424260  0.436804  1
  Er  Er10  1  0.575740  0.787870  0.436804  1
  Er  Er11  1  0.787870  0.212130  0.563196  1
  Er  Er12  1  0.787870  0.575740  0.563196  1
  Er  Er13  1  0.424260  0.212130  0.563196  1
  Er  Er14  1  0.787870  0.212130  0.936804  1
  Er  Er15  1  0.787870  0.575740  0.936804  1
  Er  Er16  1  0.424260  0.212130  0.936804  1
  Er  Er17  1  0.212130  0.787870  0.063196  1
  Er  Er18  1  0.212130  0.424260  0.063196  1
  Er  Er19  1  0.575740  0.787870  0.063196  1
  Cd  Cd20  1  0.884812  0.115188  0.250000  1
  Cd  Cd21  1  0.884812  0.769625  0.250000  1
  Cd  Cd22  1  0.230375  0.115188  0.250000  1
  Cd  Cd23  1  0.115188  0.884812  0.750000  1
  Cd  Cd24  1  0.115188  0.230375  0.750000  1
  Cd  Cd25  1  0.769625  0.884812  0.750000  1
  Co  Co26  1  0.333333  0.666667  0.250000  1
  Co  Co27  1  0.666667  0.333333  0.750000  1
