# generated using pymatgen
data_TmZr5(SnRh2)6
_symmetry_space_group_name_H-M   'P 1'
_cell_length_a   4.36845100
_cell_length_b   7.38978200
_cell_length_c   13.06363400
_cell_angle_alpha   90.00000000
_cell_angle_beta   89.99798571
_cell_angle_gamma   90.00000000
_symmetry_Int_Tables_number   1
_chemical_formula_structural   TmZr5(SnRh2)6
_chemical_formula_sum   'Tm1 Zr5 Sn6 Rh12'
_cell_volume   421.71893371
_cell_formula_units_Z   1
loop_
 _symmetry_equiv_pos_site_id
 _symmetry_equiv_pos_as_xyz
  1  'x, y, z'
loop_
 _atom_site_type_symbol
 _atom_site_label
 _atom_site_symmetry_multiplicity
 _atom_site_fract_x
 _atom_site_fract_y
 _atom_site_fract_z
 _atom_site_occupancy
  Tm  Tm0  1  0.000000  0.500000  0.000000  1
  Zr  Zr1  1  0.500056  0.000000  0.168783  1
  Zr  Zr2  1  0.000037  0.500000  0.333173  1
  Zr  Zr3  1  0.500000  0.000000  0.500000  1
  Zr  Zr4  1  0.999963  0.500000  0.666828  1
  Zr  Zr5  1  0.499944  0.000000  0.831217  1
  Sn  Sn6  1  0.000000  0.000000  0.000000  1
  Sn  Sn7  1  0.500031  0.500000  0.167994  1
  Sn  Sn8  1  0.000018  0.000000  0.334279  1
  Sn  Sn9  1  0.500000  0.500000  0.500000  1
  Sn  Sn10  1  0.999982  0.000000  0.665721  1
  Sn  Sn11  1  0.499969  0.500000  0.832006  1
  Rh  Rh12  1  0.500000  0.236144  0.000000  1
  Rh  Rh13  1  0.500000  0.763856  0.000000  1
  Rh  Rh14  1  0.000041  0.245769  0.170721  1
  Rh  Rh15  1  0.000041  0.754232  0.170721  1
  Rh  Rh16  1  0.500064  0.249819  0.335180  1
  Rh  Rh17  1  0.500064  0.750181  0.335180  1
  Rh  Rh18  1  0.000000  0.251321  0.500000  1
  Rh  Rh19  1  0.000000  0.748680  0.500000  1
  Rh  Rh20  1  0.499936  0.249819  0.664820  1
  Rh  Rh21  1  0.499936  0.750181  0.664820  1
  Rh  Rh22  1  0.999959  0.245769  0.829280  1
  Rh  Rh23  1  0.999959  0.754232  0.829280  1
