# generated using pymatgen
data_Ta3NbPd5Pt7
_symmetry_space_group_name_H-M   'P 1'
_cell_length_a   5.60142505
_cell_length_b   4.90487655
_cell_length_c   9.35397475
_cell_angle_alpha   79.88486204
_cell_angle_beta   89.89565216
_cell_angle_gamma   89.96132818
_symmetry_Int_Tables_number   1
_chemical_formula_structural   Ta3NbPd5Pt7
_chemical_formula_sum   'Ta3 Nb1 Pd5 Pt7'
_cell_volume   252.99895267
_cell_formula_units_Z   1
loop_
 _symmetry_equiv_pos_site_id
 _symmetry_equiv_pos_as_xyz
  1  'x, y, z'
loop_
 _atom_site_type_symbol
 _atom_site_label
 _atom_site_symmetry_multiplicity
 _atom_site_fract_x
 _atom_site_fract_y
 _atom_site_fract_z
 _atom_site_occupancy
  Ta  Ta0  1  0.745720  0.376178  0.377477  1
  Ta  Ta1  1  0.252014  0.621779  0.623276  1
  Ta  Ta2  1  0.750416  0.210611  0.873050  1
  Nb  Nb3  1  0.251336  0.788780  0.126408  1
  Pd  Pd4  1  0.751633  0.794040  0.127871  1
  Pd  Pd5  1  0.250154  0.206981  0.872279  1
  Pd  Pd6  1  0.751807  0.615369  0.624182  1
  Pd  Pd7  1  0.246930  0.386436  0.376091  1
  Pd  Pd8  1  0.999019  0.877335  0.374869  1
  Pt  Pt9  1  0.497794  0.125279  0.624686  1
  Pt  Pt10  1  0.001026  0.126281  0.624465  1
  Pt  Pt11  1  0.502338  0.872718  0.375308  1
  Pt  Pt12  1  0.998640  0.292758  0.123933  1
  Pt  Pt13  1  0.499760  0.706744  0.876175  1
  Pt  Pt14  1  0.000312  0.707851  0.875505  1
  Pt  Pt15  1  0.501100  0.290859  0.124426  1
