# generated using pymatgen
data_Tm6Zn21Cu2S
_symmetry_space_group_name_H-M   'P 1'
_cell_length_a   8.98442653
_cell_length_b   8.97260572
_cell_length_c   8.97260700
_cell_angle_alpha   60.03408817
_cell_angle_beta   60.03730728
_cell_angle_gamma   60.03730272
_symmetry_Int_Tables_number   1
_chemical_formula_structural   Tm6Zn21Cu2S
_chemical_formula_sum   'Tm6 Zn21 Cu2 S1'
_cell_volume   511.88114433
_cell_formula_units_Z   1
loop_
 _symmetry_equiv_pos_site_id
 _symmetry_equiv_pos_as_xyz
  1  'x, y, z'
loop_
 _atom_site_type_symbol
 _atom_site_label
 _atom_site_symmetry_multiplicity
 _atom_site_fract_x
 _atom_site_fract_y
 _atom_site_fract_z
 _atom_site_occupancy
  Tm  Tm0  1  0.712084  0.288544  0.288544  1
  Tm  Tm1  1  0.712062  0.288227  0.711504  1
  Tm  Tm2  1  0.712062  0.711504  0.288227  1
  Tm  Tm3  1  0.287916  0.711456  0.711456  1
  Tm  Tm4  1  0.287938  0.711773  0.288496  1
  Tm  Tm5  1  0.287938  0.288496  0.711773  1
  Zn  Zn6  1  0.625501  0.124584  0.124584  1
  Zn  Zn7  1  0.121459  0.625586  0.122775  1
  Zn  Zn8  1  0.121459  0.122775  0.625586  1
  Zn  Zn9  1  0.120205  0.127280  0.127280  1
  Zn  Zn10  1  0.374499  0.875416  0.875416  1
  Zn  Zn11  1  0.878541  0.374414  0.877225  1
  Zn  Zn12  1  0.878541  0.877225  0.374414  1
  Zn  Zn13  1  0.879795  0.872720  0.872720  1
  Zn  Zn14  1  0.500000  0.000000  0.000000  1
  Zn  Zn15  1  0.500000  0.000000  0.500000  1
  Zn  Zn16  1  0.500000  0.500000  0.000000  1
  Zn  Zn17  1  0.000000  0.500000  0.500000  1
  Zn  Zn18  1  0.000000  0.000000  0.000000  1
  Zn  Zn19  1  0.010113  0.328151  0.328151  1
  Zn  Zn20  1  0.325923  0.009362  0.332244  1
  Zn  Zn21  1  0.325923  0.332244  0.009362  1
  Zn  Zn22  1  0.330336  0.330372  0.330372  1
  Zn  Zn23  1  0.989887  0.671849  0.671849  1
  Zn  Zn24  1  0.674077  0.990638  0.667756  1
  Zn  Zn25  1  0.674077  0.667756  0.990638  1
  Zn  Zn26  1  0.669664  0.669628  0.669628  1
  Cu  Cu27  1  0.000000  0.500000  0.000000  1
  Cu  Cu28  1  0.000000  0.000000  0.500000  1
  S  S29  1  0.500000  0.500000  0.500000  1
