# generated using pymatgen
data_Er5Cr3(P3Ir4)4
_symmetry_space_group_name_H-M   'P 1'
_cell_length_a   12.54421600
_cell_length_b   12.54421587
_cell_length_c   3.98442400
_cell_angle_alpha   90.00000000
_cell_angle_beta   90.00000000
_cell_angle_gamma   120.00000561
_symmetry_Int_Tables_number   1
_chemical_formula_structural   Er5Cr3(P3Ir4)4
_chemical_formula_sum   'Er5 Cr3 P12 Ir16'
_cell_volume   542.97920481
_cell_formula_units_Z   1
loop_
 _symmetry_equiv_pos_site_id
 _symmetry_equiv_pos_as_xyz
  1  'x, y, z'
loop_
 _atom_site_type_symbol
 _atom_site_label
 _atom_site_symmetry_multiplicity
 _atom_site_fract_x
 _atom_site_fract_y
 _atom_site_fract_z
 _atom_site_occupancy
  Er  Er0  1  0.666667  0.333333  0.000000  1
  Er  Er1  1  0.333333  0.666667  0.000000  1
  Er  Er2  1  0.818349  0.818349  0.500000  1
  Er  Er3  1  0.181651  0.000000  0.500000  1
  Er  Er4  1  0.000000  0.181651  0.500000  1
  Cr  Cr5  1  0.292641  0.292641  0.500000  1
  Cr  Cr6  1  0.707359  0.000000  0.500000  1
  Cr  Cr7  1  0.000000  0.707359  0.500000  1
  P  P8  1  0.689793  0.167331  0.500000  1
  P  P9  1  0.832669  0.522462  0.500000  1
  P  P10  1  0.477538  0.310207  0.500000  1
  P  P11  1  0.167331  0.689793  0.500000  1
  P  P12  1  0.522462  0.832669  0.500000  1
  P  P13  1  0.310207  0.477538  0.500000  1
  P  P14  1  0.640038  0.640038  0.000000  1
  P  P15  1  0.359962  0.000000  0.000000  1
  P  P16  1  0.000000  0.359962  0.000000  1
  P  P17  1  0.182195  0.182195  0.000000  1
  P  P18  1  0.817805  0.000000  0.000000  1
  P  P19  1  0.000000  0.817805  0.000000  1
  Ir  Ir20  1  0.806226  0.180496  0.000000  1
  Ir  Ir21  1  0.819504  0.625731  0.000000  1
  Ir  Ir22  1  0.374269  0.193774  0.000000  1
  Ir  Ir23  1  0.180496  0.806226  0.000000  1
  Ir  Ir24  1  0.625731  0.819504  0.000000  1
  Ir  Ir25  1  0.193774  0.374269  0.000000  1
  Ir  Ir26  1  0.454545  0.454545  0.000000  1
  Ir  Ir27  1  0.545455  0.000000  0.000000  1
  Ir  Ir28  1  0.000000  0.545455  0.000000  1
  Ir  Ir29  1  0.868743  0.361609  0.500000  1
  Ir  Ir30  1  0.638391  0.507135  0.500000  1
  Ir  Ir31  1  0.492865  0.131257  0.500000  1
  Ir  Ir32  1  0.361609  0.868743  0.500000  1
  Ir  Ir33  1  0.507135  0.638391  0.500000  1
  Ir  Ir34  1  0.131257  0.492865  0.500000  1
  Ir  Ir35  1  0.000000  0.000000  0.000000  1
