# generated using pymatgen
data_CaTb5SmCoI12
_symmetry_space_group_name_H-M   'P 1'
_cell_length_a   9.84455543
_cell_length_b   9.85487273
_cell_length_c   9.74642670
_cell_angle_alpha   107.11705629
_cell_angle_beta   106.64715981
_cell_angle_gamma   106.81824412
_symmetry_Int_Tables_number   1
_chemical_formula_structural   CaTb5SmCoI12
_chemical_formula_sum   'Ca1 Tb5 Sm1 Co1 I12'
_cell_volume   790.43786097
_cell_formula_units_Z   1
loop_
 _symmetry_equiv_pos_site_id
 _symmetry_equiv_pos_as_xyz
  1  'x, y, z'
loop_
 _atom_site_type_symbol
 _atom_site_label
 _atom_site_symmetry_multiplicity
 _atom_site_fract_x
 _atom_site_fract_y
 _atom_site_fract_z
 _atom_site_occupancy
  Ca  Ca0  1  0.499994  0.499914  0.499849  1
  Tb  Tb1  1  0.096177  0.295967  0.023343  1
  Tb  Tb2  1  0.295748  0.023822  0.095165  1
  Tb  Tb3  1  0.977178  0.908273  0.717835  1
  Tb  Tb4  1  0.903825  0.703844  0.976355  1
  Tb  Tb5  1  0.703986  0.975767  0.903410  1
  Sm  Sm6  1  0.022792  0.092696  0.285936  1
  Co  Co7  1  0.999730  0.999952  0.000175  1
  I  I8  1  0.151973  0.459207  0.378389  1
  I  I9  1  0.455779  0.377268  0.148817  1
  I  I10  1  0.380421  0.151092  0.457125  1
  I  I11  1  0.850191  0.545218  0.621737  1
  I  I12  1  0.544091  0.622733  0.850875  1
  I  I13  1  0.623699  0.849374  0.543302  1
  I  I14  1  0.676654  0.072057  0.222820  1
  I  I15  1  0.071799  0.221700  0.680547  1
  I  I16  1  0.223082  0.679416  0.072008  1
  I  I17  1  0.318879  0.926985  0.774475  1
  I  I18  1  0.927163  0.774201  0.320093  1
  I  I19  1  0.776837  0.320511  0.927744  1
