# generated using pymatgen
data_Ti10Al2(SnSb)3
_symmetry_space_group_name_H-M   'P 1'
_cell_length_a   8.24832700
_cell_length_b   8.24832799
_cell_length_c   5.56921300
_cell_angle_alpha   90.00000000
_cell_angle_beta   90.00000000
_cell_angle_gamma   120.00000805
_symmetry_Int_Tables_number   1
_chemical_formula_structural   Ti10Al2(SnSb)3
_chemical_formula_sum   'Ti10 Al2 Sn3 Sb3'
_cell_volume   328.13776584
_cell_formula_units_Z   1
loop_
 _symmetry_equiv_pos_site_id
 _symmetry_equiv_pos_as_xyz
  1  'x, y, z'
loop_
 _atom_site_type_symbol
 _atom_site_label
 _atom_site_symmetry_multiplicity
 _atom_site_fract_x
 _atom_site_fract_y
 _atom_site_fract_z
 _atom_site_occupancy
  Ti  Ti0  1  0.666667  0.333333  0.499180  1
  Ti  Ti1  1  0.333333  0.666667  0.499180  1
  Ti  Ti2  1  0.333333  0.666667  0.000820  1
  Ti  Ti3  1  0.666667  0.333333  0.000820  1
  Ti  Ti4  1  0.726389  0.726389  0.250000  1
  Ti  Ti5  1  0.273611  0.000000  0.250000  1
  Ti  Ti6  1  0.000000  0.273611  0.250000  1
  Ti  Ti7  1  0.271077  0.271077  0.750000  1
  Ti  Ti8  1  0.728923  0.000000  0.750000  1
  Ti  Ti9  1  0.000000  0.728923  0.750000  1
  Al  Al10  1  0.000000  0.000000  0.002485  1
  Al  Al11  1  0.000000  0.000000  0.497515  1
  Sn  Sn12  1  0.383779  0.383779  0.250000  1
  Sn  Sn13  1  0.616221  0.000000  0.250000  1
  Sn  Sn14  1  0.000000  0.616221  0.250000  1
  Sb  Sb15  1  0.612831  0.612831  0.750000  1
  Sb  Sb16  1  0.387169  0.000000  0.750000  1
  Sb  Sb17  1  0.000000  0.387169  0.750000  1
