# generated using pymatgen
data_Er2Tm6In3Rh
_symmetry_space_group_name_H-M   'P 1'
_cell_length_a   10.31932700
_cell_length_b   10.32017222
_cell_length_c   6.95312600
_cell_angle_alpha   89.99739648
_cell_angle_beta   90.00000000
_cell_angle_gamma   119.99729403
_symmetry_Int_Tables_number   1
_chemical_formula_structural   Er2Tm6In3Rh
_chemical_formula_sum   'Er4 Tm12 In6 Rh2'
_cell_volume   641.29948524
_cell_formula_units_Z   2
loop_
 _symmetry_equiv_pos_site_id
 _symmetry_equiv_pos_as_xyz
  1  'x, y, z'
loop_
 _atom_site_type_symbol
 _atom_site_label
 _atom_site_symmetry_multiplicity
 _atom_site_fract_x
 _atom_site_fract_y
 _atom_site_fract_z
 _atom_site_occupancy
  Er  Er0  1  0.532270  0.064542  0.515945  1
  Er  Er1  1  0.935513  0.467756  0.515942  1
  Er  Er2  1  0.532241  0.467756  0.515942  1
  Er  Er3  1  0.467704  0.935406  0.015913  1
  Tm  Tm4  1  0.064765  0.532365  0.015862  1
  Tm  Tm5  1  0.467602  0.532365  0.015862  1
  Tm  Tm6  1  0.176586  0.353171  0.721404  1
  Tm  Tm7  1  0.646935  0.823411  0.721313  1
  Tm  Tm8  1  0.176477  0.823411  0.721313  1
  Tm  Tm9  1  0.823453  0.646906  0.221090  1
  Tm  Tm10  1  0.353058  0.176604  0.221154  1
  Tm  Tm11  1  0.823545  0.176604  0.221154  1
  Tm  Tm12  1  0.666705  0.333408  0.895195  1
  Tm  Tm13  1  0.333281  0.666563  0.394995  1
  Tm  Tm14  1  0.999990  0.999980  0.500468  1
  Tm  Tm15  1  0.999996  0.999992  0.000581  1
  In  In16  1  0.837275  0.674551  0.760979  1
  In  In17  1  0.325455  0.162734  0.760952  1
  In  In18  1  0.837278  0.162734  0.760952  1
  In  In19  1  0.162785  0.325568  0.260808  1
  In  In20  1  0.674502  0.837202  0.260873  1
  In  In21  1  0.162701  0.837202  0.260873  1
  Rh  Rh22  1  0.666669  0.333336  0.289080  1
  Rh  Rh23  1  0.333215  0.666432  0.789350  1
