# generated using pymatgen
data_Dy5SnBi2
_symmetry_space_group_name_H-M   'P 1'
_cell_length_a   9.13174245
_cell_length_b   9.11445649
_cell_length_c   6.41935500
_cell_angle_alpha   90.00000000
_cell_angle_beta   90.00000000
_cell_angle_gamma   119.93740527
_symmetry_Int_Tables_number   1
_chemical_formula_structural   Dy5SnBi2
_chemical_formula_sum   'Dy10 Sn2 Bi4'
_cell_volume   462.99898548
_cell_formula_units_Z   2
loop_
 _symmetry_equiv_pos_site_id
 _symmetry_equiv_pos_as_xyz
  1  'x, y, z'
loop_
 _atom_site_type_symbol
 _atom_site_label
 _atom_site_symmetry_multiplicity
 _atom_site_fract_x
 _atom_site_fract_y
 _atom_site_fract_z
 _atom_site_occupancy
  Dy  Dy0  1  0.995432  0.760120  0.750000  1
  Dy  Dy1  1  0.995432  0.235311  0.250000  1
  Dy  Dy2  1  0.759158  0.763636  0.250000  1
  Dy  Dy3  1  0.759158  0.995522  0.750000  1
  Dy  Dy4  1  0.242938  0.242670  0.750000  1
  Dy  Dy5  1  0.242938  0.000268  0.250000  1
  Dy  Dy6  1  0.339049  0.669525  0.500000  1
  Dy  Dy7  1  0.664895  0.332447  0.000000  1
  Dy  Dy8  1  0.664895  0.332447  0.500000  1
  Dy  Dy9  1  0.339049  0.669525  0.000000  1
  Sn  Sn10  1  0.606473  0.605108  0.750000  1
  Sn  Sn11  1  0.606473  0.001366  0.250000  1
  Bi  Bi12  1  0.391396  0.999011  0.750000  1
  Bi  Bi13  1  0.391396  0.392385  0.250000  1
  Bi  Bi14  1  0.000659  0.608189  0.250000  1
  Bi  Bi15  1  0.000659  0.392469  0.750000  1
