# generated using pymatgen
data_Sr4Ca6V7O28
_symmetry_space_group_name_H-M   'P 1'
_cell_length_a   11.17977698
_cell_length_b   11.17977629
_cell_length_c   14.56084452
_cell_angle_alpha   67.20056334
_cell_angle_beta   67.20056683
_cell_angle_gamma   60.21112150
_symmetry_Int_Tables_number   1
_chemical_formula_structural   Sr4Ca6V7O28
_chemical_formula_sum   'Sr8 Ca12 V14 O56'
_cell_volume   1412.12782806
_cell_formula_units_Z   2
loop_
 _symmetry_equiv_pos_site_id
 _symmetry_equiv_pos_as_xyz
  1  'x, y, z'
loop_
 _atom_site_type_symbol
 _atom_site_label
 _atom_site_symmetry_multiplicity
 _atom_site_fract_x
 _atom_site_fract_y
 _atom_site_fract_z
 _atom_site_occupancy
  Sr  Sr0  1  0.550792  0.474557  0.019539  1
  Sr  Sr1  1  0.955570  0.054491  0.018932  1
  Sr  Sr2  1  0.967634  0.453882  0.019077  1
  Sr  Sr3  1  0.054491  0.955570  0.518932  1
  Sr  Sr4  1  0.453882  0.967634  0.519077  1
  Sr  Sr5  1  0.474557  0.550792  0.519539  1
  Sr  Sr6  1  0.911363  0.438878  0.298902  1
  Sr  Sr7  1  0.438878  0.911363  0.798902  1
  Ca  Ca8  1  0.504123  0.003758  0.998234  1
  Ca  Ca9  1  0.567768  0.073777  0.202766  1
  Ca  Ca10  1  0.574613  0.656098  0.201360  1
  Ca  Ca11  1  0.156002  0.068742  0.200987  1
  Ca  Ca12  1  0.656098  0.574613  0.701360  1
  Ca  Ca13  1  0.068742  0.156002  0.700987  1
  Ca  Ca14  1  0.073777  0.567768  0.702766  1
  Ca  Ca15  1  0.003758  0.504123  0.498234  1
  Ca  Ca16  1  0.943175  0.850083  0.296243  1
  Ca  Ca17  1  0.348420  0.411027  0.296197  1
  Ca  Ca18  1  0.850083  0.943175  0.796243  1
  Ca  Ca19  1  0.411027  0.348420  0.796197  1
  V  V20  1  0.765098  0.267145  0.194055  1
  V  V21  1  0.692513  0.222032  0.896413  1
  V  V22  1  0.722306  0.692108  0.897077  1
  V  V23  1  0.190819  0.192049  0.898340  1
  V  V24  1  0.775202  0.306581  0.600637  1
  V  V25  1  0.810352  0.815983  0.594831  1
  V  V26  1  0.692108  0.722306  0.397077  1
  V  V27  1  0.314858  0.282295  0.594718  1
  V  V28  1  0.192049  0.190819  0.398340  1
  V  V29  1  0.222032  0.692513  0.396413  1
  V  V30  1  0.815983  0.810352  0.094831  1
  V  V31  1  0.282295  0.314858  0.094718  1
  V  V32  1  0.306581  0.775202  0.100637  1
  V  V33  1  0.267145  0.765098  0.694055  1
  O  O34  1  0.598455  0.263562  0.229135  1
  O  O35  1  0.759362  0.405441  0.225903  1
  O  O36  1  0.900817  0.102166  0.230348  1
  O  O37  1  0.666946  0.182071  0.028721  1
  O  O38  1  0.684435  0.616986  0.028394  1
  O  O39  1  0.811434  0.310365  0.059244  1
  O  O40  1  0.618019  0.143451  0.864601  1
  O  O41  1  0.644030  0.876721  0.870546  1
  O  O42  1  0.649768  0.640675  0.840523  1
  O  O43  1  0.606760  0.405539  0.856047  1
  O  O44  1  0.115650  0.167725  0.029711  1
  O  O45  1  0.874246  0.153770  0.841884  1
  O  O46  1  0.905364  0.638385  0.855106  1
  O  O47  1  0.600523  0.399121  0.666096  1
  O  O48  1  0.132162  0.373012  0.843287  1
  O  O49  1  0.626494  0.887743  0.630451  1
  O  O50  1  0.144964  0.098996  0.854864  1
  O  O51  1  0.375171  0.121955  0.870873  1
  O  O52  1  0.852816  0.122250  0.641852  1
  O  O53  1  0.896879  0.840341  0.660537  1
  O  O54  1  0.616986  0.684435  0.528394  1
  O  O55  1  0.876444  0.370521  0.619825  1
  O  O56  1  0.868481  0.630694  0.625575  1
  O  O57  1  0.129600  0.377311  0.625632  1
  O  O58  1  0.770425  0.359197  0.474289  1
  O  O59  1  0.872193  0.878705  0.465453  1
  O  O60  1  0.640675  0.649768  0.340523  1
  O  O61  1  0.335223  0.105758  0.654247  1
  O  O62  1  0.638385  0.905364  0.355106  1
  O  O63  1  0.386795  0.350326  0.638978  1
  O  O64  1  0.167725  0.115650  0.529711  1
  O  O65  1  0.182071  0.666946  0.528721  1
  O  O66  1  0.876721  0.644030  0.370546  1
  O  O67  1  0.121955  0.375171  0.370873  1
  O  O68  1  0.143451  0.618019  0.364601  1
  O  O69  1  0.379151  0.297117  0.464666  1
  O  O70  1  0.153770  0.874246  0.341884  1
  O  O71  1  0.098996  0.144964  0.354864  1
  O  O72  1  0.630694  0.868481  0.125575  1
  O  O73  1  0.840341  0.896879  0.160537  1
  O  O74  1  0.373012  0.132162  0.343287  1
  O  O75  1  0.887743  0.626494  0.130451  1
  O  O76  1  0.405539  0.606760  0.356047  1
  O  O77  1  0.105758  0.335223  0.154247  1
  O  O78  1  0.122250  0.852816  0.141852  1
  O  O79  1  0.878705  0.872193  0.965453  1
  O  O80  1  0.350326  0.386795  0.138978  1
  O  O81  1  0.399121  0.600523  0.166096  1
  O  O82  1  0.377311  0.129600  0.125632  1
  O  O83  1  0.370521  0.876444  0.119825  1
  O  O84  1  0.297117  0.379151  0.964666  1
  O  O85  1  0.359197  0.770425  0.974289  1
  O  O86  1  0.102166  0.900817  0.730348  1
  O  O87  1  0.263562  0.598455  0.729135  1
  O  O88  1  0.405441  0.759362  0.725903  1
  O  O89  1  0.310365  0.811434  0.559244  1
