# generated using pymatgen
data_Ho2Al8SiRh3
_symmetry_space_group_name_H-M   'P 1'
_cell_length_a   7.53146075
_cell_length_b   7.50085812
_cell_length_c   9.41403049
_cell_angle_alpha   89.98138894
_cell_angle_beta   89.86636241
_cell_angle_gamma   119.68206868
_symmetry_Int_Tables_number   1
_chemical_formula_structural   Ho2Al8SiRh3
_chemical_formula_sum   'Ho4 Al16 Si2 Rh6'
_cell_volume   462.03729929
_cell_formula_units_Z   2
loop_
 _symmetry_equiv_pos_site_id
 _symmetry_equiv_pos_as_xyz
  1  'x, y, z'
loop_
 _atom_site_type_symbol
 _atom_site_label
 _atom_site_symmetry_multiplicity
 _atom_site_fract_x
 _atom_site_fract_y
 _atom_site_fract_z
 _atom_site_occupancy
  Ho  Ho0  1  0.994674  0.664577  0.242668  1
  Ho  Ho1  1  0.005326  0.335423  0.757332  1
  Ho  Ho2  1  0.676580  0.002006  0.247346  1
  Ho  Ho3  1  0.323420  0.997994  0.752654  1
  Al  Al4  1  0.129206  0.127224  0.250442  1
  Al  Al5  1  0.870794  0.872776  0.749558  1
  Al  Al6  1  0.998457  0.665289  0.569713  1
  Al  Al7  1  0.335075  0.999071  0.424229  1
  Al  Al8  1  0.001543  0.334711  0.430287  1
  Al  Al9  1  0.664925  0.000929  0.575771  1
  Al  Al10  1  0.661105  0.996621  0.921988  1
  Al  Al11  1  0.338895  0.003379  0.078012  1
  Al  Al12  1  0.333039  0.331858  0.554766  1
  Al  Al13  1  0.666961  0.668142  0.445234  1
  Al  Al14  1  0.663891  0.667172  0.054988  1
  Al  Al15  1  0.336109  0.332828  0.945012  1
  Al  Al16  1  0.339756  0.550627  0.249898  1
  Al  Al17  1  0.660244  0.449373  0.750102  1
  Al  Al18  1  0.547957  0.341647  0.250275  1
  Al  Al19  1  0.452043  0.658353  0.749725  1
  Si  Si20  1  0.003122  0.328771  0.077990  1
  Si  Si21  1  0.996878  0.671229  0.922010  1
  Rh  Rh22  1  0.690178  0.337612  0.001773  1
  Rh  Rh23  1  0.309822  0.662388  0.998227  1
  Rh  Rh24  1  0.327100  0.670928  0.500717  1
  Rh  Rh25  1  0.672900  0.329072  0.499283  1
  Rh  Rh26  1  0.000000  0.000000  0.000000  1
  Rh  Rh27  1  0.000000  0.000000  0.500000  1
