# generated using pymatgen
data_Ho12InSi4Au
_symmetry_space_group_name_H-M   'P 1'
_cell_length_a   8.45800247
_cell_length_b   8.45800103
_cell_length_c   8.45800214
_cell_angle_alpha   112.19200182
_cell_angle_beta   111.10061406
_cell_angle_gamma   105.20548915
_symmetry_Int_Tables_number   1
_chemical_formula_structural   Ho12InSi4Au
_chemical_formula_sum   'Ho12 In1 Si4 Au1'
_cell_volume   463.81755400
_cell_formula_units_Z   1
loop_
 _symmetry_equiv_pos_site_id
 _symmetry_equiv_pos_as_xyz
  1  'x, y, z'
loop_
 _atom_site_type_symbol
 _atom_site_label
 _atom_site_symmetry_multiplicity
 _atom_site_fract_x
 _atom_site_fract_y
 _atom_site_fract_z
 _atom_site_occupancy
  Ho  Ho0  1  0.321425  0.619529  0.298104  1
  Ho  Ho1  1  0.678575  0.380471  0.701896  1
  Ho  Ho2  1  0.321425  0.023319  0.701896  1
  Ho  Ho3  1  0.678575  0.976681  0.298104  1
  Ho  Ho4  1  0.182803  0.273210  0.456013  1
  Ho  Ho5  1  0.817197  0.726790  0.543987  1
  Ho  Ho6  1  0.182803  0.726790  0.909593  1
  Ho  Ho7  1  0.817197  0.273210  0.090407  1
  Ho  Ho8  1  0.432371  0.234173  0.198198  1
  Ho  Ho9  1  0.567629  0.765827  0.801802  1
  Ho  Ho10  1  0.035974  0.234173  0.801802  1
  Ho  Ho11  1  0.964026  0.765827  0.198198  1
  In  In12  1  0.500000  0.500000  0.000000  1
  Si  Si13  1  0.116952  0.616952  0.500000  1
  Si  Si14  1  0.883048  0.383048  0.500000  1
  Si  Si15  1  0.365815  0.000000  0.365815  1
  Si  Si16  1  0.634185  0.000000  0.634185  1
  Au  Au17  1  0.000000  0.000000  0.000000  1
