# generated using pymatgen
data_HoLu2Sc2Pb3
_symmetry_space_group_name_H-M   'P 1'
_cell_length_a   8.80275243
_cell_length_b   8.81142757
_cell_length_c   6.31312100
_cell_angle_alpha   90.00000000
_cell_angle_beta   90.00000000
_cell_angle_gamma   120.03260442
_symmetry_Int_Tables_number   1
_chemical_formula_structural   HoLu2Sc2Pb3
_chemical_formula_sum   'Ho2 Lu4 Sc4 Pb6'
_cell_volume   423.93251731
_cell_formula_units_Z   2
loop_
 _symmetry_equiv_pos_site_id
 _symmetry_equiv_pos_as_xyz
  1  'x, y, z'
loop_
 _atom_site_type_symbol
 _atom_site_label
 _atom_site_symmetry_multiplicity
 _atom_site_fract_x
 _atom_site_fract_y
 _atom_site_fract_z
 _atom_site_occupancy
  Ho  Ho0  1  0.236514  0.999684  0.250000  1
  Ho  Ho1  1  0.236514  0.236830  0.750000  1
  Lu  Lu2  1  0.999534  0.762974  0.750000  1
  Lu  Lu3  1  0.999534  0.236560  0.250000  1
  Lu  Lu4  1  0.763676  0.763867  0.250000  1
  Lu  Lu5  1  0.763676  0.999809  0.750000  1
  Sc  Sc6  1  0.333460  0.666730  0.000000  1
  Sc  Sc7  1  0.666713  0.333356  0.500000  1
  Sc  Sc8  1  0.666713  0.333356  0.000000  1
  Sc  Sc9  1  0.333460  0.666730  0.500000  1
  Pb  Pb10  1  0.602602  0.999991  0.250000  1
  Pb  Pb11  1  0.602602  0.602611  0.750000  1
  Pb  Pb12  1  0.999092  0.398369  0.750000  1
  Pb  Pb13  1  0.999092  0.600723  0.250000  1
  Pb  Pb14  1  0.398408  0.399292  0.250000  1
  Pb  Pb15  1  0.398408  0.999116  0.750000  1
