# generated using pymatgen
data_Lu8Mn(B8Os)3
_symmetry_space_group_name_H-M   'P 1'
_cell_length_a   3.57532600
_cell_length_b   9.01601754
_cell_length_c   11.38596268
_cell_angle_alpha   90.03977041
_cell_angle_beta   90.00000000
_cell_angle_gamma   90.00000000
_symmetry_Int_Tables_number   1
_chemical_formula_structural   Lu8Mn(B8Os)3
_chemical_formula_sum   'Lu8 Mn1 B24 Os3'
_cell_volume   367.02871801
_cell_formula_units_Z   1
loop_
 _symmetry_equiv_pos_site_id
 _symmetry_equiv_pos_as_xyz
  1  'x, y, z'
loop_
 _atom_site_type_symbol
 _atom_site_label
 _atom_site_symmetry_multiplicity
 _atom_site_fract_x
 _atom_site_fract_y
 _atom_site_fract_z
 _atom_site_occupancy
  Lu  Lu0  1  0.000000  0.324923  0.412273  1
  Lu  Lu1  1  0.000000  0.677661  0.581765  1
  Lu  Lu2  1  0.000000  0.818446  0.089019  1
  Lu  Lu3  1  0.000000  0.179714  0.915234  1
  Lu  Lu4  1  0.000000  0.939740  0.371757  1
  Lu  Lu5  1  0.000000  0.056361  0.626811  1
  Lu  Lu6  1  0.000000  0.446559  0.129987  1
  Lu  Lu7  1  0.000000  0.556482  0.873073  1
  Mn  Mn8  1  0.000000  0.637435  0.321243  1
  B  B9  1  0.500000  0.553622  0.432125  1
  B  B10  1  0.500000  0.447361  0.565426  1
  B  B11  1  0.500000  0.053204  0.066472  1
  B  B12  1  0.500000  0.947244  0.934075  1
  B  B13  1  0.500000  0.746569  0.418265  1
  B  B14  1  0.500000  0.251250  0.578966  1
  B  B15  1  0.500000  0.249965  0.080228  1
  B  B16  1  0.500000  0.751175  0.920882  1
  B  B17  1  0.500000  0.789758  0.266200  1
  B  B18  1  0.500000  0.208278  0.734193  1
  B  B19  1  0.500000  0.292514  0.234973  1
  B  B20  1  0.500000  0.708373  0.765443  1
  B  B21  1  0.500000  0.630677  0.186340  1
  B  B22  1  0.500000  0.369565  0.815889  1
  B  B23  1  0.500000  0.130176  0.315440  1
  B  B24  1  0.500000  0.869089  0.683917  1
  B  B25  1  0.500000  0.980086  0.212933  1
  B  B26  1  0.500000  0.019227  0.787154  1
  B  B27  1  0.500000  0.483613  0.288148  1
  B  B28  1  0.500000  0.519140  0.712524  1
  B  B29  1  0.500000  0.605880  0.029827  1
  B  B30  1  0.500000  0.394984  0.971393  1
  B  B31  1  0.500000  0.104568  0.470406  1
  B  B32  1  0.500000  0.894110  0.528615  1
  Os  Os33  1  0.000000  0.362037  0.679314  1
  Os  Os34  1  0.000000  0.137450  0.179033  1
  Os  Os35  1  0.000000  0.862766  0.820656  1
