# generated using pymatgen
data_ErFe3P3Rh2
_symmetry_space_group_name_H-M   'P 1'
_cell_length_a   3.75779700
_cell_length_b   10.30521700
_cell_length_c   12.17571600
_cell_angle_alpha   90.00000000
_cell_angle_beta   90.00000000
_cell_angle_gamma   90.00000000
_symmetry_Int_Tables_number   1
_chemical_formula_structural   ErFe3P3Rh2
_chemical_formula_sum   'Er4 Fe12 P12 Rh8'
_cell_volume   471.50354923
_cell_formula_units_Z   4
loop_
 _symmetry_equiv_pos_site_id
 _symmetry_equiv_pos_as_xyz
  1  'x, y, z'
loop_
 _atom_site_type_symbol
 _atom_site_label
 _atom_site_symmetry_multiplicity
 _atom_site_fract_x
 _atom_site_fract_y
 _atom_site_fract_z
 _atom_site_occupancy
  Er  Er0  1  0.250000  0.580249  0.711798  1
  Er  Er1  1  0.250000  0.919751  0.211798  1
  Er  Er2  1  0.750000  0.419751  0.288202  1
  Er  Er3  1  0.750000  0.080249  0.788202  1
  Fe  Fe4  1  0.250000  0.224292  0.170409  1
  Fe  Fe5  1  0.250000  0.275708  0.670409  1
  Fe  Fe6  1  0.750000  0.775708  0.829591  1
  Fe  Fe7  1  0.750000  0.724292  0.329591  1
  Fe  Fe8  1  0.250000  0.877077  0.697536  1
  Fe  Fe9  1  0.250000  0.622923  0.197536  1
  Fe  Fe10  1  0.750000  0.122923  0.302464  1
  Fe  Fe11  1  0.750000  0.377077  0.802464  1
  Fe  Fe12  1  0.250000  0.458901  0.934968  1
  Fe  Fe13  1  0.250000  0.041099  0.434968  1
  Fe  Fe14  1  0.750000  0.541099  0.065032  1
  Fe  Fe15  1  0.750000  0.958901  0.565032  1
  P  P16  1  0.250000  0.429893  0.112960  1
  P  P17  1  0.250000  0.070107  0.612960  1
  P  P18  1  0.750000  0.570107  0.887040  1
  P  P19  1  0.750000  0.929893  0.387040  1
  P  P20  1  0.250000  0.272704  0.852194  1
  P  P21  1  0.250000  0.227296  0.352194  1
  P  P22  1  0.750000  0.727296  0.147806  1
  P  P23  1  0.750000  0.772704  0.647806  1
  P  P24  1  0.250000  0.605472  0.377625  1
  P  P25  1  0.250000  0.894528  0.877625  1
  P  P26  1  0.750000  0.394528  0.622375  1
  P  P27  1  0.750000  0.105472  0.122375  1
  Rh  Rh28  1  0.250000  0.708013  0.985610  1
  Rh  Rh29  1  0.250000  0.791987  0.485610  1
  Rh  Rh30  1  0.750000  0.291987  0.014390  1
  Rh  Rh31  1  0.750000  0.208013  0.514390  1
  Rh  Rh32  1  0.250000  0.405191  0.477522  1
  Rh  Rh33  1  0.250000  0.094810  0.977522  1
  Rh  Rh34  1  0.750000  0.594809  0.522478  1
  Rh  Rh35  1  0.750000  0.905191  0.022478  1
