# generated using pymatgen
data_Ti3V2Ga3N
_symmetry_space_group_name_H-M   'P 1'
_cell_length_a   7.49580900
_cell_length_b   7.49580737
_cell_length_c   5.13125000
_cell_angle_alpha   90.00000000
_cell_angle_beta   90.00000000
_cell_angle_gamma   119.99999395
_symmetry_Int_Tables_number   1
_chemical_formula_structural   Ti3V2Ga3N
_chemical_formula_sum   'Ti6 V4 Ga6 N2'
_cell_volume   249.68402793
_cell_formula_units_Z   2
loop_
 _symmetry_equiv_pos_site_id
 _symmetry_equiv_pos_as_xyz
  1  'x, y, z'
loop_
 _atom_site_type_symbol
 _atom_site_label
 _atom_site_symmetry_multiplicity
 _atom_site_fract_x
 _atom_site_fract_y
 _atom_site_fract_z
 _atom_site_occupancy
  Ti  Ti0  1  0.225256  0.000000  0.750000  1
  Ti  Ti1  1  0.774744  0.000000  0.250000  1
  Ti  Ti2  1  0.000000  0.225256  0.750000  1
  Ti  Ti3  1  0.000000  0.774744  0.250000  1
  Ti  Ti4  1  0.774744  0.774744  0.750000  1
  Ti  Ti5  1  0.225256  0.225256  0.250000  1
  V  V6  1  0.333333  0.666667  0.500000  1
  V  V7  1  0.666667  0.333333  0.500000  1
  V  V8  1  0.666667  0.333333  0.000000  1
  V  V9  1  0.333333  0.666667  0.000000  1
  Ga  Ga10  1  0.589344  0.000000  0.750000  1
  Ga  Ga11  1  0.410656  0.000000  0.250000  1
  Ga  Ga12  1  0.000000  0.589344  0.750000  1
  Ga  Ga13  1  0.000000  0.410656  0.250000  1
  Ga  Ga14  1  0.410656  0.410656  0.750000  1
  Ga  Ga15  1  0.589344  0.589344  0.250000  1
  N  N16  1  0.000000  0.000000  0.500000  1
  N  N17  1  0.000000  0.000000  0.000000  1
