# generated using pymatgen
data_TaTiBe17
_symmetry_space_group_name_H-M   'P 1'
_cell_length_a   5.54247212
_cell_length_b   5.54247344
_cell_length_c   5.54247304
_cell_angle_alpha   83.12311622
_cell_angle_beta   83.12311009
_cell_angle_gamma   83.12309530
_symmetry_Int_Tables_number   1
_chemical_formula_structural   TaTiBe17
_chemical_formula_sum   'Ta1 Ti1 Be17'
_cell_volume   166.85605180
_cell_formula_units_Z   1
loop_
 _symmetry_equiv_pos_site_id
 _symmetry_equiv_pos_as_xyz
  1  'x, y, z'
loop_
 _atom_site_type_symbol
 _atom_site_label
 _atom_site_symmetry_multiplicity
 _atom_site_fract_x
 _atom_site_fract_y
 _atom_site_fract_z
 _atom_site_occupancy
  Ta  Ta0  1  0.839094  0.839094  0.839094  1
  Ti  Ti1  1  0.160976  0.160976  0.160976  1
  Be  Be2  1  0.847056  0.338425  0.847057  1
  Be  Be3  1  0.847056  0.847056  0.338425  1
  Be  Be4  1  0.338425  0.847056  0.847057  1
  Be  Be5  1  0.659635  0.152581  0.152581  1
  Be  Be6  1  0.152581  0.152581  0.659636  1
  Be  Be7  1  0.152581  0.659635  0.152581  1
  Be  Be8  1  0.597977  0.597977  0.597978  1
  Be  Be9  1  0.401857  0.401857  0.401857  1
  Be  Be10  1  0.499043  0.794305  0.206588  1
  Be  Be11  1  0.206587  0.794305  0.499044  1
  Be  Be12  1  0.794305  0.499043  0.206588  1
  Be  Be13  1  0.501575  0.999736  0.501575  1
  Be  Be14  1  0.999736  0.501575  0.501575  1
  Be  Be15  1  0.501575  0.501575  0.999736  1
  Be  Be16  1  0.794305  0.206587  0.499044  1
  Be  Be17  1  0.206587  0.499044  0.794305  1
  Be  Be18  1  0.499044  0.206587  0.794305  1
