# generated using pymatgen
data_Th3Sc7(Si5Ir2)4
_symmetry_space_group_name_H-M   'P 1'
_cell_length_a   12.50765070
_cell_length_b   12.50765194
_cell_length_c   4.20061500
_cell_angle_alpha   90.00000000
_cell_angle_beta   90.00000000
_cell_angle_gamma   90.15309696
_symmetry_Int_Tables_number   1
_chemical_formula_structural   Th3Sc7(Si5Ir2)4
_chemical_formula_sum   'Th3 Sc7 Si20 Ir8'
_cell_volume   657.14749966
_cell_formula_units_Z   1
loop_
 _symmetry_equiv_pos_site_id
 _symmetry_equiv_pos_as_xyz
  1  'x, y, z'
loop_
 _atom_site_type_symbol
 _atom_site_label
 _atom_site_symmetry_multiplicity
 _atom_site_fract_x
 _atom_site_fract_y
 _atom_site_fract_z
 _atom_site_occupancy
  Th  Th0  1  0.115792  0.615938  0.500000  1
  Th  Th1  1  0.884062  0.384208  0.500000  1
  Th  Th2  1  0.615113  0.884887  0.500000  1
  Sc  Sc3  1  0.384814  0.115186  0.500000  1
  Sc  Sc4  1  0.673103  0.174684  0.500000  1
  Sc  Sc5  1  0.325316  0.826897  0.500000  1
  Sc  Sc6  1  0.175519  0.324481  0.500000  1
  Sc  Sc7  1  0.825392  0.674608  0.500000  1
  Sc  Sc8  1  0.000990  0.000249  0.000000  1
  Sc  Sc9  1  0.499751  0.499010  0.000000  1
  Si  Si10  1  0.565216  0.069260  0.000000  1
  Si  Si11  1  0.430740  0.934784  0.000000  1
  Si  Si12  1  0.069148  0.430852  0.000000  1
  Si  Si13  1  0.931351  0.568649  0.000000  1
  Si  Si14  1  0.201685  0.165019  0.000000  1
  Si  Si15  1  0.801377  0.834190  0.000000  1
  Si  Si16  1  0.166740  0.802946  0.000000  1
  Si  Si17  1  0.697054  0.333260  0.000000  1
  Si  Si18  1  0.833595  0.198602  0.000000  1
  Si  Si19  1  0.301398  0.666405  0.000000  1
  Si  Si20  1  0.665810  0.698623  0.000000  1
  Si  Si21  1  0.334981  0.298315  0.000000  1
  Si  Si22  1  0.008425  0.150456  0.500000  1
  Si  Si23  1  0.992715  0.849855  0.500000  1
  Si  Si24  1  0.153651  0.994175  0.500000  1
  Si  Si25  1  0.505825  0.346349  0.500000  1
  Si  Si26  1  0.849073  0.008938  0.500000  1
  Si  Si27  1  0.491062  0.650927  0.500000  1
  Si  Si28  1  0.650145  0.507285  0.500000  1
  Si  Si29  1  0.349544  0.491575  0.500000  1
  Ir  Ir30  1  0.022262  0.241239  0.000000  1
  Ir  Ir31  1  0.978997  0.758576  0.000000  1
  Ir  Ir32  1  0.244755  0.980788  0.000000  1
  Ir  Ir33  1  0.519212  0.255245  0.000000  1
  Ir  Ir34  1  0.756537  0.021332  0.000000  1
  Ir  Ir35  1  0.478668  0.743463  0.000000  1
  Ir  Ir36  1  0.741424  0.521003  0.000000  1
  Ir  Ir37  1  0.258761  0.477738  0.000000  1
