# generated using pymatgen
data_Pr4TiCo16(TcP4)3
_symmetry_space_group_name_H-M   'P 1'
_cell_length_a   3.73831000
_cell_length_b   10.51903618
_cell_length_c   11.97524368
_cell_angle_alpha   89.92203285
_cell_angle_beta   90.00000000
_cell_angle_gamma   90.00000000
_symmetry_Int_Tables_number   1
_chemical_formula_structural   Pr4TiCo16(TcP4)3
_chemical_formula_sum   'Pr4 Ti1 Co16 Tc3 P12'
_cell_volume   470.90707862
_cell_formula_units_Z   1
loop_
 _symmetry_equiv_pos_site_id
 _symmetry_equiv_pos_as_xyz
  1  'x, y, z'
loop_
 _atom_site_type_symbol
 _atom_site_label
 _atom_site_symmetry_multiplicity
 _atom_site_fract_x
 _atom_site_fract_y
 _atom_site_fract_z
 _atom_site_occupancy
  Pr  Pr0  1  0.250000  0.583478  0.704268  1
  Pr  Pr1  1  0.250000  0.916578  0.203439  1
  Pr  Pr2  1  0.750000  0.417403  0.295157  1
  Pr  Pr3  1  0.750000  0.083744  0.798273  1
  Ti  Ti4  1  0.750000  0.201809  0.509402  1
  Co  Co5  1  0.250000  0.406960  0.490970  1
  Co  Co6  1  0.250000  0.093979  0.990369  1
  Co  Co7  1  0.750000  0.597164  0.509203  1
  Co  Co8  1  0.750000  0.904401  0.008245  1
  Co  Co9  1  0.250000  0.221060  0.172760  1
  Co  Co10  1  0.250000  0.278259  0.675970  1
  Co  Co11  1  0.750000  0.777943  0.824843  1
  Co  Co12  1  0.750000  0.722505  0.325282  1
  Co  Co13  1  0.250000  0.884416  0.700234  1
  Co  Co14  1  0.250000  0.615885  0.201615  1
  Co  Co15  1  0.750000  0.115468  0.299417  1
  Co  Co16  1  0.750000  0.386193  0.800103  1
  Co  Co17  1  0.250000  0.465686  0.933212  1
  Co  Co18  1  0.250000  0.033003  0.434134  1
  Co  Co19  1  0.750000  0.535015  0.067645  1
  Co  Co20  1  0.750000  0.964792  0.566700  1
  Tc  Tc21  1  0.250000  0.708187  0.989928  1
  Tc  Tc22  1  0.250000  0.794309  0.489345  1
  Tc  Tc23  1  0.750000  0.291713  0.010608  1
  P  P24  1  0.250000  0.420128  0.110064  1
  P  P25  1  0.250000  0.078733  0.613638  1
  P  P26  1  0.750000  0.579773  0.890209  1
  P  P27  1  0.750000  0.920390  0.388833  1
  P  P28  1  0.250000  0.276980  0.864690  1
  P  P29  1  0.250000  0.223740  0.360956  1
  P  P30  1  0.750000  0.724134  0.135399  1
  P  P31  1  0.750000  0.773876  0.634883  1
  P  P32  1  0.250000  0.602090  0.394045  1
  P  P33  1  0.250000  0.898128  0.893383  1
  P  P34  1  0.750000  0.402189  0.607957  1
  P  P35  1  0.750000  0.099884  0.104822  1
