# generated using pymatgen
data_Ga2Ni6Pt3W
_symmetry_space_group_name_H-M   'P 1'
_cell_length_a   3.75255000
_cell_length_b   3.70480000
_cell_length_c   11.25400300
_cell_angle_alpha   90.00000000
_cell_angle_beta   90.00000000
_cell_angle_gamma   90.00000000
_symmetry_Int_Tables_number   1
_chemical_formula_structural   Ga2Ni6Pt3W
_chemical_formula_sum   'Ga2 Ni6 Pt3 W1'
_cell_volume   156.45818295
_cell_formula_units_Z   1
loop_
 _symmetry_equiv_pos_site_id
 _symmetry_equiv_pos_as_xyz
  1  'x, y, z'
loop_
 _atom_site_type_symbol
 _atom_site_label
 _atom_site_symmetry_multiplicity
 _atom_site_fract_x
 _atom_site_fract_y
 _atom_site_fract_z
 _atom_site_occupancy
  Ga  Ga0  1  0.000000  0.000000  0.339746  1
  Ga  Ga1  1  0.000000  0.000000  0.660254  1
  Ni  Ni2  1  0.500000  0.500000  0.000000  1
  Ni  Ni3  1  0.500000  0.500000  0.332378  1
  Ni  Ni4  1  0.500000  0.500000  0.667622  1
  Ni  Ni5  1  0.000000  0.500000  0.160804  1
  Ni  Ni6  1  0.000000  0.500000  0.500000  1
  Ni  Ni7  1  0.000000  0.500000  0.839196  1
  Pt  Pt8  1  0.500000  0.000000  0.167070  1
  Pt  Pt9  1  0.500000  0.000000  0.500000  1
  Pt  Pt10  1  0.500000  0.000000  0.832930  1
  W  W11  1  0.000000  0.000000  0.000000  1
