# generated using pymatgen
data_TbScGa3Au
_symmetry_space_group_name_H-M   'P 1'
_cell_length_a   4.43168201
_cell_length_b   4.43164972
_cell_length_c   7.05292601
_cell_angle_alpha   89.99434952
_cell_angle_beta   90.00535757
_cell_angle_gamma   120.00618587
_symmetry_Int_Tables_number   1
_chemical_formula_structural   TbScGa3Au
_chemical_formula_sum   'Tb1 Sc1 Ga3 Au1'
_cell_volume   119.95183593
_cell_formula_units_Z   1
loop_
 _symmetry_equiv_pos_site_id
 _symmetry_equiv_pos_as_xyz
  1  'x, y, z'
loop_
 _atom_site_type_symbol
 _atom_site_label
 _atom_site_symmetry_multiplicity
 _atom_site_fract_x
 _atom_site_fract_y
 _atom_site_fract_z
 _atom_site_occupancy
  Tb  Tb0  1  0.000031  0.999970  0.252619  1
  Sc  Sc1  1  0.999993  0.000007  0.731375  1
  Ga  Ga2  1  0.333333  0.666665  0.483474  1
  Ga  Ga3  1  0.333346  0.666654  0.035188  1
  Ga  Ga4  1  0.666666  0.333335  0.945173  1
  Au  Au5  1  0.666631  0.333369  0.552169  1
