# generated using pymatgen
data_Er4Al12Ga6Ir5Pt
_symmetry_space_group_name_H-M   'P 1'
_cell_length_a   7.53345970
_cell_length_b   7.53345924
_cell_length_c   9.53633645
_cell_angle_alpha   89.96840140
_cell_angle_beta   89.96840291
_cell_angle_gamma   119.80816883
_symmetry_Int_Tables_number   1
_chemical_formula_structural   Er4Al12Ga6Ir5Pt
_chemical_formula_sum   'Er4 Al12 Ga6 Ir5 Pt1'
_cell_volume   469.60974820
_cell_formula_units_Z   1
loop_
 _symmetry_equiv_pos_site_id
 _symmetry_equiv_pos_as_xyz
  1  'x, y, z'
loop_
 _atom_site_type_symbol
 _atom_site_label
 _atom_site_symmetry_multiplicity
 _atom_site_fract_x
 _atom_site_fract_y
 _atom_site_fract_z
 _atom_site_occupancy
  Er  Er0  1  0.997438  0.669385  0.750741  1
  Er  Er1  1  0.002797  0.330627  0.249241  1
  Er  Er2  1  0.669373  0.997203  0.750759  1
  Er  Er3  1  0.330615  0.002562  0.249259  1
  Al  Al4  1  0.004191  0.334143  0.575037  1
  Al  Al5  1  0.001670  0.668837  0.425311  1
  Al  Al6  1  0.999150  0.665435  0.073028  1
  Al  Al7  1  0.334565  0.000850  0.926972  1
  Al  Al8  1  0.001062  0.334105  0.926409  1
  Al  Al9  1  0.665895  0.998938  0.073591  1
  Al  Al10  1  0.665857  0.995809  0.424963  1
  Al  Al11  1  0.331163  0.998330  0.574689  1
  Al  Al12  1  0.333454  0.333273  0.057643  1
  Al  Al13  1  0.666727  0.666546  0.942357  1
  Al  Al14  1  0.665893  0.668752  0.560064  1
  Al  Al15  1  0.331248  0.334107  0.439936  1
  Ga  Ga16  1  0.126917  0.126046  0.750233  1
  Ga  Ga17  1  0.873954  0.873083  0.249767  1
  Ga  Ga18  1  0.339622  0.548400  0.750542  1
  Ga  Ga19  1  0.660629  0.454337  0.247460  1
  Ga  Ga20  1  0.545663  0.339371  0.752540  1
  Ga  Ga21  1  0.451600  0.660378  0.249458  1
  Ir  Ir22  1  0.328292  0.671708  0.500000  1
  Ir  Ir23  1  0.328250  0.671750  0.000000  1
  Ir  Ir24  1  0.671921  0.328079  0.000000  1
  Ir  Ir25  1  0.000010  0.999990  0.500000  1
  Ir  Ir26  1  0.000106  0.999894  0.000000  1
  Pt  Pt27  1  0.671938  0.328062  0.500000  1
