# generated using pymatgen
data_Lu5ScReTe2
_symmetry_space_group_name_H-M   'P 1'
_cell_length_a   8.02501995
_cell_length_b   8.10984299
_cell_length_c   4.06601300
_cell_angle_alpha   90.00000000
_cell_angle_beta   90.00000000
_cell_angle_gamma   120.35025765
_symmetry_Int_Tables_number   1
_chemical_formula_structural   Lu5ScReTe2
_chemical_formula_sum   'Lu5 Sc1 Re1 Te2'
_cell_volume   228.35698709
_cell_formula_units_Z   1
loop_
 _symmetry_equiv_pos_site_id
 _symmetry_equiv_pos_as_xyz
  1  'x, y, z'
loop_
 _atom_site_type_symbol
 _atom_site_label
 _atom_site_symmetry_multiplicity
 _atom_site_fract_x
 _atom_site_fract_y
 _atom_site_fract_z
 _atom_site_occupancy
  Lu  Lu0  1  0.236200  0.998321  0.500000  1
  Lu  Lu1  1  0.763800  0.762122  0.500000  1
  Lu  Lu2  1  0.621845  0.002548  0.000000  1
  Lu  Lu3  1  0.378155  0.380703  0.000000  1
  Lu  Lu4  1  0.000000  0.610082  0.000000  1
  Sc  Sc5  1  0.000000  0.235451  0.500000  1
  Re  Re6  1  0.000000  0.014668  0.000000  1
  Te  Te7  1  0.328090  0.662098  0.500000  1
  Te  Te8  1  0.671910  0.334008  0.500000  1
