# generated using pymatgen
data_NdHoPa2(Al3Co)6
_symmetry_space_group_name_H-M   'P 1'
_cell_length_a   7.43953906
_cell_length_b   7.43089435
_cell_length_c   9.24885100
_cell_angle_alpha   90.00000000
_cell_angle_beta   90.00000000
_cell_angle_gamma   119.18594289
_symmetry_Int_Tables_number   1
_chemical_formula_structural   NdHoPa2(Al3Co)6
_chemical_formula_sum   'Nd1 Ho1 Pa2 Al18 Co6'
_cell_volume   446.38532389
_cell_formula_units_Z   1
loop_
 _symmetry_equiv_pos_site_id
 _symmetry_equiv_pos_as_xyz
  1  'x, y, z'
loop_
 _atom_site_type_symbol
 _atom_site_label
 _atom_site_symmetry_multiplicity
 _atom_site_fract_x
 _atom_site_fract_y
 _atom_site_fract_z
 _atom_site_occupancy
  Nd  Nd0  1  0.672172  0.994140  0.250000  1
  Ho  Ho1  1  0.993781  0.672513  0.250000  1
  Pa  Pa2  1  0.006742  0.323695  0.750000  1
  Pa  Pa3  1  0.323723  0.006297  0.750000  1
  Al  Al4  1  0.662157  0.998132  0.926688  1
  Al  Al5  1  0.998857  0.662706  0.570906  1
  Al  Al6  1  0.126116  0.124031  0.250000  1
  Al  Al7  1  0.670084  0.667829  0.045584  1
  Al  Al8  1  0.337107  0.336946  0.541315  1
  Al  Al9  1  0.337107  0.336946  0.958685  1
  Al  Al10  1  0.670084  0.667829  0.454416  1
  Al  Al11  1  0.332673  0.996987  0.073303  1
  Al  Al12  1  0.999822  0.338265  0.426594  1
  Al  Al13  1  0.337574  0.554803  0.250000  1
  Al  Al14  1  0.999822  0.338265  0.073406  1
  Al  Al15  1  0.557610  0.344543  0.250000  1
  Al  Al16  1  0.659430  0.447078  0.750000  1
  Al  Al17  1  0.867599  0.866262  0.750000  1
  Al  Al18  1  0.998857  0.662706  0.929094  1
  Al  Al19  1  0.662157  0.998132  0.573312  1
  Al  Al20  1  0.332673  0.996987  0.426697  1
  Al  Al21  1  0.446941  0.657876  0.750000  1
  Co  Co22  1  0.671112  0.326722  0.505519  1
  Co  Co23  1  0.671112  0.326722  0.994481  1
  Co  Co24  1  0.325227  0.670356  0.505702  1
  Co  Co25  1  0.007119  0.006439  0.989916  1
  Co  Co26  1  0.007119  0.006439  0.510084  1
  Co  Co27  1  0.325227  0.670356  0.994298  1
