# generated using pymatgen
data_Ba4Ir3WO16
_symmetry_space_group_name_H-M   'P 1'
_cell_length_a   5.24528710
_cell_length_b   5.94906395
_cell_length_c   13.45487700
_cell_angle_alpha   90.00000000
_cell_angle_beta   90.00000000
_cell_angle_gamma   90.29092550
_symmetry_Int_Tables_number   1
_chemical_formula_structural   Ba4Ir3WO16
_chemical_formula_sum   'Ba4 Ir3 W1 O16'
_cell_volume   419.84794826
_cell_formula_units_Z   1
loop_
 _symmetry_equiv_pos_site_id
 _symmetry_equiv_pos_as_xyz
  1  'x, y, z'
loop_
 _atom_site_type_symbol
 _atom_site_label
 _atom_site_symmetry_multiplicity
 _atom_site_fract_x
 _atom_site_fract_y
 _atom_site_fract_z
 _atom_site_occupancy
  Ba  Ba0  1  0.250000  0.000000  0.160285  1
  Ba  Ba1  1  0.750000  0.000000  0.839732  1
  Ba  Ba2  1  0.250000  0.500000  0.657442  1
  Ba  Ba3  1  0.750000  0.500000  0.340042  1
  Ir  Ir4  1  0.250000  0.000000  0.434482  1
  Ir  Ir5  1  0.750000  0.000000  0.564848  1
  Ir  Ir6  1  0.750000  0.500000  0.067502  1
  W  W7  1  0.250000  0.500000  0.930445  1
  O  O8  1  0.359076  0.206926  0.337507  1
  O  O9  1  0.857376  0.207487  0.661892  1
  O  O10  1  0.937109  0.171702  0.456961  1
  O  O11  1  0.437113  0.171409  0.542273  1
  O  O12  1  0.435635  0.324724  0.044632  1
  O  O13  1  0.936867  0.324523  0.958297  1
  O  O14  1  0.865390  0.297655  0.163926  1
  O  O15  1  0.349068  0.290180  0.837124  1
  O  O16  1  0.634610  0.702345  0.163926  1
  O  O17  1  0.150932  0.709820  0.837124  1
  O  O18  1  0.064365  0.675276  0.044632  1
  O  O19  1  0.563133  0.675477  0.958297  1
  O  O20  1  0.562891  0.828298  0.456961  1
  O  O21  1  0.062887  0.828591  0.542273  1
  O  O22  1  0.140924  0.793074  0.337507  1
  O  O23  1  0.642624  0.792513  0.661892  1
