# generated using pymatgen
data_Sr3Ir2PdRhPbO14
_symmetry_space_group_name_H-M   'P 1'
_cell_length_a   7.43071849
_cell_length_b   7.41749355
_cell_length_c   7.38537100
_cell_angle_alpha   59.83473562
_cell_angle_beta   59.79667770
_cell_angle_gamma   59.94100840
_symmetry_Int_Tables_number   1
_chemical_formula_structural   Sr3Ir2PdRhPbO14
_chemical_formula_sum   'Sr3 Ir2 Pd1 Rh1 Pb1 O14'
_cell_volume   286.90419480
_cell_formula_units_Z   1
loop_
 _symmetry_equiv_pos_site_id
 _symmetry_equiv_pos_as_xyz
  1  'x, y, z'
loop_
 _atom_site_type_symbol
 _atom_site_label
 _atom_site_symmetry_multiplicity
 _atom_site_fract_x
 _atom_site_fract_y
 _atom_site_fract_z
 _atom_site_occupancy
  Sr  Sr0  1  0.625000  0.125000  0.125000  1
  Sr  Sr1  1  0.125000  0.625000  0.125000  1
  Sr  Sr2  1  0.125000  0.125000  0.125000  1
  Ir  Ir3  1  0.125000  0.625000  0.625000  1
  Ir  Ir4  1  0.625000  0.625000  0.625000  1
  Pd  Pd5  1  0.625000  0.625000  0.125000  1
  Rh  Rh6  1  0.625000  0.125000  0.625000  1
  Pb  Pb7  1  0.125000  0.125000  0.625000  1
  O  O8  1  0.704911  0.699233  0.306991  1
  O  O9  1  0.300422  0.306768  0.676239  1
  O  O10  1  0.716572  0.306768  0.676239  1
  O  O11  1  0.288866  0.699233  0.306991  1
  O  O12  1  0.305479  0.713024  0.676018  1
  O  O13  1  0.704988  0.290236  0.299787  1
  O  O14  1  0.545089  0.550767  0.943009  1
  O  O15  1  0.949578  0.943232  0.573761  1
  O  O16  1  0.533428  0.943232  0.573761  1
  O  O17  1  0.961134  0.550767  0.943009  1
  O  O18  1  0.944521  0.536976  0.573982  1
  O  O19  1  0.545012  0.959764  0.950213  1
  O  O20  1  0.237392  0.238371  0.286844  1
  O  O21  1  0.012608  0.011629  0.963156  1
