# generated using pymatgen
data_Dy17Ho3CoBi8Rh3
_symmetry_space_group_name_H-M   'P 1'
_cell_length_a   8.02040815
_cell_length_b   8.97376918
_cell_length_c   12.44669768
_cell_angle_alpha   90.01861212
_cell_angle_beta   89.81886213
_cell_angle_gamma   89.98647537
_symmetry_Int_Tables_number   1
_chemical_formula_structural   Dy17Ho3CoBi8Rh3
_chemical_formula_sum   'Dy17 Ho3 Co1 Bi8 Rh3'
_cell_volume   895.82525125
_cell_formula_units_Z   1
loop_
 _symmetry_equiv_pos_site_id
 _symmetry_equiv_pos_as_xyz
  1  'x, y, z'
loop_
 _atom_site_type_symbol
 _atom_site_label
 _atom_site_symmetry_multiplicity
 _atom_site_fract_x
 _atom_site_fract_y
 _atom_site_fract_z
 _atom_site_occupancy
  Dy  Dy0  1  0.345549  0.750076  0.699768  1
  Dy  Dy1  1  0.657815  0.249962  0.294007  1
  Dy  Dy2  1  0.842621  0.249922  0.793920  1
  Dy  Dy3  1  0.157370  0.750068  0.205652  1
  Dy  Dy4  1  0.879614  0.750114  0.806105  1
  Dy  Dy5  1  0.120898  0.249896  0.193453  1
  Dy  Dy6  1  0.379091  0.249957  0.693663  1
  Dy  Dy7  1  0.615002  0.750072  0.311512  1
  Dy  Dy8  1  0.676886  0.545164  0.564167  1
  Dy  Dy9  1  0.323722  0.465511  0.436454  1
  Dy  Dy10  1  0.178117  0.457544  0.934207  1
  Dy  Dy11  1  0.323871  0.034498  0.436490  1
  Dy  Dy12  1  0.821384  0.541650  0.065688  1
  Dy  Dy13  1  0.051371  0.750071  0.498892  1
  Dy  Dy14  1  0.950026  0.249937  0.501338  1
  Dy  Dy15  1  0.547566  0.249888  0.000789  1
  Dy  Dy16  1  0.451037  0.750119  0.998270  1
  Ho  Ho17  1  0.676465  0.954828  0.564108  1
  Ho  Ho18  1  0.821966  0.958295  0.065584  1
  Ho  Ho19  1  0.177528  0.042537  0.934322  1
  Co  Co20  1  0.432687  0.750142  0.491719  1
  Bi  Bi21  1  0.571142  0.509850  0.826125  1
  Bi  Bi22  1  0.428956  0.491030  0.173785  1
  Bi  Bi23  1  0.071905  0.490588  0.672803  1
  Bi  Bi24  1  0.429113  0.008951  0.173731  1
  Bi  Bi25  1  0.928389  0.510063  0.327374  1
  Bi  Bi26  1  0.571001  0.990142  0.826102  1
  Bi  Bi27  1  0.928371  0.989927  0.327337  1
  Bi  Bi28  1  0.071812  0.009392  0.672806  1
  Rh  Rh29  1  0.070216  0.750392  0.990570  1
  Rh  Rh30  1  0.928594  0.249610  0.010009  1
  Rh  Rh31  1  0.569915  0.249805  0.509250  1
