# generated using pymatgen
data_Pu3(CdSb3)2
_symmetry_space_group_name_H-M   'P 1'
_cell_length_a   4.33757600
_cell_length_b   10.53058000
_cell_length_c   13.32167800
_cell_angle_alpha   90.00000000
_cell_angle_beta   90.00000000
_cell_angle_gamma   90.00000000
_symmetry_Int_Tables_number   1
_chemical_formula_structural   Pu3(CdSb3)2
_chemical_formula_sum   'Pu6 Cd4 Sb12'
_cell_volume   608.49683143
_cell_formula_units_Z   2
loop_
 _symmetry_equiv_pos_site_id
 _symmetry_equiv_pos_as_xyz
  1  'x, y, z'
loop_
 _atom_site_type_symbol
 _atom_site_label
 _atom_site_symmetry_multiplicity
 _atom_site_fract_x
 _atom_site_fract_y
 _atom_site_fract_z
 _atom_site_occupancy
  Pu  Pu0  1  0.750000  0.264542  0.750000  1
  Pu  Pu1  1  0.750000  0.269103  0.413675  1
  Pu  Pu2  1  0.250000  0.730897  0.913675  1
  Pu  Pu3  1  0.250000  0.730897  0.586325  1
  Pu  Pu4  1  0.250000  0.735458  0.250000  1
  Pu  Pu5  1  0.750000  0.269103  0.086325  1
  Cd  Cd6  1  0.250000  0.001771  0.093409  1
  Cd  Cd7  1  0.250000  0.001771  0.406591  1
  Cd  Cd8  1  0.750000  0.998229  0.593409  1
  Cd  Cd9  1  0.750000  0.998229  0.906591  1
  Sb  Sb10  1  0.750000  0.505687  0.250000  1
  Sb  Sb11  1  0.750000  0.498213  0.916545  1
  Sb  Sb12  1  0.750000  0.806686  0.750000  1
  Sb  Sb13  1  0.750000  0.809500  0.416480  1
  Sb  Sb14  1  0.250000  0.190500  0.916480  1
  Sb  Sb15  1  0.250000  0.190500  0.583520  1
  Sb  Sb16  1  0.250000  0.193314  0.250000  1
  Sb  Sb17  1  0.250000  0.501787  0.083455  1
  Sb  Sb18  1  0.250000  0.494313  0.750000  1
  Sb  Sb19  1  0.250000  0.501787  0.416545  1
  Sb  Sb20  1  0.750000  0.498213  0.583455  1
  Sb  Sb21  1  0.750000  0.809500  0.083520  1
