# generated using pymatgen
data_Li5Zn3(SiPt3)2
_symmetry_space_group_name_H-M   'P 1'
_cell_length_a   6.87290218
_cell_length_b   6.79876804
_cell_length_c   6.80881289
_cell_angle_alpha   61.78217366
_cell_angle_beta   61.03087885
_cell_angle_gamma   61.01003929
_symmetry_Int_Tables_number   1
_chemical_formula_structural   Li5Zn3(SiPt3)2
_chemical_formula_sum   'Li5 Zn3 Si2 Pt6'
_cell_volume   231.39040824
_cell_formula_units_Z   1
loop_
 _symmetry_equiv_pos_site_id
 _symmetry_equiv_pos_as_xyz
  1  'x, y, z'
loop_
 _atom_site_type_symbol
 _atom_site_label
 _atom_site_symmetry_multiplicity
 _atom_site_fract_x
 _atom_site_fract_y
 _atom_site_fract_z
 _atom_site_occupancy
  Li  Li0  1  0.347892  0.557796  0.839304  1
  Li  Li1  1  0.837744  0.347129  0.560543  1
  Li  Li2  1  0.654936  0.159476  0.440392  1
  Li  Li3  1  0.160836  0.438888  0.655077  1
  Li  Li4  1  0.438761  0.653575  0.160393  1
  Zn  Zn5  1  0.277961  0.288294  0.275304  1
  Zn  Zn6  1  0.723977  0.720168  0.721515  1
  Zn  Zn7  1  0.555446  0.829981  0.358675  1
  Si  Si8  1  0.904805  0.903951  0.895777  1
  Si  Si9  1  0.096645  0.101376  0.094713  1
  Pt  Pt10  1  0.890626  0.503598  0.106325  1
  Pt  Pt11  1  0.110438  0.894536  0.494782  1
  Pt  Pt12  1  0.500458  0.098523  0.900745  1
  Pt  Pt13  1  0.272567  0.998395  0.728080  1
  Pt  Pt14  1  0.729766  0.270646  0.999784  1
  Pt  Pt15  1  0.997141  0.733668  0.268592  1
