# generated using pymatgen
data_Tb5(TcO6)2
_symmetry_space_group_name_H-M   'P 1'
_cell_length_a   5.68481100
_cell_length_b   6.86277508
_cell_length_c   7.58240224
_cell_angle_alpha   106.27795945
_cell_angle_beta   90.00000000
_cell_angle_gamma   114.46752100
_symmetry_Int_Tables_number   1
_chemical_formula_structural   Tb5(TcO6)2
_chemical_formula_sum   'Tb5 Tc2 O12'
_cell_volume   256.16602377
_cell_formula_units_Z   1
loop_
 _symmetry_equiv_pos_site_id
 _symmetry_equiv_pos_as_xyz
  1  'x, y, z'
loop_
 _atom_site_type_symbol
 _atom_site_label
 _atom_site_symmetry_multiplicity
 _atom_site_fract_x
 _atom_site_fract_y
 _atom_site_fract_z
 _atom_site_occupancy
  Tb  Tb0  1  0.315598  0.631197  0.174843  1
  Tb  Tb1  1  0.694700  0.389399  0.357303  1
  Tb  Tb2  1  0.000000  0.000000  0.500000  1
  Tb  Tb3  1  0.305300  0.610601  0.642699  1
  Tb  Tb4  1  0.684403  0.368802  0.825157  1
  Tc  Tc5  1  0.213855  0.000000  0.000000  1
  Tc  Tc6  1  0.786146  0.000000  0.000000  1
  O  O7  1  0.413845  0.327527  0.082675  1
  O  O8  1  0.913680  0.327527  0.082675  1
  O  O9  1  0.501425  0.002848  0.176635  1
  O  O10  1  0.999582  0.999165  0.203827  1
  O  O11  1  0.097298  0.691061  0.425084  1
  O  O12  1  0.593764  0.691061  0.425084  1
  O  O13  1  0.406237  0.308938  0.574916  1
  O  O14  1  0.902701  0.308938  0.574916  1
  O  O15  1  0.000419  0.000836  0.796173  1
  O  O16  1  0.498575  0.997151  0.823364  1
  O  O17  1  0.086319  0.672473  0.917325  1
  O  O18  1  0.586155  0.672473  0.917325  1
