# generated using pymatgen
data_Tb3Dy5(CdIr)2
_symmetry_space_group_name_H-M   'P 1'
_cell_length_a   9.65092866
_cell_length_b   9.65092957
_cell_length_c   9.65092900
_cell_angle_alpha   59.99999852
_cell_angle_beta   59.99999540
_cell_angle_gamma   60.00000005
_symmetry_Int_Tables_number   1
_chemical_formula_structural   Tb3Dy5(CdIr)2
_chemical_formula_sum   'Tb6 Dy10 Cd4 Ir4'
_cell_volume   635.61238995
_cell_formula_units_Z   2
loop_
 _symmetry_equiv_pos_site_id
 _symmetry_equiv_pos_as_xyz
  1  'x, y, z'
loop_
 _atom_site_type_symbol
 _atom_site_label
 _atom_site_symmetry_multiplicity
 _atom_site_fract_x
 _atom_site_fract_y
 _atom_site_fract_z
 _atom_site_occupancy
  Tb  Tb0  1  0.188027  0.811973  0.811973  1
  Tb  Tb1  1  0.811973  0.188027  0.188027  1
  Tb  Tb2  1  0.811973  0.188027  0.811973  1
  Tb  Tb3  1  0.188027  0.811973  0.188027  1
  Tb  Tb4  1  0.811973  0.811973  0.188027  1
  Tb  Tb5  1  0.188027  0.188027  0.811973  1
  Dy  Dy6  1  0.598800  0.598800  0.598800  1
  Dy  Dy7  1  0.598800  0.598800  0.203601  1
  Dy  Dy8  1  0.598800  0.203601  0.598800  1
  Dy  Dy9  1  0.203601  0.598800  0.598800  1
  Dy  Dy10  1  0.060697  0.439303  0.439303  1
  Dy  Dy11  1  0.439303  0.060697  0.060697  1
  Dy  Dy12  1  0.439303  0.060697  0.439303  1
  Dy  Dy13  1  0.060697  0.439303  0.060697  1
  Dy  Dy14  1  0.439303  0.439303  0.060697  1
  Dy  Dy15  1  0.060697  0.060697  0.439303  1
  Cd  Cd16  1  0.830993  0.830993  0.830993  1
  Cd  Cd17  1  0.830993  0.830993  0.507022  1
  Cd  Cd18  1  0.830993  0.507022  0.830993  1
  Cd  Cd19  1  0.507022  0.830993  0.830993  1
  Ir  Ir20  1  0.391672  0.391672  0.391672  1
  Ir  Ir21  1  0.391672  0.391672  0.824985  1
  Ir  Ir22  1  0.391672  0.824985  0.391672  1
  Ir  Ir23  1  0.824985  0.391672  0.391672  1
