# generated using pymatgen
data_ScTa5Re5Si6W
_symmetry_space_group_name_H-M   'P 1'
_cell_length_a   7.66339913
_cell_length_b   7.62185000
_cell_length_c   7.66436074
_cell_angle_alpha   126.23072697
_cell_angle_beta   128.39284261
_cell_angle_gamma   77.87807711
_symmetry_Int_Tables_number   1
_chemical_formula_structural   ScTa5Re5Si6W
_chemical_formula_sum   'Sc1 Ta5 Re5 Si6 W1'
_cell_volume   274.15358362
_cell_formula_units_Z   1
loop_
 _symmetry_equiv_pos_site_id
 _symmetry_equiv_pos_as_xyz
  1  'x, y, z'
loop_
 _atom_site_type_symbol
 _atom_site_label
 _atom_site_symmetry_multiplicity
 _atom_site_fract_x
 _atom_site_fract_y
 _atom_site_fract_z
 _atom_site_occupancy
  Sc  Sc0  1  0.548646  0.093121  0.043820  1
  Ta  Ta1  1  0.450839  0.490731  0.542256  1
  Ta  Ta2  1  0.946805  0.491662  0.042668  1
  Ta  Ta3  1  0.054282  0.097372  0.545988  1
  Ta  Ta4  1  0.746574  0.900379  0.651165  1
  Ta  Ta5  1  0.250508  0.898608  0.149997  1
  Re  Re6  1  0.002675  0.242498  0.242912  1
  Re  Re7  1  0.119532  0.753803  0.616944  1
  Re  Re8  1  0.878941  0.499263  0.633782  1
  Re  Re9  1  0.637379  0.755536  0.135306  1
  Re  Re10  1  0.365068  0.499342  0.120514  1
  Si  Si11  1  0.747229  0.496326  0.249484  1
  Si  Si12  1  0.253914  0.505253  0.750151  1
  Si  Si13  1  0.331151  0.825404  0.493342  1
  Si  Si14  1  0.669268  0.161392  0.495841  1
  Si  Si15  1  0.833308  0.828098  0.996290  1
  Si  Si16  1  0.164930  0.162277  0.994465  1
  W  W17  1  0.498953  0.241134  0.737275  1
