# generated using pymatgen
data_Hf2FeAs2Rh
_symmetry_space_group_name_H-M   'P 1'
_cell_length_a   3.91782300
_cell_length_b   6.49621773
_cell_length_c   7.44060349
_cell_angle_alpha   91.08498849
_cell_angle_beta   90.00000000
_cell_angle_gamma   90.00000000
_symmetry_Int_Tables_number   1
_chemical_formula_structural   Hf2FeAs2Rh
_chemical_formula_sum   'Hf4 Fe2 As4 Rh2'
_cell_volume   189.33707892
_cell_formula_units_Z   2
loop_
 _symmetry_equiv_pos_site_id
 _symmetry_equiv_pos_as_xyz
  1  'x, y, z'
loop_
 _atom_site_type_symbol
 _atom_site_label
 _atom_site_symmetry_multiplicity
 _atom_site_fract_x
 _atom_site_fract_y
 _atom_site_fract_z
 _atom_site_occupancy
  Hf  Hf0  1  0.250000  0.473338  0.187986  1
  Hf  Hf1  1  0.750000  0.526662  0.812014  1
  Hf  Hf2  1  0.750000  0.019209  0.682040  1
  Hf  Hf3  1  0.250000  0.980791  0.317960  1
  Fe  Fe4  1  0.750000  0.646868  0.442092  1
  Fe  Fe5  1  0.250000  0.353132  0.557908  1
  As  As6  1  0.250000  0.722809  0.606030  1
  As  As7  1  0.750000  0.277191  0.393970  1
  As  As8  1  0.750000  0.756168  0.133983  1
  As  As9  1  0.250000  0.243832  0.866017  1
  Rh  Rh10  1  0.250000  0.850806  0.931979  1
  Rh  Rh11  1  0.750000  0.149194  0.068021  1
