# generated using pymatgen
data_Y4Bi5AsRh7
_symmetry_space_group_name_H-M   'P 1'
_cell_length_a   7.73857169
_cell_length_b   7.73857168
_cell_length_c   7.73857181
_cell_angle_alpha   110.90908850
_cell_angle_beta   106.63223769
_cell_angle_gamma   110.90909673
_symmetry_Int_Tables_number   1
_chemical_formula_structural   Y4Bi5AsRh7
_chemical_formula_sum   'Y4 Bi5 As1 Rh7'
_cell_volume   356.09438692
_cell_formula_units_Z   1
loop_
 _symmetry_equiv_pos_site_id
 _symmetry_equiv_pos_as_xyz
  1  'x, y, z'
loop_
 _atom_site_type_symbol
 _atom_site_label
 _atom_site_symmetry_multiplicity
 _atom_site_fract_x
 _atom_site_fract_y
 _atom_site_fract_z
 _atom_site_occupancy
  Y  Y0  1  0.013045  0.000000  0.468206  1
  Y  Y1  1  0.468206  0.000000  0.013045  1
  Y  Y2  1  0.013045  0.544839  0.013045  1
  Y  Y3  1  0.468206  0.455161  0.468206  1
  Bi  Bi4  1  0.671627  0.688632  0.982995  1
  Bi  Bi5  1  0.294362  0.311368  0.982995  1
  Bi  Bi6  1  0.982995  0.688632  0.671627  1
  Bi  Bi7  1  0.982995  0.311368  0.294362  1
  Bi  Bi8  1  0.701818  0.000000  0.701818  1
  As  As9  1  0.357579  0.000000  0.357579  1
  Rh  Rh10  1  0.089326  0.000000  0.089326  1
  Rh  Rh11  1  0.237044  0.500000  0.737044  1
  Rh  Rh12  1  0.740006  0.244330  0.495677  1
  Rh  Rh13  1  0.495677  0.244330  0.740006  1
  Rh  Rh14  1  0.495677  0.755670  0.251347  1
  Rh  Rh15  1  0.737044  0.500000  0.237044  1
  Rh  Rh16  1  0.251347  0.755670  0.495677  1
