# generated using pymatgen
data_Eu2Er3(SnSb)2
_symmetry_space_group_name_H-M   'P 1'
_cell_length_a   8.26909800
_cell_length_b   8.31322700
_cell_length_c   15.76697500
_cell_angle_alpha   90.00000000
_cell_angle_beta   90.00000000
_cell_angle_gamma   90.00000000
_symmetry_Int_Tables_number   1
_chemical_formula_structural   Eu2Er3(SnSb)2
_chemical_formula_sum   'Eu8 Er12 Sn8 Sb8'
_cell_volume   1083.86740849
_cell_formula_units_Z   4
loop_
 _symmetry_equiv_pos_site_id
 _symmetry_equiv_pos_as_xyz
  1  'x, y, z'
loop_
 _atom_site_type_symbol
 _atom_site_label
 _atom_site_symmetry_multiplicity
 _atom_site_fract_x
 _atom_site_fract_y
 _atom_site_fract_z
 _atom_site_occupancy
  Eu  Eu0  1  0.547810  0.326994  0.897039  1
  Eu  Eu1  1  0.047810  0.173006  0.602961  1
  Eu  Eu2  1  0.452190  0.673006  0.397039  1
  Eu  Eu3  1  0.952190  0.826994  0.102961  1
  Eu  Eu4  1  0.452190  0.673006  0.102961  1
  Eu  Eu5  1  0.952190  0.826994  0.397039  1
  Eu  Eu6  1  0.547810  0.326994  0.602961  1
  Eu  Eu7  1  0.047810  0.173006  0.897039  1
  Er  Er8  1  0.387457  0.840943  0.881142  1
  Er  Er9  1  0.887457  0.659057  0.618858  1
  Er  Er10  1  0.612543  0.159057  0.381142  1
  Er  Er11  1  0.112543  0.340943  0.118858  1
  Er  Er12  1  0.612543  0.159057  0.118858  1
  Er  Er13  1  0.112543  0.340943  0.381142  1
  Er  Er14  1  0.387457  0.840943  0.618858  1
  Er  Er15  1  0.887457  0.659057  0.881142  1
  Er  Er16  1  0.223229  0.498945  0.750000  1
  Er  Er17  1  0.723229  0.001055  0.750000  1
  Er  Er18  1  0.776771  0.501055  0.250000  1
  Er  Er19  1  0.276771  0.998945  0.250000  1
  Sn  Sn20  1  0.590126  0.636666  0.750000  1
  Sn  Sn21  1  0.090126  0.863334  0.750000  1
  Sn  Sn22  1  0.409874  0.363334  0.250000  1
  Sn  Sn23  1  0.909874  0.136666  0.250000  1
  Sn  Sn24  1  0.353960  0.131457  0.750000  1
  Sn  Sn25  1  0.853960  0.368543  0.750000  1
  Sn  Sn26  1  0.646040  0.868543  0.250000  1
  Sn  Sn27  1  0.146040  0.631457  0.250000  1
  Sb  Sb28  1  0.280550  0.032413  0.047964  1
  Sb  Sb29  1  0.780550  0.467587  0.452036  1
  Sb  Sb30  1  0.719450  0.967587  0.547964  1
  Sb  Sb31  1  0.219450  0.532413  0.952036  1
  Sb  Sb32  1  0.719450  0.967587  0.952036  1
  Sb  Sb33  1  0.219450  0.532413  0.547964  1
  Sb  Sb34  1  0.280550  0.032413  0.452036  1
  Sb  Sb35  1  0.780550  0.467587  0.047964  1
