# generated using pymatgen
data_Er3Tm2Ru2C7
_symmetry_space_group_name_H-M   'P 1'
_cell_length_a   8.08619449
_cell_length_b   8.09964804
_cell_length_c   3.47471500
_cell_angle_alpha   90.00000000
_cell_angle_beta   90.00000000
_cell_angle_gamma   121.56337232
_symmetry_Int_Tables_number   1
_chemical_formula_structural   Er3Tm2Ru2C7
_chemical_formula_sum   'Er3 Tm2 Ru2 C7'
_cell_volume   193.91016644
_cell_formula_units_Z   1
loop_
 _symmetry_equiv_pos_site_id
 _symmetry_equiv_pos_as_xyz
  1  'x, y, z'
loop_
 _atom_site_type_symbol
 _atom_site_label
 _atom_site_symmetry_multiplicity
 _atom_site_fract_x
 _atom_site_fract_y
 _atom_site_fract_z
 _atom_site_occupancy
  Er  Er0  1  0.500000  0.500000  0.000000  1
  Er  Er1  1  0.661581  0.921999  0.500000  1
  Er  Er2  1  0.338419  0.078001  0.500000  1
  Tm  Tm3  1  0.078328  0.340471  0.500000  1
  Tm  Tm4  1  0.921672  0.659529  0.500000  1
  Ru  Ru5  1  0.713422  0.286522  0.000000  1
  Ru  Ru6  1  0.286578  0.713478  0.000000  1
  C  C7  1  0.628349  0.371745  0.500000  1
  C  C8  1  0.371651  0.628255  0.500000  1
  C  C9  1  0.000000  0.000000  0.000000  1
  C  C10  1  0.170897  0.173092  0.000000  1
  C  C11  1  0.829103  0.826908  0.000000  1
  C  C12  1  0.000000  0.500000  0.000000  1
  C  C13  1  0.500000  0.000000  0.000000  1
