# generated using pymatgen
data_Ce3Er(InNi2)2
_symmetry_space_group_name_H-M   'P 1'
_cell_length_a   7.48183160
_cell_length_b   7.48183160
_cell_length_c   3.62672900
_cell_angle_alpha   90.00000000
_cell_angle_beta   90.00000000
_cell_angle_gamma   91.16038886
_symmetry_Int_Tables_number   1
_chemical_formula_structural   Ce3Er(InNi2)2
_chemical_formula_sum   'Ce3 Er1 In2 Ni4'
_cell_volume   202.97469135
_cell_formula_units_Z   1
loop_
 _symmetry_equiv_pos_site_id
 _symmetry_equiv_pos_as_xyz
  1  'x, y, z'
loop_
 _atom_site_type_symbol
 _atom_site_label
 _atom_site_symmetry_multiplicity
 _atom_site_fract_x
 _atom_site_fract_y
 _atom_site_fract_z
 _atom_site_occupancy
  Ce  Ce0  1  0.674286  0.171978  0.500000  1
  Ce  Ce1  1  0.328022  0.825714  0.500000  1
  Ce  Ce2  1  0.171330  0.328670  0.500000  1
  Er  Er3  1  0.827176  0.672824  0.500000  1
  In  In4  1  0.505366  0.502256  0.000000  1
  In  In5  1  0.997744  0.994634  0.000000  1
  Ni  Ni6  1  0.129789  0.622259  0.000000  1
  Ni  Ni7  1  0.877741  0.370211  0.000000  1
  Ni  Ni8  1  0.617276  0.882724  0.000000  1
  Ni  Ni9  1  0.371269  0.128731  0.000000  1
