# generated using pymatgen
data_CaLa5Rh18
_symmetry_space_group_name_H-M   'P 1'
_cell_length_a   5.35886100
_cell_length_b   5.35886096
_cell_length_c   17.79737700
_cell_angle_alpha   90.00000000
_cell_angle_beta   90.00000000
_cell_angle_gamma   119.99999409
_symmetry_Int_Tables_number   1
_chemical_formula_structural   CaLa5Rh18
_chemical_formula_sum   'Ca1 La5 Rh18'
_cell_volume   442.62061655
_cell_formula_units_Z   1
loop_
 _symmetry_equiv_pos_site_id
 _symmetry_equiv_pos_as_xyz
  1  'x, y, z'
loop_
 _atom_site_type_symbol
 _atom_site_label
 _atom_site_symmetry_multiplicity
 _atom_site_fract_x
 _atom_site_fract_y
 _atom_site_fract_z
 _atom_site_occupancy
  Ca  Ca0  1  0.333333  0.666667  0.541960  1
  La  La1  1  0.666667  0.333333  0.043413  1
  La  La2  1  0.666667  0.333333  0.460351  1
  La  La3  1  0.333333  0.666667  0.955907  1
  La  La4  1  0.333333  0.666667  0.745765  1
  La  La5  1  0.666667  0.333333  0.251575  1
  Rh  Rh6  1  0.166613  0.333225  0.128257  1
  Rh  Rh7  1  0.833547  0.667094  0.626631  1
  Rh  Rh8  1  0.666775  0.833387  0.128257  1
  Rh  Rh9  1  0.166613  0.833387  0.128257  1
  Rh  Rh10  1  0.833547  0.166453  0.626631  1
  Rh  Rh11  1  0.332906  0.166453  0.626631  1
  Rh  Rh12  1  0.833405  0.666810  0.871744  1
  Rh  Rh13  1  0.833405  0.166595  0.871744  1
  Rh  Rh14  1  0.333190  0.166595  0.871744  1
  Rh  Rh15  1  0.666575  0.833287  0.373378  1
  Rh  Rh16  1  0.166713  0.833287  0.373378  1
  Rh  Rh17  1  0.166713  0.333425  0.373378  1
  Rh  Rh18  1  0.000000  0.000000  0.251031  1
  Rh  Rh19  1  0.000000  0.000000  0.749040  1
  Rh  Rh20  1  0.333333  0.666667  0.250755  1
  Rh  Rh21  1  0.666667  0.333333  0.749272  1
  Rh  Rh22  1  0.000000  0.000000  0.999915  1
  Rh  Rh23  1  0.000000  0.000000  0.500985  1
