# generated using pymatgen
data_Ho2Ir2RuW
_symmetry_space_group_name_H-M   'P 1'
_cell_length_a   5.24346263
_cell_length_b   5.61869589
_cell_length_c   5.63042300
_cell_angle_alpha   60.06887027
_cell_angle_beta   56.51011502
_cell_angle_gamma   57.60310684
_symmetry_Int_Tables_number   1
_chemical_formula_structural   Ho2Ir2RuW
_chemical_formula_sum   'Ho2 Ir2 Ru1 W1'
_cell_volume   111.83452491
_cell_formula_units_Z   1
loop_
 _symmetry_equiv_pos_site_id
 _symmetry_equiv_pos_as_xyz
  1  'x, y, z'
loop_
 _atom_site_type_symbol
 _atom_site_label
 _atom_site_symmetry_multiplicity
 _atom_site_fract_x
 _atom_site_fract_y
 _atom_site_fract_z
 _atom_site_occupancy
  Ho  Ho0  1  0.744457  0.753148  0.749247  1
  Ho  Ho1  1  0.505543  0.496852  0.500753  1
  Ir  Ir2  1  0.125000  0.625000  0.125000  1
  Ir  Ir3  1  0.125000  0.125000  0.125000  1
  Ru  Ru4  1  0.125000  0.125000  0.625000  1
  W  W5  1  0.625000  0.125000  0.125000  1
