# generated using pymatgen
data_Co8SiMo12As3N4
_symmetry_space_group_name_H-M   'P 1'
_cell_length_a   7.88438196
_cell_length_b   7.88438138
_cell_length_c   7.88438070
_cell_angle_alpha   59.80168384
_cell_angle_beta   59.80168870
_cell_angle_gamma   59.80168744
_symmetry_Int_Tables_number   1
_chemical_formula_structural   Co8SiMo12As3N4
_chemical_formula_sum   'Co8 Si1 Mo12 As3 N4'
_cell_volume   345.00733732
_cell_formula_units_Z   1
loop_
 _symmetry_equiv_pos_site_id
 _symmetry_equiv_pos_as_xyz
  1  'x, y, z'
loop_
 _atom_site_type_symbol
 _atom_site_label
 _atom_site_symmetry_multiplicity
 _atom_site_fract_x
 _atom_site_fract_y
 _atom_site_fract_z
 _atom_site_occupancy
  Co  Co0  1  0.250018  0.918871  0.918871  1
  Co  Co1  1  0.918871  0.250018  0.918871  1
  Co  Co2  1  0.914872  0.914872  0.914872  1
  Co  Co3  1  0.918871  0.918871  0.250018  1
  Co  Co4  1  0.999982  0.331129  0.331129  1
  Co  Co5  1  0.331129  0.331129  0.999982  1
  Co  Co6  1  0.331129  0.999982  0.331129  1
  Co  Co7  1  0.335128  0.335128  0.335128  1
  Si  Si8  1  0.125000  0.125000  0.125000  1
  Mo  Mo9  1  0.691876  0.308315  0.691876  1
  Mo  Mo10  1  0.558124  0.558124  0.941685  1
  Mo  Mo11  1  0.558124  0.941685  0.558124  1
  Mo  Mo12  1  0.944595  0.944595  0.553328  1
  Mo  Mo13  1  0.941685  0.558124  0.558124  1
  Mo  Mo14  1  0.944595  0.553328  0.944595  1
  Mo  Mo15  1  0.696672  0.305405  0.305405  1
  Mo  Mo16  1  0.305405  0.696672  0.305405  1
  Mo  Mo17  1  0.305405  0.305405  0.696672  1
  Mo  Mo18  1  0.308315  0.691876  0.691876  1
  Mo  Mo19  1  0.691876  0.691876  0.308315  1
  Mo  Mo20  1  0.553328  0.944595  0.944595  1
  As  As21  1  0.625000  0.125000  0.125000  1
  As  As22  1  0.125000  0.125000  0.625000  1
  As  As23  1  0.125000  0.625000  0.125000  1
  N  N24  1  0.625000  0.625000  0.625000  1
  N  N25  1  0.125000  0.625000  0.625000  1
  N  N26  1  0.625000  0.125000  0.625000  1
  N  N27  1  0.625000  0.625000  0.125000  1
