# generated using pymatgen
data_Hf8In4AgPt7
_symmetry_space_group_name_H-M   'P 1'
_cell_length_a   7.56967092
_cell_length_b   7.56967097
_cell_length_c   6.82808308
_cell_angle_alpha   89.92788479
_cell_angle_beta   90.07211412
_cell_angle_gamma   90.09136705
_symmetry_Int_Tables_number   1
_chemical_formula_structural   Hf8In4AgPt7
_chemical_formula_sum   'Hf8 In4 Ag1 Pt7'
_cell_volume   391.24748569
_cell_formula_units_Z   1
loop_
 _symmetry_equiv_pos_site_id
 _symmetry_equiv_pos_as_xyz
  1  'x, y, z'
loop_
 _atom_site_type_symbol
 _atom_site_label
 _atom_site_symmetry_multiplicity
 _atom_site_fract_x
 _atom_site_fract_y
 _atom_site_fract_z
 _atom_site_occupancy
  Hf  Hf0  1  0.145568  0.156954  0.006398  1
  Hf  Hf1  1  0.843046  0.854432  0.006398  1
  Hf  Hf2  1  0.652584  0.347416  0.502061  1
  Hf  Hf3  1  0.355637  0.644363  0.491822  1
  Hf  Hf4  1  0.684012  0.315988  0.999362  1
  Hf  Hf5  1  0.323327  0.676673  0.005570  1
  Hf  Hf6  1  0.809882  0.819135  0.495431  1
  Hf  Hf7  1  0.180865  0.190118  0.495431  1
  In  In8  1  0.496700  0.001083  0.249280  1
  In  In9  1  0.499835  0.000059  0.751494  1
  In  In10  1  0.998917  0.503300  0.249280  1
  In  In11  1  0.999941  0.500165  0.751494  1
  Ag  Ag12  1  0.133526  0.866474  0.711366  1
  Pt  Pt13  1  0.370490  0.367480  0.218959  1
  Pt  Pt14  1  0.632556  0.631176  0.781847  1
  Pt  Pt15  1  0.632520  0.629510  0.218959  1
  Pt  Pt16  1  0.872936  0.127064  0.721167  1
  Pt  Pt17  1  0.867872  0.132128  0.283818  1
  Pt  Pt18  1  0.368824  0.367444  0.781847  1
  Pt  Pt19  1  0.130956  0.869044  0.278014  1
