# generated using pymatgen
data_Y2Tm9LuOs4
_symmetry_space_group_name_H-M   'P 1'
_cell_length_a   7.37848813
_cell_length_b   8.89870400
_cell_length_c   6.22823838
_cell_angle_alpha   90.00000000
_cell_angle_beta   89.63929369
_cell_angle_gamma   90.00000000
_symmetry_Int_Tables_number   1
_chemical_formula_structural   Y2Tm9LuOs4
_chemical_formula_sum   'Y2 Tm9 Lu1 Os4'
_cell_volume   408.93168680
_cell_formula_units_Z   1
loop_
 _symmetry_equiv_pos_site_id
 _symmetry_equiv_pos_as_xyz
  1  'x, y, z'
loop_
 _atom_site_type_symbol
 _atom_site_label
 _atom_site_symmetry_multiplicity
 _atom_site_fract_x
 _atom_site_fract_y
 _atom_site_fract_z
 _atom_site_occupancy
  Y  Y0  1  0.537873  0.250000  0.873184  1
  Y  Y1  1  0.462124  0.750000  0.126872  1
  Tm  Tm2  1  0.677009  0.062510  0.337094  1
  Tm  Tm3  1  0.171142  0.438346  0.167819  1
  Tm  Tm4  1  0.323164  0.562840  0.662615  1
  Tm  Tm5  1  0.828451  0.937700  0.831898  1
  Tm  Tm6  1  0.323164  0.937160  0.662615  1
  Tm  Tm7  1  0.828451  0.562300  0.831898  1
  Tm  Tm8  1  0.677009  0.437490  0.337094  1
  Tm  Tm9  1  0.171142  0.061654  0.167819  1
  Tm  Tm10  1  0.041113  0.250000  0.628888  1
  Lu  Lu11  1  0.958899  0.750000  0.371267  1
  Os  Os12  1  0.884189  0.250000  0.039950  1
  Os  Os13  1  0.381421  0.250000  0.456438  1
  Os  Os14  1  0.115553  0.750000  0.961679  1
  Os  Os15  1  0.619299  0.750000  0.542871  1
