# generated using pymatgen
data_RbEuVSe4
_symmetry_space_group_name_H-M   'P 1'
_cell_length_a   6.87821588
_cell_length_b   7.00638400
_cell_length_c   9.48563627
_cell_angle_alpha   90.00000000
_cell_angle_beta   107.77496921
_cell_angle_gamma   90.00000000
_symmetry_Int_Tables_number   1
_chemical_formula_structural   RbEuVSe4
_chemical_formula_sum   'Rb2 Eu2 V2 Se8'
_cell_volume   435.30439083
_cell_formula_units_Z   2
loop_
 _symmetry_equiv_pos_site_id
 _symmetry_equiv_pos_as_xyz
  1  'x, y, z'
loop_
 _atom_site_type_symbol
 _atom_site_label
 _atom_site_symmetry_multiplicity
 _atom_site_fract_x
 _atom_site_fract_y
 _atom_site_fract_z
 _atom_site_occupancy
  Rb  Rb0  1  0.773447  0.250000  0.065742  1
  Rb  Rb1  1  0.226454  0.749999  0.934160  1
  Eu  Eu2  1  0.271865  0.749999  0.454948  1
  Eu  Eu3  1  0.728190  0.250000  0.545182  1
  V  V4  1  0.709683  0.749999  0.322882  1
  V  V5  1  0.290388  0.250000  0.677124  1
  Se  Se6  1  0.912556  0.749999  0.170451  1
  Se  Se7  1  0.489989  0.492743  0.277015  1
  Se  Se8  1  0.489989  0.007258  0.277015  1
  Se  Se9  1  0.101321  0.250000  0.433028  1
  Se  Se10  1  0.898572  0.749999  0.566955  1
  Se  Se11  1  0.510028  0.992724  0.722974  1
  Se  Se12  1  0.510028  0.507276  0.722974  1
  Se  Se13  1  0.087491  0.250000  0.829553  1
