# generated using pymatgen
data_Li8Tm8SbPb7
_symmetry_space_group_name_H-M   'P 1'
_cell_length_a   9.42502624
_cell_length_b   9.42602687
_cell_length_c   7.24505300
_cell_angle_alpha   90.00283256
_cell_angle_beta   89.98710013
_cell_angle_gamma   120.00398362
_symmetry_Int_Tables_number   1
_chemical_formula_structural   Li8Tm8SbPb7
_chemical_formula_sum   'Li8 Tm8 Sb1 Pb7'
_cell_volume   557.39875324
_cell_formula_units_Z   1
loop_
 _symmetry_equiv_pos_site_id
 _symmetry_equiv_pos_as_xyz
  1  'x, y, z'
loop_
 _atom_site_type_symbol
 _atom_site_label
 _atom_site_symmetry_multiplicity
 _atom_site_fract_x
 _atom_site_fract_y
 _atom_site_fract_z
 _atom_site_occupancy
  Li  Li0  1  0.167106  0.333377  0.211559  1
  Li  Li1  1  0.167038  0.833668  0.211529  1
  Li  Li2  1  0.666310  0.833156  0.209938  1
  Li  Li3  1  0.666116  0.333052  0.324948  1
  Li  Li4  1  0.832944  0.666757  0.711740  1
  Li  Li5  1  0.333463  0.166755  0.711187  1
  Li  Li6  1  0.832984  0.166220  0.711654  1
  Li  Li7  1  0.333958  0.666953  0.824939  1
  Tm  Tm8  1  0.000463  0.000235  0.000024  1
  Tm  Tm9  1  0.511125  0.023828  0.008139  1
  Tm  Tm10  1  0.511229  0.487327  0.008084  1
  Tm  Tm11  1  0.975855  0.487892  0.006539  1
  Tm  Tm12  1  0.000212  0.000069  0.497952  1
  Tm  Tm13  1  0.488445  0.976879  0.505803  1
  Tm  Tm14  1  0.023973  0.511952  0.506278  1
  Tm  Tm15  1  0.488488  0.511697  0.505778  1
  Sb  Sb16  1  0.666608  0.833371  0.768973  1
  Pb  Pb17  1  0.334106  0.667055  0.241476  1
  Pb  Pb18  1  0.832692  0.666671  0.269953  1
  Pb  Pb19  1  0.333629  0.166849  0.269284  1
  Pb  Pb20  1  0.832737  0.166013  0.270033  1
  Pb  Pb21  1  0.666478  0.333232  0.741496  1
  Pb  Pb22  1  0.167053  0.333611  0.770400  1
  Pb  Pb23  1  0.166990  0.833380  0.770307  1
