# generated using pymatgen
data_Er5HfAuO12
_symmetry_space_group_name_H-M   'P 1'
_cell_length_a   6.34624896
_cell_length_b   6.35246961
_cell_length_c   6.37633100
_cell_angle_alpha   99.47150669
_cell_angle_beta   98.68962624
_cell_angle_gamma   98.88530223
_symmetry_Int_Tables_number   1
_chemical_formula_structural   Er5HfAuO12
_chemical_formula_sum   'Er5 Hf1 Au1 O12'
_cell_volume   246.36777062
_cell_formula_units_Z   1
loop_
 _symmetry_equiv_pos_site_id
 _symmetry_equiv_pos_as_xyz
  1  'x, y, z'
loop_
 _atom_site_type_symbol
 _atom_site_label
 _atom_site_symmetry_multiplicity
 _atom_site_fract_x
 _atom_site_fract_y
 _atom_site_fract_z
 _atom_site_occupancy
  Er  Er0  1  0.390302  0.691465  0.854863  1
  Er  Er1  1  0.858620  0.388726  0.692078  1
  Er  Er2  1  0.310034  0.143249  0.609441  1
  Er  Er3  1  0.609992  0.310533  0.140579  1
  Er  Er4  1  0.140756  0.610537  0.307534  1
  Hf  Hf5  1  0.686531  0.856344  0.387473  1
  Au  Au6  1  0.996509  0.996209  0.000068  1
  O  O7  1  0.445519  0.606591  0.184183  1
  O  O8  1  0.176221  0.434788  0.582198  1
  O  O9  1  0.597092  0.166354  0.428422  1
  O  O10  1  0.563093  0.408839  0.820995  1
  O  O11  1  0.815746  0.583244  0.417827  1
  O  O12  1  0.434081  0.824180  0.564038  1
  O  O13  1  0.926383  0.034438  0.681445  1
  O  O14  1  0.951773  0.311401  0.060905  1
  O  O15  1  0.308193  0.062649  0.948400  1
  O  O16  1  0.052234  0.953281  0.314745  1
  O  O17  1  0.047771  0.685338  0.941713  1
  O  O18  1  0.689147  0.931834  0.063093  1
