# generated using pymatgen
data_Tb7Tm9In2(AgRh2)2
_symmetry_space_group_name_H-M   'P 1'
_cell_length_a   9.54645125
_cell_length_b   9.55869256
_cell_length_c   9.57908339
_cell_angle_alpha   59.72805748
_cell_angle_beta   59.75708201
_cell_angle_gamma   59.80682058
_symmetry_Int_Tables_number   1
_chemical_formula_structural   Tb7Tm9In2(AgRh2)2
_chemical_formula_sum   'Tb7 Tm9 In2 Ag2 Rh4'
_cell_volume   614.77385078
_cell_formula_units_Z   1
loop_
 _symmetry_equiv_pos_site_id
 _symmetry_equiv_pos_as_xyz
  1  'x, y, z'
loop_
 _atom_site_type_symbol
 _atom_site_label
 _atom_site_symmetry_multiplicity
 _atom_site_fract_x
 _atom_site_fract_y
 _atom_site_fract_z
 _atom_site_occupancy
  Tb  Tb0  1  0.050363  0.647445  0.649269  1
  Tb  Tb1  1  0.439240  0.068559  0.057727  1
  Tb  Tb2  1  0.436371  0.065392  0.436212  1
  Tb  Tb3  1  0.069269  0.436422  0.060188  1
  Tb  Tb4  1  0.650462  0.648236  0.054084  1
  Tb  Tb5  1  0.187634  0.813020  0.188821  1
  Tb  Tb6  1  0.065859  0.434367  0.435636  1
  Tm  Tm7  1  0.809538  0.810899  0.190816  1
  Tm  Tm8  1  0.811771  0.189550  0.810300  1
  Tm  Tm9  1  0.186603  0.186826  0.814876  1
  Tm  Tm10  1  0.647923  0.052132  0.647031  1
  Tm  Tm11  1  0.062255  0.062598  0.438979  1
  Tm  Tm12  1  0.443186  0.440577  0.057684  1
  Tm  Tm13  1  0.650168  0.649614  0.648232  1
  Tm  Tm14  1  0.811541  0.188670  0.189788  1
  Tm  Tm15  1  0.190022  0.812617  0.808983  1
  In  In16  1  0.417013  0.743384  0.422715  1
  In  In17  1  0.742978  0.416217  0.423330  1
  Ag  Ag18  1  0.418293  0.415789  0.418678  1
  Ag  Ag19  1  0.417940  0.416334  0.749563  1
  Rh  Rh20  1  0.853276  0.425039  0.858769  1
  Rh  Rh21  1  0.856524  0.860900  0.856435  1
  Rh  Rh22  1  0.852993  0.859553  0.427898  1
  Rh  Rh23  1  0.428776  0.855858  0.853986  1
