# generated using pymatgen
data_Ba3Yb(SiO4)2
_symmetry_space_group_name_H-M   'P 1'
_cell_length_a   5.82554100
_cell_length_b   5.82554032
_cell_length_c   7.45119300
_cell_angle_alpha   90.00000000
_cell_angle_beta   90.00000000
_cell_angle_gamma   119.99999818
_symmetry_Int_Tables_number   1
_chemical_formula_structural   Ba3Yb(SiO4)2
_chemical_formula_sum   'Ba3 Yb1 Si2 O8'
_cell_volume   218.99234184
_cell_formula_units_Z   1
loop_
 _symmetry_equiv_pos_site_id
 _symmetry_equiv_pos_as_xyz
  1  'x, y, z'
loop_
 _atom_site_type_symbol
 _atom_site_label
 _atom_site_symmetry_multiplicity
 _atom_site_fract_x
 _atom_site_fract_y
 _atom_site_fract_z
 _atom_site_occupancy
  Ba  Ba0  1  0.333333  0.666667  0.670802  1
  Ba  Ba1  1  0.666667  0.333333  0.329198  1
  Ba  Ba2  1  0.000000  0.000000  0.000000  1
  Yb  Yb3  1  0.000000  0.000000  0.500000  1
  Si  Si4  1  0.333333  0.666667  0.224670  1
  Si  Si5  1  0.666667  0.333333  0.775330  1
  O  O6  1  0.333333  0.666667  0.007593  1
  O  O7  1  0.666667  0.333333  0.992407  1
  O  O8  1  0.180224  0.819776  0.309793  1
  O  O9  1  0.819776  0.180224  0.690207  1
  O  O10  1  0.180224  0.360448  0.309793  1
  O  O11  1  0.819776  0.639552  0.690207  1
  O  O12  1  0.639552  0.819776  0.309793  1
  O  O13  1  0.360448  0.180224  0.690207  1
