# generated using pymatgen
data_LaNdDy2(Mo2O7)2
_symmetry_space_group_name_H-M   'P 1'
_cell_length_a   7.53842273
_cell_length_b   7.43098693
_cell_length_c   7.43098731
_cell_angle_alpha   59.55652174
_cell_angle_beta   60.08532943
_cell_angle_gamma   60.08532056
_symmetry_Int_Tables_number   1
_chemical_formula_structural   LaNdDy2(Mo2O7)2
_chemical_formula_sum   'La1 Nd1 Dy2 Mo4 O14'
_cell_volume   293.72232361
_cell_formula_units_Z   1
loop_
 _symmetry_equiv_pos_site_id
 _symmetry_equiv_pos_as_xyz
  1  'x, y, z'
loop_
 _atom_site_type_symbol
 _atom_site_label
 _atom_site_symmetry_multiplicity
 _atom_site_fract_x
 _atom_site_fract_y
 _atom_site_fract_z
 _atom_site_occupancy
  La  La0  1  0.625000  0.125000  0.125000  1
  Nd  Nd1  1  0.125000  0.125000  0.125000  1
  Dy  Dy2  1  0.125000  0.625000  0.125000  1
  Dy  Dy3  1  0.125000  0.125000  0.625000  1
  Mo  Mo4  1  0.125000  0.625000  0.625000  1
  Mo  Mo5  1  0.625000  0.125000  0.625000  1
  Mo  Mo6  1  0.625000  0.625000  0.125000  1
  Mo  Mo7  1  0.625000  0.625000  0.625000  1
  O  O8  1  0.715897  0.702089  0.289597  1
  O  O9  1  0.286889  0.289421  0.704490  1
  O  O10  1  0.715897  0.289597  0.702089  1
  O  O11  1  0.286889  0.704490  0.289421  1
  O  O12  1  0.286803  0.715966  0.715966  1
  O  O13  1  0.717495  0.290506  0.290506  1
  O  O14  1  0.534103  0.547911  0.960403  1
  O  O15  1  0.963111  0.960579  0.545510  1
  O  O16  1  0.534103  0.960403  0.547911  1
  O  O17  1  0.963111  0.545510  0.960579  1
  O  O18  1  0.963197  0.534034  0.534034  1
  O  O19  1  0.532505  0.959494  0.959494  1
  O  O20  1  0.246077  0.255247  0.255247  1
  O  O21  1  0.003923  0.994753  0.994753  1
