# generated using pymatgen
data_V2P4Pb3O16
_symmetry_space_group_name_H-M   'P 1'
_cell_length_a   9.11049600
_cell_length_b   9.11049600
_cell_length_c   16.75098600
_cell_angle_alpha   90.00000000
_cell_angle_beta   90.00000000
_cell_angle_gamma   90.00000000
_symmetry_Int_Tables_number   1
_chemical_formula_structural   V2P4Pb3O16
_chemical_formula_sum   'V8 P16 Pb12 O64'
_cell_volume   1390.35089000
_cell_formula_units_Z   4
loop_
 _symmetry_equiv_pos_site_id
 _symmetry_equiv_pos_as_xyz
  1  'x, y, z'
loop_
 _atom_site_type_symbol
 _atom_site_label
 _atom_site_symmetry_multiplicity
 _atom_site_fract_x
 _atom_site_fract_y
 _atom_site_fract_z
 _atom_site_occupancy
  V  V0  1  0.265495  0.501907  0.878865  1
  V  V1  1  0.998093  0.765495  0.128865  1
  V  V2  1  0.734505  0.498093  0.378865  1
  V  V3  1  0.498093  0.734505  0.621135  1
  V  V4  1  0.501907  0.265495  0.121135  1
  V  V5  1  0.001907  0.234505  0.628865  1
  V  V6  1  0.234505  0.001907  0.371135  1
  V  V7  1  0.765495  0.998093  0.871135  1
  P  P8  1  0.273357  0.454655  0.678938  1
  P  P9  1  0.004365  0.724906  0.329495  1
  P  P10  1  0.773357  0.045345  0.071062  1
  P  P11  1  0.454655  0.273357  0.321062  1
  P  P12  1  0.224906  0.495635  0.079495  1
  P  P13  1  0.726643  0.545345  0.178938  1
  P  P14  1  0.495635  0.224906  0.920505  1
  P  P15  1  0.724906  0.004365  0.670505  1
  P  P16  1  0.226643  0.954655  0.571062  1
  P  P17  1  0.504365  0.775094  0.420505  1
  P  P18  1  0.045345  0.773357  0.928938  1
  P  P19  1  0.545345  0.726643  0.821062  1
  P  P20  1  0.275094  0.995635  0.170505  1
  P  P21  1  0.954655  0.226643  0.428938  1
  P  P22  1  0.995635  0.275094  0.829495  1
  P  P23  1  0.775094  0.504365  0.579495  1
  Pb  Pb24  1  0.655820  0.921656  0.235927  1
  Pb  Pb25  1  0.135467  0.135467  0.000000  1
  Pb  Pb26  1  0.078344  0.344180  0.264073  1
  Pb  Pb27  1  0.844180  0.421656  0.014073  1
  Pb  Pb28  1  0.364533  0.635467  0.250000  1
  Pb  Pb29  1  0.421656  0.844180  0.985927  1
  Pb  Pb30  1  0.921656  0.655820  0.764073  1
  Pb  Pb31  1  0.344180  0.078344  0.735927  1
  Pb  Pb32  1  0.864533  0.864533  0.500000  1
  Pb  Pb33  1  0.578344  0.155820  0.485927  1
  Pb  Pb34  1  0.155820  0.578344  0.514073  1
  Pb  Pb35  1  0.635467  0.364533  0.750000  1
  O  O36  1  0.880210  0.176073  0.065774  1
  O  O37  1  0.411139  0.133599  0.369900  1
  O  O38  1  0.633599  0.088861  0.119900  1
  O  O39  1  0.172515  0.624759  0.134155  1
  O  O40  1  0.385257  0.097402  0.932967  1
  O  O41  1  0.380210  0.323927  0.684226  1
  O  O42  1  0.420850  0.662420  0.874785  1
  O  O43  1  0.119790  0.823927  0.565774  1
  O  O44  1  0.713438  0.450066  0.499259  1
  O  O45  1  0.676073  0.619790  0.815774  1
  O  O46  1  0.151378  0.923774  0.119547  1
  O  O47  1  0.827485  0.375241  0.634155  1
  O  O48  1  0.162420  0.079150  0.624785  1
  O  O49  1  0.549934  0.286562  0.000741  1
  O  O50  1  0.672515  0.875241  0.615845  1
  O  O51  1  0.823927  0.119790  0.434226  1
  O  O52  1  0.614743  0.902598  0.432967  1
  O  O53  1  0.348622  0.423774  0.130453  1
  O  O54  1  0.576226  0.651378  0.369547  1
  O  O55  1  0.176073  0.880210  0.934226  1
  O  O56  1  0.049934  0.213438  0.749259  1
  O  O57  1  0.088861  0.633599  0.880100  1
  O  O58  1  0.902598  0.614743  0.567033  1
  O  O59  1  0.076226  0.848622  0.380453  1
  O  O60  1  0.950066  0.786562  0.249259  1
  O  O61  1  0.786562  0.950066  0.750741  1
  O  O62  1  0.588861  0.866401  0.869900  1
  O  O63  1  0.402598  0.885257  0.182967  1
  O  O64  1  0.984311  0.728678  0.010050  1
  O  O65  1  0.286562  0.549934  0.999259  1
  O  O66  1  0.079150  0.162420  0.375215  1
  O  O67  1  0.579150  0.337580  0.374785  1
  O  O68  1  0.885257  0.402598  0.817033  1
  O  O69  1  0.866401  0.588861  0.130100  1
  O  O70  1  0.662420  0.420850  0.125215  1
  O  O71  1  0.366401  0.911139  0.619900  1
  O  O72  1  0.337580  0.579150  0.625215  1
  O  O73  1  0.124759  0.327485  0.884155  1
  O  O74  1  0.619790  0.676073  0.184226  1
  O  O75  1  0.323927  0.380210  0.315774  1
  O  O76  1  0.484311  0.771322  0.739950  1
  O  O77  1  0.423774  0.348622  0.869547  1
  O  O78  1  0.875241  0.672515  0.384155  1
  O  O79  1  0.624759  0.172515  0.865845  1
  O  O80  1  0.771322  0.484311  0.260050  1
  O  O81  1  0.450066  0.713438  0.500741  1
  O  O82  1  0.728678  0.984311  0.989950  1
  O  O83  1  0.923774  0.151378  0.880453  1
  O  O84  1  0.327485  0.124759  0.115845  1
  O  O85  1  0.920850  0.837580  0.875215  1
  O  O86  1  0.848622  0.076226  0.619547  1
  O  O87  1  0.651378  0.576226  0.630453  1
  O  O88  1  0.597402  0.114743  0.682967  1
  O  O89  1  0.114743  0.597402  0.317033  1
  O  O90  1  0.228678  0.515689  0.760050  1
  O  O91  1  0.133599  0.411139  0.630100  1
  O  O92  1  0.837580  0.920850  0.124785  1
  O  O93  1  0.911139  0.366401  0.380100  1
  O  O94  1  0.213438  0.049934  0.250741  1
  O  O95  1  0.515689  0.228678  0.239950  1
  O  O96  1  0.271322  0.015689  0.489950  1
  O  O97  1  0.097402  0.385257  0.067033  1
  O  O98  1  0.015689  0.271322  0.510050  1
  O  O99  1  0.375241  0.827485  0.365845  1
