# generated using pymatgen
data_Dy20Lu(ScTe4)3
_symmetry_space_group_name_H-M   'P 1'
_cell_length_a   4.12670200
_cell_length_b   11.50556224
_cell_length_c   21.34779364
_cell_angle_alpha   89.73782018
_cell_angle_beta   90.00000000
_cell_angle_gamma   90.00000000
_symmetry_Int_Tables_number   1
_chemical_formula_structural   Dy20Lu(ScTe4)3
_chemical_formula_sum   'Dy20 Lu1 Sc3 Te12'
_cell_volume   1013.58320051
_cell_formula_units_Z   1
loop_
 _symmetry_equiv_pos_site_id
 _symmetry_equiv_pos_as_xyz
  1  'x, y, z'
loop_
 _atom_site_type_symbol
 _atom_site_label
 _atom_site_symmetry_multiplicity
 _atom_site_fract_x
 _atom_site_fract_y
 _atom_site_fract_z
 _atom_site_occupancy
  Dy  Dy0  1  0.250000  0.468527  0.338545  1
  Dy  Dy1  1  0.750000  0.532552  0.661242  1
  Dy  Dy2  1  0.750000  0.967231  0.159651  1
  Dy  Dy3  1  0.250000  0.032007  0.839096  1
  Dy  Dy4  1  0.250000  0.746391  0.228399  1
  Dy  Dy5  1  0.750000  0.253286  0.771655  1
  Dy  Dy6  1  0.750000  0.246961  0.268925  1
  Dy  Dy7  1  0.250000  0.753140  0.728987  1
  Dy  Dy8  1  0.250000  0.116238  0.032335  1
  Dy  Dy9  1  0.750000  0.883374  0.967093  1
  Dy  Dy10  1  0.750000  0.618042  0.467991  1
  Dy  Dy11  1  0.250000  0.385088  0.534181  1
  Dy  Dy12  1  0.250000  0.427128  0.140110  1
  Dy  Dy13  1  0.750000  0.572552  0.859648  1
  Dy  Dy14  1  0.750000  0.924360  0.358143  1
  Dy  Dy15  1  0.250000  0.072589  0.641215  1
  Dy  Dy16  1  0.250000  0.608550  0.993570  1
  Dy  Dy17  1  0.750000  0.391059  0.006124  1
  Dy  Dy18  1  0.750000  0.108757  0.509491  1
  Dy  Dy19  1  0.250000  0.891076  0.492954  1
  Lu  Lu20  1  0.250000  0.157223  0.391503  1
  Sc  Sc21  1  0.750000  0.841171  0.609502  1
  Sc  Sc22  1  0.750000  0.659325  0.109008  1
  Sc  Sc23  1  0.250000  0.340824  0.890684  1
  Te  Te24  1  0.250000  0.845157  0.075322  1
  Te  Te25  1  0.750000  0.154243  0.923988  1
  Te  Te26  1  0.750000  0.351630  0.426418  1
  Te  Te27  1  0.250000  0.654858  0.575999  1
  Te  Te28  1  0.250000  0.722139  0.374902  1
  Te  Te29  1  0.750000  0.277232  0.626140  1
  Te  Te30  1  0.750000  0.222829  0.124136  1
  Te  Te31  1  0.250000  0.776735  0.875031  1
  Te  Te32  1  0.250000  0.031589  0.261957  1
  Te  Te33  1  0.750000  0.965862  0.736312  1
  Te  Te34  1  0.750000  0.533924  0.235470  1
  Te  Te35  1  0.250000  0.466352  0.764273  1
