# generated using pymatgen
data_V3Ga(SiRh5)2
_symmetry_space_group_name_H-M   'P 1'
_cell_length_a   3.96007700
_cell_length_b   5.35758094
_cell_length_c   10.39638476
_cell_angle_alpha   88.82315283
_cell_angle_beta   90.00000000
_cell_angle_gamma   90.00000000
_symmetry_Int_Tables_number   1
_chemical_formula_structural   V3Ga(SiRh5)2
_chemical_formula_sum   'V3 Ga1 Si2 Rh10'
_cell_volume   220.52767427
_cell_formula_units_Z   1
loop_
 _symmetry_equiv_pos_site_id
 _symmetry_equiv_pos_as_xyz
  1  'x, y, z'
loop_
 _atom_site_type_symbol
 _atom_site_label
 _atom_site_symmetry_multiplicity
 _atom_site_fract_x
 _atom_site_fract_y
 _atom_site_fract_z
 _atom_site_occupancy
  V  V0  1  0.500000  0.166132  0.642782  1
  V  V1  1  0.500000  0.840650  0.352532  1
  V  V2  1  0.500000  0.657302  0.859744  1
  Ga  Ga3  1  0.500000  0.345294  0.146939  1
  Si  Si4  1  0.000000  0.499160  0.503874  1
  Si  Si5  1  0.000000  0.974157  0.993617  1
  Rh  Rh6  1  0.500000  0.316260  0.403171  1
  Rh  Rh7  1  0.500000  0.690394  0.606502  1
  Rh  Rh8  1  0.500000  0.818461  0.103018  1
  Rh  Rh9  1  0.500000  0.177461  0.890084  1
  Rh  Rh10  1  0.000000  0.420281  0.738992  1
  Rh  Rh11  1  0.000000  0.601995  0.272414  1
  Rh  Rh12  1  0.000000  0.920321  0.757998  1
  Rh  Rh13  1  0.000000  0.088445  0.232177  1
  Rh  Rh14  1  0.000000  0.487700  0.999738  1
  Rh  Rh15  1  0.000000  0.995986  0.496420  1
