# generated using pymatgen
data_TaNb5Ga4(CuN)2
_symmetry_space_group_name_H-M   'P 1'
_cell_length_a   8.25640337
_cell_length_b   8.24324471
_cell_length_c   8.25640833
_cell_angle_alpha   60.05188352
_cell_angle_beta   59.89140545
_cell_angle_gamma   60.05184105
_symmetry_Int_Tables_number   1
_chemical_formula_structural   TaNb5Ga4(CuN)2
_chemical_formula_sum   'Ta2 Nb10 Ga8 Cu4 N4'
_cell_volume   397.32601990
_cell_formula_units_Z   2
loop_
 _symmetry_equiv_pos_site_id
 _symmetry_equiv_pos_as_xyz
  1  'x, y, z'
loop_
 _atom_site_type_symbol
 _atom_site_label
 _atom_site_symmetry_multiplicity
 _atom_site_fract_x
 _atom_site_fract_y
 _atom_site_fract_z
 _atom_site_occupancy
  Ta  Ta0  1  0.684914  0.315078  0.684914  1
  Ta  Ta1  1  0.934828  0.565154  0.934828  1
  Nb  Nb2  1  0.563415  0.936580  0.563415  1
  Nb  Nb3  1  0.313031  0.686502  0.687531  1
  Nb  Nb4  1  0.687553  0.312932  0.313034  1
  Nb  Nb5  1  0.313664  0.686336  0.313664  1
  Nb  Nb6  1  0.687531  0.686502  0.313030  1
  Nb  Nb7  1  0.313034  0.312932  0.687553  1
  Nb  Nb8  1  0.563624  0.562405  0.937000  1
  Nb  Nb9  1  0.936999  0.562405  0.563624  1
  Nb  Nb10  1  0.563623  0.936966  0.936985  1
  Nb  Nb11  1  0.936985  0.936966  0.563623  1
  Ga  Ga12  1  0.914887  0.914972  0.914886  1
  Ga  Ga13  1  0.994622  0.335298  0.334825  1
  Ga  Ga14  1  0.335523  0.994585  0.335524  1
  Ga  Ga15  1  0.334824  0.335298  0.994622  1
  Ga  Ga16  1  0.914842  0.255259  0.914841  1
  Ga  Ga17  1  0.915604  0.914439  0.255550  1
  Ga  Ga18  1  0.255550  0.914439  0.915603  1
  Ga  Ga19  1  0.335557  0.334279  0.335558  1
  Cu  Cu20  1  0.124254  0.126882  0.124254  1
  Cu  Cu21  1  0.625270  0.125734  0.123258  1
  Cu  Cu22  1  0.124293  0.624649  0.124293  1
  Cu  Cu23  1  0.123258  0.125734  0.625270  1
  N  N24  1  0.625572  0.622398  0.625572  1
  N  N25  1  0.123532  0.624411  0.627641  1
  N  N26  1  0.625566  0.126457  0.625566  1
  N  N27  1  0.627641  0.624411  0.123532  1
