# generated using pymatgen
data_Mn13AlGa3Si2(SbO14)2
_symmetry_space_group_name_H-M   'P 1'
_cell_length_a   5.65534258
_cell_length_b   9.19927565
_cell_length_c   11.96772400
_cell_angle_alpha   87.46837194
_cell_angle_beta   76.33322999
_cell_angle_gamma   79.22531778
_symmetry_Int_Tables_number   1
_chemical_formula_structural   Mn13AlGa3Si2(SbO14)2
_chemical_formula_sum   'Mn13 Al1 Ga3 Si2 Sb2 O28'
_cell_volume   594.32674399
_cell_formula_units_Z   1
loop_
 _symmetry_equiv_pos_site_id
 _symmetry_equiv_pos_as_xyz
  1  'x, y, z'
loop_
 _atom_site_type_symbol
 _atom_site_label
 _atom_site_symmetry_multiplicity
 _atom_site_fract_x
 _atom_site_fract_y
 _atom_site_fract_z
 _atom_site_occupancy
  Mn  Mn0  1  0.928633  0.645999  0.709995  1
  Mn  Mn1  1  0.651958  0.349154  0.138007  1
  Mn  Mn2  1  0.360684  0.355676  0.711541  1
  Mn  Mn3  1  0.072186  0.354300  0.287762  1
  Mn  Mn4  1  0.347697  0.650723  0.859854  1
  Mn  Mn5  1  0.287629  0.998403  0.425728  1
  Mn  Mn6  1  0.209727  0.651096  0.137999  1
  Mn  Mn7  1  0.000056  0.999817  0.999864  1
  Mn  Mn8  1  0.427611  0.999913  0.145216  1
  Mn  Mn9  1  0.790422  0.348813  0.861744  1
  Mn  Mn10  1  0.637959  0.645960  0.290384  1
  Mn  Mn11  1  0.573010  0.999831  0.854630  1
  Mn  Mn12  1  0.711993  0.998330  0.574541  1
  Al  Al13  1  0.476897  0.680924  0.572499  1
  Ga  Ga14  1  0.051222  0.675894  0.430190  1
  Ga  Ga15  1  0.522067  0.321469  0.428270  1
  Ga  Ga16  1  0.950882  0.320619  0.572164  1
  Si  Si17  1  0.236619  0.309763  0.999653  1
  Si  Si18  1  0.763720  0.690081  0.999800  1
  Sb  Sb19  1  0.860072  0.999312  0.280959  1
  Sb  Sb20  1  0.141579  0.998618  0.718964  1
  O  O21  1  0.684711  0.404153  0.297180  1
  O  O22  1  0.183008  0.361313  0.443494  1
  O  O23  1  0.943672  0.350589  0.999851  1
  O  O24  1  0.314978  0.127749  0.999713  1
  O  O25  1  0.802644  0.644643  0.555780  1
  O  O26  1  0.319426  0.601351  0.698198  1
  O  O27  1  0.022280  0.111632  0.583880  1
  O  O28  1  0.981327  0.885953  0.415432  1
  O  O29  1  0.685856  0.872321  0.999941  1
  O  O30  1  0.116667  0.884668  0.154644  1
  O  O31  1  0.288248  0.379633  0.115560  1
  O  O32  1  0.018650  0.596908  0.297473  1
  O  O33  1  0.395781  0.880510  0.586468  1
  O  O34  1  0.728580  0.115390  0.155230  1
  O  O35  1  0.596706  0.620590  0.116240  1
  O  O36  1  0.057179  0.649225  0.999194  1
  O  O37  1  0.271124  0.884745  0.845716  1
  O  O38  1  0.884161  0.115360  0.844490  1
  O  O39  1  0.603637  0.112304  0.415870  1
  O  O40  1  0.118330  0.119932  0.288846  1
  O  O41  1  0.880587  0.879974  0.711500  1
  O  O42  1  0.403704  0.379825  0.883400  1
  O  O43  1  0.407523  0.119356  0.710291  1
  O  O44  1  0.627798  0.358393  0.556988  1
  O  O45  1  0.711901  0.620512  0.883556  1
  O  O46  1  0.592615  0.879779  0.288626  1
  O  O47  1  0.983786  0.404228  0.702803  1
  O  O48  1  0.372498  0.644269  0.449874  1
