# generated using pymatgen
data_V10GaB4Se
_symmetry_space_group_name_H-M   'P 1'
_cell_length_a   6.81985397
_cell_length_b   6.81985386
_cell_length_c   6.81985424
_cell_angle_alpha   129.53029314
_cell_angle_beta   129.53029664
_cell_angle_gamma   74.15879571
_symmetry_Int_Tables_number   1
_chemical_formula_structural   V10GaB4Se
_chemical_formula_sum   'V10 Ga1 B4 Se1'
_cell_volume   183.98002770
_cell_formula_units_Z   1
loop_
 _symmetry_equiv_pos_site_id
 _symmetry_equiv_pos_as_xyz
  1  'x, y, z'
loop_
 _atom_site_type_symbol
 _atom_site_label
 _atom_site_symmetry_multiplicity
 _atom_site_fract_x
 _atom_site_fract_y
 _atom_site_fract_z
 _atom_site_occupancy
  V  V0  1  0.531210  0.696347  0.497072  1
  V  V1  1  0.034139  0.531210  0.834863  1
  V  V2  1  0.696347  0.199275  0.165137  1
  V  V3  1  0.968790  0.465861  0.165137  1
  V  V4  1  0.199275  0.034139  0.502928  1
  V  V5  1  0.465861  0.300725  0.497072  1
  V  V6  1  0.803653  0.968790  0.502928  1
  V  V7  1  0.300725  0.803653  0.834863  1
  V  V8  1  0.998095  0.998095  0.000000  1
  V  V9  1  0.501905  0.501905  0.000000  1
  Ga  Ga10  1  0.750000  0.750000  0.000000  1
  B  B11  1  0.615912  0.115912  0.731825  1
  B  B12  1  0.115912  0.384088  0.500000  1
  B  B13  1  0.884088  0.615912  0.500000  1
  B  B14  1  0.384088  0.884088  0.268175  1
  Se  Se15  1  0.250000  0.250000  0.000000  1
