# generated using pymatgen
data_Ce2Th3Ge3C
_symmetry_space_group_name_H-M   'P 1'
_cell_length_a   8.96439400
_cell_length_b   8.96439356
_cell_length_c   6.27390200
_cell_angle_alpha   90.00000000
_cell_angle_beta   90.00000000
_cell_angle_gamma   119.99999425
_symmetry_Int_Tables_number   1
_chemical_formula_structural   Ce2Th3Ge3C
_chemical_formula_sum   'Ce4 Th6 Ge6 C2'
_cell_volume   436.62664868
_cell_formula_units_Z   2
loop_
 _symmetry_equiv_pos_site_id
 _symmetry_equiv_pos_as_xyz
  1  'x, y, z'
loop_
 _atom_site_type_symbol
 _atom_site_label
 _atom_site_symmetry_multiplicity
 _atom_site_fract_x
 _atom_site_fract_y
 _atom_site_fract_z
 _atom_site_occupancy
  Ce  Ce0  1  0.666667  0.333333  0.000000  1
  Ce  Ce1  1  0.333333  0.666667  0.000000  1
  Ce  Ce2  1  0.333333  0.666667  0.500000  1
  Ce  Ce3  1  0.666667  0.333333  0.500000  1
  Th  Th4  1  0.768673  0.768673  0.750000  1
  Th  Th5  1  0.231327  0.000000  0.750000  1
  Th  Th6  1  0.000000  0.231327  0.750000  1
  Th  Th7  1  0.231327  0.231327  0.250000  1
  Th  Th8  1  0.768673  0.000000  0.250000  1
  Th  Th9  1  0.000000  0.768673  0.250000  1
  Ge  Ge10  1  0.396381  0.396381  0.750000  1
  Ge  Ge11  1  0.603619  0.000000  0.750000  1
  Ge  Ge12  1  0.000000  0.603619  0.750000  1
  Ge  Ge13  1  0.603619  0.603619  0.250000  1
  Ge  Ge14  1  0.396381  0.000000  0.250000  1
  Ge  Ge15  1  0.000000  0.396381  0.250000  1
  C  C16  1  0.000000  0.000000  0.000000  1
  C  C17  1  0.000000  0.000000  0.500000  1
