# generated using pymatgen
data_Cd2Co3P7Ru9
_symmetry_space_group_name_H-M   'P 1'
_cell_length_a   9.39160500
_cell_length_b   9.39160417
_cell_length_c   3.73283400
_cell_angle_alpha   90.00000000
_cell_angle_beta   90.00000000
_cell_angle_gamma   119.99999751
_symmetry_Int_Tables_number   1
_chemical_formula_structural   Cd2Co3P7Ru9
_chemical_formula_sum   'Cd2 Co3 P7 Ru9'
_cell_volume   285.13394198
_cell_formula_units_Z   1
loop_
 _symmetry_equiv_pos_site_id
 _symmetry_equiv_pos_as_xyz
  1  'x, y, z'
loop_
 _atom_site_type_symbol
 _atom_site_label
 _atom_site_symmetry_multiplicity
 _atom_site_fract_x
 _atom_site_fract_y
 _atom_site_fract_z
 _atom_site_occupancy
  Cd  Cd0  1  0.666667  0.333333  0.500000  1
  Cd  Cd1  1  0.333333  0.666667  0.000000  1
  Co  Co2  1  0.728771  0.869450  0.000000  1
  Co  Co3  1  0.130550  0.859320  0.000000  1
  Co  Co4  1  0.140680  0.271229  0.000000  1
  P  P5  1  0.615973  0.706671  0.500000  1
  P  P6  1  0.000000  0.000000  0.000000  1
  P  P7  1  0.293329  0.909303  0.500000  1
  P  P8  1  0.090697  0.384027  0.500000  1
  P  P9  1  0.914787  0.610189  0.000000  1
  P  P10  1  0.389811  0.304598  0.000000  1
  P  P11  1  0.695402  0.085213  0.000000  1
  Ru  Ru12  1  0.546157  0.916074  0.500000  1
  Ru  Ru13  1  0.369917  0.453843  0.500000  1
  Ru  Ru14  1  0.897783  0.107046  0.500000  1
  Ru  Ru15  1  0.209263  0.102217  0.500000  1
  Ru  Ru16  1  0.892954  0.790737  0.500000  1
  Ru  Ru17  1  0.444742  0.087163  0.000000  1
  Ru  Ru18  1  0.912837  0.357580  0.000000  1
  Ru  Ru19  1  0.642420  0.555258  0.000000  1
  Ru  Ru20  1  0.083926  0.630083  0.500000  1
