# generated using pymatgen
data_Sm3Y(Ni5C3)2
_symmetry_space_group_name_H-M   'P 1'
_cell_length_a   8.25313955
_cell_length_b   8.25313955
_cell_length_c   3.88406400
_cell_angle_alpha   90.00000000
_cell_angle_beta   90.00000000
_cell_angle_gamma   89.95820735
_symmetry_Int_Tables_number   1
_chemical_formula_structural   Sm3Y(Ni5C3)2
_chemical_formula_sum   'Sm3 Y1 Ni10 C6'
_cell_volume   264.56027835
_cell_formula_units_Z   1
loop_
 _symmetry_equiv_pos_site_id
 _symmetry_equiv_pos_as_xyz
  1  'x, y, z'
loop_
 _atom_site_type_symbol
 _atom_site_label
 _atom_site_symmetry_multiplicity
 _atom_site_fract_x
 _atom_site_fract_y
 _atom_site_fract_z
 _atom_site_occupancy
  Sm  Sm0  1  0.342442  0.841471  0.000000  1
  Sm  Sm1  1  0.658529  0.157558  0.000000  1
  Sm  Sm2  1  0.157382  0.342618  0.000000  1
  Y  Y3  1  0.843488  0.656512  0.000000  1
  Ni  Ni4  1  0.578719  0.711736  0.500000  1
  Ni  Ni5  1  0.423250  0.287436  0.500000  1
  Ni  Ni6  1  0.923110  0.213435  0.500000  1
  Ni  Ni7  1  0.075452  0.787876  0.500000  1
  Ni  Ni8  1  0.712124  0.424548  0.500000  1
  Ni  Ni9  1  0.286565  0.576890  0.500000  1
  Ni  Ni10  1  0.212564  0.076750  0.500000  1
  Ni  Ni11  1  0.788264  0.921281  0.500000  1
  Ni  Ni12  1  0.501923  0.500027  0.000000  1
  Ni  Ni13  1  0.999973  0.998077  0.000000  1
  C  C14  1  0.499013  0.500466  0.500000  1
  C  C15  1  0.999534  0.000987  0.500000  1
  C  C16  1  0.056946  0.560299  0.500000  1
  C  C17  1  0.939701  0.443054  0.500000  1
  C  C18  1  0.441881  0.058119  0.500000  1
  C  C19  1  0.559138  0.940862  0.500000  1
