# generated using pymatgen
data_Pr5Nd3C10
_symmetry_space_group_name_H-M   'P 1'
_cell_length_a   3.88186800
_cell_length_b   6.94176102
_cell_length_c   12.56638803
_cell_angle_alpha   89.99184822
_cell_angle_beta   90.00000000
_cell_angle_gamma   90.00000000
_symmetry_Int_Tables_number   1
_chemical_formula_structural   Pr5Nd3C10
_chemical_formula_sum   'Pr5 Nd3 C10'
_cell_volume   338.62645433
_cell_formula_units_Z   1
loop_
 _symmetry_equiv_pos_site_id
 _symmetry_equiv_pos_as_xyz
  1  'x, y, z'
loop_
 _atom_site_type_symbol
 _atom_site_label
 _atom_site_symmetry_multiplicity
 _atom_site_fract_x
 _atom_site_fract_y
 _atom_site_fract_z
 _atom_site_occupancy
  Pr  Pr0  1  0.000000  0.252948  0.542166  1
  Pr  Pr1  1  0.000000  0.747441  0.458201  1
  Pr  Pr2  1  0.000000  0.752799  0.958042  1
  Pr  Pr3  1  0.000000  0.246776  0.041797  1
  Pr  Pr4  1  0.500000  0.393187  0.302924  1
  Nd  Nd5  1  0.500000  0.106633  0.803528  1
  Nd  Nd6  1  0.500000  0.893148  0.196314  1
  Nd  Nd7  1  0.500000  0.606599  0.696676  1
  C  C8  1  0.500000  0.500576  0.501012  1
  C  C9  1  0.500000  0.000233  0.999897  1
  C  C10  1  0.000000  0.361468  0.737477  1
  C  C11  1  0.000000  0.640378  0.262280  1
  C  C12  1  0.000000  0.861481  0.762492  1
  C  C13  1  0.000000  0.137121  0.237390  1
  C  C14  1  0.000000  0.401220  0.839851  1
  C  C15  1  0.000000  0.599598  0.160045  1
  C  C16  1  0.000000  0.096900  0.339691  1
  C  C17  1  0.000000  0.901495  0.660218  1
