# generated using pymatgen
data_Tl2Co(MoO4)2
_symmetry_space_group_name_H-M   'P 1'
_cell_length_a   10.59217800
_cell_length_b   10.59217774
_cell_length_c   11.06808700
_cell_angle_alpha   90.00000000
_cell_angle_beta   90.00000000
_cell_angle_gamma   132.13377119
_symmetry_Int_Tables_number   1
_chemical_formula_structural   Tl2Co(MoO4)2
_chemical_formula_sum   'Tl8 Co4 Mo8 O32'
_cell_volume   920.87657453
_cell_formula_units_Z   4
loop_
 _symmetry_equiv_pos_site_id
 _symmetry_equiv_pos_as_xyz
  1  'x, y, z'
loop_
 _atom_site_type_symbol
 _atom_site_label
 _atom_site_symmetry_multiplicity
 _atom_site_fract_x
 _atom_site_fract_y
 _atom_site_fract_z
 _atom_site_occupancy
  Tl  Tl0  1  0.463777  0.036223  0.250000  1
  Tl  Tl1  1  0.365613  0.634387  0.071331  1
  Tl  Tl2  1  0.865613  0.134387  0.428669  1
  Tl  Tl3  1  0.536223  0.963777  0.750000  1
  Tl  Tl4  1  0.036223  0.463777  0.750000  1
  Tl  Tl5  1  0.134387  0.865613  0.571331  1
  Tl  Tl6  1  0.963777  0.536223  0.250000  1
  Tl  Tl7  1  0.634387  0.365613  0.928669  1
  Co  Co8  1  0.180571  0.180571  0.000000  1
  Co  Co9  1  0.680571  0.680571  0.500000  1
  Co  Co10  1  0.819429  0.819429  0.000000  1
  Co  Co11  1  0.319429  0.319429  0.500000  1
  Mo  Mo12  1  0.531605  0.468395  0.216854  1
  Mo  Mo13  1  0.468395  0.531605  0.783146  1
  Mo  Mo14  1  0.342940  0.657060  0.464993  1
  Mo  Mo15  1  0.031605  0.968395  0.283146  1
  Mo  Mo16  1  0.657060  0.342940  0.535007  1
  Mo  Mo17  1  0.968395  0.031605  0.716855  1
  Mo  Mo18  1  0.157060  0.842940  0.964993  1
  Mo  Mo19  1  0.842940  0.157060  0.035007  1
  O  O20  1  0.164352  0.165464  0.362700  1
  O  O21  1  0.216267  0.434150  0.499921  1
  O  O22  1  0.998907  0.001093  0.127230  1
  O  O23  1  0.835648  0.834536  0.637300  1
  O  O24  1  0.876281  0.123719  0.709933  1
  O  O25  1  0.376281  0.623719  0.790067  1
  O  O26  1  0.165464  0.164352  0.637300  1
  O  O27  1  0.267195  0.732805  0.558129  1
  O  O28  1  0.665464  0.664352  0.862700  1
  O  O29  1  0.565850  0.783733  0.499921  1
  O  O30  1  0.232805  0.767195  0.058129  1
  O  O31  1  0.684461  0.315539  0.689797  1
  O  O32  1  0.623719  0.376281  0.209933  1
  O  O33  1  0.716267  0.934150  0.000079  1
  O  O34  1  0.834536  0.835648  0.362700  1
  O  O35  1  0.123719  0.876281  0.290067  1
  O  O36  1  0.434150  0.216267  0.500079  1
  O  O37  1  0.065850  0.283733  0.000079  1
  O  O38  1  0.501093  0.498907  0.627230  1
  O  O39  1  0.283733  0.065850  0.999921  1
  O  O40  1  0.001093  0.998907  0.872770  1
  O  O41  1  0.815539  0.184461  0.189797  1
  O  O42  1  0.767195  0.232805  0.941871  1
  O  O43  1  0.335648  0.334536  0.862700  1
  O  O44  1  0.498907  0.501093  0.372770  1
  O  O45  1  0.184461  0.815539  0.810203  1
  O  O46  1  0.664352  0.665464  0.137300  1
  O  O47  1  0.315539  0.684461  0.310203  1
  O  O48  1  0.934150  0.716267  0.999921  1
  O  O49  1  0.732805  0.267195  0.441871  1
  O  O50  1  0.783733  0.565850  0.500079  1
  O  O51  1  0.334536  0.335648  0.137300  1
