# generated using pymatgen
data_Ce2ZnPd2Rh3
_symmetry_space_group_name_H-M   'P 1'
_cell_length_a   4.17483500
_cell_length_b   4.30569300
_cell_length_c   7.71431100
_cell_angle_alpha   90.00000000
_cell_angle_beta   90.00000000
_cell_angle_gamma   90.00000000
_symmetry_Int_Tables_number   1
_chemical_formula_structural   Ce2ZnPd2Rh3
_chemical_formula_sum   'Ce2 Zn1 Pd2 Rh3'
_cell_volume   138.66904354
_cell_formula_units_Z   1
loop_
 _symmetry_equiv_pos_site_id
 _symmetry_equiv_pos_as_xyz
  1  'x, y, z'
loop_
 _atom_site_type_symbol
 _atom_site_label
 _atom_site_symmetry_multiplicity
 _atom_site_fract_x
 _atom_site_fract_y
 _atom_site_fract_z
 _atom_site_occupancy
  Ce  Ce0  1  0.000000  0.000000  0.244072  1
  Ce  Ce1  1  0.000000  0.000000  0.755582  1
  Zn  Zn2  1  0.500000  0.500000  0.247960  1
  Pd  Pd3  1  0.500000  0.500000  0.750321  1
  Pd  Pd4  1  0.000000  0.500000  0.491685  1
  Rh  Rh5  1  0.000000  0.500000  0.012281  1
  Rh  Rh6  1  0.500000  0.000000  0.488589  1
  Rh  Rh7  1  0.500000  0.000000  0.009510  1
