# generated using pymatgen
data_Sc(Mn3P2)2
_symmetry_space_group_name_H-M   'P 1'
_cell_length_a   6.83189700
_cell_length_b   6.83189731
_cell_length_c   3.33473900
_cell_angle_alpha   90.00000000
_cell_angle_beta   90.00000000
_cell_angle_gamma   119.99999368
_symmetry_Int_Tables_number   1
_chemical_formula_structural   Sc(Mn3P2)2
_chemical_formula_sum   'Sc1 Mn6 P4'
_cell_volume   134.79542358
_cell_formula_units_Z   1
loop_
 _symmetry_equiv_pos_site_id
 _symmetry_equiv_pos_as_xyz
  1  'x, y, z'
loop_
 _atom_site_type_symbol
 _atom_site_label
 _atom_site_symmetry_multiplicity
 _atom_site_fract_x
 _atom_site_fract_y
 _atom_site_fract_z
 _atom_site_occupancy
  Sc  Sc0  1  0.000000  0.000000  0.000000  1
  Mn  Mn1  1  0.797640  0.595280  0.500000  1
  Mn  Mn2  1  0.404720  0.202360  0.500000  1
  Mn  Mn3  1  0.797640  0.202360  0.500000  1
  Mn  Mn4  1  0.464141  0.928281  0.000000  1
  Mn  Mn5  1  0.071719  0.535859  0.000000  1
  Mn  Mn6  1  0.464141  0.535859  0.000000  1
  P  P7  1  0.181968  0.363936  0.500000  1
  P  P8  1  0.636064  0.818032  0.500000  1
  P  P9  1  0.181968  0.818032  0.500000  1
  P  P10  1  0.666667  0.333333  0.000000  1
