# generated using pymatgen
data_Dy4Er8Ga2TcNi3
_symmetry_space_group_name_H-M   'P 1'
_cell_length_a   8.27311452
_cell_length_b   8.27311592
_cell_length_c   8.27311632
_cell_angle_alpha   112.97172040
_cell_angle_beta   109.74306241
_cell_angle_gamma   105.77858337
_symmetry_Int_Tables_number   1
_chemical_formula_structural   Dy4Er8Ga2TcNi3
_chemical_formula_sum   'Dy4 Er8 Ga2 Tc1 Ni3'
_cell_volume   434.18190711
_cell_formula_units_Z   1
loop_
 _symmetry_equiv_pos_site_id
 _symmetry_equiv_pos_as_xyz
  1  'x, y, z'
loop_
 _atom_site_type_symbol
 _atom_site_label
 _atom_site_symmetry_multiplicity
 _atom_site_fract_x
 _atom_site_fract_y
 _atom_site_fract_z
 _atom_site_occupancy
  Dy  Dy0  1  0.054471  0.748875  0.305597  1
  Dy  Dy1  1  0.962377  0.267753  0.694624  1
  Dy  Dy2  1  0.556722  0.251125  0.305597  1
  Dy  Dy3  1  0.426870  0.732247  0.694624  1
  Er  Er4  1  0.674459  0.862092  0.193075  1
  Er  Er5  1  0.330983  0.518616  0.193075  1
  Er  Er6  1  0.330983  0.137908  0.812367  1
  Er  Er7  1  0.674459  0.481384  0.812367  1
  Er  Er8  1  0.174619  0.221479  0.396098  1
  Er  Er9  1  0.814817  0.218713  0.033530  1
  Er  Er10  1  0.174619  0.778521  0.953140  1
  Er  Er11  1  0.814817  0.781287  0.596102  1
  Ga  Ga12  1  0.982018  0.500000  0.482018  1
  Ga  Ga13  1  0.506340  0.000000  0.506340  1
  Tc  Tc14  1  0.673178  0.500000  0.173178  1
  Ni  Ni15  1  0.346164  0.500000  0.846164  1
  Ni  Ni16  1  0.882627  0.881575  0.001051  1
  Ni  Ni17  1  0.119476  0.118425  0.001051  1
