# generated using pymatgen
data_Er8Cd3PbAu8
_symmetry_space_group_name_H-M   'P 1'
_cell_length_a   7.99992400
_cell_length_b   7.99992400
_cell_length_c   7.29210300
_cell_angle_alpha   90.00000000
_cell_angle_beta   90.00000000
_cell_angle_gamma   90.00000000
_symmetry_Int_Tables_number   1
_chemical_formula_structural   Er8Cd3PbAu8
_chemical_formula_sum   'Er8 Cd3 Pb1 Au8'
_cell_volume   466.68572484
_cell_formula_units_Z   1
loop_
 _symmetry_equiv_pos_site_id
 _symmetry_equiv_pos_as_xyz
  1  'x, y, z'
loop_
 _atom_site_type_symbol
 _atom_site_label
 _atom_site_symmetry_multiplicity
 _atom_site_fract_x
 _atom_site_fract_y
 _atom_site_fract_z
 _atom_site_occupancy
  Er  Er0  1  0.181661  0.181746  0.001085  1
  Er  Er1  1  0.318254  0.681661  0.498915  1
  Er  Er2  1  0.681746  0.318339  0.498915  1
  Er  Er3  1  0.818339  0.818254  0.001085  1
  Er  Er4  1  0.341203  0.658037  0.001462  1
  Er  Er5  1  0.658797  0.341963  0.001462  1
  Er  Er6  1  0.841963  0.841203  0.498538  1
  Er  Er7  1  0.158037  0.158797  0.498538  1
  Cd  Cd8  1  0.000000  0.500000  0.750000  1
  Cd  Cd9  1  0.500000  0.000000  0.250000  1
  Cd  Cd10  1  0.000000  0.500000  0.250000  1
  Pb  Pb11  1  0.500000  0.000000  0.750000  1
  Au  Au12  1  0.122716  0.867260  0.774836  1
  Au  Au13  1  0.871808  0.129613  0.226116  1
  Au  Au14  1  0.370387  0.371808  0.273884  1
  Au  Au15  1  0.632740  0.622716  0.725164  1
  Au  Au16  1  0.629613  0.628192  0.273884  1
  Au  Au17  1  0.877284  0.132740  0.774836  1
  Au  Au18  1  0.367260  0.377284  0.725164  1
  Au  Au19  1  0.128192  0.870387  0.226116  1
