# generated using pymatgen
data_Sm8P(Pd3Pt5)3
_symmetry_space_group_name_H-M   'P 1'
_cell_length_a   8.42300500
_cell_length_b   8.40995400
_cell_length_c   8.45147900
_cell_angle_alpha   90.00000000
_cell_angle_beta   90.00000000
_cell_angle_gamma   90.00000000
_symmetry_Int_Tables_number   1
_chemical_formula_structural   Sm8P(Pd3Pt5)3
_chemical_formula_sum   'Sm8 P1 Pd9 Pt15'
_cell_volume   598.67813285
_cell_formula_units_Z   1
loop_
 _symmetry_equiv_pos_site_id
 _symmetry_equiv_pos_as_xyz
  1  'x, y, z'
loop_
 _atom_site_type_symbol
 _atom_site_label
 _atom_site_symmetry_multiplicity
 _atom_site_fract_x
 _atom_site_fract_y
 _atom_site_fract_z
 _atom_site_occupancy
  Sm  Sm0  1  0.254712  0.254323  0.255160  1
  Sm  Sm1  1  0.745506  0.745562  0.744934  1
  Sm  Sm2  1  0.745506  0.745562  0.255066  1
  Sm  Sm3  1  0.745288  0.254323  0.744840  1
  Sm  Sm4  1  0.254712  0.254323  0.744840  1
  Sm  Sm5  1  0.254494  0.745562  0.255066  1
  Sm  Sm6  1  0.254494  0.745562  0.744934  1
  Sm  Sm7  1  0.745288  0.254323  0.255160  1
  P  P8  1  0.000000  0.000267  0.000000  1
  Pd  Pd9  1  0.500000  0.000055  0.257248  1
  Pd  Pd10  1  0.257201  0.000151  0.500000  1
  Pd  Pd11  1  0.500000  0.000055  0.742752  1
  Pd  Pd12  1  0.742799  0.000151  0.500000  1
  Pd  Pd13  1  0.000000  0.500129  0.257269  1
  Pd  Pd14  1  0.000000  0.500129  0.742731  1
  Pd  Pd15  1  0.500000  0.747250  0.500000  1
  Pd  Pd16  1  0.500000  0.500076  0.252383  1
  Pd  Pd17  1  0.500000  0.500076  0.747617  1
  Pt  Pt18  1  0.256998  0.500148  0.000000  1
  Pt  Pt19  1  0.743002  0.500148  0.000000  1
  Pt  Pt20  1  0.000000  0.256069  0.500000  1
  Pt  Pt21  1  0.500000  0.256412  0.000000  1
  Pt  Pt22  1  0.000000  0.743587  0.500000  1
  Pt  Pt23  1  0.500000  0.743466  0.000000  1
  Pt  Pt24  1  0.251934  0.499856  0.500000  1
  Pt  Pt25  1  0.748066  0.499856  0.500000  1
  Pt  Pt26  1  0.500000  0.252826  0.500000  1
  Pt  Pt27  1  0.276710  0.999807  0.000000  1
  Pt  Pt28  1  0.723290  0.999807  0.000000  1
  Pt  Pt29  1  0.000000  0.277042  0.000000  1
  Pt  Pt30  1  0.000000  0.723548  0.000000  1
  Pt  Pt31  1  0.000000  0.999775  0.276166  1
  Pt  Pt32  1  0.000000  0.999775  0.723834  1
