# generated using pymatgen
data_SrDy3(Pt2O7)2
_symmetry_space_group_name_H-M   'P 1'
_cell_length_a   7.32673696
_cell_length_b   7.32673772
_cell_length_c   7.32673667
_cell_angle_alpha   59.93691369
_cell_angle_beta   59.93691201
_cell_angle_gamma   59.93691312
_symmetry_Int_Tables_number   1
_chemical_formula_structural   SrDy3(Pt2O7)2
_chemical_formula_sum   'Sr1 Dy3 Pt4 O14'
_cell_volume   277.71219371
_cell_formula_units_Z   1
loop_
 _symmetry_equiv_pos_site_id
 _symmetry_equiv_pos_as_xyz
  1  'x, y, z'
loop_
 _atom_site_type_symbol
 _atom_site_label
 _atom_site_symmetry_multiplicity
 _atom_site_fract_x
 _atom_site_fract_y
 _atom_site_fract_z
 _atom_site_occupancy
  Sr  Sr0  1  0.125000  0.125000  0.125000  1
  Dy  Dy1  1  0.125000  0.625000  0.125000  1
  Dy  Dy2  1  0.125000  0.125000  0.625000  1
  Dy  Dy3  1  0.625000  0.125000  0.125000  1
  Pt  Pt4  1  0.625000  0.625000  0.625000  1
  Pt  Pt5  1  0.125000  0.625000  0.625000  1
  Pt  Pt6  1  0.625000  0.125000  0.625000  1
  Pt  Pt7  1  0.625000  0.625000  0.125000  1
  O  O8  1  0.287886  0.713252  0.713252  1
  O  O9  1  0.554855  0.958259  0.958259  1
  O  O10  1  0.713252  0.287886  0.713252  1
  O  O11  1  0.291741  0.291741  0.695145  1
  O  O12  1  0.713252  0.713252  0.287886  1
  O  O13  1  0.992533  0.992533  0.992533  1
  O  O14  1  0.291741  0.695145  0.291741  1
  O  O15  1  0.958259  0.554855  0.958259  1
  O  O16  1  0.958259  0.958259  0.554855  1
  O  O17  1  0.536748  0.536748  0.962114  1
  O  O18  1  0.257467  0.257467  0.257467  1
  O  O19  1  0.536748  0.962114  0.536748  1
  O  O20  1  0.695145  0.291741  0.291741  1
  O  O21  1  0.962114  0.536748  0.536748  1
