# generated using pymatgen
data_Dy2Th(InPt)3
_symmetry_space_group_name_H-M   'P 1'
_cell_length_a   7.71635600
_cell_length_b   7.67894873
_cell_length_c   3.96372500
_cell_angle_alpha   90.00000000
_cell_angle_beta   90.00000000
_cell_angle_gamma   120.16127604
_symmetry_Int_Tables_number   1
_chemical_formula_structural   Dy2Th(InPt)3
_chemical_formula_sum   'Dy2 Th1 In3 Pt3'
_cell_volume   203.06734585
_cell_formula_units_Z   1
loop_
 _symmetry_equiv_pos_site_id
 _symmetry_equiv_pos_as_xyz
  1  'x, y, z'
loop_
 _atom_site_type_symbol
 _atom_site_label
 _atom_site_symmetry_multiplicity
 _atom_site_fract_x
 _atom_site_fract_y
 _atom_site_fract_z
 _atom_site_occupancy
  Dy  Dy0  1  0.406946  0.405478  0.500000  1
  Dy  Dy1  1  0.001468  0.594522  0.500000  1
  Th  Th2  1  0.589328  0.000000  0.500000  1
  In  In3  1  0.743895  0.733554  0.000000  1
  In  In4  1  0.010341  0.266446  0.000000  1
  In  In5  1  0.247674  0.000000  0.000000  1
  Pt  Pt6  1  0.340634  0.674438  0.000000  1
  Pt  Pt7  1  0.666197  0.325562  0.000000  1
  Pt  Pt8  1  0.993515  0.000000  0.500000  1
