# generated using pymatgen
data_Dy3Ho12Tm(CdNi)4
_symmetry_space_group_name_H-M   'P 1'
_cell_length_a   9.50540699
_cell_length_b   9.50339637
_cell_length_c   9.49614700
_cell_angle_alpha   60.02523413
_cell_angle_beta   60.03222390
_cell_angle_gamma   60.10392912
_symmetry_Int_Tables_number   1
_chemical_formula_structural   Dy3Ho12Tm(CdNi)4
_chemical_formula_sum   'Dy3 Ho12 Tm1 Cd4 Ni4'
_cell_volume   607.31035880
_cell_formula_units_Z   1
loop_
 _symmetry_equiv_pos_site_id
 _symmetry_equiv_pos_as_xyz
  1  'x, y, z'
loop_
 _atom_site_type_symbol
 _atom_site_label
 _atom_site_symmetry_multiplicity
 _atom_site_fract_x
 _atom_site_fract_y
 _atom_site_fract_z
 _atom_site_occupancy
  Dy  Dy0  1  0.348203  0.348475  0.347097  1
  Dy  Dy1  1  0.348203  0.348475  0.956224  1
  Dy  Dy2  1  0.350267  0.950479  0.349627  1
  Ho  Ho3  1  0.950278  0.350610  0.349557  1
  Ho  Ho4  1  0.812151  0.188291  0.189511  1
  Ho  Ho5  1  0.188297  0.812292  0.810238  1
  Ho  Ho6  1  0.188297  0.812292  0.189172  1
  Ho  Ho7  1  0.812151  0.188291  0.810048  1
  Ho  Ho8  1  0.189984  0.189709  0.810153  1
  Ho  Ho9  1  0.812055  0.811791  0.188077  1
  Ho  Ho10  1  0.936722  0.564157  0.563978  1
  Ho  Ho11  1  0.564348  0.936376  0.935240  1
  Ho  Ho12  1  0.564348  0.936376  0.564036  1
  Ho  Ho13  1  0.936722  0.564157  0.935143  1
  Ho  Ho14  1  0.565118  0.564930  0.934976  1
  Tm  Tm15  1  0.937544  0.937481  0.562488  1
  Cd  Cd16  1  0.580658  0.580203  0.581749  1
  Cd  Cd17  1  0.580658  0.580203  0.257390  1
  Cd  Cd18  1  0.581277  0.255499  0.581612  1
  Cd  Cd19  1  0.255699  0.580915  0.581694  1
  Ni  Ni20  1  0.141436  0.142330  0.145405  1
  Ni  Ni21  1  0.141436  0.142330  0.570830  1
  Ni  Ni22  1  0.140197  0.573630  0.143087  1
  Ni  Ni23  1  0.573954  0.140710  0.142669  1
