# generated using pymatgen
data_Ho3PaAl15(GaIr2)3
_symmetry_space_group_name_H-M   'P 1'
_cell_length_a   7.54993244
_cell_length_b   7.53494474
_cell_length_c   9.46614900
_cell_angle_alpha   90.00000000
_cell_angle_beta   90.00000000
_cell_angle_gamma   119.48676206
_symmetry_Int_Tables_number   1
_chemical_formula_structural   Ho3PaAl15(GaIr2)3
_chemical_formula_sum   'Ho3 Pa1 Al15 Ga3 Ir6'
_cell_volume   468.75941585
_cell_formula_units_Z   1
loop_
 _symmetry_equiv_pos_site_id
 _symmetry_equiv_pos_as_xyz
  1  'x, y, z'
loop_
 _atom_site_type_symbol
 _atom_site_label
 _atom_site_symmetry_multiplicity
 _atom_site_fract_x
 _atom_site_fract_y
 _atom_site_fract_z
 _atom_site_occupancy
  Ho  Ho0  1  0.005407  0.326873  0.750000  1
  Ho  Ho1  1  0.671563  0.992376  0.250000  1
  Ho  Ho2  1  0.326590  0.003374  0.750000  1
  Pa  Pa3  1  0.998194  0.675120  0.250000  1
  Al  Al4  1  0.000586  0.332511  0.073936  1
  Al  Al5  1  0.998789  0.664005  0.921389  1
  Al  Al6  1  0.998789  0.664005  0.578611  1
  Al  Al7  1  0.339658  0.004902  0.425931  1
  Al  Al8  1  0.000586  0.332511  0.426064  1
  Al  Al9  1  0.664689  0.999875  0.575439  1
  Al  Al10  1  0.664689  0.999875  0.924561  1
  Al  Al11  1  0.339658  0.004902  0.074069  1
  Al  Al12  1  0.332935  0.332837  0.559223  1
  Al  Al13  1  0.662991  0.665172  0.448207  1
  Al  Al14  1  0.662991  0.665172  0.051793  1
  Al  Al15  1  0.332935  0.332837  0.940777  1
  Al  Al16  1  0.660613  0.448581  0.750000  1
  Al  Al17  1  0.548639  0.342212  0.250000  1
  Al  Al18  1  0.449710  0.662320  0.750000  1
  Ga  Ga19  1  0.134181  0.134672  0.250000  1
  Ga  Ga20  1  0.868492  0.870140  0.750000  1
  Ga  Ga21  1  0.340248  0.546117  0.250000  1
  Ir  Ir22  1  0.672427  0.330645  0.002159  1
  Ir  Ir23  1  0.326295  0.672192  0.999356  1
  Ir  Ir24  1  0.326295  0.672192  0.500644  1
  Ir  Ir25  1  0.672427  0.330645  0.497841  1
  Ir  Ir26  1  0.999813  0.996969  0.003484  1
  Ir  Ir27  1  0.999813  0.996969  0.496516  1
