# generated using pymatgen
data_Y2HfMg(Co4P3)2
_symmetry_space_group_name_H-M   'P 1'
_cell_length_a   12.12761315
_cell_length_b   12.17592237
_cell_length_c   3.72268400
_cell_angle_alpha   90.00000000
_cell_angle_beta   90.00000000
_cell_angle_gamma   120.16105839
_symmetry_Int_Tables_number   1
_chemical_formula_structural   Y2HfMg(Co4P3)2
_chemical_formula_sum   'Y4 Hf2 Mg2 Co16 P12'
_cell_volume   475.28804427
_cell_formula_units_Z   2
loop_
 _symmetry_equiv_pos_site_id
 _symmetry_equiv_pos_as_xyz
  1  'x, y, z'
loop_
 _atom_site_type_symbol
 _atom_site_label
 _atom_site_symmetry_multiplicity
 _atom_site_fract_x
 _atom_site_fract_y
 _atom_site_fract_z
 _atom_site_occupancy
  Y  Y0  1  0.816099  0.814311  0.500000  1
  Y  Y1  1  0.000403  0.181922  0.500000  1
  Y  Y2  1  0.331932  0.666036  0.000000  1
  Y  Y3  1  0.667670  0.334188  0.000000  1
  Hf  Hf4  1  0.000523  0.562091  0.000000  1
  Hf  Hf5  1  0.187725  0.997282  0.500000  1
  Mg  Mg6  1  0.440729  0.438147  0.000000  1
  Mg  Mg7  1  0.557304  0.999058  0.000000  1
  Co  Co8  1  0.624361  0.822972  0.000000  1
  Co  Co9  1  0.371093  0.192683  0.000000  1
  Co  Co10  1  0.004273  0.726578  0.500000  1
  Co  Co11  1  0.280572  0.277172  0.500000  1
  Co  Co12  1  0.875257  0.356108  0.500000  1
  Co  Co13  1  0.718131  0.000206  0.500000  1
  Co  Co14  1  0.821674  0.629544  0.000000  1
  Co  Co15  1  0.179782  0.812191  0.000000  1
  Co  Co16  1  0.355662  0.874449  0.500000  1
  Co  Co17  1  0.124872  0.479520  0.500000  1
  Co  Co18  1  0.641161  0.514985  0.500000  1
  Co  Co19  1  0.003007  0.002913  0.000000  1
  Co  Co20  1  0.518133  0.642774  0.500000  1
  Co  Co21  1  0.477981  0.123312  0.500000  1
  Co  Co22  1  0.198685  0.373377  0.000000  1
  Co  Co23  1  0.801563  0.176870  0.000000  1
  P  P24  1  0.000125  0.353737  0.000000  1
  P  P25  1  0.828688  0.524126  0.500000  1
  P  P26  1  0.691095  0.170748  0.500000  1
  P  P27  1  0.180253  0.175152  0.000000  1
  P  P28  1  0.638605  0.641945  0.000000  1
  P  P29  1  0.821258  0.999347  0.000000  1
  P  P30  1  0.520123  0.827803  0.500000  1
  P  P31  1  0.172286  0.693869  0.500000  1
  P  P32  1  0.357218  0.002370  0.000000  1
  P  P33  1  0.479174  0.306417  0.500000  1
  P  P34  1  0.004261  0.828042  0.000000  1
  P  P35  1  0.308320  0.477755  0.500000  1
