# generated using pymatgen
data_TbY3(B10Ir)2
_symmetry_space_group_name_H-M   'P 1'
_cell_length_a   4.18177700
_cell_length_b   5.69249300
_cell_length_c   11.36086000
_cell_angle_alpha   89.99980353
_cell_angle_beta   90.00000000
_cell_angle_gamma   90.00000000
_symmetry_Int_Tables_number   1
_chemical_formula_structural   TbY3(B10Ir)2
_chemical_formula_sum   'Tb1 Y3 B20 Ir2'
_cell_volume   270.44227644
_cell_formula_units_Z   1
loop_
 _symmetry_equiv_pos_site_id
 _symmetry_equiv_pos_as_xyz
  1  'x, y, z'
loop_
 _atom_site_type_symbol
 _atom_site_label
 _atom_site_symmetry_multiplicity
 _atom_site_fract_x
 _atom_site_fract_y
 _atom_site_fract_z
 _atom_site_occupancy
  Tb  Tb0  1  0.500000  0.705866  0.134210  1
  Y  Y1  1  0.500000  0.205733  0.365836  1
  Y  Y2  1  0.500000  0.794270  0.634162  1
  Y  Y3  1  0.500000  0.294233  0.865812  1
  B  B4  1  0.000000  0.381582  0.042595  1
  B  B5  1  0.000000  0.618496  0.957454  1
  B  B6  1  0.000000  0.118459  0.542565  1
  B  B7  1  0.000000  0.881526  0.457438  1
  B  B8  1  0.000000  0.364130  0.197021  1
  B  B9  1  0.000000  0.635955  0.802935  1
  B  B10  1  0.000000  0.135934  0.697053  1
  B  B11  1  0.000000  0.863994  0.302923  1
  B  B12  1  0.000000  0.056459  0.193183  1
  B  B13  1  0.000000  0.943462  0.806764  1
  B  B14  1  0.000000  0.443469  0.693229  1
  B  B15  1  0.000000  0.556560  0.306763  1
  B  B16  1  0.301375  0.220283  0.119187  1
  B  B17  1  0.698620  0.779588  0.880874  1
  B  B18  1  0.301380  0.779588  0.880874  1
  B  B19  1  0.698618  0.279621  0.619164  1
  B  B20  1  0.698625  0.220283  0.119187  1
  B  B21  1  0.301383  0.720363  0.380831  1
  B  B22  1  0.698617  0.720363  0.380831  1
  B  B23  1  0.301382  0.279621  0.619164  1
  Ir  Ir24  1  0.000000  0.000145  0.999916  1
  Ir  Ir25  1  0.000000  0.500015  0.500028  1
