# generated using pymatgen
data_Er3In3GePtRh
_symmetry_space_group_name_H-M   'P 1'
_cell_length_a   7.48489200
_cell_length_b   7.48489147
_cell_length_c   4.04052400
_cell_angle_alpha   90.00000000
_cell_angle_beta   90.00000000
_cell_angle_gamma   120.00000236
_symmetry_Int_Tables_number   1
_chemical_formula_structural   Er3In3GePtRh
_chemical_formula_sum   'Er3 In3 Ge1 Pt1 Rh1'
_cell_volume   196.03759126
_cell_formula_units_Z   1
loop_
 _symmetry_equiv_pos_site_id
 _symmetry_equiv_pos_as_xyz
  1  'x, y, z'
loop_
 _atom_site_type_symbol
 _atom_site_label
 _atom_site_symmetry_multiplicity
 _atom_site_fract_x
 _atom_site_fract_y
 _atom_site_fract_z
 _atom_site_occupancy
  Er  Er0  1  0.596390  0.007599  0.500000  1
  Er  Er1  1  0.411209  0.403610  0.500000  1
  Er  Er2  1  0.992401  0.588791  0.500000  1
  In  In3  1  0.750586  0.743986  0.000000  1
  In  In4  1  0.993400  0.249414  0.000000  1
  In  In5  1  0.256014  0.006600  0.000000  1
  Ge  Ge6  1  0.333333  0.666667  0.000000  1
  Pt  Pt7  1  0.666667  0.333333  0.000000  1
  Rh  Rh8  1  0.000000  0.000000  0.500000  1
