# generated using pymatgen
data_YLu19Cd6IrOs
_symmetry_space_group_name_H-M   'P 1'
_cell_length_a   9.41486684
_cell_length_b   9.39639735
_cell_length_c   9.66669200
_cell_angle_alpha   90.00000000
_cell_angle_beta   90.00000000
_cell_angle_gamma   119.93511214
_symmetry_Int_Tables_number   1
_chemical_formula_structural   YLu19Cd6IrOs
_chemical_formula_sum   'Y1 Lu19 Cd6 Ir1 Os1'
_cell_volume   741.08438435
_cell_formula_units_Z   1
loop_
 _symmetry_equiv_pos_site_id
 _symmetry_equiv_pos_as_xyz
  1  'x, y, z'
loop_
 _atom_site_type_symbol
 _atom_site_label
 _atom_site_symmetry_multiplicity
 _atom_site_fract_x
 _atom_site_fract_y
 _atom_site_fract_z
 _atom_site_occupancy
  Y  Y0  1  0.918727  0.459363  0.250000  1
  Lu  Lu1  1  0.001852  0.000925  0.500170  1
  Lu  Lu2  1  0.001852  0.000925  0.999830  1
  Lu  Lu3  1  0.536867  0.461912  0.250000  1
  Lu  Lu4  1  0.536867  0.074954  0.250000  1
  Lu  Lu5  1  0.458067  0.540615  0.750000  1
  Lu  Lu6  1  0.458067  0.917452  0.750000  1
  Lu  Lu7  1  0.079418  0.539710  0.750000  1
  Lu  Lu8  1  0.211068  0.790394  0.442713  1
  Lu  Lu9  1  0.211068  0.420675  0.442713  1
  Lu  Lu10  1  0.581292  0.790646  0.443205  1
  Lu  Lu11  1  0.789463  0.207617  0.558850  1
  Lu  Lu12  1  0.789463  0.581846  0.558850  1
  Lu  Lu13  1  0.419512  0.209757  0.558441  1
  Lu  Lu14  1  0.789463  0.207617  0.941150  1
  Lu  Lu15  1  0.789463  0.581846  0.941150  1
  Lu  Lu16  1  0.419512  0.209757  0.941559  1
  Lu  Lu17  1  0.211068  0.790394  0.057287  1
  Lu  Lu18  1  0.211068  0.420675  0.057287  1
  Lu  Lu19  1  0.581292  0.790646  0.056795  1
  Cd  Cd20  1  0.885841  0.111629  0.250000  1
  Cd  Cd21  1  0.885841  0.774212  0.250000  1
  Cd  Cd22  1  0.227662  0.113831  0.250000  1
  Cd  Cd23  1  0.114223  0.886208  0.750000  1
  Cd  Cd24  1  0.114223  0.228015  0.750000  1
  Cd  Cd25  1  0.772628  0.886314  0.750000  1
  Ir  Ir26  1  0.667706  0.333852  0.750000  1
  Os  Os27  1  0.336419  0.668210  0.250000  1
