# generated using pymatgen
data_Er3Tm13(In3Ir)2
_symmetry_space_group_name_H-M   'P 1'
_cell_length_a   10.29845700
_cell_length_b   10.29845642
_cell_length_c   6.97609200
_cell_angle_alpha   90.00000000
_cell_angle_beta   90.00000000
_cell_angle_gamma   119.99999865
_symmetry_Int_Tables_number   1
_chemical_formula_structural   Er3Tm13(In3Ir)2
_chemical_formula_sum   'Er3 Tm13 In6 Ir2'
_cell_volume   640.74781293
_cell_formula_units_Z   1
loop_
 _symmetry_equiv_pos_site_id
 _symmetry_equiv_pos_as_xyz
  1  'x, y, z'
loop_
 _atom_site_type_symbol
 _atom_site_label
 _atom_site_symmetry_multiplicity
 _atom_site_fract_x
 _atom_site_fract_y
 _atom_site_fract_z
 _atom_site_occupancy
  Er  Er0  1  0.532771  0.065543  0.514919  1
  Er  Er1  1  0.934457  0.467229  0.514919  1
  Er  Er2  1  0.532771  0.467229  0.514919  1
  Tm  Tm3  1  0.466994  0.933988  0.014789  1
  Tm  Tm4  1  0.066012  0.533006  0.014789  1
  Tm  Tm5  1  0.466994  0.533006  0.014789  1
  Tm  Tm6  1  0.176723  0.353446  0.721591  1
  Tm  Tm7  1  0.646554  0.823277  0.721591  1
  Tm  Tm8  1  0.176723  0.823277  0.721591  1
  Tm  Tm9  1  0.823284  0.646567  0.221232  1
  Tm  Tm10  1  0.353433  0.176716  0.221232  1
  Tm  Tm11  1  0.823284  0.176716  0.221232  1
  Tm  Tm12  1  0.666667  0.333333  0.895715  1
  Tm  Tm13  1  0.333333  0.666667  0.395499  1
  Tm  Tm14  1  0.000000  0.000000  0.500319  1
  Tm  Tm15  1  0.000000  0.000000  0.000401  1
  In  In16  1  0.837261  0.674523  0.761148  1
  In  In17  1  0.325477  0.162739  0.761148  1
  In  In18  1  0.837261  0.162739  0.761148  1
  In  In19  1  0.162815  0.325629  0.260979  1
  In  In20  1  0.674371  0.837185  0.260979  1
  In  In21  1  0.162815  0.837185  0.260979  1
  Ir  Ir22  1  0.666667  0.333333  0.290843  1
  Ir  Ir23  1  0.333333  0.666667  0.791248  1
