# generated using pymatgen
data_SrLa6FeBr12
_symmetry_space_group_name_H-M   'P 1'
_cell_length_a   9.77837482
_cell_length_b   9.82513489
_cell_length_c   9.40583575
_cell_angle_alpha   106.23887647
_cell_angle_beta   105.74224062
_cell_angle_gamma   106.81382709
_symmetry_Int_Tables_number   1
_chemical_formula_structural   SrLa6FeBr12
_chemical_formula_sum   'Sr1 La6 Fe1 Br12'
_cell_volume   767.10941277
_cell_formula_units_Z   1
loop_
 _symmetry_equiv_pos_site_id
 _symmetry_equiv_pos_as_xyz
  1  'x, y, z'
loop_
 _atom_site_type_symbol
 _atom_site_label
 _atom_site_symmetry_multiplicity
 _atom_site_fract_x
 _atom_site_fract_y
 _atom_site_fract_z
 _atom_site_occupancy
  Sr  Sr0  1  0.500000  0.500000  0.500000  1
  La  La1  1  0.108829  0.318645  0.017759  1
  La  La2  1  0.316652  0.021263  0.108236  1
  La  La3  1  0.019393  0.094654  0.283786  1
  La  La4  1  0.980606  0.905346  0.716214  1
  La  La5  1  0.683348  0.978736  0.891763  1
  La  La6  1  0.891171  0.681355  0.982241  1
  Fe  Fe7  1  0.000000  0.000000  0.000000  1
  Br  Br8  1  0.215893  0.682631  0.071543  1
  Br  Br9  1  0.449750  0.364739  0.147202  1
  Br  Br10  1  0.681482  0.072367  0.220875  1
  Br  Br11  1  0.930930  0.786217  0.325451  1
  Br  Br12  1  0.156022  0.448478  0.369479  1
  Br  Br13  1  0.369091  0.159235  0.455843  1
  Br  Br14  1  0.630909  0.840765  0.544157  1
  Br  Br15  1  0.843977  0.551522  0.630521  1
  Br  Br16  1  0.069071  0.213784  0.674550  1
  Br  Br17  1  0.318519  0.927634  0.779125  1
  Br  Br18  1  0.550249  0.635260  0.852798  1
  Br  Br19  1  0.784107  0.317370  0.928457  1
