# generated using pymatgen
data_Nd2Ga3SiIr3Ru
_symmetry_space_group_name_H-M   'P 1'
_cell_length_a   4.31229200
_cell_length_b   4.30467800
_cell_length_c   10.02285800
_cell_angle_alpha   90.00000000
_cell_angle_beta   90.00000000
_cell_angle_gamma   90.00000000
_symmetry_Int_Tables_number   1
_chemical_formula_structural   Nd2Ga3SiIr3Ru
_chemical_formula_sum   'Nd2 Ga3 Si1 Ir3 Ru1'
_cell_volume   186.05459873
_cell_formula_units_Z   1
loop_
 _symmetry_equiv_pos_site_id
 _symmetry_equiv_pos_as_xyz
  1  'x, y, z'
loop_
 _atom_site_type_symbol
 _atom_site_label
 _atom_site_symmetry_multiplicity
 _atom_site_fract_x
 _atom_site_fract_y
 _atom_site_fract_z
 _atom_site_occupancy
  Nd  Nd0  1  0.000000  0.500000  0.242619  1
  Nd  Nd1  1  0.500000  0.000000  0.760422  1
  Ga  Ga2  1  0.000000  0.000000  0.495959  1
  Ga  Ga3  1  0.500000  0.500000  0.496522  1
  Ga  Ga4  1  0.000000  0.500000  0.879806  1
  Si  Si5  1  0.500000  0.000000  0.117297  1
  Ir  Ir6  1  0.500000  0.500000  0.010212  1
  Ir  Ir7  1  0.000000  0.500000  0.628797  1
  Ir  Ir8  1  0.500000  0.000000  0.357546  1
  Ru  Ru9  1  0.000000  0.000000  0.010818  1
