# generated using pymatgen
data_EuSb12(IrRu)2
_symmetry_space_group_name_H-M   'P 1'
_cell_length_a   8.14825818
_cell_length_b   8.14643053
_cell_length_c   8.12998015
_cell_angle_alpha   109.45500339
_cell_angle_beta   109.43122405
_cell_angle_gamma   109.60389210
_symmetry_Int_Tables_number   1
_chemical_formula_structural   EuSb12(IrRu)2
_chemical_formula_sum   'Eu1 Sb12 Ir2 Ru2'
_cell_volume   415.03850651
_cell_formula_units_Z   1
loop_
 _symmetry_equiv_pos_site_id
 _symmetry_equiv_pos_as_xyz
  1  'x, y, z'
loop_
 _atom_site_type_symbol
 _atom_site_label
 _atom_site_symmetry_multiplicity
 _atom_site_fract_x
 _atom_site_fract_y
 _atom_site_fract_z
 _atom_site_occupancy
  Eu  Eu0  1  0.000000  0.000000  0.000000  1
  Sb  Sb1  1  0.662053  0.841923  0.504121  1
  Sb  Sb2  1  0.337947  0.158077  0.495879  1
  Sb  Sb3  1  0.846021  0.183882  0.342744  1
  Sb  Sb4  1  0.815549  0.661533  0.157449  1
  Sb  Sb5  1  0.841665  0.503434  0.657931  1
  Sb  Sb6  1  0.184451  0.338467  0.842551  1
  Sb  Sb7  1  0.153979  0.816118  0.657256  1
  Sb  Sb8  1  0.502364  0.657863  0.841091  1
  Sb  Sb9  1  0.497636  0.342137  0.158909  1
  Sb  Sb10  1  0.158335  0.496566  0.342069  1
  Sb  Sb11  1  0.342494  0.845282  0.187553  1
  Sb  Sb12  1  0.657506  0.154718  0.812447  1
  Ir  Ir13  1  0.500000  0.000000  0.000000  1
  Ir  Ir14  1  0.000000  0.500000  0.000000  1
  Ru  Ru15  1  0.500000  0.500000  0.500000  1
  Ru  Ru16  1  0.000000  0.000000  0.500000  1
