# generated using pymatgen
data_Hf3ScMn5Fe3Si8
_symmetry_space_group_name_H-M   'P 1'
_cell_length_a   5.04247400
_cell_length_b   7.10910273
_cell_length_c   7.48901129
_cell_angle_alpha   90.01878778
_cell_angle_beta   90.00000000
_cell_angle_gamma   90.00000000
_symmetry_Int_Tables_number   1
_chemical_formula_structural   Hf3ScMn5Fe3Si8
_chemical_formula_sum   'Hf3 Sc1 Mn5 Fe3 Si8'
_cell_volume   268.46206067
_cell_formula_units_Z   1
loop_
 _symmetry_equiv_pos_site_id
 _symmetry_equiv_pos_as_xyz
  1  'x, y, z'
loop_
 _atom_site_type_symbol
 _atom_site_label
 _atom_site_symmetry_multiplicity
 _atom_site_fract_x
 _atom_site_fract_y
 _atom_site_fract_z
 _atom_site_occupancy
  Hf  Hf0  1  0.750000  0.901376  0.250893  1
  Hf  Hf1  1  0.750000  0.405078  0.751780  1
  Hf  Hf2  1  0.250000  0.597817  0.252163  1
  Sc  Sc3  1  0.250000  0.096200  0.749950  1
  Mn  Mn4  1  0.750000  0.510895  0.113526  1
  Mn  Mn5  1  0.999864  0.749326  0.616710  1
  Mn  Mn6  1  0.499758  0.250935  0.379670  1
  Mn  Mn7  1  0.000242  0.250935  0.379670  1
  Mn  Mn8  1  0.500136  0.749326  0.616710  1
  Fe  Fe9  1  0.250000  0.489183  0.886614  1
  Fe  Fe10  1  0.750000  0.011137  0.884827  1
  Fe  Fe11  1  0.250000  0.988910  0.116319  1
  Si  Si12  1  0.750000  0.547745  0.415860  1
  Si  Si13  1  0.250000  0.449620  0.585231  1
  Si  Si14  1  0.750000  0.050578  0.584251  1
  Si  Si15  1  0.250000  0.953792  0.417737  1
  Si  Si16  1  0.999157  0.750400  0.949849  1
  Si  Si17  1  0.499926  0.248174  0.049195  1
  Si  Si18  1  0.000074  0.248174  0.049195  1
  Si  Si19  1  0.500843  0.750400  0.949849  1
