# generated using pymatgen
data_Er6Zn16Ag7S
_symmetry_space_group_name_H-M   'P 1'
_cell_length_a   9.11681228
_cell_length_b   9.11670664
_cell_length_c   9.11665600
_cell_angle_alpha   60.21481547
_cell_angle_beta   60.21568785
_cell_angle_gamma   60.21316606
_symmetry_Int_Tables_number   1
_chemical_formula_structural   Er6Zn16Ag7S
_chemical_formula_sum   'Er6 Zn16 Ag7 S1'
_cell_volume   538.40144520
_cell_formula_units_Z   1
loop_
 _symmetry_equiv_pos_site_id
 _symmetry_equiv_pos_as_xyz
  1  'x, y, z'
loop_
 _atom_site_type_symbol
 _atom_site_label
 _atom_site_symmetry_multiplicity
 _atom_site_fract_x
 _atom_site_fract_y
 _atom_site_fract_z
 _atom_site_occupancy
  Er  Er0  1  0.709356  0.290641  0.290648  1
  Er  Er1  1  0.710019  0.290303  0.710014  1
  Er  Er2  1  0.710008  0.710033  0.290308  1
  Er  Er3  1  0.290302  0.710011  0.710006  1
  Er  Er4  1  0.290640  0.709366  0.290648  1
  Er  Er5  1  0.290648  0.290640  0.709367  1
  Zn  Zn6  1  0.878519  0.878472  0.878523  1
  Zn  Zn7  1  0.504358  0.998734  0.998638  1
  Zn  Zn8  1  0.500019  0.000594  0.500009  1
  Zn  Zn9  1  0.500055  0.500000  0.000600  1
  Zn  Zn10  1  0.000606  0.499967  0.500042  1
  Zn  Zn11  1  0.998679  0.504400  0.998699  1
  Zn  Zn12  1  0.998700  0.998632  0.504414  1
  Zn  Zn13  1  0.998007  0.998026  0.997998  1
  Zn  Zn14  1  0.012352  0.329142  0.329039  1
  Zn  Zn15  1  0.329102  0.012440  0.328994  1
  Zn  Zn16  1  0.329057  0.329018  0.012457  1
  Zn  Zn17  1  0.328563  0.328642  0.328663  1
  Zn  Zn18  1  0.986656  0.671071  0.671068  1
  Zn  Zn19  1  0.671025  0.986614  0.671095  1
  Zn  Zn20  1  0.671084  0.671085  0.986590  1
  Zn  Zn21  1  0.671356  0.671283  0.671335  1
  Ag  Ag22  1  0.639764  0.119733  0.119714  1
  Ag  Ag23  1  0.119736  0.639765  0.119716  1
  Ag  Ag24  1  0.119763  0.119712  0.639759  1
  Ag  Ag25  1  0.120394  0.120405  0.120401  1
  Ag  Ag26  1  0.360500  0.880258  0.880264  1
  Ag  Ag27  1  0.880265  0.360530  0.880262  1
  Ag  Ag28  1  0.880235  0.880265  0.360497  1
  S  S29  1  0.500233  0.500218  0.500231  1
