# generated using pymatgen
data_Tb5Dy3Sc12GaSi15
_symmetry_space_group_name_H-M   'P 1'
_cell_length_a   7.11932778
_cell_length_b   7.40814791
_cell_length_c   14.05698611
_cell_angle_alpha   89.93689343
_cell_angle_beta   89.96661652
_cell_angle_gamma   90.01549939
_symmetry_Int_Tables_number   1
_chemical_formula_structural   Tb5Dy3Sc12GaSi15
_chemical_formula_sum   'Tb5 Dy3 Sc12 Ga1 Si15'
_cell_volume   741.37936925
_cell_formula_units_Z   1
loop_
 _symmetry_equiv_pos_site_id
 _symmetry_equiv_pos_as_xyz
  1  'x, y, z'
loop_
 _atom_site_type_symbol
 _atom_site_label
 _atom_site_symmetry_multiplicity
 _atom_site_fract_x
 _atom_site_fract_y
 _atom_site_fract_z
 _atom_site_occupancy
  Tb  Tb0  1  0.011885  0.175456  0.097273  1
  Tb  Tb1  1  0.987982  0.824876  0.903304  1
  Tb  Tb2  1  0.487678  0.676160  0.903160  1
  Tb  Tb3  1  0.987339  0.826598  0.597538  1
  Tb  Tb4  1  0.512199  0.324025  0.097131  1
  Dy  Dy5  1  0.011145  0.174084  0.401413  1
  Dy  Dy6  1  0.512921  0.323480  0.401335  1
  Dy  Dy7  1  0.489898  0.678078  0.597680  1
  Sc  Sc8  1  0.161246  0.502472  0.751673  1
  Sc  Sc9  1  0.839039  0.497831  0.249898  1
  Sc  Sc10  1  0.338998  0.002315  0.249656  1
  Sc  Sc11  1  0.661611  0.996821  0.750171  1
  Sc  Sc12  1  0.332616  0.173730  0.626135  1
  Sc  Sc13  1  0.668444  0.824167  0.374260  1
  Sc  Sc14  1  0.169976  0.677289  0.373358  1
  Sc  Sc15  1  0.669918  0.823923  0.125379  1
  Sc  Sc16  1  0.828172  0.323506  0.625570  1
  Sc  Sc17  1  0.329857  0.175537  0.874948  1
  Sc  Sc18  1  0.830328  0.323318  0.874973  1
  Sc  Sc19  1  0.169186  0.676528  0.125439  1
  Ga  Ga20  1  0.159968  0.462097  0.539079  1
  Si  Si21  1  0.033741  0.118415  0.750664  1
  Si  Si22  1  0.966483  0.882652  0.249704  1
  Si  Si23  1  0.467504  0.616864  0.249942  1
  Si  Si24  1  0.532332  0.384050  0.749751  1
  Si  Si25  1  0.284743  0.873536  0.750295  1
  Si  Si26  1  0.714292  0.126634  0.249665  1
  Si  Si27  1  0.214096  0.373093  0.249602  1
  Si  Si28  1  0.785775  0.626257  0.750678  1
  Si  Si29  1  0.841480  0.536160  0.460342  1
  Si  Si30  1  0.342149  0.964210  0.460188  1
  Si  Si31  1  0.842756  0.535590  0.038829  1
  Si  Si32  1  0.657122  0.035974  0.538863  1
  Si  Si33  1  0.157208  0.464179  0.961708  1
  Si  Si34  1  0.656807  0.035526  0.960796  1
  Si  Si35  1  0.343103  0.964568  0.039596  1
