# generated using pymatgen
data_TbHo9In8(IrPt)2
_symmetry_space_group_name_H-M   'P 1'
_cell_length_a   3.62282900
_cell_length_b   8.11422346
_cell_length_c   18.23444712
_cell_angle_alpha   89.97216516
_cell_angle_beta   90.00000000
_cell_angle_gamma   90.00000000
_symmetry_Int_Tables_number   1
_chemical_formula_structural   TbHo9In8(IrPt)2
_chemical_formula_sum   'Tb1 Ho9 In8 Ir2 Pt2'
_cell_volume   536.02784151
_cell_formula_units_Z   1
loop_
 _symmetry_equiv_pos_site_id
 _symmetry_equiv_pos_as_xyz
  1  'x, y, z'
loop_
 _atom_site_type_symbol
 _atom_site_label
 _atom_site_symmetry_multiplicity
 _atom_site_fract_x
 _atom_site_fract_y
 _atom_site_fract_z
 _atom_site_occupancy
  Tb  Tb0  1  0.000000  0.500000  0.500000  1
  Ho  Ho1  1  0.000000  0.115124  0.411931  1
  Ho  Ho2  1  0.000000  0.884876  0.588069  1
  Ho  Ho3  1  0.000000  0.383206  0.913915  1
  Ho  Ho4  1  0.000000  0.616794  0.086085  1
  Ho  Ho5  1  0.000000  0.236473  0.221841  1
  Ho  Ho6  1  0.000000  0.763527  0.778159  1
  Ho  Ho7  1  0.000000  0.248918  0.720079  1
  Ho  Ho8  1  0.000000  0.751082  0.279921  1
  Ho  Ho9  1  0.000000  0.000000  0.000000  1
  In  In10  1  0.500000  0.423677  0.350789  1
  In  In11  1  0.500000  0.576323  0.649211  1
  In  In12  1  0.500000  0.074565  0.850740  1
  In  In13  1  0.500000  0.925435  0.149260  1
  In  In14  1  0.500000  0.292486  0.066570  1
  In  In15  1  0.500000  0.707514  0.933430  1
  In  In16  1  0.500000  0.206324  0.567496  1
  In  In17  1  0.500000  0.793676  0.432504  1
  Ir  Ir18  1  0.500000  0.021702  0.303822  1
  Ir  Ir19  1  0.500000  0.978298  0.696178  1
  Pt  Pt20  1  0.500000  0.477069  0.803463  1
  Pt  Pt21  1  0.500000  0.522931  0.196537  1
