# generated using pymatgen
data_Ba2Pb4Au3
_symmetry_space_group_name_H-M   'P 1'
_cell_length_a   16.02014300
_cell_length_b   16.02014478
_cell_length_c   4.92307300
_cell_angle_alpha   90.00000000
_cell_angle_beta   90.00000000
_cell_angle_gamma   120.00000252
_symmetry_Int_Tables_number   1
_chemical_formula_structural   Ba2Pb4Au3
_chemical_formula_sum   'Ba8 Pb16 Au12'
_cell_volume   1094.20758590
_cell_formula_units_Z   4
loop_
 _symmetry_equiv_pos_site_id
 _symmetry_equiv_pos_as_xyz
  1  'x, y, z'
loop_
 _atom_site_type_symbol
 _atom_site_label
 _atom_site_symmetry_multiplicity
 _atom_site_fract_x
 _atom_site_fract_y
 _atom_site_fract_z
 _atom_site_occupancy
  Ba  Ba0  1  0.448397  0.000000  0.000000  1
  Ba  Ba1  1  0.000000  0.448397  0.000000  1
  Ba  Ba2  1  0.551603  0.551603  0.000000  1
  Ba  Ba3  1  0.333333  0.666667  0.000000  1
  Ba  Ba4  1  0.666667  0.333333  0.000000  1
  Ba  Ba5  1  0.818532  0.000000  0.500000  1
  Ba  Ba6  1  0.000000  0.818532  0.500000  1
  Ba  Ba7  1  0.181468  0.181468  0.500000  1
  Pb  Pb8  1  0.000000  0.000000  0.000000  1
  Pb  Pb9  1  0.181165  0.377110  0.000000  1
  Pb  Pb10  1  0.622890  0.804055  0.000000  1
  Pb  Pb11  1  0.377110  0.181165  0.000000  1
  Pb  Pb12  1  0.195945  0.818835  0.000000  1
  Pb  Pb13  1  0.804055  0.622890  0.000000  1
  Pb  Pb14  1  0.818835  0.195945  0.000000  1
  Pb  Pb15  1  0.272890  0.000000  0.500000  1
  Pb  Pb16  1  0.000000  0.272890  0.500000  1
  Pb  Pb17  1  0.727110  0.727110  0.500000  1
  Pb  Pb18  1  0.350286  0.473636  0.500000  1
  Pb  Pb19  1  0.526364  0.876650  0.500000  1
  Pb  Pb20  1  0.473636  0.350286  0.500000  1
  Pb  Pb21  1  0.123350  0.649714  0.500000  1
  Pb  Pb22  1  0.876650  0.526364  0.500000  1
  Pb  Pb23  1  0.649714  0.123350  0.500000  1
  Au  Au24  1  0.171723  0.492733  0.500000  1
  Au  Au25  1  0.507267  0.678989  0.500000  1
  Au  Au26  1  0.492733  0.171723  0.500000  1
  Au  Au27  1  0.321011  0.828277  0.500000  1
  Au  Au28  1  0.678989  0.507267  0.500000  1
  Au  Au29  1  0.828277  0.321011  0.500000  1
  Au  Au30  1  0.173561  0.000000  0.000000  1
  Au  Au31  1  0.000000  0.173561  0.000000  1
  Au  Au32  1  0.826439  0.826439  0.000000  1
  Au  Au33  1  0.658477  0.000000  0.000000  1
  Au  Au34  1  0.000000  0.658477  0.000000  1
  Au  Au35  1  0.341523  0.341523  0.000000  1
