# generated using pymatgen
data_Yb2PRh3
_symmetry_space_group_name_H-M   'P 1'
_cell_length_a   4.92372592
_cell_length_b   4.92372576
_cell_length_c   4.92372557
_cell_angle_alpha   68.09436461
_cell_angle_beta   68.09436848
_cell_angle_gamma   68.09436308
_symmetry_Int_Tables_number   1
_chemical_formula_structural   Yb2PRh3
_chemical_formula_sum   'Yb2 P1 Rh3'
_cell_volume   98.88630269
_cell_formula_units_Z   1
loop_
 _symmetry_equiv_pos_site_id
 _symmetry_equiv_pos_as_xyz
  1  'x, y, z'
loop_
 _atom_site_type_symbol
 _atom_site_label
 _atom_site_symmetry_multiplicity
 _atom_site_fract_x
 _atom_site_fract_y
 _atom_site_fract_z
 _atom_site_occupancy
  Yb  Yb0  1  0.752563  0.752563  0.752563  1
  Yb  Yb1  1  0.497437  0.497437  0.497437  1
  P  P2  1  0.125000  0.125000  0.125000  1
  Rh  Rh3  1  0.125000  0.625000  0.125000  1
  Rh  Rh4  1  0.125000  0.125000  0.625000  1
  Rh  Rh5  1  0.625000  0.125000  0.125000  1
