# generated using pymatgen
data_Ce4Al5ZnTc2
_symmetry_space_group_name_H-M   'P 1'
_cell_length_a   5.51743900
_cell_length_b   5.47411637
_cell_length_c   8.95207900
_cell_angle_alpha   90.00000000
_cell_angle_beta   90.00000000
_cell_angle_gamma   119.74059843
_symmetry_Int_Tables_number   1
_chemical_formula_structural   Ce4Al5ZnTc2
_chemical_formula_sum   'Ce4 Al5 Zn1 Tc2'
_cell_volume   234.76609853
_cell_formula_units_Z   1
loop_
 _symmetry_equiv_pos_site_id
 _symmetry_equiv_pos_as_xyz
  1  'x, y, z'
loop_
 _atom_site_type_symbol
 _atom_site_label
 _atom_site_symmetry_multiplicity
 _atom_site_fract_x
 _atom_site_fract_y
 _atom_site_fract_z
 _atom_site_occupancy
  Ce  Ce0  1  0.345380  0.672690  0.454760  1
  Ce  Ce1  1  0.655821  0.327909  0.550012  1
  Ce  Ce2  1  0.655821  0.327909  0.949988  1
  Ce  Ce3  1  0.345380  0.672690  0.045240  1
  Al  Al4  1  0.846020  0.168481  0.250000  1
  Al  Al5  1  0.846020  0.677540  0.250000  1
  Al  Al6  1  0.332173  0.166086  0.250000  1
  Al  Al7  1  0.144745  0.828861  0.750000  1
  Al  Al8  1  0.144745  0.315884  0.750000  1
  Zn  Zn9  1  0.661519  0.830760  0.750000  1
  Tc  Tc10  1  0.011189  0.005594  0.497641  1
  Tc  Tc11  1  0.011189  0.005594  0.002359  1
