# generated using pymatgen
data_NdLu6Co6Sn23
_symmetry_space_group_name_H-M   'P 1'
_cell_length_a   9.65566400
_cell_length_b   9.65566459
_cell_length_c   9.94805700
_cell_angle_alpha   90.00000000
_cell_angle_beta   90.00000000
_cell_angle_gamma   119.99999797
_symmetry_Int_Tables_number   1
_chemical_formula_structural   NdLu6Co6Sn23
_chemical_formula_sum   'Nd1 Lu6 Co6 Sn23'
_cell_volume   803.21761026
_cell_formula_units_Z   1
loop_
 _symmetry_equiv_pos_site_id
 _symmetry_equiv_pos_as_xyz
  1  'x, y, z'
loop_
 _atom_site_type_symbol
 _atom_site_label
 _atom_site_symmetry_multiplicity
 _atom_site_fract_x
 _atom_site_fract_y
 _atom_site_fract_z
 _atom_site_occupancy
  Nd  Nd0  1  0.000000  0.000000  0.000000  1
  Lu  Lu1  1  0.479933  0.520067  0.306082  1
  Lu  Lu2  1  0.520067  0.479933  0.693918  1
  Lu  Lu3  1  0.479933  0.959865  0.306082  1
  Lu  Lu4  1  0.520067  0.040135  0.693918  1
  Lu  Lu5  1  0.040135  0.520067  0.306082  1
  Lu  Lu6  1  0.959865  0.479933  0.693918  1
  Co  Co7  1  0.831144  0.168856  0.198151  1
  Co  Co8  1  0.168856  0.831144  0.801849  1
  Co  Co9  1  0.831144  0.662286  0.198151  1
  Co  Co10  1  0.168856  0.337714  0.801849  1
  Co  Co11  1  0.337714  0.168856  0.198151  1
  Co  Co12  1  0.662286  0.831144  0.801849  1
  Sn  Sn13  1  0.347550  0.000000  0.000000  1
  Sn  Sn14  1  0.652450  0.000000  0.000000  1
  Sn  Sn15  1  0.000000  0.347550  0.000000  1
  Sn  Sn16  1  0.000000  0.652450  0.000000  1
  Sn  Sn17  1  0.652450  0.652450  0.000000  1
  Sn  Sn18  1  0.347550  0.347550  0.000000  1
  Sn  Sn19  1  0.333333  0.666667  0.817795  1
  Sn  Sn20  1  0.666667  0.333333  0.182205  1
  Sn  Sn21  1  0.000000  0.000000  0.500000  1
  Sn  Sn22  1  0.780719  0.219281  0.452039  1
  Sn  Sn23  1  0.219281  0.780719  0.547961  1
  Sn  Sn24  1  0.780719  0.561437  0.452039  1
  Sn  Sn25  1  0.219281  0.438563  0.547961  1
  Sn  Sn26  1  0.438563  0.219281  0.452039  1
  Sn  Sn27  1  0.561437  0.780719  0.547961  1
  Sn  Sn28  1  0.333333  0.666667  0.123330  1
  Sn  Sn29  1  0.666667  0.333333  0.876670  1
  Sn  Sn30  1  0.119611  0.880389  0.275871  1
  Sn  Sn31  1  0.880389  0.119611  0.724129  1
  Sn  Sn32  1  0.119611  0.239220  0.275871  1
  Sn  Sn33  1  0.880389  0.760780  0.724129  1
  Sn  Sn34  1  0.760780  0.880389  0.275871  1
  Sn  Sn35  1  0.239220  0.119611  0.724129  1
