# generated using pymatgen
data_Hf12Th8Si9Ge7
_symmetry_space_group_name_H-M   'P 1'
_cell_length_a   7.43498586
_cell_length_b   7.44165660
_cell_length_c   13.69617597
_cell_angle_alpha   89.95618302
_cell_angle_beta   89.88419522
_cell_angle_gamma   90.01380431
_symmetry_Int_Tables_number   1
_chemical_formula_structural   Hf12Th8Si9Ge7
_chemical_formula_sum   'Hf12 Th8 Si9 Ge7'
_cell_volume   757.78860922
_cell_formula_units_Z   1
loop_
 _symmetry_equiv_pos_site_id
 _symmetry_equiv_pos_as_xyz
  1  'x, y, z'
loop_
 _atom_site_type_symbol
 _atom_site_label
 _atom_site_symmetry_multiplicity
 _atom_site_fract_x
 _atom_site_fract_y
 _atom_site_fract_z
 _atom_site_occupancy
  Hf  Hf0  1  0.672343  0.325044  0.749464  1
  Hf  Hf1  1  0.324939  0.675131  0.250087  1
  Hf  Hf2  1  0.824556  0.824835  0.500056  1
  Hf  Hf3  1  0.175051  0.175139  0.999832  1
  Hf  Hf4  1  0.492637  0.340938  0.123264  1
  Hf  Hf5  1  0.504237  0.655861  0.624502  1
  Hf  Hf6  1  0.841177  0.008373  0.872634  1
  Hf  Hf7  1  0.159320  0.992658  0.373389  1
  Hf  Hf8  1  0.659188  0.507447  0.376833  1
  Hf  Hf9  1  0.341461  0.492924  0.875312  1
  Hf  Hf10  1  0.007539  0.840513  0.126731  1
  Hf  Hf11  1  0.994214  0.160535  0.626654  1
  Th  Th12  1  0.498570  0.160819  0.534116  1
  Th  Th13  1  0.499051  0.841481  0.032635  1
  Th  Th14  1  0.658600  0.998919  0.282975  1
  Th  Th15  1  0.341570  0.001950  0.782242  1
  Th  Th16  1  0.841924  0.498379  0.966719  1
  Th  Th17  1  0.159402  0.499889  0.468283  1
  Th  Th18  1  0.000438  0.657762  0.716823  1
  Th  Th19  1  0.001008  0.341340  0.217344  1
  Si  Si20  1  0.297896  0.371397  0.683238  1
  Si  Si21  1  0.540413  0.209766  0.933108  1
  Si  Si22  1  0.459785  0.790765  0.433729  1
  Si  Si23  1  0.709626  0.959296  0.682759  1
  Si  Si24  1  0.290588  0.039986  0.183158  1
  Si  Si25  1  0.790010  0.460125  0.566876  1
  Si  Si26  1  0.209638  0.540178  0.066532  1
  Si  Si27  1  0.960578  0.708998  0.317231  1
  Si  Si28  1  0.043701  0.291510  0.815089  1
  Ge  Ge29  1  0.800209  0.126984  0.068754  1
  Ge  Ge30  1  0.199798  0.872853  0.568635  1
  Ge  Ge31  1  0.628022  0.700904  0.818801  1
  Ge  Ge32  1  0.373118  0.300038  0.319008  1
  Ge  Ge33  1  0.872320  0.200089  0.431177  1
  Ge  Ge34  1  0.126966  0.800172  0.930979  1
  Ge  Ge35  1  0.700107  0.627002  0.181033  1
