# generated using pymatgen
data_TaNb2ReSi3W2
_symmetry_space_group_name_H-M   'P 1'
_cell_length_a   6.93563252
_cell_length_b   6.90215896
_cell_length_c   3.34893200
_cell_angle_alpha   90.00000000
_cell_angle_beta   90.00000000
_cell_angle_gamma   119.84048530
_symmetry_Int_Tables_number   1
_chemical_formula_structural   TaNb2ReSi3W2
_chemical_formula_sum   'Ta1 Nb2 Re1 Si3 W2'
_cell_volume   139.06051225
_cell_formula_units_Z   1
loop_
 _symmetry_equiv_pos_site_id
 _symmetry_equiv_pos_as_xyz
  1  'x, y, z'
loop_
 _atom_site_type_symbol
 _atom_site_label
 _atom_site_symmetry_multiplicity
 _atom_site_fract_x
 _atom_site_fract_y
 _atom_site_fract_z
 _atom_site_occupancy
  Ta  Ta0  1  0.000000  0.610651  0.500000  1
  Nb  Nb1  1  0.412964  0.400014  0.500000  1
  Nb  Nb2  1  0.587036  0.987050  0.500000  1
  Re  Re3  1  0.000000  0.262398  0.000000  1
  Si  Si4  1  0.672537  0.330040  0.000000  1
  Si  Si5  1  0.327463  0.657504  0.000000  1
  Si  Si6  1  0.000000  0.010636  0.500000  1
  W  W7  1  0.744086  0.742895  0.000000  1
  W  W8  1  0.255914  0.998809  0.000000  1
