# generated using pymatgen
data_LuMg2P6IN12
_symmetry_space_group_name_H-M   'P 1'
_cell_length_a   7.39925309
_cell_length_b   7.37853768
_cell_length_c   7.39925267
_cell_angle_alpha   109.53374008
_cell_angle_beta   109.89313156
_cell_angle_gamma   109.53372339
_symmetry_Int_Tables_number   1
_chemical_formula_structural   LuMg2P6IN12
_chemical_formula_sum   'Lu1 Mg2 P6 I1 N12'
_cell_volume   308.85414662
_cell_formula_units_Z   1
loop_
 _symmetry_equiv_pos_site_id
 _symmetry_equiv_pos_as_xyz
  1  'x, y, z'
loop_
 _atom_site_type_symbol
 _atom_site_label
 _atom_site_symmetry_multiplicity
 _atom_site_fract_x
 _atom_site_fract_y
 _atom_site_fract_z
 _atom_site_occupancy
  Lu  Lu0  1  0.022606  0.381188  0.022606  1
  Mg  Mg1  1  0.004486  0.004430  0.397448  1
  Mg  Mg2  1  0.397448  0.004430  0.004486  1
  P  P3  1  0.502232  0.258585  0.749553  1
  P  P4  1  0.250967  0.752550  0.499353  1
  P  P5  1  0.741608  0.502666  0.258479  1
  P  P6  1  0.749553  0.258585  0.502232  1
  P  P7  1  0.499353  0.752550  0.250967  1
  P  P8  1  0.258479  0.502666  0.741608  1
  I  I9  1  0.976882  0.949279  0.976882  1
  N  N10  1  0.379569  0.675603  0.379569  1
  N  N11  1  0.701878  0.421378  0.422419  1
  N  N12  1  0.422419  0.421378  0.701878  1
  N  N13  1  0.723049  0.290967  0.723049  1
  N  N14  1  0.991766  0.580170  0.290763  1
  N  N15  1  0.290763  0.580170  0.991766  1
  N  N16  1  0.287896  0.002882  0.571713  1
  N  N17  1  0.000149  0.285136  0.575724  1
  N  N18  1  0.717114  0.723685  0.294346  1
  N  N19  1  0.571713  0.002882  0.287896  1
  N  N20  1  0.294346  0.723685  0.717114  1
  N  N21  1  0.575724  0.285136  0.000149  1
