# generated using pymatgen
data_Tb8In3Ni
_symmetry_space_group_name_H-M   'P 1'
_cell_length_a   10.55276400
_cell_length_b   10.55276476
_cell_length_c   7.00928100
_cell_angle_alpha   90.00000000
_cell_angle_beta   90.00000000
_cell_angle_gamma   120.00000390
_symmetry_Int_Tables_number   1
_chemical_formula_structural   Tb8In3Ni
_chemical_formula_sum   'Tb16 In6 Ni2'
_cell_volume   675.98423613
_cell_formula_units_Z   2
loop_
 _symmetry_equiv_pos_site_id
 _symmetry_equiv_pos_as_xyz
  1  'x, y, z'
loop_
 _atom_site_type_symbol
 _atom_site_label
 _atom_site_symmetry_multiplicity
 _atom_site_fract_x
 _atom_site_fract_y
 _atom_site_fract_z
 _atom_site_occupancy
  Tb  Tb0  1  0.466857  0.533143  0.480871  1
  Tb  Tb1  1  0.066285  0.533143  0.480871  1
  Tb  Tb2  1  0.466857  0.933715  0.480871  1
  Tb  Tb3  1  0.533143  0.466857  0.980871  1
  Tb  Tb4  1  0.933715  0.466857  0.980871  1
  Tb  Tb5  1  0.533143  0.066285  0.980871  1
  Tb  Tb6  1  0.823245  0.176755  0.272775  1
  Tb  Tb7  1  0.353510  0.176755  0.272775  1
  Tb  Tb8  1  0.823245  0.646490  0.272775  1
  Tb  Tb9  1  0.176755  0.823245  0.772775  1
  Tb  Tb10  1  0.646490  0.823245  0.772775  1
  Tb  Tb11  1  0.176755  0.353510  0.772775  1
  Tb  Tb12  1  0.333333  0.666667  0.093889  1
  Tb  Tb13  1  0.666667  0.333333  0.593889  1
  Tb  Tb14  1  0.000000  0.000000  0.496655  1
  Tb  Tb15  1  0.000000  0.000000  0.996655  1
  In  In16  1  0.163088  0.836912  0.237794  1
  In  In17  1  0.673825  0.836912  0.237794  1
  In  In18  1  0.163088  0.326175  0.237794  1
  In  In19  1  0.836912  0.163088  0.737794  1
  In  In20  1  0.326175  0.163088  0.737794  1
  In  In21  1  0.836912  0.673825  0.737794  1
  Ni  Ni22  1  0.333333  0.666667  0.707411  1
  Ni  Ni23  1  0.666667  0.333333  0.207411  1
