# generated using pymatgen
data_TbLu3Al16(ZnPd3)2
_symmetry_space_group_name_H-M   'P 1'
_cell_length_a   7.57558661
_cell_length_b   7.57612454
_cell_length_c   9.44428000
_cell_angle_alpha   90.00000000
_cell_angle_beta   90.00000000
_cell_angle_gamma   119.06043365
_symmetry_Int_Tables_number   1
_chemical_formula_structural   TbLu3Al16(ZnPd3)2
_chemical_formula_sum   'Tb1 Lu3 Al16 Zn2 Pd6'
_cell_volume   473.80239669
_cell_formula_units_Z   1
loop_
 _symmetry_equiv_pos_site_id
 _symmetry_equiv_pos_as_xyz
  1  'x, y, z'
loop_
 _atom_site_type_symbol
 _atom_site_label
 _atom_site_symmetry_multiplicity
 _atom_site_fract_x
 _atom_site_fract_y
 _atom_site_fract_z
 _atom_site_occupancy
  Tb  Tb0  1  0.993692  0.672167  0.250000  1
  Lu  Lu1  1  0.005540  0.326047  0.750000  1
  Lu  Lu2  1  0.672822  0.993782  0.250000  1
  Lu  Lu3  1  0.327092  0.006598  0.750000  1
  Al  Al4  1  0.001185  0.332015  0.078776  1
  Al  Al5  1  0.999132  0.666275  0.917568  1
  Al  Al6  1  0.999132  0.666275  0.582432  1
  Al  Al7  1  0.335133  0.002405  0.421354  1
  Al  Al8  1  0.001185  0.332015  0.421224  1
  Al  Al9  1  0.666251  0.999401  0.581090  1
  Al  Al10  1  0.666251  0.999401  0.918910  1
  Al  Al11  1  0.335133  0.002405  0.078646  1
  Al  Al12  1  0.331912  0.332059  0.558959  1
  Al  Al13  1  0.666924  0.668181  0.444992  1
  Al  Al14  1  0.666924  0.668181  0.055008  1
  Al  Al15  1  0.331912  0.332059  0.941041  1
  Al  Al16  1  0.340846  0.548957  0.250000  1
  Al  Al17  1  0.659451  0.449772  0.750000  1
  Al  Al18  1  0.547923  0.339810  0.250000  1
  Al  Al19  1  0.449904  0.660159  0.750000  1
  Zn  Zn20  1  0.141013  0.140367  0.250000  1
  Zn  Zn21  1  0.859791  0.860394  0.750000  1
  Pd  Pd22  1  0.672991  0.327509  0.999938  1
  Pd  Pd23  1  0.326909  0.672729  0.999747  1
  Pd  Pd24  1  0.326909  0.672729  0.500253  1
  Pd  Pd25  1  0.672991  0.327509  0.500062  1
  Pd  Pd26  1  0.000527  0.000398  0.999800  1
  Pd  Pd27  1  0.000527  0.000398  0.500200  1
