# generated using pymatgen
data_Gd4Er(CoO6)2
_symmetry_space_group_name_H-M   'P 1'
_cell_length_a   6.80872718
_cell_length_b   6.80872806
_cell_length_c   7.24471200
_cell_angle_alpha   74.51248818
_cell_angle_beta   74.51248408
_cell_angle_gamma   50.20105438
_symmetry_Int_Tables_number   1
_chemical_formula_structural   Gd4Er(CoO6)2
_chemical_formula_sum   'Gd4 Er1 Co2 O12'
_cell_volume   246.56317656
_cell_formula_units_Z   1
loop_
 _symmetry_equiv_pos_site_id
 _symmetry_equiv_pos_as_xyz
  1  'x, y, z'
loop_
 _atom_site_type_symbol
 _atom_site_label
 _atom_site_symmetry_multiplicity
 _atom_site_fract_x
 _atom_site_fract_y
 _atom_site_fract_z
 _atom_site_occupancy
  Gd  Gd0  1  0.306979  0.306979  0.354906  1
  Gd  Gd1  1  0.693021  0.693021  0.645094  1
  Gd  Gd2  1  0.309452  0.309452  0.834537  1
  Gd  Gd3  1  0.690548  0.690548  0.165463  1
  Er  Er4  1  0.000000  0.000000  0.500000  1
  Co  Co5  1  0.755978  0.244022  0.000000  1
  Co  Co6  1  0.244022  0.755978  0.000000  1
  O  O7  1  0.901717  0.414092  0.921588  1
  O  O8  1  0.414092  0.901717  0.921588  1
  O  O9  1  0.098283  0.585908  0.078412  1
  O  O10  1  0.585908  0.098283  0.078412  1
  O  O11  1  0.097626  0.603107  0.573979  1
  O  O12  1  0.603107  0.097626  0.573979  1
  O  O13  1  0.902374  0.396893  0.426021  1
  O  O14  1  0.396893  0.902374  0.426021  1
  O  O15  1  0.000611  0.000611  0.827207  1
  O  O16  1  0.999389  0.999389  0.172793  1
  O  O17  1  0.500344  0.500344  0.828076  1
  O  O18  1  0.499656  0.499656  0.171924  1
