# generated using pymatgen
data_Dy3Y4HoEr4Co5Bi
_symmetry_space_group_name_H-M   'P 1'
_cell_length_a   8.30325287
_cell_length_b   8.30321928
_cell_length_c   8.30325200
_cell_angle_alpha   110.77388663
_cell_angle_beta   110.72722204
_cell_angle_gamma   106.94194259
_symmetry_Int_Tables_number   1
_chemical_formula_structural   Dy3Y4HoEr4Co5Bi
_chemical_formula_sum   'Dy3 Y4 Ho1 Er4 Co5 Bi1'
_cell_volume   440.03625279
_cell_formula_units_Z   1
loop_
 _symmetry_equiv_pos_site_id
 _symmetry_equiv_pos_as_xyz
  1  'x, y, z'
loop_
 _atom_site_type_symbol
 _atom_site_label
 _atom_site_symmetry_multiplicity
 _atom_site_fract_x
 _atom_site_fract_y
 _atom_site_fract_z
 _atom_site_occupancy
  Dy  Dy0  1  0.400129  0.205817  0.194312  1
  Dy  Dy1  1  0.988495  0.794183  0.194312  1
  Dy  Dy2  1  0.011505  0.205817  0.805688  1
  Y  Y3  1  0.814930  0.709806  0.524734  1
  Y  Y4  1  0.185070  0.290194  0.475266  1
  Y  Y5  1  0.185072  0.709806  0.894874  1
  Y  Y6  1  0.814928  0.290194  0.105126  1
  Ho  Ho7  1  0.599871  0.794183  0.805688  1
  Er  Er8  1  0.687993  0.377156  0.689163  1
  Er  Er9  1  0.312007  0.622844  0.310837  1
  Er  Er10  1  0.687992  0.998828  0.310837  1
  Er  Er11  1  0.312008  0.001172  0.689163  1
  Co  Co12  1  0.622809  0.000000  0.622809  1
  Co  Co13  1  0.377191  0.000000  0.377191  1
  Co  Co14  1  0.111759  0.611759  0.499999  1
  Co  Co15  1  0.888241  0.388241  0.500001  1
  Co  Co16  1  0.000000  0.000000  0.000000  1
  Bi  Bi17  1  0.500000  0.500000  0.000000  1
