# generated using pymatgen
data_TbSmEr3(In2Pd)2
_symmetry_space_group_name_H-M   'P 1'
_cell_length_a   3.61900200
_cell_length_b   8.18200142
_cell_length_c   18.30253036
_cell_angle_alpha   89.81703857
_cell_angle_beta   90.00000000
_cell_angle_gamma   90.00000000
_symmetry_Int_Tables_number   1
_chemical_formula_structural   TbSmEr3(In2Pd)2
_chemical_formula_sum   'Tb2 Sm2 Er6 In8 Pd4'
_cell_volume   541.94759712
_cell_formula_units_Z   2
loop_
 _symmetry_equiv_pos_site_id
 _symmetry_equiv_pos_as_xyz
  1  'x, y, z'
loop_
 _atom_site_type_symbol
 _atom_site_label
 _atom_site_symmetry_multiplicity
 _atom_site_fract_x
 _atom_site_fract_y
 _atom_site_fract_z
 _atom_site_occupancy
  Tb  Tb0  1  0.000000  0.739281  0.282278  1
  Tb  Tb1  1  0.000000  0.260719  0.717722  1
  Sm  Sm2  1  0.000000  0.500000  0.500000  1
  Sm  Sm3  1  0.000000  0.000000  0.000000  1
  Er  Er4  1  0.000000  0.761128  0.781974  1
  Er  Er5  1  0.000000  0.238872  0.218026  1
  Er  Er6  1  0.000000  0.619544  0.084483  1
  Er  Er7  1  0.000000  0.380456  0.915517  1
  Er  Er8  1  0.000000  0.879408  0.584399  1
  Er  Er9  1  0.000000  0.120592  0.415601  1
  In  In10  1  0.500000  0.701983  0.933169  1
  In  In11  1  0.500000  0.298017  0.066831  1
  In  In12  1  0.500000  0.799293  0.433547  1
  In  In13  1  0.500000  0.200707  0.566453  1
  In  In14  1  0.500000  0.583090  0.652522  1
  In  In15  1  0.500000  0.416910  0.347478  1
  In  In16  1  0.500000  0.918957  0.152189  1
  In  In17  1  0.500000  0.081043  0.847811  1
  Pd  Pd18  1  0.500000  0.521041  0.194999  1
  Pd  Pd19  1  0.500000  0.478959  0.805001  1
  Pd  Pd20  1  0.500000  0.972054  0.695729  1
  Pd  Pd21  1  0.500000  0.027946  0.304271  1
