# generated using pymatgen
data_DyPa5(AlPt)6
_symmetry_space_group_name_H-M   'P 1'
_cell_length_a   7.05542694
_cell_length_b   7.04812170
_cell_length_c   8.37278500
_cell_angle_alpha   90.00000000
_cell_angle_beta   90.00000000
_cell_angle_gamma   120.27430251
_symmetry_Int_Tables_number   1
_chemical_formula_structural   DyPa5(AlPt)6
_chemical_formula_sum   'Dy1 Pa5 Al6 Pt6'
_cell_volume   359.57559054
_cell_formula_units_Z   1
loop_
 _symmetry_equiv_pos_site_id
 _symmetry_equiv_pos_as_xyz
  1  'x, y, z'
loop_
 _atom_site_type_symbol
 _atom_site_label
 _atom_site_symmetry_multiplicity
 _atom_site_fract_x
 _atom_site_fract_y
 _atom_site_fract_z
 _atom_site_occupancy
  Dy  Dy0  1  0.414391  0.414512  0.250000  1
  Pa  Pa1  1  0.998869  0.579748  0.750000  1
  Pa  Pa2  1  0.001470  0.577341  0.250000  1
  Pa  Pa3  1  0.577946  0.002169  0.250000  1
  Pa  Pa4  1  0.579950  0.998312  0.750000  1
  Pa  Pa5  1  0.427032  0.427565  0.750000  1
  Al  Al6  1  0.002964  0.238636  0.499063  1
  Al  Al7  1  0.758475  0.758645  0.001862  1
  Al  Al8  1  0.002964  0.238636  0.000937  1
  Al  Al9  1  0.239392  0.003418  0.499028  1
  Al  Al10  1  0.239392  0.003418  0.000972  1
  Al  Al11  1  0.758475  0.758645  0.498138  1
  Pt  Pt12  1  0.330993  0.672388  0.501292  1
  Pt  Pt13  1  0.672290  0.331593  0.501736  1
  Pt  Pt14  1  0.672290  0.331593  0.998264  1
  Pt  Pt15  1  0.990202  0.989780  0.250000  1
  Pt  Pt16  1  0.001912  0.001211  0.750000  1
  Pt  Pt17  1  0.330993  0.672388  0.998708  1
