# generated using pymatgen
data_Er4ReOs5Ru2
_symmetry_space_group_name_H-M   'P 1'
_cell_length_a   5.21304578
_cell_length_b   5.35576742
_cell_length_c   9.01384300
_cell_angle_alpha   90.00000000
_cell_angle_beta   90.00000000
_cell_angle_gamma   120.90985694
_symmetry_Int_Tables_number   1
_chemical_formula_structural   Er4ReOs5Ru2
_chemical_formula_sum   'Er4 Re1 Os5 Ru2'
_cell_volume   215.92287448
_cell_formula_units_Z   1
loop_
 _symmetry_equiv_pos_site_id
 _symmetry_equiv_pos_as_xyz
  1  'x, y, z'
loop_
 _atom_site_type_symbol
 _atom_site_label
 _atom_site_symmetry_multiplicity
 _atom_site_fract_x
 _atom_site_fract_y
 _atom_site_fract_z
 _atom_site_occupancy
  Er  Er0  1  0.331283  0.665642  0.433729  1
  Er  Er1  1  0.659918  0.329958  0.565506  1
  Er  Er2  1  0.659918  0.329958  0.934494  1
  Er  Er3  1  0.331283  0.665642  0.066271  1
  Re  Re4  1  0.678143  0.839072  0.750000  1
  Os  Os5  1  0.832924  0.170075  0.250000  1
  Os  Os6  1  0.832924  0.662849  0.250000  1
  Os  Os7  1  0.346954  0.173477  0.250000  1
  Os  Os8  1  0.178468  0.829259  0.750000  1
  Os  Os9  1  0.178468  0.349210  0.750000  1
  Ru  Ru10  1  0.984858  0.992429  0.499304  1
  Ru  Ru11  1  0.984858  0.992429  0.000696  1
