# generated using pymatgen
data_Li2Dy5Ti2(P4Ir5)3
_symmetry_space_group_name_H-M   'P 1'
_cell_length_a   12.66510735
_cell_length_b   12.75324283
_cell_length_c   3.94048600
_cell_angle_alpha   90.00000000
_cell_angle_beta   90.00000000
_cell_angle_gamma   118.92316337
_symmetry_Int_Tables_number   1
_chemical_formula_structural   Li2Dy5Ti2(P4Ir5)3
_chemical_formula_sum   'Li2 Dy5 Ti2 P12 Ir15'
_cell_volume   557.08424639
_cell_formula_units_Z   1
loop_
 _symmetry_equiv_pos_site_id
 _symmetry_equiv_pos_as_xyz
  1  'x, y, z'
loop_
 _atom_site_type_symbol
 _atom_site_label
 _atom_site_symmetry_multiplicity
 _atom_site_fract_x
 _atom_site_fract_y
 _atom_site_fract_z
 _atom_site_occupancy
  Li  Li0  1  0.523473  0.882086  0.000000  1
  Li  Li1  1  0.450358  0.009760  0.500000  1
  Dy  Dy2  1  0.326993  0.659410  0.500000  1
  Dy  Dy3  1  0.665440  0.335163  0.500000  1
  Dy  Dy4  1  0.998388  0.809922  0.000000  1
  Dy  Dy5  1  0.191701  0.191983  0.000000  1
  Dy  Dy6  1  0.814885  0.001145  0.000000  1
  Ti  Ti7  1  0.998644  0.444189  0.500000  1
  Ti  Ti8  1  0.553289  0.555652  0.500000  1
  P  P9  1  0.999388  0.639802  0.500000  1
  P  P10  1  0.363383  0.359716  0.500000  1
  P  P11  1  0.644759  0.008151  0.500000  1
  P  P12  1  0.517914  0.685452  0.000000  1
  P  P13  1  0.303924  0.818593  0.000000  1
  P  P14  1  0.163980  0.480631  0.000000  1
  P  P15  1  0.486566  0.167449  0.000000  1
  P  P16  1  0.682061  0.518461  0.000000  1
  P  P17  1  0.831287  0.313868  0.000000  1
  P  P18  1  0.002846  0.176346  0.500000  1
  P  P19  1  0.821821  0.824040  0.500000  1
  P  P20  1  0.181302  0.000013  0.500000  1
  Ir  Ir21  1  0.118930  0.636834  0.000000  1
  Ir  Ir22  1  0.358467  0.493980  0.000000  1
  Ir  Ir23  1  0.488070  0.357980  0.000000  1
  Ir  Ir24  1  0.860482  0.503352  0.000000  1
  Ir  Ir25  1  0.645404  0.124242  0.000000  1
  Ir  Ir26  1  0.001989  0.280611  0.000000  1
  Ir  Ir27  1  0.719240  0.722231  0.000000  1
  Ir  Ir28  1  0.280844  0.998132  0.000000  1
  Ir  Ir29  1  0.612485  0.803614  0.500000  1
  Ir  Ir30  1  0.201197  0.819823  0.500000  1
  Ir  Ir31  1  0.179556  0.372694  0.500000  1
  Ir  Ir32  1  0.378265  0.177413  0.500000  1
  Ir  Ir33  1  0.806137  0.628586  0.500000  1
  Ir  Ir34  1  0.824687  0.200499  0.500000  1
  Ir  Ir35  1  0.001843  0.998179  0.500000  1
