# generated using pymatgen
data_Dy3Al10(SiRu2)2
_symmetry_space_group_name_H-M   'P 1'
_cell_length_a   8.68243000
_cell_length_b   8.68243091
_cell_length_c   9.62608100
_cell_angle_alpha   90.00000000
_cell_angle_beta   90.00000000
_cell_angle_gamma   119.99999652
_symmetry_Int_Tables_number   1
_chemical_formula_structural   Dy3Al10(SiRu2)2
_chemical_formula_sum   'Dy6 Al20 Si4 Ru8'
_cell_volume   628.43850316
_cell_formula_units_Z   2
loop_
 _symmetry_equiv_pos_site_id
 _symmetry_equiv_pos_as_xyz
  1  'x, y, z'
loop_
 _atom_site_type_symbol
 _atom_site_label
 _atom_site_symmetry_multiplicity
 _atom_site_fract_x
 _atom_site_fract_y
 _atom_site_fract_z
 _atom_site_occupancy
  Dy  Dy0  1  0.195104  0.390207  0.250000  1
  Dy  Dy1  1  0.804896  0.609793  0.750000  1
  Dy  Dy2  1  0.609793  0.804896  0.250000  1
  Dy  Dy3  1  0.390207  0.195104  0.750000  1
  Dy  Dy4  1  0.195104  0.804896  0.250000  1
  Dy  Dy5  1  0.804896  0.195104  0.750000  1
  Al  Al6  1  0.164991  0.329982  0.576969  1
  Al  Al7  1  0.835009  0.670018  0.423031  1
  Al  Al8  1  0.670018  0.835009  0.576969  1
  Al  Al9  1  0.835009  0.670018  0.076969  1
  Al  Al10  1  0.329982  0.164991  0.423031  1
  Al  Al11  1  0.164991  0.329982  0.923031  1
  Al  Al12  1  0.164991  0.835009  0.576969  1
  Al  Al13  1  0.329982  0.164991  0.076969  1
  Al  Al14  1  0.835009  0.164991  0.423031  1
  Al  Al15  1  0.670018  0.835009  0.923031  1
  Al  Al16  1  0.835009  0.164991  0.076969  1
  Al  Al17  1  0.164991  0.835009  0.923031  1
  Al  Al18  1  0.563540  0.127081  0.250000  1
  Al  Al19  1  0.436460  0.872919  0.750000  1
  Al  Al20  1  0.872919  0.436460  0.250000  1
  Al  Al21  1  0.127081  0.563540  0.750000  1
  Al  Al22  1  0.563540  0.436460  0.250000  1
  Al  Al23  1  0.436460  0.563540  0.750000  1
  Al  Al24  1  0.000000  0.000000  0.250000  1
  Al  Al25  1  0.000000  0.000000  0.750000  1
  Si  Si26  1  0.333333  0.666667  0.037249  1
  Si  Si27  1  0.666667  0.333333  0.962751  1
  Si  Si28  1  0.666667  0.333333  0.537249  1
  Si  Si29  1  0.333333  0.666667  0.462751  1
  Ru  Ru30  1  0.500000  0.000000  0.000000  1
  Ru  Ru31  1  0.000000  0.500000  0.000000  1
  Ru  Ru32  1  0.500000  0.000000  0.500000  1
  Ru  Ru33  1  0.500000  0.500000  0.000000  1
  Ru  Ru34  1  0.000000  0.500000  0.500000  1
  Ru  Ru35  1  0.500000  0.500000  0.500000  1
  Ru  Ru36  1  0.000000  0.000000  0.000000  1
  Ru  Ru37  1  0.000000  0.000000  0.500000  1
