# generated using pymatgen
data_Ta2Nb12Si5As3
_symmetry_space_group_name_H-M   'P 1'
_cell_length_a   3.51106100
_cell_length_b   7.91304666
_cell_length_c   14.16454417
_cell_angle_alpha   103.92031023
_cell_angle_beta   90.00000000
_cell_angle_gamma   102.81787605
_symmetry_Int_Tables_number   1
_chemical_formula_structural   Ta2Nb12Si5As3
_chemical_formula_sum   'Ta2 Nb12 Si5 As3'
_cell_volume   371.86703141
_cell_formula_units_Z   1
loop_
 _symmetry_equiv_pos_site_id
 _symmetry_equiv_pos_as_xyz
  1  'x, y, z'
loop_
 _atom_site_type_symbol
 _atom_site_label
 _atom_site_symmetry_multiplicity
 _atom_site_fract_x
 _atom_site_fract_y
 _atom_site_fract_z
 _atom_site_occupancy
  Ta  Ta0  1  0.000282  0.000564  0.000688  1
  Ta  Ta1  1  0.498751  0.997500  0.498743  1
  Nb  Nb2  1  0.427297  0.854595  0.826223  1
  Nb  Nb3  1  0.572796  0.145591  0.173054  1
  Nb  Nb4  1  0.197842  0.395684  0.308927  1
  Nb  Nb5  1  0.803684  0.607367  0.691277  1
  Nb  Nb6  1  0.212250  0.424501  0.798975  1
  Nb  Nb7  1  0.788942  0.577885  0.203386  1
  Nb  Nb8  1  0.333004  0.666008  0.029237  1
  Nb  Nb9  1  0.667900  0.335803  0.970665  1
  Nb  Nb10  1  0.998241  0.996480  0.660835  1
  Nb  Nb11  1  0.998743  0.997486  0.340080  1
  Nb  Nb12  1  0.180346  0.360692  0.543498  1
  Nb  Nb13  1  0.820791  0.641582  0.454043  1
  Si  Si14  1  0.175727  0.351452  0.109471  1
  Si  Si15  1  0.826025  0.652051  0.891474  1
  Si  Si16  1  0.370381  0.740762  0.597579  1
  Si  Si17  1  0.627750  0.255501  0.399731  1
  Si  Si18  1  0.371503  0.743005  0.335386  1
  As  As19  1  0.627559  0.255121  0.665210  1
  As  As20  1  0.063112  0.126226  0.847822  1
  As  As21  1  0.937073  0.874145  0.153697  1
