# generated using pymatgen
data_LaPrNp4F18
_symmetry_space_group_name_H-M   'P 1'
_cell_length_a   7.18726108
_cell_length_b   7.18725766
_cell_length_c   7.33427595
_cell_angle_alpha   89.76926075
_cell_angle_beta   89.98901478
_cell_angle_gamma   119.98706090
_symmetry_Int_Tables_number   1
_chemical_formula_structural   LaPrNp4F18
_chemical_formula_sum   'La1 Pr1 Np4 F18'
_cell_volume   328.14530480
_cell_formula_units_Z   1
loop_
 _symmetry_equiv_pos_site_id
 _symmetry_equiv_pos_as_xyz
  1  'x, y, z'
loop_
 _atom_site_type_symbol
 _atom_site_label
 _atom_site_symmetry_multiplicity
 _atom_site_fract_x
 _atom_site_fract_y
 _atom_site_fract_z
 _atom_site_occupancy
  La  La0  1  0.656327  0.656802  0.749431  1
  Pr  Pr1  1  0.654085  0.000145  0.249735  1
  Np  Np2  1  0.999371  0.342878  0.750491  1
  Np  Np3  1  0.343767  0.999838  0.749376  1
  Np  Np4  1  0.342441  0.343639  0.250168  1
  Np  Np5  1  0.998977  0.656649  0.249472  1
  F  F6  1  0.001872  0.001110  0.750344  1
  F  F7  1  0.998341  0.000008  0.250095  1
  F  F8  1  0.332414  0.666972  0.681080  1
  F  F9  1  0.666626  0.332115  0.818912  1
  F  F10  1  0.666499  0.332371  0.318121  1
  F  F11  1  0.334251  0.667504  0.181983  1
  F  F12  1  0.372832  0.062417  0.079837  1
  F  F13  1  0.937906  0.308914  0.081308  1
  F  F14  1  0.689794  0.626493  0.080438  1
  F  F15  1  0.310927  0.937881  0.420211  1
  F  F16  1  0.628807  0.691145  0.417280  1
  F  F17  1  0.063303  0.373273  0.421304  1
  F  F18  1  0.628302  0.939082  0.920678  1
  F  F19  1  0.062995  0.689845  0.921131  1
  F  F20  1  0.309187  0.371661  0.921395  1
  F  F21  1  0.689658  0.061938  0.579710  1
  F  F22  1  0.372000  0.308914  0.578788  1
  F  F23  1  0.939317  0.628408  0.578711  1
