# generated using pymatgen
data_CeSmFe2(SiPd)2
_symmetry_space_group_name_H-M   'P 1'
_cell_length_a   9.04201377
_cell_length_b   9.04201413
_cell_length_c   4.04359100
_cell_angle_alpha   90.00000000
_cell_angle_beta   90.00000000
_cell_angle_gamma   154.50492810
_symmetry_Int_Tables_number   1
_chemical_formula_structural   CeSmFe2(SiPd)2
_chemical_formula_sum   'Ce1 Sm1 Fe2 Si2 Pd2'
_cell_volume   142.29957182
_cell_formula_units_Z   1
loop_
 _symmetry_equiv_pos_site_id
 _symmetry_equiv_pos_as_xyz
  1  'x, y, z'
loop_
 _atom_site_type_symbol
 _atom_site_label
 _atom_site_symmetry_multiplicity
 _atom_site_fract_x
 _atom_site_fract_y
 _atom_site_fract_z
 _atom_site_occupancy
  Ce  Ce0  1  0.381439  0.618561  0.750000  1
  Sm  Sm1  1  0.612676  0.387324  0.250000  1
  Fe  Fe2  1  0.251678  0.748322  0.250000  1
  Fe  Fe3  1  0.751222  0.248778  0.750000  1
  Si  Si4  1  0.812290  0.187710  0.250000  1
  Si  Si5  1  0.189451  0.810549  0.750000  1
  Pd  Pd6  1  0.950622  0.049378  0.250000  1
  Pd  Pd7  1  0.050623  0.949377  0.750000  1
