# generated using pymatgen
data_Dy2TaMoO8
_symmetry_space_group_name_H-M   'P 1'
_cell_length_a   5.51222800
_cell_length_b   5.16207394
_cell_length_c   5.33464108
_cell_angle_alpha   83.42260227
_cell_angle_beta   90.00000000
_cell_angle_gamma   90.00000000
_symmetry_Int_Tables_number   1
_chemical_formula_structural   Dy2TaMoO8
_chemical_formula_sum   'Dy2 Ta1 Mo1 O8'
_cell_volume   150.79558824
_cell_formula_units_Z   1
loop_
 _symmetry_equiv_pos_site_id
 _symmetry_equiv_pos_as_xyz
  1  'x, y, z'
loop_
 _atom_site_type_symbol
 _atom_site_label
 _atom_site_symmetry_multiplicity
 _atom_site_fract_x
 _atom_site_fract_y
 _atom_site_fract_z
 _atom_site_occupancy
  Dy  Dy0  1  0.765456  0.000000  0.750000  1
  Dy  Dy1  1  0.236727  0.000000  0.250000  1
  Ta  Ta2  1  0.307647  0.500000  0.750000  1
  Mo  Mo3  1  0.695664  0.500000  0.250000  1
  O  O4  1  0.564588  0.265875  0.009528  1
  O  O5  1  0.564588  0.734125  0.490472  1
  O  O6  1  0.434860  0.732161  0.992988  1
  O  O7  1  0.434860  0.267839  0.507012  1
  O  O8  1  0.085837  0.750571  0.601798  1
  O  O9  1  0.085837  0.249429  0.898202  1
  O  O10  1  0.911969  0.243753  0.396180  1
  O  O11  1  0.911969  0.756247  0.103820  1
