# generated using pymatgen
data_Yb2Tm2Ni13Pt
_symmetry_space_group_name_H-M   'P 1'
_cell_length_a   4.88198856
_cell_length_b   4.88198852
_cell_length_c   12.50914359
_cell_angle_alpha   78.74727366
_cell_angle_beta   78.74727424
_cell_angle_gamma   59.99999804
_symmetry_Int_Tables_number   1
_chemical_formula_structural   Yb2Tm2Ni13Pt
_chemical_formula_sum   'Yb2 Tm2 Ni13 Pt1'
_cell_volume   251.55743179
_cell_formula_units_Z   1
loop_
 _symmetry_equiv_pos_site_id
 _symmetry_equiv_pos_as_xyz
  1  'x, y, z'
loop_
 _atom_site_type_symbol
 _atom_site_label
 _atom_site_symmetry_multiplicity
 _atom_site_fract_x
 _atom_site_fract_y
 _atom_site_fract_z
 _atom_site_occupancy
  Yb  Yb0  1  0.852840  0.852840  0.441478  1
  Yb  Yb1  1  0.147160  0.147160  0.558522  1
  Tm  Tm2  1  0.948763  0.948763  0.153710  1
  Tm  Tm3  1  0.051237  0.051237  0.846290  1
  Ni  Ni4  1  0.720847  0.720847  0.837456  1
  Ni  Ni5  1  0.279153  0.279153  0.162544  1
  Ni  Ni6  1  0.612699  0.612699  0.161903  1
  Ni  Ni7  1  0.387301  0.387301  0.838097  1
  Ni  Ni8  1  0.000000  0.500000  0.000000  1
  Ni  Ni9  1  0.500000  0.000000  0.000000  1
  Ni  Ni10  1  0.500000  0.500000  0.000000  1
  Ni  Ni11  1  0.390982  0.390982  0.322938  1
  Ni  Ni12  1  0.895098  0.390982  0.322938  1
  Ni  Ni13  1  0.390982  0.895098  0.322938  1
  Ni  Ni14  1  0.609018  0.609018  0.677062  1
  Ni  Ni15  1  0.104902  0.609018  0.677062  1
  Ni  Ni16  1  0.609018  0.104902  0.677062  1
  Pt  Pt17  1  0.500000  0.500000  0.500000  1
