# generated using pymatgen
data_K2PaTe4
_symmetry_space_group_name_H-M   'P 1'
_cell_length_a   9.91741600
_cell_length_b   8.26570475
_cell_length_c   14.37363706
_cell_angle_alpha   73.43123024
_cell_angle_beta   90.00000000
_cell_angle_gamma   90.00000000
_symmetry_Int_Tables_number   1
_chemical_formula_structural   K2PaTe4
_chemical_formula_sum   'K8 Pa4 Te16'
_cell_volume   1129.34676329
_cell_formula_units_Z   4
loop_
 _symmetry_equiv_pos_site_id
 _symmetry_equiv_pos_as_xyz
  1  'x, y, z'
loop_
 _atom_site_type_symbol
 _atom_site_label
 _atom_site_symmetry_multiplicity
 _atom_site_fract_x
 _atom_site_fract_y
 _atom_site_fract_z
 _atom_site_occupancy
  K  K0  1  0.829670  0.176523  0.639291  1
  K  K1  1  0.329670  0.323477  0.360709  1
  K  K2  1  0.170330  0.823477  0.360709  1
  K  K3  1  0.670330  0.676523  0.639291  1
  K  K4  1  0.551601  0.260705  0.921852  1
  K  K5  1  0.051601  0.239295  0.078148  1
  K  K6  1  0.448399  0.739295  0.078148  1
  K  K7  1  0.948399  0.760705  0.921852  1
  Pa  Pa8  1  0.660549  0.036986  0.253562  1
  Pa  Pa9  1  0.160549  0.463014  0.746438  1
  Pa  Pa10  1  0.339451  0.963014  0.746438  1
  Pa  Pa11  1  0.839451  0.536986  0.253562  1
  Te  Te12  1  0.625290  0.076948  0.458299  1
  Te  Te13  1  0.125290  0.423052  0.541701  1
  Te  Te14  1  0.374710  0.923052  0.541701  1
  Te  Te15  1  0.874710  0.576948  0.458299  1
  Te  Te16  1  0.307478  0.599296  0.887165  1
  Te  Te17  1  0.807478  0.900704  0.112835  1
  Te  Te18  1  0.692522  0.400704  0.112835  1
  Te  Te19  1  0.192522  0.099296  0.887165  1
  Te  Te20  1  0.385297  0.089656  0.180736  1
  Te  Te21  1  0.885297  0.410344  0.819264  1
  Te  Te22  1  0.614703  0.910344  0.819264  1
  Te  Te23  1  0.114703  0.589656  0.180736  1
  Te  Te24  1  0.584887  0.665004  0.333356  1
  Te  Te25  1  0.084887  0.834996  0.666644  1
  Te  Te26  1  0.415113  0.334996  0.666644  1
  Te  Te27  1  0.915113  0.165004  0.333356  1
