# generated using pymatgen
data_Nd3DyAl17GeIr6
_symmetry_space_group_name_H-M   'P 1'
_cell_length_a   7.59987401
_cell_length_b   7.60483997
_cell_length_c   9.56878700
_cell_angle_alpha   90.00000000
_cell_angle_beta   90.00000000
_cell_angle_gamma   119.55793512
_symmetry_Int_Tables_number   1
_chemical_formula_structural   Nd3DyAl17GeIr6
_chemical_formula_sum   'Nd3 Dy1 Al17 Ge1 Ir6'
_cell_volume   481.06237169
_cell_formula_units_Z   1
loop_
 _symmetry_equiv_pos_site_id
 _symmetry_equiv_pos_as_xyz
  1  'x, y, z'
loop_
 _atom_site_type_symbol
 _atom_site_label
 _atom_site_symmetry_multiplicity
 _atom_site_fract_x
 _atom_site_fract_y
 _atom_site_fract_z
 _atom_site_occupancy
  Nd  Nd0  1  0.994697  0.675884  0.750000  1
  Nd  Nd1  1  0.003086  0.328988  0.250000  1
  Nd  Nd2  1  0.675917  0.994488  0.750000  1
  Dy  Dy3  1  0.328700  0.003302  0.250000  1
  Al  Al4  1  0.871716  0.870133  0.250000  1
  Al  Al5  1  0.002440  0.338230  0.571696  1
  Al  Al6  1  0.998544  0.666591  0.424940  1
  Al  Al7  1  0.998544  0.666591  0.075060  1
  Al  Al8  1  0.337860  0.001944  0.930974  1
  Al  Al9  1  0.002440  0.338230  0.928304  1
  Al  Al10  1  0.663027  0.996712  0.075250  1
  Al  Al11  1  0.663027  0.996712  0.424750  1
  Al  Al12  1  0.337860  0.001944  0.569026  1
  Al  Al13  1  0.333564  0.332171  0.057533  1
  Al  Al14  1  0.662755  0.662677  0.954723  1
  Al  Al15  1  0.662755  0.662677  0.545277  1
  Al  Al16  1  0.333564  0.332171  0.442467  1
  Al  Al17  1  0.337029  0.551204  0.750000  1
  Al  Al18  1  0.658149  0.450870  0.250000  1
  Al  Al19  1  0.550412  0.335871  0.750000  1
  Al  Al20  1  0.453053  0.662598  0.250000  1
  Ge  Ge21  1  0.137515  0.136623  0.750000  1
  Ir  Ir22  1  0.669119  0.327280  0.499448  1
  Ir  Ir23  1  0.327518  0.669583  0.499588  1
  Ir  Ir24  1  0.327518  0.669583  0.000412  1
  Ir  Ir25  1  0.669119  0.327280  0.000552  1
  Ir  Ir26  1  0.000037  0.999833  0.499573  1
  Ir  Ir27  1  0.000037  0.999833  0.000427  1
