# generated using pymatgen
data_NaNd2B2(PPd5)4
_symmetry_space_group_name_H-M   'P 1'
_cell_length_a   8.64810873
_cell_length_b   8.54905019
_cell_length_c   8.54905105
_cell_angle_alpha   60.76809613
_cell_angle_beta   59.61596813
_cell_angle_gamma   59.61596796
_symmetry_Int_Tables_number   1
_chemical_formula_structural   NaNd2B2(PPd5)4
_chemical_formula_sum   'Na1 Nd2 B2 P4 Pd20'
_cell_volume   446.81117093
_cell_formula_units_Z   1
loop_
 _symmetry_equiv_pos_site_id
 _symmetry_equiv_pos_as_xyz
  1  'x, y, z'
loop_
 _atom_site_type_symbol
 _atom_site_label
 _atom_site_symmetry_multiplicity
 _atom_site_fract_x
 _atom_site_fract_y
 _atom_site_fract_z
 _atom_site_occupancy
  Na  Na0  1  0.000000  0.000000  0.000000  1
  Nd  Nd1  1  0.250000  0.250000  0.250000  1
  Nd  Nd2  1  0.750000  0.750000  0.750000  1
  B  B3  1  0.737751  0.262249  0.262249  1
  B  B4  1  0.262249  0.737751  0.737751  1
  P  P5  1  0.262166  0.737834  0.262166  1
  P  P6  1  0.737834  0.262166  0.737834  1
  P  P7  1  0.262166  0.262166  0.737834  1
  P  P8  1  0.737834  0.737834  0.262166  1
  Pd  Pd9  1  0.392841  0.383356  0.383356  1
  Pd  Pd10  1  0.607159  0.616644  0.616644  1
  Pd  Pd11  1  0.383356  0.392841  0.840448  1
  Pd  Pd12  1  0.383356  0.840448  0.392841  1
  Pd  Pd13  1  0.616644  0.607159  0.159552  1
  Pd  Pd14  1  0.616644  0.159552  0.607159  1
  Pd  Pd15  1  0.840448  0.383356  0.383356  1
  Pd  Pd16  1  0.159552  0.616644  0.616644  1
  Pd  Pd17  1  0.344714  0.000000  0.000000  1
  Pd  Pd18  1  0.655286  0.000000  0.000000  1
  Pd  Pd19  1  0.000000  0.344714  0.655286  1
  Pd  Pd20  1  0.000000  0.655286  0.344714  1
  Pd  Pd21  1  0.988872  0.342547  0.011128  1
  Pd  Pd22  1  0.657453  0.011128  0.342547  1
  Pd  Pd23  1  0.011128  0.657453  0.988872  1
  Pd  Pd24  1  0.342547  0.988872  0.657453  1
  Pd  Pd25  1  0.988872  0.011128  0.342547  1
  Pd  Pd26  1  0.011128  0.988872  0.657453  1
  Pd  Pd27  1  0.657453  0.342547  0.011128  1
  Pd  Pd28  1  0.342547  0.657453  0.988872  1
