# generated using pymatgen
data_Dy8Ti2Nb9Si16Ir
_symmetry_space_group_name_H-M   'P 1'
_cell_length_a   7.05137043
_cell_length_b   7.05137058
_cell_length_c   12.97669648
_cell_angle_alpha   89.78998334
_cell_angle_beta   90.21001274
_cell_angle_gamma   89.71755600
_symmetry_Int_Tables_number   1
_chemical_formula_structural   Dy8Ti2Nb9Si16Ir
_chemical_formula_sum   'Dy8 Ti2 Nb9 Si16 Ir1'
_cell_volume   645.20849304
_cell_formula_units_Z   1
loop_
 _symmetry_equiv_pos_site_id
 _symmetry_equiv_pos_as_xyz
  1  'x, y, z'
loop_
 _atom_site_type_symbol
 _atom_site_label
 _atom_site_symmetry_multiplicity
 _atom_site_fract_x
 _atom_site_fract_y
 _atom_site_fract_z
 _atom_site_occupancy
  Dy  Dy0  1  0.998467  0.657580  0.032600  1
  Dy  Dy1  1  0.001611  0.343329  0.532100  1
  Dy  Dy2  1  0.657580  0.998467  0.967400  1
  Dy  Dy3  1  0.158654  0.504334  0.781027  1
  Dy  Dy4  1  0.841584  0.498959  0.283856  1
  Dy  Dy5  1  0.504334  0.158654  0.218973  1
  Dy  Dy6  1  0.498959  0.841584  0.716144  1
  Dy  Dy7  1  0.343329  0.001611  0.467900  1
  Ti  Ti8  1  0.493916  0.651621  0.125678  1
  Ti  Ti9  1  0.651621  0.493916  0.874322  1
  Nb  Nb10  1  0.341354  0.506937  0.374965  1
  Nb  Nb11  1  0.851033  0.998207  0.374798  1
  Nb  Nb12  1  0.007151  0.151804  0.126186  1
  Nb  Nb13  1  0.998207  0.851033  0.625202  1
  Nb  Nb14  1  0.506937  0.341354  0.625035  1
  Nb  Nb15  1  0.151804  0.007151  0.873814  1
  Nb  Nb16  1  0.825446  0.171023  0.747638  1
  Nb  Nb17  1  0.171023  0.825446  0.252362  1
  Nb  Nb18  1  0.327390  0.327390  0.000000  1
  Si  Si19  1  0.043429  0.710865  0.439593  1
  Si  Si20  1  0.951882  0.294604  0.935104  1
  Si  Si21  1  0.710865  0.043429  0.560407  1
  Si  Si22  1  0.207638  0.454159  0.185528  1
  Si  Si23  1  0.789837  0.552028  0.683248  1
  Si  Si24  1  0.454159  0.207638  0.814472  1
  Si  Si25  1  0.552028  0.789837  0.316752  1
  Si  Si26  1  0.294604  0.951882  0.064896  1
  Si  Si27  1  0.794555  0.863970  0.183118  1
  Si  Si28  1  0.299225  0.629879  0.566567  1
  Si  Si29  1  0.701735  0.368350  0.065776  1
  Si  Si30  1  0.629879  0.299225  0.433433  1
  Si  Si31  1  0.368350  0.701735  0.934224  1
  Si  Si32  1  0.133818  0.205493  0.316883  1
  Si  Si33  1  0.205493  0.133818  0.683117  1
  Si  Si34  1  0.863970  0.794555  0.816882  1
  Ir  Ir35  1  0.668132  0.668132  0.500000  1
