# generated using pymatgen
data_Dy5TmSi10
_symmetry_space_group_name_H-M   'P 1'
_cell_length_a   6.64454800
_cell_length_b   6.66192597
_cell_length_c   8.27019610
_cell_angle_alpha   89.92973488
_cell_angle_beta   90.00000000
_cell_angle_gamma   119.91375722
_symmetry_Int_Tables_number   1
_chemical_formula_structural   Dy5TmSi10
_chemical_formula_sum   'Dy5 Tm1 Si10'
_cell_volume   317.31310833
_cell_formula_units_Z   1
loop_
 _symmetry_equiv_pos_site_id
 _symmetry_equiv_pos_as_xyz
  1  'x, y, z'
loop_
 _atom_site_type_symbol
 _atom_site_label
 _atom_site_symmetry_multiplicity
 _atom_site_fract_x
 _atom_site_fract_y
 _atom_site_fract_z
 _atom_site_occupancy
  Dy  Dy0  1  0.330128  0.000000  0.500000  1
  Dy  Dy1  1  0.668931  0.669324  0.499693  1
  Dy  Dy2  1  0.999608  0.330676  0.500307  1
  Dy  Dy3  1  0.000319  0.331001  0.999578  1
  Dy  Dy4  1  0.669317  0.668999  0.000422  1
  Tm  Tm5  1  0.330350  0.000000  0.000000  1
  Si  Si6  1  0.000267  0.000064  0.751827  1
  Si  Si7  1  0.666995  0.050789  0.751869  1
  Si  Si8  1  0.382570  0.329835  0.752164  1
  Si  Si9  1  0.950070  0.619490  0.750424  1
  Si  Si10  1  0.334052  0.666383  0.751481  1
  Si  Si11  1  0.000203  0.999936  0.248173  1
  Si  Si12  1  0.667670  0.333617  0.248519  1
  Si  Si13  1  0.330579  0.380510  0.249576  1
  Si  Si14  1  0.052734  0.670165  0.247836  1
  Si  Si15  1  0.616206  0.949211  0.248131  1
