# generated using pymatgen
data_Dy8Ta11Si16W
_symmetry_space_group_name_H-M   'P 1'
_cell_length_a   7.02713750
_cell_length_b   7.02713723
_cell_length_c   13.00449212
_cell_angle_alpha   90.01997678
_cell_angle_beta   89.98001998
_cell_angle_gamma   89.98006389
_symmetry_Int_Tables_number   1
_chemical_formula_structural   Dy8Ta11Si16W
_chemical_formula_sum   'Dy8 Ta11 Si16 W1'
_cell_volume   642.17028133
_cell_formula_units_Z   1
loop_
 _symmetry_equiv_pos_site_id
 _symmetry_equiv_pos_as_xyz
  1  'x, y, z'
loop_
 _atom_site_type_symbol
 _atom_site_label
 _atom_site_symmetry_multiplicity
 _atom_site_fract_x
 _atom_site_fract_y
 _atom_site_fract_z
 _atom_site_occupancy
  Dy  Dy0  1  0.997607  0.657995  0.031744  1
  Dy  Dy1  1  0.002653  0.341183  0.531754  1
  Dy  Dy2  1  0.657995  0.997607  0.968256  1
  Dy  Dy3  1  0.159210  0.502356  0.782559  1
  Dy  Dy4  1  0.841659  0.496978  0.281531  1
  Dy  Dy5  1  0.502356  0.159210  0.217441  1
  Dy  Dy6  1  0.496978  0.841659  0.718469  1
  Dy  Dy7  1  0.341183  0.002653  0.468246  1
  Ta  Ta8  1  0.346934  0.506484  0.375480  1
  Ta  Ta9  1  0.847017  0.992868  0.374271  1
  Ta  Ta10  1  0.006834  0.152513  0.125425  1
  Ta  Ta11  1  0.992868  0.847017  0.625729  1
  Ta  Ta12  1  0.506484  0.346934  0.624520  1
  Ta  Ta13  1  0.152513  0.006834  0.874575  1
  Ta  Ta14  1  0.671571  0.671571  0.500000  1
  Ta  Ta15  1  0.828703  0.172084  0.750697  1
  Ta  Ta16  1  0.172084  0.828703  0.249303  1
  Ta  Ta17  1  0.493144  0.653054  0.123890  1
  Ta  Ta18  1  0.653054  0.493144  0.876110  1
  Si  Si19  1  0.045464  0.705663  0.436134  1
  Si  Si20  1  0.955770  0.294132  0.936546  1
  Si  Si21  1  0.705663  0.045464  0.563866  1
  Si  Si22  1  0.206860  0.453260  0.184779  1
  Si  Si23  1  0.794511  0.545362  0.686289  1
  Si  Si24  1  0.453260  0.206860  0.815221  1
  Si  Si25  1  0.545362  0.794511  0.313711  1
  Si  Si26  1  0.294132  0.955770  0.063454  1
  Si  Si27  1  0.796296  0.866283  0.182037  1
  Si  Si28  1  0.296553  0.634264  0.567854  1
  Si  Si29  1  0.702023  0.365881  0.067511  1
  Si  Si30  1  0.634264  0.296553  0.432146  1
  Si  Si31  1  0.365881  0.702023  0.932489  1
  Si  Si32  1  0.134453  0.203573  0.317566  1
  Si  Si33  1  0.203573  0.134453  0.682434  1
  Si  Si34  1  0.866283  0.796296  0.817963  1
  W  W35  1  0.328809  0.328809  0.000000  1
