# generated using pymatgen
data_Yb12Zn5Ga7N4
_symmetry_space_group_name_H-M   'P 1'
_cell_length_a   8.97674730
_cell_length_b   8.99645400
_cell_length_c   8.97674800
_cell_angle_alpha   60.07243205
_cell_angle_beta   59.99999741
_cell_angle_gamma   60.07243715
_symmetry_Int_Tables_number   1
_chemical_formula_structural   Yb12Zn5Ga7N4
_chemical_formula_sum   'Yb12 Zn5 Ga7 N4'
_cell_volume   513.17915891
_cell_formula_units_Z   1
loop_
 _symmetry_equiv_pos_site_id
 _symmetry_equiv_pos_as_xyz
  1  'x, y, z'
loop_
 _atom_site_type_symbol
 _atom_site_label
 _atom_site_symmetry_multiplicity
 _atom_site_fract_x
 _atom_site_fract_y
 _atom_site_fract_z
 _atom_site_occupancy
  Yb  Yb0  1  0.803492  0.197150  0.195868  1
  Yb  Yb1  1  0.196678  0.803095  0.196678  1
  Yb  Yb2  1  0.803549  0.803095  0.196678  1
  Yb  Yb3  1  0.196678  0.803095  0.803549  1
  Yb  Yb4  1  0.803492  0.197150  0.803492  1
  Yb  Yb5  1  0.195868  0.197150  0.803492  1
  Yb  Yb6  1  0.446930  0.053002  0.053137  1
  Yb  Yb7  1  0.053100  0.446610  0.053100  1
  Yb  Yb8  1  0.447191  0.446610  0.053100  1
  Yb  Yb9  1  0.053100  0.446610  0.447191  1
  Yb  Yb10  1  0.446930  0.053002  0.446930  1
  Yb  Yb11  1  0.053137  0.053002  0.446930  1
  Zn  Zn12  1  0.826079  0.521765  0.826079  1
  Zn  Zn13  1  0.625675  0.623943  0.124707  1
  Zn  Zn14  1  0.625675  0.623943  0.625675  1
  Zn  Zn15  1  0.124707  0.623943  0.625675  1
  Zn  Zn16  1  0.625565  0.123305  0.625565  1
  Ga  Ga17  1  0.422212  0.423226  0.732351  1
  Ga  Ga18  1  0.422212  0.423226  0.422212  1
  Ga  Ga19  1  0.732351  0.423226  0.422212  1
  Ga  Ga20  1  0.422602  0.732194  0.422602  1
  Ga  Ga21  1  0.827348  0.827411  0.517892  1
  Ga  Ga22  1  0.827348  0.827411  0.827348  1
  Ga  Ga23  1  0.517892  0.827411  0.827348  1
  N  N24  1  0.125519  0.124902  0.624062  1
  N  N25  1  0.125519  0.124902  0.125519  1
  N  N26  1  0.624062  0.124902  0.125519  1
  N  N27  1  0.125094  0.624719  0.125094  1
