# generated using pymatgen
data_Ti3Mn2Co2P4W
_symmetry_space_group_name_H-M   'P 1'
_cell_length_a   3.53048700
_cell_length_b   6.05800233
_cell_length_c   6.99099018
_cell_angle_alpha   90.60224342
_cell_angle_beta   90.00000000
_cell_angle_gamma   90.00000000
_symmetry_Int_Tables_number   1
_chemical_formula_structural   Ti3Mn2Co2P4W
_chemical_formula_sum   'Ti3 Mn2 Co2 P4 W1'
_cell_volume   149.51293025
_cell_formula_units_Z   1
loop_
 _symmetry_equiv_pos_site_id
 _symmetry_equiv_pos_as_xyz
  1  'x, y, z'
loop_
 _atom_site_type_symbol
 _atom_site_label
 _atom_site_symmetry_multiplicity
 _atom_site_fract_x
 _atom_site_fract_y
 _atom_site_fract_z
 _atom_site_occupancy
  Ti  Ti0  1  0.250000  0.468092  0.176348  1
  Ti  Ti1  1  0.750000  0.024613  0.673967  1
  Ti  Ti2  1  0.750000  0.531124  0.825033  1
  Mn  Mn3  1  0.250000  0.859874  0.938221  1
  Mn  Mn4  1  0.750000  0.142267  0.061813  1
  Co  Co5  1  0.250000  0.357944  0.560420  1
  Co  Co6  1  0.750000  0.639959  0.438550  1
  P  P7  1  0.250000  0.236130  0.868079  1
  P  P8  1  0.250000  0.729617  0.622102  1
  P  P9  1  0.750000  0.764375  0.129450  1
  P  P10  1  0.750000  0.271359  0.377235  1
  W  W11  1  0.250000  0.974649  0.328782  1
