# generated using pymatgen
data_HfMgAu4
_symmetry_space_group_name_H-M   'P 1'
_cell_length_a   5.07263371
_cell_length_b   5.07263299
_cell_length_c   5.00924800
_cell_angle_alpha   90.00000000
_cell_angle_beta   90.00000000
_cell_angle_gamma   121.13078893
_symmetry_Int_Tables_number   1
_chemical_formula_structural   HfMgAu4
_chemical_formula_sum   'Hf1 Mg1 Au4'
_cell_volume   110.33361860
_cell_formula_units_Z   1
loop_
 _symmetry_equiv_pos_site_id
 _symmetry_equiv_pos_as_xyz
  1  'x, y, z'
loop_
 _atom_site_type_symbol
 _atom_site_label
 _atom_site_symmetry_multiplicity
 _atom_site_fract_x
 _atom_site_fract_y
 _atom_site_fract_z
 _atom_site_occupancy
  Hf  Hf0  1  0.756376  0.756376  0.750000  1
  Mg  Mg1  1  0.243214  0.243214  0.250000  1
  Au  Au2  1  0.581025  0.903338  0.250000  1
  Au  Au3  1  0.094690  0.421358  0.750000  1
  Au  Au4  1  0.421358  0.094690  0.750000  1
  Au  Au5  1  0.903338  0.581025  0.250000  1
