# generated using pymatgen
data_Cd4PtRh
_symmetry_space_group_name_H-M   'P 1'
_cell_length_a   5.56998693
_cell_length_b   5.56998684
_cell_length_c   5.56998689
_cell_angle_alpha   107.18171299
_cell_angle_beta   107.18170481
_cell_angle_gamma   114.15420281
_symmetry_Int_Tables_number   1
_chemical_formula_structural   Cd4PtRh
_chemical_formula_sum   'Cd4 Pt1 Rh1'
_cell_volume   132.35512755
_cell_formula_units_Z   1
loop_
 _symmetry_equiv_pos_site_id
 _symmetry_equiv_pos_as_xyz
  1  'x, y, z'
loop_
 _atom_site_type_symbol
 _atom_site_label
 _atom_site_symmetry_multiplicity
 _atom_site_fract_x
 _atom_site_fract_y
 _atom_site_fract_z
 _atom_site_occupancy
  Cd  Cd0  1  0.254565  0.245435  0.500000  1
  Cd  Cd1  1  0.745435  0.754565  0.500000  1
  Cd  Cd2  1  0.245435  0.745435  0.990869  1
  Cd  Cd3  1  0.754565  0.254565  0.009131  1
  Pt  Pt4  1  0.750000  0.750000  0.000000  1
  Rh  Rh5  1  0.250000  0.250000  0.000000  1
