# generated using pymatgen
data_TbHo2(P2Ir3)3
_symmetry_space_group_name_H-M   'P 1'
_cell_length_a   3.97664900
_cell_length_b   11.18426900
_cell_length_c   12.79957500
_cell_angle_alpha   90.00000000
_cell_angle_beta   90.00000000
_cell_angle_gamma   90.00000000
_symmetry_Int_Tables_number   1
_chemical_formula_structural   TbHo2(P2Ir3)3
_chemical_formula_sum   'Tb2 Ho4 P12 Ir18'
_cell_volume   569.27277306
_cell_formula_units_Z   2
loop_
 _symmetry_equiv_pos_site_id
 _symmetry_equiv_pos_as_xyz
  1  'x, y, z'
loop_
 _atom_site_type_symbol
 _atom_site_label
 _atom_site_symmetry_multiplicity
 _atom_site_fract_x
 _atom_site_fract_y
 _atom_site_fract_z
 _atom_site_occupancy
  Tb  Tb0  1  0.000000  0.500000  0.522699  1
  Tb  Tb1  1  0.500000  0.000000  0.477301  1
  Ho  Ho2  1  0.500000  0.815120  0.203956  1
  Ho  Ho3  1  0.500000  0.184880  0.203956  1
  Ho  Ho4  1  0.000000  0.684880  0.796044  1
  Ho  Ho5  1  0.000000  0.315120  0.796044  1
  P  P6  1  0.500000  0.314999  0.618153  1
  P  P7  1  0.500000  0.685001  0.618153  1
  P  P8  1  0.000000  0.185001  0.381847  1
  P  P9  1  0.000000  0.814999  0.381847  1
  P  P10  1  0.500000  0.500000  0.875993  1
  P  P11  1  0.000000  0.000000  0.124007  1
  P  P12  1  0.500000  0.844823  0.893746  1
  P  P13  1  0.500000  0.155177  0.893746  1
  P  P14  1  0.000000  0.655177  0.106254  1
  P  P15  1  0.000000  0.344823  0.106254  1
  P  P16  1  0.500000  0.500000  0.359078  1
  P  P17  1  0.000000  0.000000  0.640922  1
  Ir  Ir18  1  0.000000  0.500000  0.971631  1
  Ir  Ir19  1  0.500000  0.000000  0.028369  1
  Ir  Ir20  1  0.500000  0.294235  0.429809  1
  Ir  Ir21  1  0.500000  0.705765  0.429809  1
  Ir  Ir22  1  0.000000  0.205765  0.570191  1
  Ir  Ir23  1  0.000000  0.794235  0.570191  1
  Ir  Ir24  1  0.500000  0.869273  0.714158  1
  Ir  Ir25  1  0.500000  0.130727  0.714158  1
  Ir  Ir26  1  0.000000  0.630727  0.285842  1
  Ir  Ir27  1  0.000000  0.369273  0.285842  1
  Ir  Ir28  1  0.500000  0.336360  0.000845  1
  Ir  Ir29  1  0.500000  0.663640  0.000845  1
  Ir  Ir30  1  0.000000  0.163640  0.999155  1
  Ir  Ir31  1  0.000000  0.836360  0.999155  1
  Ir  Ir32  1  0.500000  0.500000  0.180687  1
  Ir  Ir33  1  0.000000  0.000000  0.819313  1
  Ir  Ir34  1  0.500000  0.500000  0.700118  1
  Ir  Ir35  1  0.000000  0.000000  0.299882  1
