# generated using pymatgen
data_Yb2Sc2ReB8Ru9
_symmetry_space_group_name_H-M   'P 1'
_cell_length_a   3.00541700
_cell_length_b   8.58504692
_cell_length_c   10.13850573
_cell_angle_alpha   90.31434996
_cell_angle_beta   90.00000000
_cell_angle_gamma   90.00000000
_symmetry_Int_Tables_number   1
_chemical_formula_structural   Yb2Sc2ReB8Ru9
_chemical_formula_sum   'Yb2 Sc2 Re1 B8 Ru9'
_cell_volume   261.58619830
_cell_formula_units_Z   1
loop_
 _symmetry_equiv_pos_site_id
 _symmetry_equiv_pos_as_xyz
  1  'x, y, z'
loop_
 _atom_site_type_symbol
 _atom_site_label
 _atom_site_symmetry_multiplicity
 _atom_site_fract_x
 _atom_site_fract_y
 _atom_site_fract_z
 _atom_site_occupancy
  Yb  Yb0  1  0.500000  0.843265  0.182601  1
  Yb  Yb1  1  0.500000  0.157922  0.818817  1
  Sc  Sc2  1  0.500000  0.656971  0.683594  1
  Sc  Sc3  1  0.500000  0.343994  0.316029  1
  Re  Re4  1  0.000000  0.657359  0.952870  1
  B  B5  1  0.500000  0.963846  0.589577  1
  B  B6  1  0.500000  0.035493  0.409928  1
  B  B7  1  0.500000  0.849058  0.901011  1
  B  B8  1  0.500000  0.149544  0.099210  1
  B  B9  1  0.500000  0.646017  0.399722  1
  B  B10  1  0.500000  0.351292  0.600192  1
  B  B11  1  0.500000  0.465298  0.911494  1
  B  B12  1  0.500000  0.537507  0.087891  1
  Ru  Ru13  1  0.000000  0.340732  0.048211  1
  Ru  Ru14  1  0.000000  0.841564  0.454301  1
  Ru  Ru15  1  0.000000  0.158534  0.545151  1
  Ru  Ru16  1  0.000000  0.999720  0.000136  1
  Ru  Ru17  1  0.000000  0.409914  0.759113  1
  Ru  Ru18  1  0.000000  0.591357  0.240697  1
  Ru  Ru19  1  0.000000  0.499815  0.500259  1
  Ru  Ru20  1  0.000000  0.899305  0.737428  1
  Ru  Ru21  1  0.000000  0.101497  0.261766  1
