# generated using pymatgen
data_YbY4Cu2Sb
_symmetry_space_group_name_H-M   'P 1'
_cell_length_a   8.68664597
_cell_length_b   8.68664513
_cell_length_c   8.68664544
_cell_angle_alpha   126.94293760
_cell_angle_beta   126.94293607
_cell_angle_gamma   78.34379795
_symmetry_Int_Tables_number   1
_chemical_formula_structural   YbY4Cu2Sb
_chemical_formula_sum   'Yb2 Y8 Cu4 Sb2'
_cell_volume   405.49207781
_cell_formula_units_Z   2
loop_
 _symmetry_equiv_pos_site_id
 _symmetry_equiv_pos_as_xyz
  1  'x, y, z'
loop_
 _atom_site_type_symbol
 _atom_site_label
 _atom_site_symmetry_multiplicity
 _atom_site_fract_x
 _atom_site_fract_y
 _atom_site_fract_z
 _atom_site_occupancy
  Yb  Yb0  1  0.000000  0.000000  0.000000  1
  Yb  Yb1  1  0.500000  0.500000  0.000000  1
  Y  Y2  1  0.801441  0.301441  0.813958  1
  Y  Y3  1  0.198559  0.698559  0.186042  1
  Y  Y4  1  0.487483  0.987483  0.186042  1
  Y  Y5  1  0.301441  0.487483  0.500000  1
  Y  Y6  1  0.012517  0.198559  0.500000  1
  Y  Y7  1  0.512517  0.012517  0.813958  1
  Y  Y8  1  0.698559  0.512517  0.500000  1
  Y  Y9  1  0.987483  0.801441  0.500000  1
  Cu  Cu10  1  0.126077  0.626077  0.752151  1
  Cu  Cu11  1  0.873923  0.373923  0.247849  1
  Cu  Cu12  1  0.626077  0.873923  0.500000  1
  Cu  Cu13  1  0.373923  0.126077  0.500000  1
  Sb  Sb14  1  0.250000  0.250000  0.000000  1
  Sb  Sb15  1  0.750000  0.750000  0.000000  1
