# generated using pymatgen
data_HoBi3Ir2(RhO7)2
_symmetry_space_group_name_H-M   'P 1'
_cell_length_a   7.32459715
_cell_length_b   7.35085051
_cell_length_c   7.35085030
_cell_angle_alpha   59.93285108
_cell_angle_beta   59.70982886
_cell_angle_gamma   59.70983407
_symmetry_Int_Tables_number   1
_chemical_formula_structural   HoBi3Ir2(RhO7)2
_chemical_formula_sum   'Ho1 Bi3 Ir2 Rh2 O14'
_cell_volume   278.48783553
_cell_formula_units_Z   1
loop_
 _symmetry_equiv_pos_site_id
 _symmetry_equiv_pos_as_xyz
  1  'x, y, z'
loop_
 _atom_site_type_symbol
 _atom_site_label
 _atom_site_symmetry_multiplicity
 _atom_site_fract_x
 _atom_site_fract_y
 _atom_site_fract_z
 _atom_site_occupancy
  Ho  Ho0  1  0.625000  0.125000  0.125000  1
  Bi  Bi1  1  0.125000  0.125000  0.125000  1
  Bi  Bi2  1  0.125000  0.625000  0.125000  1
  Bi  Bi3  1  0.125000  0.125000  0.625000  1
  Ir  Ir4  1  0.625000  0.625000  0.125000  1
  Ir  Ir5  1  0.625000  0.125000  0.625000  1
  Rh  Rh6  1  0.625000  0.625000  0.625000  1
  Rh  Rh7  1  0.125000  0.625000  0.625000  1
  O  O8  1  0.259648  0.245793  0.245793  1
  O  O9  1  0.296504  0.708104  0.290120  1
  O  O10  1  0.953496  0.959880  0.541896  1
  O  O11  1  0.547073  0.963427  0.531626  1
  O  O12  1  0.702927  0.718374  0.286573  1
  O  O13  1  0.958872  0.541202  0.541202  1
  O  O14  1  0.702927  0.286573  0.718374  1
  O  O15  1  0.296504  0.290120  0.708104  1
  O  O16  1  0.702707  0.291022  0.291022  1
  O  O17  1  0.291128  0.708798  0.708798  1
  O  O18  1  0.953496  0.541896  0.959880  1
  O  O19  1  0.547073  0.531626  0.963427  1
  O  O20  1  0.990352  0.004207  0.004207  1
  O  O21  1  0.547293  0.958978  0.958978  1
