# generated using pymatgen
data_Ir(SeCl6)2
_symmetry_space_group_name_H-M   'P 1'
_cell_length_a   12.73914482
_cell_length_b   12.61970475
_cell_length_c   9.01679495
_cell_angle_alpha   69.88279915
_cell_angle_beta   68.46402129
_cell_angle_gamma   41.65317475
_symmetry_Int_Tables_number   1
_chemical_formula_structural   Ir(SeCl6)2
_chemical_formula_sum   'Ir2 Se4 Cl24'
_cell_volume   890.45218307
_cell_formula_units_Z   2
loop_
 _symmetry_equiv_pos_site_id
 _symmetry_equiv_pos_as_xyz
  1  'x, y, z'
loop_
 _atom_site_type_symbol
 _atom_site_label
 _atom_site_symmetry_multiplicity
 _atom_site_fract_x
 _atom_site_fract_y
 _atom_site_fract_z
 _atom_site_occupancy
  Ir  Ir0  1  0.834940  0.834940  0.665060  1
  Ir  Ir1  1  0.584940  0.584940  0.415060  1
  Se  Se2  1  0.022222  0.481536  0.014002  1
  Se  Se3  1  0.235998  0.767759  0.227778  1
  Se  Se4  1  0.767759  0.235998  0.768464  1
  Se  Se5  1  0.481536  0.022222  0.482241  1
  Cl  Cl6  1  0.359418  0.792738  0.996115  1
  Cl  Cl7  1  0.998081  0.018110  0.215025  1
  Cl  Cl8  1  0.689425  0.627039  0.157133  1
  Cl  Cl9  1  0.253885  0.398270  0.890582  1
  Cl  Cl10  1  0.578745  0.937837  0.774059  1
  Cl  Cl11  1  0.723596  0.092867  0.622961  1
  Cl  Cl12  1  0.647184  0.207855  0.008026  1
  Cl  Cl13  1  0.326022  0.841629  0.374520  1
  Cl  Cl14  1  0.398270  0.253885  0.457262  1
  Cl  Cl15  1  0.481215  0.034975  0.231890  1
  Cl  Cl16  1  0.875480  0.792170  0.923978  1
  Cl  Cl17  1  0.540642  0.475941  0.312163  1
  Cl  Cl18  1  0.113065  0.241974  0.042145  1
  Cl  Cl19  1  0.207855  0.647184  0.136935  1
  Cl  Cl20  1  0.092867  0.723596  0.560575  1
  Cl  Cl21  1  0.792170  0.875480  0.408371  1
  Cl  Cl22  1  0.034975  0.481215  0.251919  1
  Cl  Cl23  1  0.937837  0.578745  0.709358  1
  Cl  Cl24  1  0.475941  0.540642  0.671255  1
  Cl  Cl25  1  0.841629  0.326022  0.457830  1
  Cl  Cl26  1  0.627039  0.689425  0.526404  1
  Cl  Cl27  1  0.792738  0.359418  0.851730  1
  Cl  Cl28  1  0.018110  0.998081  0.768785  1
  Cl  Cl29  1  0.241974  0.113065  0.602816  1
