# generated using pymatgen
data_Hf8Zr7Nb5Si16
_symmetry_space_group_name_H-M   'P 1'
_cell_length_a   7.02071600
_cell_length_b   7.01814810
_cell_length_c   12.85502953
_cell_angle_alpha   90.18854409
_cell_angle_beta   90.11326765
_cell_angle_gamma   89.98760564
_symmetry_Int_Tables_number   1
_chemical_formula_structural   Hf8Zr7Nb5Si16
_chemical_formula_sum   'Hf8 Zr7 Nb5 Si16'
_cell_volume   633.39379359
_cell_formula_units_Z   1
loop_
 _symmetry_equiv_pos_site_id
 _symmetry_equiv_pos_as_xyz
  1  'x, y, z'
loop_
 _atom_site_type_symbol
 _atom_site_label
 _atom_site_symmetry_multiplicity
 _atom_site_fract_x
 _atom_site_fract_y
 _atom_site_fract_z
 _atom_site_occupancy
  Hf  Hf0  1  0.854771  0.997312  0.373404  1
  Hf  Hf1  1  0.004744  0.146109  0.127418  1
  Hf  Hf2  1  0.997249  0.853013  0.625711  1
  Hf  Hf3  1  0.646066  0.497207  0.876819  1
  Hf  Hf4  1  0.502158  0.353334  0.623947  1
  Hf  Hf5  1  0.498431  0.645292  0.122998  1
  Hf  Hf6  1  0.145282  0.002859  0.873869  1
  Hf  Hf7  1  0.001229  0.652640  0.033434  1
  Zr  Zr8  1  0.001993  0.347254  0.530829  1
  Zr  Zr9  1  0.653371  0.997117  0.968111  1
  Zr  Zr10  1  0.151906  0.501463  0.782440  1
  Zr  Zr11  1  0.848649  0.498108  0.282483  1
  Zr  Zr12  1  0.502535  0.152833  0.219162  1
  Zr  Zr13  1  0.497407  0.845578  0.716208  1
  Zr  Zr14  1  0.346052  0.000740  0.467298  1
  Nb  Nb15  1  0.354024  0.506456  0.375501  1
  Nb  Nb16  1  0.673008  0.673891  0.499224  1
  Nb  Nb17  1  0.824243  0.174946  0.750283  1
  Nb  Nb18  1  0.175896  0.825386  0.250304  1
  Nb  Nb19  1  0.325581  0.325680  0.000804  1
  Si  Si20  1  0.051421  0.699616  0.435096  1
  Si  Si21  1  0.952177  0.301564  0.936778  1
  Si  Si22  1  0.699816  0.049884  0.563694  1
  Si  Si23  1  0.201130  0.452959  0.187021  1
  Si  Si24  1  0.799623  0.548083  0.685297  1
  Si  Si25  1  0.451149  0.199028  0.814655  1
  Si  Si26  1  0.548108  0.797900  0.314247  1
  Si  Si27  1  0.300244  0.950477  0.064602  1
  Si  Si28  1  0.853969  0.795885  0.821465  1
  Si  Si29  1  0.145854  0.209797  0.324040  1
  Si  Si30  1  0.796969  0.854001  0.177481  1
  Si  Si31  1  0.295778  0.643559  0.569547  1
  Si  Si32  1  0.704788  0.353786  0.072357  1
  Si  Si33  1  0.639676  0.297445  0.426507  1
  Si  Si34  1  0.352889  0.702805  0.928785  1
  Si  Si35  1  0.201815  0.145991  0.678177  1
