# generated using pymatgen
data_Y2Ho4Al19Si5Ru8
_symmetry_space_group_name_H-M   'P 1'
_cell_length_a   8.68759900
_cell_length_b   8.67476241
_cell_length_c   9.58692500
_cell_angle_alpha   90.00000000
_cell_angle_beta   90.00000000
_cell_angle_gamma   120.04693558
_symmetry_Int_Tables_number   1
_chemical_formula_structural   Y2Ho4Al19Si5Ru8
_chemical_formula_sum   'Y2 Ho4 Al19 Si5 Ru8'
_cell_volume   625.40553595
_cell_formula_units_Z   1
loop_
 _symmetry_equiv_pos_site_id
 _symmetry_equiv_pos_as_xyz
  1  'x, y, z'
loop_
 _atom_site_type_symbol
 _atom_site_label
 _atom_site_symmetry_multiplicity
 _atom_site_fract_x
 _atom_site_fract_y
 _atom_site_fract_z
 _atom_site_occupancy
  Y  Y0  1  0.806454  0.612691  0.750000  1
  Y  Y1  1  0.388633  0.194318  0.750000  1
  Ho  Ho2  1  0.194610  0.389173  0.250000  1
  Ho  Ho3  1  0.608505  0.806792  0.250000  1
  Ho  Ho4  1  0.198312  0.806809  0.250000  1
  Ho  Ho5  1  0.805603  0.194709  0.750000  1
  Al  Al6  1  0.164659  0.329635  0.578875  1
  Al  Al7  1  0.834762  0.669553  0.420511  1
  Al  Al8  1  0.669804  0.835231  0.578031  1
  Al  Al9  1  0.834762  0.669553  0.079489  1
  Al  Al10  1  0.329542  0.165578  0.420623  1
  Al  Al11  1  0.164659  0.329635  0.921125  1
  Al  Al12  1  0.165305  0.835024  0.577910  1
  Al  Al13  1  0.329542  0.165578  0.079377  1
  Al  Al14  1  0.836005  0.165569  0.420806  1
  Al  Al15  1  0.669804  0.835231  0.921969  1
  Al  Al16  1  0.836005  0.165569  0.079194  1
  Al  Al17  1  0.165305  0.835024  0.922090  1
  Al  Al18  1  0.437458  0.874531  0.750000  1
  Al  Al19  1  0.873374  0.433975  0.250000  1
  Al  Al20  1  0.126891  0.563740  0.750000  1
  Al  Al21  1  0.560600  0.433966  0.250000  1
  Al  Al22  1  0.436881  0.564084  0.750000  1
  Al  Al23  1  0.999909  0.999806  0.250000  1
  Al  Al24  1  0.000062  0.000931  0.750000  1
  Si  Si25  1  0.332524  0.665029  0.037242  1
  Si  Si26  1  0.667608  0.334601  0.961391  1
  Si  Si27  1  0.667608  0.334601  0.538609  1
  Si  Si28  1  0.332524  0.665029  0.462758  1
  Si  Si29  1  0.563391  0.126790  0.250000  1
  Ru  Ru30  1  0.500825  0.001462  0.006075  1
  Ru  Ru31  1  0.998979  0.498848  0.000734  1
  Ru  Ru32  1  0.500825  0.001462  0.493925  1
  Ru  Ru33  1  0.499964  0.499013  0.000870  1
  Ru  Ru34  1  0.998979  0.498848  0.499266  1
  Ru  Ru35  1  0.499964  0.499013  0.499130  1
  Ru  Ru36  1  0.999682  0.999301  0.999901  1
  Ru  Ru37  1  0.999682  0.999301  0.500099  1
