# generated using pymatgen
data_Tb7Tm5Th4(MgRu)4
_symmetry_space_group_name_H-M   'P 1'
_cell_length_a   9.74101627
_cell_length_b   9.74101623
_cell_length_c   9.73259600
_cell_angle_alpha   60.02859032
_cell_angle_beta   60.02859047
_cell_angle_gamma   60.08140693
_symmetry_Int_Tables_number   1
_chemical_formula_structural   Tb7Tm5Th4(MgRu)4
_chemical_formula_sum   'Tb7 Tm5 Th4 Mg4 Ru4'
_cell_volume   653.69699353
_cell_formula_units_Z   1
loop_
 _symmetry_equiv_pos_site_id
 _symmetry_equiv_pos_as_xyz
  1  'x, y, z'
loop_
 _atom_site_type_symbol
 _atom_site_label
 _atom_site_symmetry_multiplicity
 _atom_site_fract_x
 _atom_site_fract_y
 _atom_site_fract_z
 _atom_site_occupancy
  Tb  Tb0  1  0.064857  0.064857  0.435143  1
  Tb  Tb1  1  0.186424  0.813368  0.814582  1
  Tb  Tb2  1  0.813368  0.186424  0.185626  1
  Tb  Tb3  1  0.813368  0.186424  0.814582  1
  Tb  Tb4  1  0.186424  0.813368  0.185626  1
  Tb  Tb5  1  0.814062  0.814062  0.185938  1
  Tb  Tb6  1  0.186127  0.186127  0.813873  1
  Tm  Tm7  1  0.064889  0.435963  0.434819  1
  Tm  Tm8  1  0.435963  0.064889  0.064329  1
  Tm  Tm9  1  0.435963  0.064889  0.434819  1
  Tm  Tm10  1  0.064889  0.435963  0.064329  1
  Tm  Tm11  1  0.435148  0.435148  0.064852  1
  Th  Th12  1  0.596414  0.596414  0.596424  1
  Th  Th13  1  0.596414  0.596414  0.210750  1
  Th  Th14  1  0.595429  0.210940  0.596816  1
  Th  Th15  1  0.210940  0.595429  0.596816  1
  Mg  Mg16  1  0.829369  0.829369  0.830314  1
  Mg  Mg17  1  0.829369  0.829369  0.510949  1
  Mg  Mg18  1  0.829515  0.510904  0.829790  1
  Mg  Mg19  1  0.510904  0.829515  0.829790  1
  Ru  Ru20  1  0.392794  0.392794  0.392894  1
  Ru  Ru21  1  0.392794  0.392794  0.821517  1
  Ru  Ru22  1  0.394221  0.820356  0.392712  1
  Ru  Ru23  1  0.820356  0.394221  0.392712  1
