# generated using pymatgen
data_TmBi3O7
_symmetry_space_group_name_H-M   'P 1'
_cell_length_a   6.62542196
_cell_length_b   6.83031151
_cell_length_c   7.81077483
_cell_angle_alpha   106.68271958
_cell_angle_beta   89.42328023
_cell_angle_gamma   99.30458254
_symmetry_Int_Tables_number   1
_chemical_formula_structural   TmBi3O7
_chemical_formula_sum   'Tm2 Bi6 O14'
_cell_volume   333.88672054
_cell_formula_units_Z   2
loop_
 _symmetry_equiv_pos_site_id
 _symmetry_equiv_pos_as_xyz
  1  'x, y, z'
loop_
 _atom_site_type_symbol
 _atom_site_label
 _atom_site_symmetry_multiplicity
 _atom_site_fract_x
 _atom_site_fract_y
 _atom_site_fract_z
 _atom_site_occupancy
  Tm  Tm0  1  0.461779  0.004277  0.249563  1
  Tm  Tm1  1  0.538221  0.995723  0.750437  1
  Bi  Bi2  1  0.000000  0.000000  0.500000  1
  Bi  Bi3  1  0.000000  0.000000  0.000000  1
  Bi  Bi4  1  0.261261  0.520698  0.879919  1
  Bi  Bi5  1  0.738739  0.479302  0.120081  1
  Bi  Bi6  1  0.723001  0.461554  0.608913  1
  Bi  Bi7  1  0.276999  0.538446  0.391087  1
  O  O8  1  0.464756  0.663642  0.184168  1
  O  O9  1  0.535244  0.336358  0.815832  1
  O  O10  1  0.306141  0.945180  0.951943  1
  O  O11  1  0.693859  0.054820  0.048057  1
  O  O12  1  0.299804  0.921075  0.514255  1
  O  O13  1  0.700196  0.078925  0.485745  1
  O  O14  1  0.529265  0.347184  0.349963  1
  O  O15  1  0.470735  0.652816  0.650037  1
  O  O16  1  0.918101  0.673465  0.958361  1
  O  O17  1  0.081899  0.326535  0.041639  1
  O  O18  1  0.095137  0.326176  0.623203  1
  O  O19  1  0.904863  0.673824  0.376797  1
  O  O20  1  0.873133  0.936295  0.733792  1
  O  O21  1  0.126867  0.063705  0.266208  1
