# generated using pymatgen
data_Yb6Y2Cu7Si8Pd
_symmetry_space_group_name_H-M   'P 1'
_cell_length_a   4.24188800
_cell_length_b   7.23965264
_cell_length_c   14.05616212
_cell_angle_alpha   90.18549359
_cell_angle_beta   90.00000000
_cell_angle_gamma   90.00000000
_symmetry_Int_Tables_number   1
_chemical_formula_structural   Yb6Y2Cu7Si8Pd
_chemical_formula_sum   'Yb6 Y2 Cu7 Si8 Pd1'
_cell_volume   431.65960418
_cell_formula_units_Z   1
loop_
 _symmetry_equiv_pos_site_id
 _symmetry_equiv_pos_as_xyz
  1  'x, y, z'
loop_
 _atom_site_type_symbol
 _atom_site_label
 _atom_site_symmetry_multiplicity
 _atom_site_fract_x
 _atom_site_fract_y
 _atom_site_fract_z
 _atom_site_occupancy
  Yb  Yb0  1  0.500000  0.797353  0.748225  1
  Yb  Yb1  1  0.000000  0.203300  0.752466  1
  Yb  Yb2  1  0.500000  0.793018  0.251867  1
  Yb  Yb3  1  0.000000  0.206659  0.247935  1
  Yb  Yb4  1  0.500000  0.707582  0.000878  1
  Yb  Yb5  1  0.000000  0.293000  0.498964  1
  Y  Y6  1  0.500000  0.695966  0.500247  1
  Y  Y7  1  0.000000  0.301425  0.000068  1
  Cu  Cu8  1  0.500000  0.084301  0.604490  1
  Cu  Cu9  1  0.000000  0.914963  0.894498  1
  Cu  Cu10  1  0.500000  0.083532  0.394618  1
  Cu  Cu11  1  0.000000  0.916233  0.105574  1
  Cu  Cu12  1  0.500000  0.416503  0.159028  1
  Cu  Cu13  1  0.000000  0.582550  0.340320  1
  Cu  Cu14  1  0.500000  0.417295  0.842715  1
  Si  Si15  1  0.500000  0.407936  0.650913  1
  Si  Si16  1  0.000000  0.586849  0.853244  1
  Si  Si17  1  0.500000  0.410230  0.349081  1
  Si  Si18  1  0.000000  0.589090  0.149483  1
  Si  Si19  1  0.500000  0.091340  0.094039  1
  Si  Si20  1  0.000000  0.909257  0.406107  1
  Si  Si21  1  0.500000  0.090498  0.908064  1
  Si  Si22  1  0.000000  0.914286  0.590264  1
  Pd  Pd23  1  0.000000  0.586833  0.656913  1
