# generated using pymatgen
data_HfNpTcB6
_symmetry_space_group_name_H-M   'P 1'
_cell_length_a   3.57947500
_cell_length_b   9.03097700
_cell_length_c   11.40082600
_cell_angle_alpha   90.00000000
_cell_angle_beta   90.00000000
_cell_angle_gamma   90.00000000
_symmetry_Int_Tables_number   1
_chemical_formula_structural   HfNpTcB6
_chemical_formula_sum   'Hf4 Np4 Tc4 B24'
_cell_volume   368.54488433
_cell_formula_units_Z   4
loop_
 _symmetry_equiv_pos_site_id
 _symmetry_equiv_pos_as_xyz
  1  'x, y, z'
loop_
 _atom_site_type_symbol
 _atom_site_label
 _atom_site_symmetry_multiplicity
 _atom_site_fract_x
 _atom_site_fract_y
 _atom_site_fract_z
 _atom_site_occupancy
  Hf  Hf0  1  0.000000  0.944375  0.373684  1
  Hf  Hf1  1  0.000000  0.055625  0.626316  1
  Hf  Hf2  1  0.000000  0.444375  0.126316  1
  Hf  Hf3  1  0.000000  0.555625  0.873684  1
  Np  Np4  1  0.000000  0.322569  0.414726  1
  Np  Np5  1  0.000000  0.677431  0.585274  1
  Np  Np6  1  0.000000  0.822569  0.085274  1
  Np  Np7  1  0.000000  0.177431  0.914726  1
  Tc  Tc8  1  0.000000  0.640519  0.319146  1
  Tc  Tc9  1  0.000000  0.359481  0.680854  1
  Tc  Tc10  1  0.000000  0.140519  0.180854  1
  Tc  Tc11  1  0.000000  0.859481  0.819146  1
  B  B12  1  0.500000  0.553549  0.433664  1
  B  B13  1  0.500000  0.446451  0.566336  1
  B  B14  1  0.500000  0.053549  0.066336  1
  B  B15  1  0.500000  0.946451  0.933664  1
  B  B16  1  0.500000  0.752500  0.419725  1
  B  B17  1  0.500000  0.247500  0.580275  1
  B  B18  1  0.500000  0.252500  0.080275  1
  B  B19  1  0.500000  0.747500  0.919725  1
  B  B20  1  0.500000  0.795544  0.264348  1
  B  B21  1  0.500000  0.204456  0.735652  1
  B  B22  1  0.500000  0.295544  0.235652  1
  B  B23  1  0.500000  0.704456  0.764348  1
  B  B24  1  0.500000  0.630775  0.182439  1
  B  B25  1  0.500000  0.369225  0.817561  1
  B  B26  1  0.500000  0.130775  0.317561  1
  B  B27  1  0.500000  0.869225  0.682439  1
  B  B28  1  0.500000  0.980847  0.213712  1
  B  B29  1  0.500000  0.019153  0.786288  1
  B  B30  1  0.500000  0.480847  0.286288  1
  B  B31  1  0.500000  0.519153  0.713712  1
  B  B32  1  0.500000  0.600447  0.027297  1
  B  B33  1  0.500000  0.399553  0.972703  1
  B  B34  1  0.500000  0.100447  0.472703  1
  B  B35  1  0.500000  0.899553  0.527297  1
