# generated using pymatgen
data_Mn(VTe2)4
_symmetry_space_group_name_H-M   'P 1'
_cell_length_a   7.48299053
_cell_length_b   7.48299085
_cell_length_c   9.10781975
_cell_angle_alpha   54.07971309
_cell_angle_beta   54.07970840
_cell_angle_gamma   62.93619942
_symmetry_Int_Tables_number   1
_chemical_formula_structural   Mn(VTe2)4
_chemical_formula_sum   'Mn1 V4 Te8'
_cell_volume   329.66064047
_cell_formula_units_Z   1
loop_
 _symmetry_equiv_pos_site_id
 _symmetry_equiv_pos_as_xyz
  1  'x, y, z'
loop_
 _atom_site_type_symbol
 _atom_site_label
 _atom_site_symmetry_multiplicity
 _atom_site_fract_x
 _atom_site_fract_y
 _atom_site_fract_z
 _atom_site_occupancy
  Mn  Mn0  1  0.000000  0.000000  0.000000  1
  V  V1  1  0.712483  0.287517  0.500000  1
  V  V2  1  0.287517  0.712483  0.500000  1
  V  V3  1  0.713588  0.713588  0.052385  1
  V  V4  1  0.286412  0.286412  0.947615  1
  Te  Te5  1  0.428159  0.428159  0.349417  1
  Te  Te6  1  0.571841  0.571841  0.650583  1
  Te  Te7  1  0.536117  0.044811  0.166818  1
  Te  Te8  1  0.463883  0.955189  0.833182  1
  Te  Te9  1  0.955189  0.463883  0.833182  1
  Te  Te10  1  0.044811  0.536117  0.166818  1
  Te  Te11  1  0.987443  0.987443  0.321240  1
  Te  Te12  1  0.012557  0.012557  0.678760  1
