# generated using pymatgen
data_Dy2Si5Ru3
_symmetry_space_group_name_H-M   'P 1'
_cell_length_a   8.25110649
_cell_length_b   8.25110718
_cell_length_c   8.25110752
_cell_angle_alpha   140.21925461
_cell_angle_beta   108.54005688
_cell_angle_gamma   85.03965931
_symmetry_Int_Tables_number   1
_chemical_formula_structural   Dy2Si5Ru3
_chemical_formula_sum   'Dy4 Si10 Ru6'
_cell_volume   329.03272746
_cell_formula_units_Z   2
loop_
 _symmetry_equiv_pos_site_id
 _symmetry_equiv_pos_as_xyz
  1  'x, y, z'
loop_
 _atom_site_type_symbol
 _atom_site_label
 _atom_site_symmetry_multiplicity
 _atom_site_fract_x
 _atom_site_fract_y
 _atom_site_fract_z
 _atom_site_occupancy
  Dy  Dy0  1  0.904146  0.136173  0.767973  1
  Dy  Dy1  1  0.095854  0.863827  0.232027  1
  Dy  Dy2  1  0.631800  0.363827  0.267973  1
  Dy  Dy3  1  0.368200  0.636173  0.732027  1
  Si  Si4  1  0.000000  0.750000  0.750000  1
  Si  Si5  1  0.000000  0.250000  0.250000  1
  Si  Si6  1  0.707315  0.457315  0.750000  1
  Si  Si7  1  0.292685  0.042685  0.750000  1
  Si  Si8  1  0.292685  0.542685  0.250000  1
  Si  Si9  1  0.707315  0.957315  0.250000  1
  Si  Si10  1  0.235334  0.404377  0.830958  1
  Si  Si11  1  0.573418  0.904377  0.669042  1
  Si  Si12  1  0.426582  0.095623  0.330958  1
  Si  Si13  1  0.764666  0.595623  0.169042  1
  Ru  Ru14  1  0.761082  0.853689  0.907393  1
  Ru  Ru15  1  0.500000  0.250000  0.750000  1
  Ru  Ru16  1  0.946296  0.353689  0.592607  1
  Ru  Ru17  1  0.053704  0.646311  0.407393  1
  Ru  Ru18  1  0.238918  0.146311  0.092607  1
  Ru  Ru19  1  0.500000  0.750000  0.250000  1
