# generated using pymatgen
data_Sm3CoTcNi7P6
_symmetry_space_group_name_H-M   'P 1'
_cell_length_a   3.79699400
_cell_length_b   10.58057700
_cell_length_c   12.41495100
_cell_angle_alpha   90.00000000
_cell_angle_beta   90.00000000
_cell_angle_gamma   90.00000000
_symmetry_Int_Tables_number   1
_chemical_formula_structural   Sm3CoTcNi7P6
_chemical_formula_sum   'Sm6 Co2 Tc2 Ni14 P12'
_cell_volume   498.76305085
_cell_formula_units_Z   2
loop_
 _symmetry_equiv_pos_site_id
 _symmetry_equiv_pos_as_xyz
  1  'x, y, z'
loop_
 _atom_site_type_symbol
 _atom_site_label
 _atom_site_symmetry_multiplicity
 _atom_site_fract_x
 _atom_site_fract_y
 _atom_site_fract_z
 _atom_site_occupancy
  Sm  Sm0  1  0.000000  0.500000  0.522320  1
  Sm  Sm1  1  0.500000  0.000000  0.477680  1
  Sm  Sm2  1  0.500000  0.815837  0.207013  1
  Sm  Sm3  1  0.500000  0.184163  0.207013  1
  Sm  Sm4  1  0.000000  0.684163  0.792987  1
  Sm  Sm5  1  0.000000  0.315837  0.792987  1
  Co  Co6  1  0.000000  0.500000  0.984207  1
  Co  Co7  1  0.500000  0.000000  0.015793  1
  Tc  Tc8  1  0.500000  0.500000  0.152224  1
  Tc  Tc9  1  0.000000  0.000000  0.847776  1
  Ni  Ni10  1  0.500000  0.500000  0.702305  1
  Ni  Ni11  1  0.000000  0.000000  0.297695  1
  Ni  Ni12  1  0.500000  0.331407  0.988615  1
  Ni  Ni13  1  0.500000  0.668593  0.988615  1
  Ni  Ni14  1  0.000000  0.168593  0.011385  1
  Ni  Ni15  1  0.000000  0.831407  0.011385  1
  Ni  Ni16  1  0.500000  0.302877  0.426904  1
  Ni  Ni17  1  0.500000  0.697123  0.426904  1
  Ni  Ni18  1  0.000000  0.197123  0.573096  1
  Ni  Ni19  1  0.000000  0.802877  0.573096  1
  Ni  Ni20  1  0.500000  0.881576  0.711008  1
  Ni  Ni21  1  0.500000  0.118424  0.711008  1
  Ni  Ni22  1  0.000000  0.618424  0.288992  1
  Ni  Ni23  1  0.000000  0.381576  0.288992  1
  P  P24  1  0.500000  0.500000  0.881239  1
  P  P25  1  0.000000  0.000000  0.118761  1
  P  P26  1  0.500000  0.500000  0.344614  1
  P  P27  1  0.000000  0.000000  0.655386  1
  P  P28  1  0.500000  0.311478  0.612973  1
  P  P29  1  0.500000  0.688522  0.612973  1
  P  P30  1  0.000000  0.188522  0.387027  1
  P  P31  1  0.000000  0.811478  0.387027  1
  P  P32  1  0.500000  0.850823  0.894103  1
  P  P33  1  0.500000  0.149177  0.894103  1
  P  P34  1  0.000000  0.649177  0.105897  1
  P  P35  1  0.000000  0.350823  0.105897  1
