# generated using pymatgen
data_Er3Mg3Ga2Hg
_symmetry_space_group_name_H-M   'P 1'
_cell_length_a   4.39458700
_cell_length_b   7.32851871
_cell_length_c   7.32851900
_cell_angle_alpha   120.00000583
_cell_angle_beta   90.00000000
_cell_angle_gamma   90.00000000
_symmetry_Int_Tables_number   1
_chemical_formula_structural   Er3Mg3Ga2Hg
_chemical_formula_sum   'Er3 Mg3 Ga2 Hg1'
_cell_volume   204.40009429
_cell_formula_units_Z   1
loop_
 _symmetry_equiv_pos_site_id
 _symmetry_equiv_pos_as_xyz
  1  'x, y, z'
loop_
 _atom_site_type_symbol
 _atom_site_label
 _atom_site_symmetry_multiplicity
 _atom_site_fract_x
 _atom_site_fract_y
 _atom_site_fract_z
 _atom_site_occupancy
  Er  Er0  1  0.000000  0.426258  0.426258  1
  Er  Er1  1  0.000000  0.000000  0.573742  1
  Er  Er2  1  0.000000  0.573742  0.000000  1
  Mg  Mg3  1  0.500000  0.750707  0.750707  1
  Mg  Mg4  1  0.500000  0.000000  0.249293  1
  Mg  Mg5  1  0.500000  0.249293  0.000000  1
  Ga  Ga6  1  0.500000  0.666667  0.333333  1
  Ga  Ga7  1  0.500000  0.333333  0.666667  1
  Hg  Hg8  1  0.000000  0.000000  0.000000  1
