# generated using pymatgen
data_DyEr11Tc3Ni
_symmetry_space_group_name_H-M   'P 1'
_cell_length_a   6.23707701
_cell_length_b   7.30705204
_cell_length_c   9.10459700
_cell_angle_alpha   90.00000000
_cell_angle_beta   90.00000000
_cell_angle_gamma   90.17747225
_symmetry_Int_Tables_number   1
_chemical_formula_structural   DyEr11Tc3Ni
_chemical_formula_sum   'Dy1 Er11 Tc3 Ni1'
_cell_volume   414.93679696
_cell_formula_units_Z   1
loop_
 _symmetry_equiv_pos_site_id
 _symmetry_equiv_pos_as_xyz
  1  'x, y, z'
loop_
 _atom_site_type_symbol
 _atom_site_label
 _atom_site_symmetry_multiplicity
 _atom_site_fract_x
 _atom_site_fract_y
 _atom_site_fract_z
 _atom_site_occupancy
  Dy  Dy0  1  0.139370  0.458296  0.750000  1
  Er  Er1  1  0.329434  0.677748  0.066561  1
  Er  Er2  1  0.163205  0.176712  0.437471  1
  Er  Er3  1  0.665646  0.322713  0.562270  1
  Er  Er4  1  0.834734  0.823472  0.938610  1
  Er  Er5  1  0.665646  0.322713  0.937730  1
  Er  Er6  1  0.834734  0.823472  0.561390  1
  Er  Er7  1  0.329434  0.677748  0.433439  1
  Er  Er8  1  0.163205  0.176712  0.062529  1
  Er  Er9  1  0.872347  0.540259  0.250000  1
  Er  Er10  1  0.623393  0.039510  0.250000  1
  Er  Er11  1  0.374333  0.958124  0.750000  1
  Tc  Tc12  1  0.037421  0.885622  0.250000  1
  Tc  Tc13  1  0.460944  0.387863  0.250000  1
  Tc  Tc14  1  0.960911  0.113354  0.750000  1
  Ni  Ni15  1  0.545243  0.615683  0.750000  1
