# generated using pymatgen
data_CaYUIr3
_symmetry_space_group_name_H-M   'P 1'
_cell_length_a   5.33561884
_cell_length_b   5.33561828
_cell_length_c   5.33561808
_cell_angle_alpha   65.80564854
_cell_angle_beta   65.80566621
_cell_angle_gamma   65.80565464
_symmetry_Int_Tables_number   1
_chemical_formula_structural   CaYUIr3
_chemical_formula_sum   'Ca1 Y1 U1 Ir3'
_cell_volume   120.92749426
_cell_formula_units_Z   1
loop_
 _symmetry_equiv_pos_site_id
 _symmetry_equiv_pos_as_xyz
  1  'x, y, z'
loop_
 _atom_site_type_symbol
 _atom_site_label
 _atom_site_symmetry_multiplicity
 _atom_site_fract_x
 _atom_site_fract_y
 _atom_site_fract_z
 _atom_site_occupancy
  Ca  Ca0  1  0.000042  0.000042  0.000042  1
  Y  Y1  1  0.248795  0.248795  0.248795  1
  U  U2  1  0.625910  0.625910  0.625910  1
  Ir  Ir3  1  0.125848  0.624702  0.624702  1
  Ir  Ir4  1  0.624702  0.125848  0.624702  1
  Ir  Ir5  1  0.624702  0.624702  0.125848  1
