# generated using pymatgen
data_Ca10Cd2Cu3Ir
_symmetry_space_group_name_H-M   'P 1'
_cell_length_a   9.22538213
_cell_length_b   9.22538098
_cell_length_c   9.24367316
_cell_angle_alpha   129.46774737
_cell_angle_beta   129.46773710
_cell_angle_gamma   74.10900743
_symmetry_Int_Tables_number   1
_chemical_formula_structural   Ca10Cd2Cu3Ir
_chemical_formula_sum   'Ca10 Cd2 Cu3 Ir1'
_cell_volume   457.51196548
_cell_formula_units_Z   1
loop_
 _symmetry_equiv_pos_site_id
 _symmetry_equiv_pos_as_xyz
  1  'x, y, z'
loop_
 _atom_site_type_symbol
 _atom_site_label
 _atom_site_symmetry_multiplicity
 _atom_site_fract_x
 _atom_site_fract_y
 _atom_site_fract_z
 _atom_site_occupancy
  Ca  Ca0  1  0.532138  0.023617  0.828513  1
  Ca  Ca1  1  0.203624  0.695104  0.171487  1
  Ca  Ca2  1  0.030862  0.193246  0.500000  1
  Ca  Ca3  1  0.687715  0.542682  0.500000  1
  Ca  Ca4  1  0.476383  0.967862  0.171487  1
  Ca  Ca5  1  0.804896  0.296376  0.828513  1
  Ca  Ca6  1  0.957318  0.812285  0.500000  1
  Ca  Ca7  1  0.306754  0.469138  0.500000  1
  Ca  Ca8  1  0.502528  0.508281  0.010808  1
  Ca  Ca9  1  0.991719  0.997472  0.989192  1
  Cd  Cd10  1  0.252252  0.247748  0.000000  1
  Cd  Cd11  1  0.752252  0.747748  0.000000  1
  Cu  Cu12  1  0.384431  0.115569  0.500000  1
  Cu  Cu13  1  0.112458  0.612803  0.725261  1
  Cu  Cu14  1  0.887197  0.387542  0.274739  1
  Ir  Ir15  1  0.617470  0.882530  0.500000  1
