# generated using pymatgen
data_Dy2Si6Ir
_symmetry_space_group_name_H-M   'P 1'
_cell_length_a   5.58140816
_cell_length_b   5.58140900
_cell_length_c   21.03457700
_cell_angle_alpha   90.00000000
_cell_angle_beta   90.00000000
_cell_angle_gamma   90.94285711
_symmetry_Int_Tables_number   1
_chemical_formula_structural   Dy2Si6Ir
_chemical_formula_sum   'Dy8 Si24 Ir4'
_cell_volume   655.18298219
_cell_formula_units_Z   4
loop_
 _symmetry_equiv_pos_site_id
 _symmetry_equiv_pos_as_xyz
  1  'x, y, z'
loop_
 _atom_site_type_symbol
 _atom_site_label
 _atom_site_symmetry_multiplicity
 _atom_site_fract_x
 _atom_site_fract_y
 _atom_site_fract_z
 _atom_site_occupancy
  Dy  Dy0  1  0.373623  0.874054  0.581415  1
  Dy  Dy1  1  0.125946  0.626377  0.418585  1
  Dy  Dy2  1  0.625946  0.126377  0.081415  1
  Dy  Dy3  1  0.873623  0.374054  0.918585  1
  Dy  Dy4  1  0.626377  0.125946  0.418585  1
  Dy  Dy5  1  0.874054  0.373623  0.581415  1
  Dy  Dy6  1  0.374054  0.873623  0.918585  1
  Dy  Dy7  1  0.126377  0.625946  0.081415  1
  Si  Si8  1  0.651970  0.095417  0.693616  1
  Si  Si9  1  0.904583  0.348030  0.306384  1
  Si  Si10  1  0.404583  0.848030  0.193616  1
  Si  Si11  1  0.151970  0.595417  0.806384  1
  Si  Si12  1  0.348030  0.904583  0.306384  1
  Si  Si13  1  0.095417  0.651970  0.693616  1
  Si  Si14  1  0.595417  0.151970  0.806384  1
  Si  Si15  1  0.848030  0.404583  0.193616  1
  Si  Si16  1  0.375917  0.375917  0.964679  1
  Si  Si17  1  0.624083  0.624083  0.035321  1
  Si  Si18  1  0.124083  0.124083  0.464679  1
  Si  Si19  1  0.875917  0.875917  0.535321  1
  Si  Si20  1  0.374549  0.374549  0.531396  1
  Si  Si21  1  0.625451  0.625451  0.468604  1
  Si  Si22  1  0.125451  0.125451  0.031396  1
  Si  Si23  1  0.874549  0.874549  0.968604  1
  Si  Si24  1  0.153985  0.153985  0.806446  1
  Si  Si25  1  0.846015  0.846015  0.193554  1
  Si  Si26  1  0.346015  0.346015  0.306446  1
  Si  Si27  1  0.653985  0.653985  0.693554  1
  Si  Si28  1  0.093561  0.093561  0.693502  1
  Si  Si29  1  0.906439  0.906439  0.306498  1
  Si  Si30  1  0.406439  0.406439  0.193502  1
  Si  Si31  1  0.593561  0.593561  0.806498  1
  Ir  Ir32  1  0.374257  0.374257  0.643612  1
  Ir  Ir33  1  0.625743  0.625743  0.356388  1
  Ir  Ir34  1  0.125743  0.125743  0.143612  1
  Ir  Ir35  1  0.874257  0.874257  0.856388  1
