# generated using pymatgen
data_Ta2Be15(NbNi2)4
_symmetry_space_group_name_H-M   'P 1'
_cell_length_a   7.56311053
_cell_length_b   7.56544341
_cell_length_c   7.56544236
_cell_angle_alpha   59.97960260
_cell_angle_beta   60.01020466
_cell_angle_gamma   60.01019426
_symmetry_Int_Tables_number   1
_chemical_formula_structural   Ta2Be15(NbNi2)4
_chemical_formula_sum   'Ta2 Be15 Nb4 Ni8'
_cell_volume   306.09348491
_cell_formula_units_Z   1
loop_
 _symmetry_equiv_pos_site_id
 _symmetry_equiv_pos_as_xyz
  1  'x, y, z'
loop_
 _atom_site_type_symbol
 _atom_site_label
 _atom_site_symmetry_multiplicity
 _atom_site_fract_x
 _atom_site_fract_y
 _atom_site_fract_z
 _atom_site_occupancy
  Ta  Ta0  1  0.704939  0.295061  0.295061  1
  Ta  Ta1  1  0.295061  0.704939  0.704939  1
  Be  Be2  1  0.326359  0.326075  0.326075  1
  Be  Be3  1  0.673641  0.673925  0.673925  1
  Be  Be4  1  0.326075  0.326359  0.021493  1
  Be  Be5  1  0.326075  0.021493  0.326359  1
  Be  Be6  1  0.673925  0.673641  0.978507  1
  Be  Be7  1  0.673925  0.978507  0.673641  1
  Be  Be8  1  0.021493  0.326075  0.326075  1
  Be  Be9  1  0.978507  0.673925  0.673925  1
  Be  Be10  1  0.500000  0.000000  0.000000  1
  Be  Be11  1  0.000000  0.500000  0.500000  1
  Be  Be12  1  0.000000  0.500000  0.000000  1
  Be  Be13  1  0.500000  0.000000  0.500000  1
  Be  Be14  1  0.000000  0.000000  0.500000  1
  Be  Be15  1  0.500000  0.500000  0.000000  1
  Be  Be16  1  0.000000  0.000000  0.000000  1
  Nb  Nb17  1  0.297816  0.702184  0.297816  1
  Nb  Nb18  1  0.702184  0.297816  0.702184  1
  Nb  Nb19  1  0.297816  0.297816  0.702184  1
  Nb  Nb20  1  0.702184  0.702184  0.297816  1
  Ni  Ni21  1  0.122383  0.123015  0.123015  1
  Ni  Ni22  1  0.877617  0.876985  0.876985  1
  Ni  Ni23  1  0.123015  0.122383  0.631587  1
  Ni  Ni24  1  0.123015  0.631587  0.122383  1
  Ni  Ni25  1  0.876985  0.877617  0.368413  1
  Ni  Ni26  1  0.876985  0.368413  0.877617  1
  Ni  Ni27  1  0.631587  0.123015  0.123015  1
  Ni  Ni28  1  0.368413  0.876985  0.876985  1
