# generated using pymatgen
data_YbPrPa2(Al8Pt3)3
_symmetry_space_group_name_H-M   'P 1'
_cell_length_a   7.58230978
_cell_length_b   7.57838174
_cell_length_c   13.16443531
_cell_angle_alpha   84.47903289
_cell_angle_beta   101.07968864
_cell_angle_gamma   119.88293404
_symmetry_Int_Tables_number   1
_chemical_formula_structural   YbPrPa2(Al8Pt3)3
_chemical_formula_sum   'Yb1 Pr1 Pa2 Al24 Pt9'
_cell_volume   643.65127448
_cell_formula_units_Z   1
loop_
 _symmetry_equiv_pos_site_id
 _symmetry_equiv_pos_as_xyz
  1  'x, y, z'
loop_
 _atom_site_type_symbol
 _atom_site_label
 _atom_site_symmetry_multiplicity
 _atom_site_fract_x
 _atom_site_fract_y
 _atom_site_fract_z
 _atom_site_occupancy
  Yb  Yb0  1  0.233015  0.498940  0.193024  1
  Pr  Pr1  1  0.769149  0.501972  0.809800  1
  Pa  Pa2  1  0.434975  0.830746  0.804217  1
  Pa  Pa3  1  0.564739  0.168117  0.196412  1
  Al  Al4  1  0.480771  0.164703  0.946515  1
  Al  Al5  1  0.517198  0.833000  0.055952  1
  Al  Al6  1  0.021803  0.167454  0.560399  1
  Al  Al7  1  0.978361  0.832957  0.438467  1
  Al  Al8  1  0.351621  0.832019  0.557638  1
  Al  Al9  1  0.647994  0.167202  0.441790  1
  Al  Al10  1  0.616248  0.830379  0.331342  1
  Al  Al11  1  0.380865  0.167305  0.666904  1
  Al  Al12  1  0.053050  0.490137  0.667458  1
  Al  Al13  1  0.948884  0.510078  0.330164  1
  Al  Al14  1  0.731602  0.841327  0.665987  1
  Al  Al15  1  0.267233  0.161147  0.331902  1
  Al  Al16  1  0.150015  0.499515  0.947107  1
  Al  Al17  1  0.853999  0.499275  0.058204  1
  Al  Al18  1  0.817637  0.833915  0.955301  1
  Al  Al19  1  0.184070  0.168298  0.048200  1
  Al  Al20  1  0.313229  0.499471  0.440238  1
  Al  Al21  1  0.685294  0.500635  0.557674  1
  Al  Al22  1  0.103103  0.841512  0.182679  1
  Al  Al23  1  0.897743  0.158740  0.817085  1
  Al  Al24  1  0.303194  0.369398  0.815707  1
  Al  Al25  1  0.695362  0.630163  0.183832  1
  Al  Al26  1  0.107897  0.963635  0.816646  1
  Al  Al27  1  0.892723  0.038489  0.182882  1
  Pt  Pt28  1  0.386640  0.508676  0.638678  1
  Pt  Pt29  1  0.612795  0.490786  0.360138  1
  Pt  Pt30  1  0.171438  0.828394  0.999892  1
  Pt  Pt31  1  0.828200  0.171013  0.999928  1
  Pt  Pt32  1  0.296617  0.835566  0.360649  1
  Pt  Pt33  1  0.703286  0.164973  0.638456  1
  Pt  Pt34  1  0.047732  0.826018  0.637841  1
  Pt  Pt35  1  0.951558  0.174309  0.360949  1
  Pt  Pt36  1  0.499959  0.499733  0.999941  1
