# generated using pymatgen
data_Ce6MgCd22As
_symmetry_space_group_name_H-M   'P 1'
_cell_length_a   10.02439325
_cell_length_b   10.02439467
_cell_length_c   10.02439300
_cell_angle_alpha   60.00000222
_cell_angle_beta   59.99999754
_cell_angle_gamma   59.99999733
_symmetry_Int_Tables_number   1
_chemical_formula_structural   Ce6MgCd22As
_chemical_formula_sum   'Ce6 Mg1 Cd22 As1'
_cell_volume   712.29407171
_cell_formula_units_Z   1
loop_
 _symmetry_equiv_pos_site_id
 _symmetry_equiv_pos_as_xyz
  1  'x, y, z'
loop_
 _atom_site_type_symbol
 _atom_site_label
 _atom_site_symmetry_multiplicity
 _atom_site_fract_x
 _atom_site_fract_y
 _atom_site_fract_z
 _atom_site_occupancy
  Ce  Ce0  1  0.791928  0.791928  0.208072  1
  Ce  Ce1  1  0.208072  0.791928  0.208072  1
  Ce  Ce2  1  0.791928  0.208072  0.208072  1
  Ce  Ce3  1  0.208072  0.208072  0.791928  1
  Ce  Ce4  1  0.791928  0.208072  0.791928  1
  Ce  Ce5  1  0.208072  0.791928  0.791928  1
  Mg  Mg6  1  0.500000  0.500000  0.500000  1
  Cd  Cd7  1  0.833438  0.833438  0.499684  1
  Cd  Cd8  1  0.833438  0.499684  0.833438  1
  Cd  Cd9  1  0.499684  0.833438  0.833438  1
  Cd  Cd10  1  0.833438  0.833438  0.833438  1
  Cd  Cd11  1  0.166562  0.166562  0.500316  1
  Cd  Cd12  1  0.166562  0.500316  0.166562  1
  Cd  Cd13  1  0.500316  0.166562  0.166562  1
  Cd  Cd14  1  0.166562  0.166562  0.166562  1
  Cd  Cd15  1  0.620690  0.620690  0.137928  1
  Cd  Cd16  1  0.620690  0.137928  0.620690  1
  Cd  Cd17  1  0.137928  0.620690  0.620690  1
  Cd  Cd18  1  0.620690  0.620690  0.620690  1
  Cd  Cd19  1  0.379310  0.379310  0.862072  1
  Cd  Cd20  1  0.379310  0.862072  0.379310  1
  Cd  Cd21  1  0.862072  0.379310  0.379310  1
  Cd  Cd22  1  0.379310  0.379310  0.379310  1
  Cd  Cd23  1  0.000000  0.000000  0.500000  1
  Cd  Cd24  1  0.500000  0.000000  0.500000  1
  Cd  Cd25  1  0.000000  0.500000  0.500000  1
  Cd  Cd26  1  0.500000  0.500000  0.000000  1
  Cd  Cd27  1  0.000000  0.500000  0.000000  1
  Cd  Cd28  1  0.500000  0.000000  0.000000  1
  As  As29  1  0.000000  0.000000  0.000000  1
