# generated using pymatgen
data_Y12InCo4Pt
_symmetry_space_group_name_H-M   'P 1'
_cell_length_a   8.38566154
_cell_length_b   8.38566048
_cell_length_c   8.38566059
_cell_angle_alpha   110.51539671
_cell_angle_beta   111.03852938
_cell_angle_gamma   106.89060253
_symmetry_Int_Tables_number   1
_chemical_formula_structural   Y12InCo4Pt
_chemical_formula_sum   'Y12 In1 Co4 Pt1'
_cell_volume   453.23451292
_cell_formula_units_Z   1
loop_
 _symmetry_equiv_pos_site_id
 _symmetry_equiv_pos_as_xyz
  1  'x, y, z'
loop_
 _atom_site_type_symbol
 _atom_site_label
 _atom_site_symmetry_multiplicity
 _atom_site_fract_x
 _atom_site_fract_y
 _atom_site_fract_z
 _atom_site_occupancy
  Y  Y0  1  0.293010  0.186688  0.479696  1
  Y  Y1  1  0.706990  0.813312  0.520304  1
  Y  Y2  1  0.293010  0.813312  0.106323  1
  Y  Y3  1  0.706990  0.186688  0.893677  1
  Y  Y4  1  0.619895  0.314826  0.305068  1
  Y  Y5  1  0.380105  0.685174  0.694932  1
  Y  Y6  1  0.009758  0.314826  0.694932  1
  Y  Y7  1  0.990242  0.685174  0.305068  1
  Y  Y8  1  0.213652  0.411287  0.197636  1
  Y  Y9  1  0.786348  0.588713  0.802364  1
  Y  Y10  1  0.213652  0.016016  0.802364  1
  Y  Y11  1  0.786348  0.983984  0.197636  1
  In  In12  1  0.500000  0.500000  0.000000  1
  Co  Co13  1  0.000000  0.381731  0.381731  1
  Co  Co14  1  0.000000  0.618269  0.618269  1
  Co  Co15  1  0.389650  0.889650  0.500000  1
  Co  Co16  1  0.610350  0.110350  0.500000  1
  Pt  Pt17  1  0.000000  0.000000  0.000000  1
