# generated using pymatgen
data_Nd2Al8Ga4Rh
_symmetry_space_group_name_H-M   'P 1'
_cell_length_a   6.00133200
_cell_length_b   6.00133200
_cell_length_c   15.99600800
_cell_angle_alpha   90.00000000
_cell_angle_beta   90.00000000
_cell_angle_gamma   90.00000000
_symmetry_Int_Tables_number   1
_chemical_formula_structural   Nd2Al8Ga4Rh
_chemical_formula_sum   'Nd4 Al16 Ga8 Rh2'
_cell_volume   576.11199657
_cell_formula_units_Z   2
loop_
 _symmetry_equiv_pos_site_id
 _symmetry_equiv_pos_as_xyz
  1  'x, y, z'
loop_
 _atom_site_type_symbol
 _atom_site_label
 _atom_site_symmetry_multiplicity
 _atom_site_fract_x
 _atom_site_fract_y
 _atom_site_fract_z
 _atom_site_occupancy
  Nd  Nd0  1  0.500000  0.000000  0.246187  1
  Nd  Nd1  1  0.500000  0.000000  0.753813  1
  Nd  Nd2  1  0.000000  0.500000  0.753813  1
  Nd  Nd3  1  0.000000  0.500000  0.246187  1
  Al  Al4  1  0.332866  0.832866  0.431273  1
  Al  Al5  1  0.667134  0.167134  0.431273  1
  Al  Al6  1  0.332866  0.167134  0.568727  1
  Al  Al7  1  0.667134  0.832866  0.568727  1
  Al  Al8  1  0.167134  0.667134  0.568727  1
  Al  Al9  1  0.832866  0.332866  0.568727  1
  Al  Al10  1  0.832866  0.667134  0.431273  1
  Al  Al11  1  0.167134  0.332866  0.431273  1
  Al  Al12  1  0.249938  0.749938  0.914468  1
  Al  Al13  1  0.750062  0.250062  0.914468  1
  Al  Al14  1  0.249938  0.250062  0.085532  1
  Al  Al15  1  0.750062  0.749938  0.085532  1
  Al  Al16  1  0.250062  0.750062  0.085532  1
  Al  Al17  1  0.749938  0.249938  0.085532  1
  Al  Al18  1  0.749938  0.750062  0.914468  1
  Al  Al19  1  0.250062  0.249938  0.914468  1
  Ga  Ga20  1  0.500000  0.500000  0.341959  1
  Ga  Ga21  1  0.500000  0.500000  0.658041  1
  Ga  Ga22  1  0.000000  0.000000  0.658041  1
  Ga  Ga23  1  0.000000  0.000000  0.341959  1
  Ga  Ga24  1  0.500000  0.500000  0.187639  1
  Ga  Ga25  1  0.500000  0.500000  0.812361  1
  Ga  Ga26  1  0.000000  0.000000  0.812361  1
  Ga  Ga27  1  0.000000  0.000000  0.187639  1
  Rh  Rh28  1  0.500000  0.000000  0.000000  1
  Rh  Rh29  1  0.000000  0.500000  0.000000  1
