# generated using pymatgen
data_YTm3(LuPt)4
_symmetry_space_group_name_H-M   'P 1'
_cell_length_a   4.72991600
_cell_length_b   7.07122052
_cell_length_c   8.59350765
_cell_angle_alpha   89.91231517
_cell_angle_beta   90.00000000
_cell_angle_gamma   90.00000000
_symmetry_Int_Tables_number   1
_chemical_formula_structural   YTm3(LuPt)4
_chemical_formula_sum   'Y1 Tm3 Lu4 Pt4'
_cell_volume   287.42051864
_cell_formula_units_Z   1
loop_
 _symmetry_equiv_pos_site_id
 _symmetry_equiv_pos_as_xyz
  1  'x, y, z'
loop_
 _atom_site_type_symbol
 _atom_site_label
 _atom_site_symmetry_multiplicity
 _atom_site_fract_x
 _atom_site_fract_y
 _atom_site_fract_z
 _atom_site_occupancy
  Y  Y0  1  0.750000  0.513495  0.828296  1
  Tm  Tm1  1  0.250000  0.986393  0.330488  1
  Tm  Tm2  1  0.250000  0.487339  0.169893  1
  Tm  Tm3  1  0.750000  0.012352  0.668347  1
  Lu  Lu4  1  0.250000  0.355050  0.576016  1
  Lu  Lu5  1  0.250000  0.858131  0.923023  1
  Lu  Lu6  1  0.750000  0.643265  0.422177  1
  Lu  Lu7  1  0.750000  0.143439  0.077867  1
  Pt  Pt8  1  0.250000  0.255046  0.906543  1
  Pt  Pt9  1  0.250000  0.755255  0.594254  1
  Pt  Pt10  1  0.750000  0.745175  0.097321  1
  Pt  Pt11  1  0.750000  0.245060  0.405775  1
