# generated using pymatgen
data_Er3In3SnPt2
_symmetry_space_group_name_H-M   'P 1'
_cell_length_a   7.57268500
_cell_length_b   7.57268474
_cell_length_c   4.15481300
_cell_angle_alpha   90.00000000
_cell_angle_beta   90.00000000
_cell_angle_gamma   119.99999792
_symmetry_Int_Tables_number   1
_chemical_formula_structural   Er3In3SnPt2
_chemical_formula_sum   'Er3 In3 Sn1 Pt2'
_cell_volume   206.33927094
_cell_formula_units_Z   1
loop_
 _symmetry_equiv_pos_site_id
 _symmetry_equiv_pos_as_xyz
  1  'x, y, z'
loop_
 _atom_site_type_symbol
 _atom_site_label
 _atom_site_symmetry_multiplicity
 _atom_site_fract_x
 _atom_site_fract_y
 _atom_site_fract_z
 _atom_site_occupancy
  Er  Er0  1  0.608184  0.022114  0.500000  1
  Er  Er1  1  0.413930  0.391816  0.500000  1
  Er  Er2  1  0.977886  0.586070  0.500000  1
  In  In3  1  0.754750  0.744055  0.000000  1
  In  In4  1  0.989306  0.245250  0.000000  1
  In  In5  1  0.255945  0.010694  0.000000  1
  Sn  Sn6  1  0.333333  0.666667  0.000000  1
  Pt  Pt7  1  0.666667  0.333333  0.000000  1
  Pt  Pt8  1  0.000000  0.000000  0.500000  1
