# generated using pymatgen
data_Sr10SnBi4Pb
_symmetry_space_group_name_H-M   'P 1'
_cell_length_a   9.88340381
_cell_length_b   9.89831397
_cell_length_c   7.54992700
_cell_angle_alpha   90.00000000
_cell_angle_beta   90.00000000
_cell_angle_gamma   119.94027533
_symmetry_Int_Tables_number   1
_chemical_formula_structural   Sr10SnBi4Pb
_chemical_formula_sum   'Sr10 Sn1 Bi4 Pb1'
_cell_volume   640.03276086
_cell_formula_units_Z   1
loop_
 _symmetry_equiv_pos_site_id
 _symmetry_equiv_pos_as_xyz
  1  'x, y, z'
loop_
 _atom_site_type_symbol
 _atom_site_label
 _atom_site_symmetry_multiplicity
 _atom_site_fract_x
 _atom_site_fract_y
 _atom_site_fract_z
 _atom_site_occupancy
  Sr  Sr0  1  0.333548  0.665913  0.999525  1
  Sr  Sr1  1  0.661244  0.331184  0.500465  1
  Sr  Sr2  1  0.661244  0.331184  0.999535  1
  Sr  Sr3  1  0.333548  0.665913  0.500475  1
  Sr  Sr4  1  0.723646  0.000454  0.250000  1
  Sr  Sr5  1  0.722358  0.721814  0.750000  1
  Sr  Sr6  1  0.005675  0.276665  0.750000  1
  Sr  Sr7  1  0.004472  0.728150  0.250000  1
  Sr  Sr8  1  0.273710  0.270031  0.250000  1
  Sr  Sr9  1  0.273532  0.004813  0.750000  1
  Sn  Sn10  1  0.378972  0.381091  0.750000  1
  Bi  Bi11  1  0.998870  0.622146  0.750000  1
  Bi  Bi12  1  0.998612  0.376685  0.250000  1
  Bi  Bi13  1  0.625899  0.624959  0.250000  1
  Bi  Bi14  1  0.625985  0.001049  0.750000  1
  Pb  Pb15  1  0.378684  0.997950  0.250000  1
