# generated using pymatgen
data_TbZrMn4Ni8P7
_symmetry_space_group_name_H-M   'P 1'
_cell_length_a   9.07899611
_cell_length_b   9.09740221
_cell_length_c   3.63092400
_cell_angle_alpha   90.00000000
_cell_angle_beta   90.00000000
_cell_angle_gamma   119.95157818
_symmetry_Int_Tables_number   1
_chemical_formula_structural   TbZrMn4Ni8P7
_chemical_formula_sum   'Tb1 Zr1 Mn4 Ni8 P7'
_cell_volume   259.84520978
_cell_formula_units_Z   1
loop_
 _symmetry_equiv_pos_site_id
 _symmetry_equiv_pos_as_xyz
  1  'x, y, z'
loop_
 _atom_site_type_symbol
 _atom_site_label
 _atom_site_symmetry_multiplicity
 _atom_site_fract_x
 _atom_site_fract_y
 _atom_site_fract_z
 _atom_site_occupancy
  Tb  Tb0  1  0.334415  0.667904  0.500000  1
  Zr  Zr1  1  0.668031  0.332976  0.000000  1
  Mn  Mn2  1  0.877227  0.156763  0.000000  1
  Mn  Mn3  1  0.096612  0.877582  0.500000  1
  Mn  Mn4  1  0.777880  0.901123  0.500000  1
  Mn  Mn5  1  0.125777  0.223918  0.500000  1
  Ni  Ni6  1  0.057739  0.622470  0.000000  1
  Ni  Ni7  1  0.562774  0.938043  0.000000  1
  Ni  Ni8  1  0.374415  0.434189  0.000000  1
  Ni  Ni9  1  0.279362  0.123736  0.000000  1
  Ni  Ni10  1  0.844985  0.719846  0.000000  1
  Ni  Ni11  1  0.440799  0.057456  0.500000  1
  Ni  Ni12  1  0.615524  0.560046  0.500000  1
  Ni  Ni13  1  0.945461  0.384364  0.500000  1
  P  P14  1  0.291794  0.885432  0.000000  1
  P  P15  1  0.594368  0.707774  0.000000  1
  P  P16  1  0.112459  0.405787  0.000000  1
  P  P17  1  0.411177  0.291723  0.500000  1
  P  P18  1  0.880465  0.589655  0.500000  1
  P  P19  1  0.711404  0.118327  0.500000  1
  P  P20  1  0.997334  0.000884  0.000000  1
