# generated using pymatgen
data_Pr9YB2Cl15
_symmetry_space_group_name_H-M   'P 1'
_cell_length_a   9.08580822
_cell_length_b   9.93048273
_cell_length_c   10.73137365
_cell_angle_alpha   90.82374006
_cell_angle_beta   114.51926149
_cell_angle_gamma   111.11446785
_symmetry_Int_Tables_number   1
_chemical_formula_structural   Pr9YB2Cl15
_chemical_formula_sum   'Pr9 Y1 B2 Cl15'
_cell_volume   806.33123455
_cell_formula_units_Z   1
loop_
 _symmetry_equiv_pos_site_id
 _symmetry_equiv_pos_as_xyz
  1  'x, y, z'
loop_
 _atom_site_type_symbol
 _atom_site_label
 _atom_site_symmetry_multiplicity
 _atom_site_fract_x
 _atom_site_fract_y
 _atom_site_fract_z
 _atom_site_occupancy
  Pr  Pr0  1  0.809811  0.418629  0.278067  1
  Pr  Pr1  1  0.186478  0.580839  0.720236  1
  Pr  Pr2  1  0.680745  0.743248  0.818375  1
  Pr  Pr3  1  0.316848  0.254869  0.181408  1
  Pr  Pr4  1  0.526702  0.699903  0.102515  1
  Pr  Pr5  1  0.471286  0.299153  0.896796  1
  Pr  Pr6  1  0.589306  0.035465  0.333387  1
  Pr  Pr7  1  0.405228  0.962187  0.664912  1
  Pr  Pr8  1  0.738785  0.079267  0.049967  1
  Y  Y9  1  0.276949  0.924852  0.952585  1
  B  B10  1  0.463409  0.818456  0.874785  1
  B  B11  1  0.530815  0.178703  0.122925  1
  Cl  Cl12  1  0.007673  0.995777  0.997334  1
  Cl  Cl13  1  0.632867  0.882043  0.585494  1
  Cl  Cl14  1  0.363238  0.116210  0.413529  1
  Cl  Cl15  1  0.880804  0.298696  0.522557  1
  Cl  Cl16  1  0.116323  0.699718  0.475841  1
  Cl  Cl17  1  0.287670  0.770591  0.169697  1
  Cl  Cl18  1  0.703787  0.233698  0.817330  1
  Cl  Cl19  1  0.057460  0.346740  0.228388  1
  Cl  Cl20  1  0.165289  0.049894  0.715984  1
  Cl  Cl21  1  0.832896  0.942055  0.294503  1
  Cl  Cl22  1  0.234364  0.410547  0.945683  1
  Cl  Cl23  1  0.762555  0.588020  0.053295  1
  Cl  Cl24  1  0.406431  0.467930  0.660806  1
  Cl  Cl25  1  0.591317  0.531336  0.338980  1
  Cl  Cl26  1  0.960964  0.671171  0.784621  1
