# generated using pymatgen
data_Pr4Nd6B2Br15
_symmetry_space_group_name_H-M   'P 1'
_cell_length_a   9.45249124
_cell_length_b   10.25242661
_cell_length_c   11.09047753
_cell_angle_alpha   90.99555814
_cell_angle_beta   114.57139152
_cell_angle_gamma   110.90260255
_symmetry_Int_Tables_number   1
_chemical_formula_structural   Pr4Nd6B2Br15
_chemical_formula_sum   'Pr4 Nd6 B2 Br15'
_cell_volume   895.58915617
_cell_formula_units_Z   1
loop_
 _symmetry_equiv_pos_site_id
 _symmetry_equiv_pos_as_xyz
  1  'x, y, z'
loop_
 _atom_site_type_symbol
 _atom_site_label
 _atom_site_symmetry_multiplicity
 _atom_site_fract_x
 _atom_site_fract_y
 _atom_site_fract_z
 _atom_site_occupancy
  Pr  Pr0  1  0.802957  0.411172  0.277223  1
  Pr  Pr1  1  0.197043  0.588828  0.722777  1
  Pr  Pr2  1  0.676346  0.745660  0.820400  1
  Pr  Pr3  1  0.323654  0.254340  0.179600  1
  Nd  Nd4  1  0.525824  0.704399  0.096313  1
  Nd  Nd5  1  0.474176  0.295601  0.903687  1
  Nd  Nd6  1  0.586459  0.039232  0.325236  1
  Nd  Nd7  1  0.413541  0.960768  0.674764  1
  Nd  Nd8  1  0.725284  0.075335  0.048576  1
  Nd  Nd9  1  0.274716  0.924665  0.951424  1
  B  B10  1  0.466926  0.819201  0.876418  1
  B  B11  1  0.533074  0.180799  0.123582  1
  Br  Br12  1  0.000000  0.000000  0.000000  1
  Br  Br13  1  0.636748  0.883660  0.583761  1
  Br  Br14  1  0.363252  0.116340  0.416239  1
  Br  Br15  1  0.882412  0.297584  0.527834  1
  Br  Br16  1  0.117588  0.702416  0.472166  1
  Br  Br17  1  0.290753  0.762852  0.179665  1
  Br  Br18  1  0.709247  0.237148  0.820335  1
  Br  Br19  1  0.055235  0.342219  0.226270  1
  Br  Br20  1  0.165089  0.057521  0.703713  1
  Br  Br21  1  0.834911  0.942479  0.296287  1
  Br  Br22  1  0.232005  0.410420  0.943992  1
  Br  Br23  1  0.767995  0.589580  0.056008  1
  Br  Br24  1  0.408294  0.462357  0.660021  1
  Br  Br25  1  0.591706  0.537643  0.339979  1
  Br  Br26  1  0.944765  0.657781  0.773730  1
