# generated using pymatgen
data_GdDyU8O20
_symmetry_space_group_name_H-M   'P 1'
_cell_length_a   6.62935232
_cell_length_b   7.66066010
_cell_length_c   8.56026000
_cell_angle_alpha   102.93241804
_cell_angle_beta   97.33736399
_cell_angle_gamma   106.84122747
_symmetry_Int_Tables_number   1
_chemical_formula_structural   GdDyU8O20
_chemical_formula_sum   'Gd1 Dy1 U8 O20'
_cell_volume   396.80177519
_cell_formula_units_Z   1
loop_
 _symmetry_equiv_pos_site_id
 _symmetry_equiv_pos_as_xyz
  1  'x, y, z'
loop_
 _atom_site_type_symbol
 _atom_site_label
 _atom_site_symmetry_multiplicity
 _atom_site_fract_x
 _atom_site_fract_y
 _atom_site_fract_z
 _atom_site_occupancy
  Gd  Gd0  1  0.999076  0.998247  0.998181  1
  Dy  Dy1  1  0.800572  0.601430  0.601317  1
  U  U2  1  0.600733  0.201493  0.200062  1
  U  U3  1  0.000639  0.500122  0.998311  1
  U  U4  1  0.798547  0.099992  0.600691  1
  U  U5  1  0.399763  0.799330  0.799511  1
  U  U6  1  0.200016  0.399780  0.401108  1
  U  U7  1  0.602296  0.700760  0.201556  1
  U  U8  1  0.400328  0.300259  0.799802  1
  U  U9  1  0.197979  0.898872  0.399492  1
  O  O10  1  0.850837  0.319664  0.450268  1
  O  O11  1  0.641978  0.922526  0.055434  1
  O  O12  1  0.949268  0.768163  0.152883  1
  O  O13  1  0.442527  0.520899  0.650294  1
  O  O14  1  0.852131  0.829680  0.448715  1
  O  O15  1  0.649283  0.426110  0.049702  1
  O  O16  1  0.745160  0.370780  0.752304  1
  O  O17  1  0.256400  0.127182  0.256729  1
  O  O18  1  0.948506  0.283654  0.152762  1
  O  O19  1  0.445407  0.025778  0.647546  1
  O  O20  1  0.549755  0.973814  0.352983  1
  O  O21  1  0.058507  0.718669  0.848850  1
  O  O22  1  0.738174  0.876027  0.745958  1
  O  O23  1  0.354059  0.573858  0.951893  1
  O  O24  1  0.253350  0.626665  0.248358  1
  O  O25  1  0.548456  0.475508  0.346340  1
  O  O26  1  0.149483  0.173921  0.549898  1
  O  O27  1  0.052150  0.231499  0.845980  1
  O  O28  1  0.359855  0.079321  0.947977  1
  O  O29  1  0.154766  0.676000  0.545091  1
