# generated using pymatgen
data_LiDy3Tm2(P2Ir3)6
_symmetry_space_group_name_H-M   'P 1'
_cell_length_a   12.68600458
_cell_length_b   12.77681898
_cell_length_c   3.96506500
_cell_angle_alpha   90.00000000
_cell_angle_beta   90.00000000
_cell_angle_gamma   120.23708364
_symmetry_Int_Tables_number   1
_chemical_formula_structural   LiDy3Tm2(P2Ir3)6
_chemical_formula_sum   'Li1 Dy3 Tm2 P12 Ir18'
_cell_volume   555.24678014
_cell_formula_units_Z   1
loop_
 _symmetry_equiv_pos_site_id
 _symmetry_equiv_pos_as_xyz
  1  'x, y, z'
loop_
 _atom_site_type_symbol
 _atom_site_label
 _atom_site_symmetry_multiplicity
 _atom_site_fract_x
 _atom_site_fract_y
 _atom_site_fract_z
 _atom_site_occupancy
  Li  Li0  1  0.000000  0.444728  0.500000  1
  Dy  Dy1  1  0.000000  0.809283  0.000000  1
  Dy  Dy2  1  0.187473  0.186281  0.000000  1
  Dy  Dy3  1  0.812527  0.998809  0.000000  1
  Tm  Tm4  1  0.329917  0.664146  0.500000  1
  Tm  Tm5  1  0.670083  0.334228  0.500000  1
  P  P6  1  0.000000  0.634002  0.500000  1
  P  P7  1  0.357784  0.356655  0.500000  1
  P  P8  1  0.642216  0.998871  0.500000  1
  P  P9  1  0.513992  0.688142  0.000000  1
  P  P10  1  0.309348  0.828214  0.000000  1
  P  P11  1  0.168023  0.484880  0.000000  1
  P  P12  1  0.486008  0.174151  0.000000  1
  P  P13  1  0.690652  0.518865  0.000000  1
  P  P14  1  0.831977  0.316858  0.000000  1
  P  P15  1  0.000000  0.179763  0.500000  1
  P  P16  1  0.821384  0.822650  0.500000  1
  P  P17  1  0.178616  0.001266  0.500000  1
  Ir  Ir18  1  0.504494  0.866786  0.000000  1
  Ir  Ir19  1  0.131532  0.642524  0.000000  1
  Ir  Ir20  1  0.359107  0.493880  0.000000  1
  Ir  Ir21  1  0.495506  0.362291  0.000000  1
  Ir  Ir22  1  0.868468  0.510991  0.000000  1
  Ir  Ir23  1  0.640893  0.134772  0.000000  1
  Ir  Ir24  1  0.537282  0.537089  0.500000  1
  Ir  Ir25  1  0.462718  0.999807  0.500000  1
  Ir  Ir26  1  0.000000  0.281628  0.000000  1
  Ir  Ir27  1  0.714535  0.717563  0.000000  1
  Ir  Ir28  1  0.285465  0.003028  0.000000  1
  Ir  Ir29  1  0.620664  0.803000  0.500000  1
  Ir  Ir30  1  0.198434  0.825601  0.500000  1
  Ir  Ir31  1  0.182121  0.374922  0.500000  1
  Ir  Ir32  1  0.379336  0.182337  0.500000  1
  Ir  Ir33  1  0.801566  0.627166  0.500000  1
  Ir  Ir34  1  0.817879  0.192802  0.500000  1
  Ir  Ir35  1  0.000000  0.002017  0.500000  1
