# generated using pymatgen
data_Ho3Sc7Si20(Ir3Rh)2
_symmetry_space_group_name_H-M   'P 1'
_cell_length_a   12.45359224
_cell_length_b   12.46418944
_cell_length_c   4.12961500
_cell_angle_alpha   90.00000000
_cell_angle_beta   90.00000000
_cell_angle_gamma   90.08189304
_symmetry_Int_Tables_number   1
_chemical_formula_structural   Ho3Sc7Si20(Ir3Rh)2
_chemical_formula_sum   'Ho3 Sc7 Si20 Ir6 Rh2'
_cell_volume   641.01442733
_cell_formula_units_Z   1
loop_
 _symmetry_equiv_pos_site_id
 _symmetry_equiv_pos_as_xyz
  1  'x, y, z'
loop_
 _atom_site_type_symbol
 _atom_site_label
 _atom_site_symmetry_multiplicity
 _atom_site_fract_x
 _atom_site_fract_y
 _atom_site_fract_z
 _atom_site_occupancy
  Ho  Ho0  1  0.115608  0.615333  0.500000  1
  Ho  Ho1  1  0.884451  0.384576  0.500000  1
  Ho  Ho2  1  0.615456  0.884584  0.500000  1
  Sc  Sc3  1  0.384452  0.115542  0.500000  1
  Sc  Sc4  1  0.673213  0.174094  0.500000  1
  Sc  Sc5  1  0.325884  0.826776  0.500000  1
  Sc  Sc6  1  0.174896  0.325212  0.500000  1
  Sc  Sc7  1  0.825895  0.673955  0.500000  1
  Sc  Sc8  1  0.000340  0.000020  0.000000  1
  Sc  Sc9  1  0.499985  0.499671  0.000000  1
  Si  Si10  1  0.565977  0.067538  0.000000  1
  Si  Si11  1  0.432515  0.933955  0.000000  1
  Si  Si12  1  0.067334  0.432048  0.000000  1
  Si  Si13  1  0.933001  0.567579  0.000000  1
  Si  Si14  1  0.200453  0.165090  0.000000  1
  Si  Si15  1  0.800963  0.834570  0.000000  1
  Si  Si16  1  0.164938  0.801600  0.000000  1
  Si  Si17  1  0.699111  0.333970  0.000000  1
  Si  Si18  1  0.835144  0.199295  0.000000  1
  Si  Si19  1  0.300004  0.665906  0.000000  1
  Si  Si20  1  0.665638  0.699563  0.000000  1
  Si  Si21  1  0.334684  0.299095  0.000000  1
  Si  Si22  1  0.007381  0.151738  0.500000  1
  Si  Si23  1  0.992982  0.848319  0.500000  1
  Si  Si24  1  0.152347  0.994112  0.500000  1
  Si  Si25  1  0.506136  0.347882  0.500000  1
  Si  Si26  1  0.849023  0.007870  0.500000  1
  Si  Si27  1  0.492003  0.650782  0.500000  1
  Si  Si28  1  0.650507  0.507224  0.500000  1
  Si  Si29  1  0.349437  0.492418  0.500000  1
  Ir  Ir30  1  0.246312  0.981013  0.000000  1
  Ir  Ir31  1  0.519024  0.253671  0.000000  1
  Ir  Ir32  1  0.754556  0.020229  0.000000  1
  Ir  Ir33  1  0.479686  0.745478  0.000000  1
  Ir  Ir34  1  0.744289  0.519994  0.000000  1
  Ir  Ir35  1  0.255817  0.479416  0.000000  1
  Rh  Rh36  1  0.020560  0.243432  0.000000  1
  Rh  Rh37  1  0.980000  0.756451  0.000000  1
