# generated using pymatgen
data_LaPr3Nd4(TeO6)4
_symmetry_space_group_name_H-M   'P 1'
_cell_length_a   5.51549099
_cell_length_b   9.45716201
_cell_length_c   10.35604479
_cell_angle_alpha   90.08964915
_cell_angle_beta   90.03984773
_cell_angle_gamma   89.94414977
_symmetry_Int_Tables_number   1
_chemical_formula_structural   LaPr3Nd4(TeO6)4
_chemical_formula_sum   'La1 Pr3 Nd4 Te4 O24'
_cell_volume   540.17948477
_cell_formula_units_Z   1
loop_
 _symmetry_equiv_pos_site_id
 _symmetry_equiv_pos_as_xyz
  1  'x, y, z'
loop_
 _atom_site_type_symbol
 _atom_site_label
 _atom_site_symmetry_multiplicity
 _atom_site_fract_x
 _atom_site_fract_y
 _atom_site_fract_z
 _atom_site_occupancy
  La  La0  1  0.969608  0.781816  0.858658  1
  Pr  Pr1  1  0.532720  0.217930  0.360604  1
  Pr  Pr2  1  0.032811  0.282502  0.638933  1
  Pr  Pr3  1  0.467911  0.717784  0.139497  1
  Nd  Nd4  1  0.523873  0.103504  0.957136  1
  Nd  Nd5  1  0.024150  0.395927  0.043515  1
  Nd  Nd6  1  0.475903  0.603701  0.542862  1
  Nd  Nd7  1  0.976209  0.896452  0.456386  1
  Te  Te8  1  0.461023  0.995328  0.640730  1
  Te  Te9  1  0.960689  0.505482  0.358375  1
  Te  Te10  1  0.538993  0.493426  0.858690  1
  Te  Te11  1  0.039085  0.005844  0.142144  1
  O  O12  1  0.304859  0.139589  0.174227  1
  O  O13  1  0.805446  0.360593  0.825941  1
  O  O14  1  0.694656  0.639140  0.326300  1
  O  O15  1  0.195449  0.861589  0.671873  1
  O  O16  1  0.721829  0.111367  0.562506  1
  O  O17  1  0.221647  0.389144  0.437378  1
  O  O18  1  0.279094  0.610177  0.938330  1
  O  O19  1  0.777150  0.889814  0.064574  1
  O  O20  1  0.675167  0.635161  0.745116  1
  O  O21  1  0.177332  0.864373  0.255195  1
  O  O22  1  0.322125  0.135773  0.754850  1
  O  O23  1  0.822699  0.364210  0.245001  1
  O  O24  1  0.667018  0.948346  0.785411  1
  O  O25  1  0.167864  0.551781  0.214387  1
  O  O26  1  0.331294  0.448101  0.714293  1
  O  O27  1  0.832802  0.052646  0.286469  1
  O  O28  1  0.254377  0.084153  0.506377  1
  O  O29  1  0.754210  0.416631  0.492975  1
  O  O30  1  0.744738  0.581925  0.993708  1
  O  O31  1  0.246587  0.916696  0.007770  1
  O  O32  1  0.078283  0.651842  0.475632  1
  O  O33  1  0.579565  0.848281  0.524369  1
  O  O34  1  0.921641  0.151685  0.024555  1
  O  O35  1  0.421193  0.347288  0.975231  1
