# generated using pymatgen
data_Ce2Y5Er(Si3Rh)4
_symmetry_space_group_name_H-M   'P 1'
_cell_length_a   8.17825600
_cell_length_b   8.17306693
_cell_length_c   8.02382400
_cell_angle_alpha   90.00000000
_cell_angle_beta   90.00000000
_cell_angle_gamma   120.02100450
_symmetry_Int_Tables_number   1
_chemical_formula_structural   Ce2Y5Er(Si3Rh)4
_chemical_formula_sum   'Ce2 Y5 Er1 Si12 Rh4'
_cell_volume   464.37178301
_cell_formula_units_Z   1
loop_
 _symmetry_equiv_pos_site_id
 _symmetry_equiv_pos_as_xyz
  1  'x, y, z'
loop_
 _atom_site_type_symbol
 _atom_site_label
 _atom_site_symmetry_multiplicity
 _atom_site_fract_x
 _atom_site_fract_y
 _atom_site_fract_z
 _atom_site_occupancy
  Ce  Ce0  1  0.000044  0.000089  0.250000  1
  Ce  Ce1  1  0.000024  0.000049  0.750000  1
  Y  Y2  1  0.493121  0.506924  0.250000  1
  Y  Y3  1  0.493084  0.986166  0.250000  1
  Y  Y4  1  0.013804  0.506924  0.250000  1
  Y  Y5  1  0.507035  0.492746  0.750000  1
  Y  Y6  1  0.985710  0.492746  0.750000  1
  Er  Er7  1  0.506604  0.013209  0.750000  1
  Si  Si8  1  0.832582  0.166975  0.502730  1
  Si  Si9  1  0.832843  0.665686  0.501905  1
  Si  Si10  1  0.334392  0.166975  0.502730  1
  Si  Si11  1  0.832582  0.166975  0.997270  1
  Si  Si12  1  0.832843  0.665686  0.998095  1
  Si  Si13  1  0.334392  0.166975  0.997270  1
  Si  Si14  1  0.167369  0.832957  0.001762  1
  Si  Si15  1  0.665588  0.832957  0.001762  1
  Si  Si16  1  0.167307  0.334613  0.002109  1
  Si  Si17  1  0.167369  0.832957  0.498238  1
  Si  Si18  1  0.665588  0.832957  0.498238  1
  Si  Si19  1  0.167307  0.334613  0.497891  1
  Rh  Rh20  1  0.666374  0.332747  0.473775  1
  Rh  Rh21  1  0.666374  0.332747  0.026225  1
  Rh  Rh22  1  0.333832  0.667664  0.971085  1
  Rh  Rh23  1  0.333832  0.667664  0.528915  1
