# generated using pymatgen
data_Pa2S5
_symmetry_space_group_name_H-M   'P 1'
_cell_length_a   4.19206700
_cell_length_b   12.61401100
_cell_length_c   7.20500300
_cell_angle_alpha   90.00000000
_cell_angle_beta   90.00000000
_cell_angle_gamma   90.00000000
_symmetry_Int_Tables_number   1
_chemical_formula_structural   Pa2S5
_chemical_formula_sum   'Pa4 S10'
_cell_volume   380.99176314
_cell_formula_units_Z   2
loop_
 _symmetry_equiv_pos_site_id
 _symmetry_equiv_pos_as_xyz
  1  'x, y, z'
loop_
 _atom_site_type_symbol
 _atom_site_label
 _atom_site_symmetry_multiplicity
 _atom_site_fract_x
 _atom_site_fract_y
 _atom_site_fract_z
 _atom_site_occupancy
  Pa  Pa0  1  0.499999  0.204376  0.244697  1
  Pa  Pa1  1  0.499999  0.795624  0.244697  1
  Pa  Pa2  1  0.000000  0.295624  0.755302  1
  Pa  Pa3  1  0.000000  0.704376  0.755302  1
  S  S4  1  0.000000  0.144772  0.025851  1
  S  S5  1  0.000000  0.855228  0.025851  1
  S  S6  1  0.499999  0.000000  0.290030  1
  S  S7  1  0.000000  0.319735  0.375120  1
  S  S8  1  0.000000  0.680265  0.375120  1
  S  S9  1  0.499999  0.180266  0.624880  1
  S  S10  1  0.499999  0.819735  0.624880  1
  S  S11  1  0.000000  0.500000  0.709970  1
  S  S12  1  0.499999  0.355229  0.974149  1
  S  S13  1  0.499999  0.644772  0.974149  1
