# generated using pymatgen
data_Sc12CoNi4Sn
_symmetry_space_group_name_H-M   'P 1'
_cell_length_a   7.73276479
_cell_length_b   7.73346022
_cell_length_c   7.72965980
_cell_angle_alpha   106.22325178
_cell_angle_beta   111.19848366
_cell_angle_gamma   111.05658556
_symmetry_Int_Tables_number   1
_chemical_formula_structural   Sc12CoNi4Sn
_chemical_formula_sum   'Sc12 Co1 Ni4 Sn1'
_cell_volume   354.90672107
_cell_formula_units_Z   1
loop_
 _symmetry_equiv_pos_site_id
 _symmetry_equiv_pos_as_xyz
  1  'x, y, z'
loop_
 _atom_site_type_symbol
 _atom_site_label
 _atom_site_symmetry_multiplicity
 _atom_site_fract_x
 _atom_site_fract_y
 _atom_site_fract_z
 _atom_site_occupancy
  Sc  Sc0  1  0.693723  0.278913  0.972748  1
  Sc  Sc1  1  0.306293  0.721236  0.027537  1
  Sc  Sc2  1  0.693703  0.720745  0.414507  1
  Sc  Sc3  1  0.306196  0.278888  0.585122  1
  Sc  Sc4  1  0.800038  0.120272  0.320430  1
  Sc  Sc5  1  0.799931  0.479874  0.679754  1
  Sc  Sc6  1  0.199948  0.879774  0.679573  1
  Sc  Sc7  1  0.200095  0.520171  0.320206  1
  Sc  Sc8  1  0.599887  0.781614  0.818334  1
  Sc  Sc9  1  0.963315  0.781912  0.181456  1
  Sc  Sc10  1  0.036552  0.218137  0.818238  1
  Sc  Sc11  1  0.399533  0.217998  0.181344  1
  Co  Co12  1  0.499742  0.499792  0.999786  1
  Ni  Ni13  1  0.855663  0.499833  0.356487  1
  Ni  Ni14  1  0.145896  0.500652  0.644828  1
  Ni  Ni15  1  0.998295  0.127574  0.125752  1
  Ni  Ni16  1  0.000575  0.872358  0.873349  1
  Sn  Sn17  1  0.500616  0.000257  0.500547  1
