# generated using pymatgen
data_MnFe3Ag4(P2O7)4
_symmetry_space_group_name_H-M   'P 1'
_cell_length_a   8.21612752
_cell_length_b   7.41879420
_cell_length_c   9.68723911
_cell_angle_alpha   68.26616888
_cell_angle_beta   88.98299660
_cell_angle_gamma   89.49916859
_symmetry_Int_Tables_number   1
_chemical_formula_structural   MnFe3Ag4(P2O7)4
_chemical_formula_sum   'Mn1 Fe3 Ag4 P8 O28'
_cell_volume   548.41138330
_cell_formula_units_Z   1
loop_
 _symmetry_equiv_pos_site_id
 _symmetry_equiv_pos_as_xyz
  1  'x, y, z'
loop_
 _atom_site_type_symbol
 _atom_site_label
 _atom_site_symmetry_multiplicity
 _atom_site_fract_x
 _atom_site_fract_y
 _atom_site_fract_z
 _atom_site_occupancy
  Mn  Mn0  1  0.993303  0.757761  0.747722  1
  Fe  Fe1  1  0.491864  0.238856  0.752014  1
  Fe  Fe2  1  0.008322  0.238351  0.253093  1
  Fe  Fe3  1  0.509023  0.760806  0.247036  1
  Ag  Ag4  1  0.028689  0.204428  0.811475  1
  Ag  Ag5  1  0.528796  0.796563  0.685138  1
  Ag  Ag6  1  0.973641  0.799442  0.183453  1
  Ag  Ag7  1  0.474339  0.201047  0.316921  1
  P  P8  1  0.292815  0.828255  0.954353  1
  P  P9  1  0.794283  0.172903  0.550259  1
  P  P10  1  0.708581  0.175983  0.048742  1
  P  P11  1  0.203619  0.822371  0.451900  1
  P  P12  1  0.244232  0.426359  0.954680  1
  P  P13  1  0.741316  0.575949  0.541362  1
  P  P14  1  0.759394  0.577189  0.043832  1
  P  P15  1  0.254769  0.420875  0.455802  1
  O  O16  1  0.415928  0.962020  0.843482  1
  O  O17  1  0.916615  0.038404  0.657950  1
  O  O18  1  0.585617  0.040978  0.159282  1
  O  O19  1  0.084482  0.960333  0.343596  1
  O  O20  1  0.313143  0.815185  0.114350  1
  O  O21  1  0.809234  0.181845  0.390322  1
  O  O22  1  0.693485  0.184151  0.889779  1
  O  O23  1  0.186277  0.814109  0.612885  1
  O  O24  1  0.340987  0.619064  0.944958  1
  O  O25  1  0.843063  0.382265  0.553797  1
  O  O26  1  0.658539  0.387446  0.051981  1
  O  O27  1  0.154197  0.613896  0.447836  1
  O  O28  1  0.114737  0.866709  0.906929  1
  O  O29  1  0.615308  0.137191  0.605717  1
  O  O30  1  0.886076  0.140717  0.103386  1
  O  O31  1  0.383460  0.856837  0.400545  1
  O  O32  1  0.090612  0.490697  0.856782  1
  O  O33  1  0.586340  0.507230  0.640695  1
  O  O34  1  0.910256  0.508248  0.142500  1
  O  O35  1  0.408951  0.489645  0.356413  1
  O  O36  1  0.202831  0.310639  0.117439  1
  O  O37  1  0.701386  0.682919  0.377424  1
  O  O38  1  0.802142  0.692478  0.879605  1
  O  O39  1  0.294244  0.306898  0.618465  1
  O  O40  1  0.365002  0.317384  0.894248  1
  O  O41  1  0.854973  0.691097  0.596839  1
  O  O42  1  0.638716  0.691504  0.099281  1
  O  O43  1  0.136413  0.312974  0.395729  1
