# generated using pymatgen
data_ErTm15(In3Pt)2
_symmetry_space_group_name_H-M   'P 1'
_cell_length_a   10.38558200
_cell_length_b   10.38558077
_cell_length_c   6.92004000
_cell_angle_alpha   90.00000000
_cell_angle_beta   90.00000000
_cell_angle_gamma   119.99999755
_symmetry_Int_Tables_number   1
_chemical_formula_structural   ErTm15(In3Pt)2
_chemical_formula_sum   'Er1 Tm15 In6 Pt2'
_cell_volume   646.39929466
_cell_formula_units_Z   1
loop_
 _symmetry_equiv_pos_site_id
 _symmetry_equiv_pos_as_xyz
  1  'x, y, z'
loop_
 _atom_site_type_symbol
 _atom_site_label
 _atom_site_symmetry_multiplicity
 _atom_site_fract_x
 _atom_site_fract_y
 _atom_site_fract_z
 _atom_site_occupancy
  Er  Er0  1  0.000000  0.000000  0.276171  1
  Tm  Tm1  1  0.531486  0.062973  0.795472  1
  Tm  Tm2  1  0.937027  0.468514  0.795472  1
  Tm  Tm3  1  0.531486  0.468514  0.795472  1
  Tm  Tm4  1  0.468510  0.937018  0.295462  1
  Tm  Tm5  1  0.062982  0.531490  0.295462  1
  Tm  Tm6  1  0.468510  0.531490  0.295462  1
  Tm  Tm7  1  0.824398  0.648797  0.500466  1
  Tm  Tm8  1  0.351203  0.175602  0.500466  1
  Tm  Tm9  1  0.824398  0.175602  0.500466  1
  Tm  Tm10  1  0.175589  0.351176  0.000238  1
  Tm  Tm11  1  0.648824  0.824411  0.000238  1
  Tm  Tm12  1  0.175589  0.824411  0.000238  1
  Tm  Tm13  1  0.666667  0.333333  0.171549  1
  Tm  Tm14  1  0.333333  0.666667  0.671588  1
  Tm  Tm15  1  0.000000  0.000000  0.775933  1
  In  In16  1  0.837577  0.675156  0.037950  1
  In  In17  1  0.324844  0.162423  0.037950  1
  In  In18  1  0.837577  0.162423  0.037950  1
  In  In19  1  0.162412  0.324822  0.538165  1
  In  In20  1  0.675178  0.837588  0.538165  1
  In  In21  1  0.162412  0.837588  0.538165  1
  Pt  Pt22  1  0.666667  0.333333  0.568623  1
  Pt  Pt23  1  0.333333  0.666667  0.068781  1
