# generated using pymatgen
data_Ho4Tm4Ga3Co
_symmetry_space_group_name_H-M   'P 1'
_cell_length_a   9.91683000
_cell_length_b   9.91682939
_cell_length_c   6.90831400
_cell_angle_alpha   90.00000000
_cell_angle_beta   90.00000000
_cell_angle_gamma   120.00000204
_symmetry_Int_Tables_number   1
_chemical_formula_structural   Ho4Tm4Ga3Co
_chemical_formula_sum   'Ho8 Tm8 Ga6 Co2'
_cell_volume   588.36712954
_cell_formula_units_Z   2
loop_
 _symmetry_equiv_pos_site_id
 _symmetry_equiv_pos_as_xyz
  1  'x, y, z'
loop_
 _atom_site_type_symbol
 _atom_site_label
 _atom_site_symmetry_multiplicity
 _atom_site_fract_x
 _atom_site_fract_y
 _atom_site_fract_z
 _atom_site_occupancy
  Ho  Ho0  1  0.464156  0.535844  0.207816  1
  Ho  Ho1  1  0.071687  0.535844  0.207816  1
  Ho  Ho2  1  0.464156  0.928313  0.207816  1
  Ho  Ho3  1  0.535844  0.464156  0.707816  1
  Ho  Ho4  1  0.928313  0.464156  0.707816  1
  Ho  Ho5  1  0.535844  0.071687  0.707816  1
  Ho  Ho6  1  0.000000  0.000000  0.230721  1
  Ho  Ho7  1  0.000000  0.000000  0.730721  1
  Tm  Tm8  1  0.173425  0.826575  0.511028  1
  Tm  Tm9  1  0.653148  0.826575  0.511028  1
  Tm  Tm10  1  0.173425  0.346852  0.511028  1
  Tm  Tm11  1  0.826575  0.173425  0.011028  1
  Tm  Tm12  1  0.346852  0.173425  0.011028  1
  Tm  Tm13  1  0.826575  0.653148  0.011028  1
  Tm  Tm14  1  0.333333  0.666667  0.826531  1
  Tm  Tm15  1  0.666667  0.333333  0.326531  1
  Ga  Ga16  1  0.163494  0.836506  0.959363  1
  Ga  Ga17  1  0.673012  0.836506  0.959363  1
  Ga  Ga18  1  0.163494  0.326988  0.959363  1
  Ga  Ga19  1  0.836506  0.163494  0.459363  1
  Ga  Ga20  1  0.326988  0.163494  0.459363  1
  Ga  Ga21  1  0.836506  0.673012  0.459363  1
  Co  Co22  1  0.333333  0.666667  0.445149  1
  Co  Co23  1  0.666667  0.333333  0.945149  1
