# generated using pymatgen
data_Nd2Zr3Sn4
_symmetry_space_group_name_H-M   'P 1'
_cell_length_a   7.87979000
_cell_length_b   7.92780300
_cell_length_c   14.89159100
_cell_angle_alpha   90.00000000
_cell_angle_beta   90.00000000
_cell_angle_gamma   90.00000000
_symmetry_Int_Tables_number   1
_chemical_formula_structural   Nd2Zr3Sn4
_chemical_formula_sum   'Nd8 Zr12 Sn16'
_cell_volume   930.26909436
_cell_formula_units_Z   4
loop_
 _symmetry_equiv_pos_site_id
 _symmetry_equiv_pos_as_xyz
  1  'x, y, z'
loop_
 _atom_site_type_symbol
 _atom_site_label
 _atom_site_symmetry_multiplicity
 _atom_site_fract_x
 _atom_site_fract_y
 _atom_site_fract_z
 _atom_site_occupancy
  Nd  Nd0  1  0.509463  0.324538  0.907189  1
  Nd  Nd1  1  0.009463  0.175462  0.592811  1
  Nd  Nd2  1  0.490537  0.675462  0.407189  1
  Nd  Nd3  1  0.990537  0.824538  0.092811  1
  Nd  Nd4  1  0.490537  0.675462  0.092811  1
  Nd  Nd5  1  0.990537  0.824538  0.407189  1
  Nd  Nd6  1  0.509463  0.324538  0.592811  1
  Nd  Nd7  1  0.009463  0.175462  0.907189  1
  Zr  Zr8  1  0.345434  0.838043  0.870362  1
  Zr  Zr9  1  0.845434  0.661957  0.629638  1
  Zr  Zr10  1  0.654566  0.161957  0.370362  1
  Zr  Zr11  1  0.154566  0.338043  0.129638  1
  Zr  Zr12  1  0.654566  0.161957  0.129638  1
  Zr  Zr13  1  0.154566  0.338043  0.370362  1
  Zr  Zr14  1  0.345434  0.838043  0.629638  1
  Zr  Zr15  1  0.845434  0.661957  0.870362  1
  Zr  Zr16  1  0.167957  0.510056  0.750000  1
  Zr  Zr17  1  0.667957  0.989944  0.750000  1
  Zr  Zr18  1  0.832043  0.489944  0.250000  1
  Zr  Zr19  1  0.332043  0.010056  0.250000  1
  Sn  Sn20  1  0.318363  0.043105  0.044000  1
  Sn  Sn21  1  0.818363  0.456895  0.456000  1
  Sn  Sn22  1  0.681637  0.956895  0.544000  1
  Sn  Sn23  1  0.181637  0.543105  0.956000  1
  Sn  Sn24  1  0.681637  0.956895  0.956000  1
  Sn  Sn25  1  0.181637  0.543105  0.544000  1
  Sn  Sn26  1  0.318363  0.043105  0.456000  1
  Sn  Sn27  1  0.818363  0.456895  0.044000  1
  Sn  Sn28  1  0.540889  0.620498  0.750000  1
  Sn  Sn29  1  0.040889  0.879502  0.750000  1
  Sn  Sn30  1  0.459111  0.379502  0.250000  1
  Sn  Sn31  1  0.959111  0.120498  0.250000  1
  Sn  Sn32  1  0.313386  0.150479  0.750000  1
  Sn  Sn33  1  0.813386  0.349521  0.750000  1
  Sn  Sn34  1  0.686614  0.849521  0.250000  1
  Sn  Sn35  1  0.186614  0.650479  0.250000  1
