# generated using pymatgen
data_Y15Ho(MgPb4)4
_symmetry_space_group_name_H-M   'P 1'
_cell_length_a   7.85315136
_cell_length_b   8.33655732
_cell_length_c   15.57064600
_cell_angle_alpha   89.96745025
_cell_angle_beta   89.83299669
_cell_angle_gamma   90.14292835
_symmetry_Int_Tables_number   1
_chemical_formula_structural   Y15Ho(MgPb4)4
_chemical_formula_sum   'Y15 Ho1 Mg4 Pb16'
_cell_volume   1019.37521884
_cell_formula_units_Z   1
loop_
 _symmetry_equiv_pos_site_id
 _symmetry_equiv_pos_as_xyz
  1  'x, y, z'
loop_
 _atom_site_type_symbol
 _atom_site_label
 _atom_site_symmetry_multiplicity
 _atom_site_fract_x
 _atom_site_fract_y
 _atom_site_fract_z
 _atom_site_occupancy
  Y  Y0  1  0.842000  0.661809  0.627351  1
  Y  Y1  1  0.656624  0.162043  0.372647  1
  Y  Y2  1  0.156924  0.339303  0.126546  1
  Y  Y3  1  0.654120  0.162767  0.127797  1
  Y  Y4  1  0.154906  0.335732  0.372511  1
  Y  Y5  1  0.347573  0.836339  0.627966  1
  Y  Y6  1  0.844399  0.663243  0.872476  1
  Y  Y7  1  0.509486  0.313192  0.909784  1
  Y  Y8  1  0.011772  0.186733  0.591612  1
  Y  Y9  1  0.491407  0.685280  0.409755  1
  Y  Y10  1  0.988237  0.812806  0.090628  1
  Y  Y11  1  0.490027  0.686406  0.090073  1
  Y  Y12  1  0.991416  0.814219  0.408672  1
  Y  Y13  1  0.509452  0.314323  0.590881  1
  Y  Y14  1  0.009965  0.186645  0.907713  1
  Ho  Ho15  1  0.342941  0.840210  0.872767  1
  Mg  Mg16  1  0.165894  0.504384  0.748836  1
  Mg  Mg17  1  0.669312  0.995691  0.751072  1
  Mg  Mg18  1  0.832074  0.495151  0.250267  1
  Mg  Mg19  1  0.331529  0.003786  0.251263  1
  Pb  Pb20  1  0.305731  0.038047  0.041364  1
  Pb  Pb21  1  0.807405  0.460968  0.459186  1
  Pb  Pb22  1  0.695433  0.962023  0.541056  1
  Pb  Pb23  1  0.192959  0.539552  0.957484  1
  Pb  Pb24  1  0.692680  0.961826  0.959196  1
  Pb  Pb25  1  0.193810  0.539276  0.540390  1
  Pb  Pb26  1  0.307207  0.038284  0.459950  1
  Pb  Pb27  1  0.806686  0.461140  0.040678  1
  Pb  Pb28  1  0.527485  0.598116  0.752359  1
  Pb  Pb29  1  0.030875  0.900400  0.749143  1
  Pb  Pb30  1  0.470291  0.402014  0.250606  1
  Pb  Pb31  1  0.970491  0.098263  0.248562  1
  Pb  Pb32  1  0.317019  0.162537  0.750267  1
  Pb  Pb33  1  0.814275  0.338321  0.749898  1
  Pb  Pb34  1  0.683529  0.837213  0.249764  1
  Pb  Pb35  1  0.184065  0.661960  0.249480  1
