# generated using pymatgen
data_Ho2ErMgCd2Ga3
_symmetry_space_group_name_H-M   'P 1'
_cell_length_a   7.22041019
_cell_length_b   7.22283897
_cell_length_c   4.41602200
_cell_angle_alpha   90.00000000
_cell_angle_beta   90.00000000
_cell_angle_gamma   120.01160240
_symmetry_Int_Tables_number   1
_chemical_formula_structural   Ho2ErMgCd2Ga3
_chemical_formula_sum   'Ho2 Er1 Mg1 Cd2 Ga3'
_cell_volume   199.42558575
_cell_formula_units_Z   1
loop_
 _symmetry_equiv_pos_site_id
 _symmetry_equiv_pos_as_xyz
  1  'x, y, z'
loop_
 _atom_site_type_symbol
 _atom_site_label
 _atom_site_symmetry_multiplicity
 _atom_site_fract_x
 _atom_site_fract_y
 _atom_site_fract_z
 _atom_site_occupancy
  Ho  Ho0  1  0.425385  0.425422  0.500000  1
  Ho  Ho1  1  0.572525  0.001190  0.500000  1
  Er  Er2  1  0.001115  0.572500  0.500000  1
  Mg  Mg3  1  0.759711  0.759659  0.000000  1
  Cd  Cd4  1  0.246676  0.997662  0.000000  1
  Cd  Cd5  1  0.997712  0.246820  0.000000  1
  Ga  Ga6  1  0.665229  0.337298  0.000000  1
  Ga  Ga7  1  0.337029  0.664954  0.000000  1
  Ga  Ga8  1  0.994619  0.994496  0.500000  1
