# generated using pymatgen
data_HoLu7(Si4W3)4
_symmetry_space_group_name_H-M   'P 1'
_cell_length_a   6.70788842
_cell_length_b   6.89442421
_cell_length_c   12.82878915
_cell_angle_alpha   89.96874249
_cell_angle_beta   90.00314022
_cell_angle_gamma   89.97677484
_symmetry_Int_Tables_number   1
_chemical_formula_structural   HoLu7(Si4W3)4
_chemical_formula_sum   'Ho1 Lu7 Si16 W12'
_cell_volume   593.29323703
_cell_formula_units_Z   1
loop_
 _symmetry_equiv_pos_site_id
 _symmetry_equiv_pos_as_xyz
  1  'x, y, z'
loop_
 _atom_site_type_symbol
 _atom_site_label
 _atom_site_symmetry_multiplicity
 _atom_site_fract_x
 _atom_site_fract_y
 _atom_site_fract_z
 _atom_site_occupancy
  Ho  Ho0  1  0.995927  0.831938  0.592717  1
  Lu  Lu1  1  0.495077  0.668265  0.592904  1
  Lu  Lu2  1  0.995094  0.831627  0.906966  1
  Lu  Lu3  1  0.505129  0.331462  0.093019  1
  Lu  Lu4  1  0.005359  0.168611  0.406542  1
  Lu  Lu5  1  0.505208  0.331873  0.406763  1
  Lu  Lu6  1  0.005081  0.168412  0.092967  1
  Lu  Lu7  1  0.495155  0.668540  0.907335  1
  Si  Si8  1  0.662918  0.960139  0.452936  1
  Si  Si9  1  0.163254  0.540079  0.046608  1
  Si  Si10  1  0.336731  0.040075  0.953652  1
  Si  Si11  1  0.836314  0.458517  0.546303  1
  Si  Si12  1  0.338355  0.040967  0.546243  1
  Si  Si13  1  0.836745  0.460062  0.953608  1
  Si  Si14  1  0.663182  0.959871  0.046715  1
  Si  Si15  1  0.163346  0.539618  0.452914  1
  Si  Si16  1  0.464986  0.373347  0.750291  1
  Si  Si17  1  0.964758  0.127844  0.750446  1
  Si  Si18  1  0.534632  0.626758  0.249718  1
  Si  Si19  1  0.034777  0.872961  0.250018  1
  Si  Si20  1  0.696462  0.863296  0.750504  1
  Si  Si21  1  0.198364  0.636018  0.750672  1
  Si  Si22  1  0.302825  0.136847  0.249882  1
  Si  Si23  1  0.802576  0.362897  0.249758  1
  W  W24  1  0.668153  0.163794  0.625325  1
  W  W25  1  0.168988  0.336842  0.875343  1
  W  W26  1  0.330388  0.836908  0.124834  1
  W  W27  1  0.830178  0.662389  0.374615  1
  W  W28  1  0.331126  0.836753  0.374748  1
  W  W29  1  0.830737  0.662926  0.124921  1
  W  W30  1  0.669029  0.163334  0.875515  1
  W  W31  1  0.169221  0.336898  0.624891  1
  W  W32  1  0.832500  0.501848  0.750304  1
  W  W33  1  0.332964  0.998426  0.750329  1
  W  W34  1  0.167205  0.497616  0.249796  1
  W  W35  1  0.667259  0.002246  0.249898  1
