# generated using pymatgen
data_Ca2NdEuAl6O14
_symmetry_space_group_name_H-M   'P 1'
_cell_length_a   7.81895028
_cell_length_b   7.81895029
_cell_length_c   5.15220322
_cell_angle_alpha   89.98923173
_cell_angle_beta   89.98923031
_cell_angle_gamma   89.49096757
_symmetry_Int_Tables_number   1
_chemical_formula_structural   Ca2NdEuAl6O14
_chemical_formula_sum   'Ca2 Nd1 Eu1 Al6 O14'
_cell_volume   314.97256932
_cell_formula_units_Z   1
loop_
 _symmetry_equiv_pos_site_id
 _symmetry_equiv_pos_as_xyz
  1  'x, y, z'
loop_
 _atom_site_type_symbol
 _atom_site_label
 _atom_site_symmetry_multiplicity
 _atom_site_fract_x
 _atom_site_fract_y
 _atom_site_fract_z
 _atom_site_occupancy
  Ca  Ca0  1  0.339126  0.659457  0.517433  1
  Ca  Ca1  1  0.659457  0.339126  0.517433  1
  Nd  Nd2  1  0.161525  0.161525  0.487956  1
  Eu  Eu3  1  0.835920  0.835920  0.490161  1
  Al  Al4  1  0.499935  0.999702  0.996958  1
  Al  Al5  1  0.999702  0.499935  0.996958  1
  Al  Al6  1  0.144010  0.853915  0.959432  1
  Al  Al7  1  0.357873  0.357873  0.041238  1
  Al  Al8  1  0.853915  0.144010  0.959432  1
  Al  Al9  1  0.644414  0.644414  0.042515  1
  O  O10  1  0.337217  0.910922  0.802223  1
  O  O11  1  0.158796  0.404779  0.195385  1
  O  O12  1  0.661175  0.089460  0.801322  1
  O  O13  1  0.842252  0.596364  0.197560  1
  O  O14  1  0.596364  0.842252  0.197560  1
  O  O15  1  0.910922  0.337217  0.802223  1
  O  O16  1  0.404779  0.158796  0.195385  1
  O  O17  1  0.089460  0.661175  0.801322  1
  O  O18  1  0.135024  0.863876  0.299158  1
  O  O19  1  0.355466  0.355466  0.702811  1
  O  O20  1  0.863876  0.135024  0.299158  1
  O  O21  1  0.650350  0.650350  0.702211  1
  O  O22  1  0.500951  0.500951  0.184696  1
  O  O23  1  0.997493  0.997493  0.809494  1
