# generated using pymatgen
data_Ac2Zn5In3
_symmetry_space_group_name_H-M   'P 1'
_cell_length_a   6.59198416
_cell_length_b   6.59198404
_cell_length_c   6.38350308
_cell_angle_alpha   90.06976958
_cell_angle_beta   90.06976661
_cell_angle_gamma   57.87192219
_symmetry_Int_Tables_number   1
_chemical_formula_structural   Ac2Zn5In3
_chemical_formula_sum   'Ac2 Zn5 In3'
_cell_volume   234.91096890
_cell_formula_units_Z   1
loop_
 _symmetry_equiv_pos_site_id
 _symmetry_equiv_pos_as_xyz
  1  'x, y, z'
loop_
 _atom_site_type_symbol
 _atom_site_label
 _atom_site_symmetry_multiplicity
 _atom_site_fract_x
 _atom_site_fract_y
 _atom_site_fract_z
 _atom_site_occupancy
  Ac  Ac0  1  0.750286  0.748967  0.246082  1
  Ac  Ac1  1  0.251033  0.249714  0.753917  1
  Zn  Zn2  1  0.245500  0.754501  0.499999  1
  Zn  Zn3  1  0.346589  0.372832  0.265543  1
  Zn  Zn4  1  0.627168  0.653411  0.734456  1
  Zn  Zn5  1  0.156247  0.131396  0.260690  1
  Zn  Zn6  1  0.868604  0.843753  0.739309  1
  In  In7  1  0.250528  0.749473  0.000000  1
  In  In8  1  0.754654  0.245347  0.499999  1
  In  In9  1  0.749394  0.250607  0.000000  1
