# generated using pymatgen
data_CaPr9(SnBi)4
_symmetry_space_group_name_H-M   'P 1'
_cell_length_a   8.45924300
_cell_length_b   8.51501500
_cell_length_c   16.32270300
_cell_angle_alpha   90.00000000
_cell_angle_beta   90.00000000
_cell_angle_gamma   90.00000000
_symmetry_Int_Tables_number   1
_chemical_formula_structural   CaPr9(SnBi)4
_chemical_formula_sum   'Ca2 Pr18 Sn8 Bi8'
_cell_volume   1175.73378113
_cell_formula_units_Z   2
loop_
 _symmetry_equiv_pos_site_id
 _symmetry_equiv_pos_as_xyz
  1  'x, y, z'
loop_
 _atom_site_type_symbol
 _atom_site_label
 _atom_site_symmetry_multiplicity
 _atom_site_fract_x
 _atom_site_fract_y
 _atom_site_fract_z
 _atom_site_occupancy
  Ca  Ca0  1  0.221435  0.498126  0.750000  1
  Ca  Ca1  1  0.721435  0.001874  0.750000  1
  Pr  Pr2  1  0.392590  0.835272  0.879518  1
  Pr  Pr3  1  0.892590  0.664728  0.620482  1
  Pr  Pr4  1  0.608921  0.164266  0.379939  1
  Pr  Pr5  1  0.108921  0.335734  0.120061  1
  Pr  Pr6  1  0.608921  0.164266  0.120061  1
  Pr  Pr7  1  0.108921  0.335734  0.379939  1
  Pr  Pr8  1  0.392590  0.835272  0.620482  1
  Pr  Pr9  1  0.892590  0.664728  0.879518  1
  Pr  Pr10  1  0.548678  0.325327  0.890166  1
  Pr  Pr11  1  0.048678  0.174673  0.609834  1
  Pr  Pr12  1  0.449835  0.674618  0.389877  1
  Pr  Pr13  1  0.949835  0.825382  0.110123  1
  Pr  Pr14  1  0.449835  0.674618  0.110123  1
  Pr  Pr15  1  0.949835  0.825382  0.389877  1
  Pr  Pr16  1  0.548678  0.325327  0.609834  1
  Pr  Pr17  1  0.048678  0.174673  0.890166  1
  Pr  Pr18  1  0.782338  0.503963  0.250000  1
  Pr  Pr19  1  0.282338  0.996037  0.250000  1
  Sn  Sn20  1  0.591567  0.619991  0.750000  1
  Sn  Sn21  1  0.091567  0.880009  0.750000  1
  Sn  Sn22  1  0.409384  0.376898  0.250000  1
  Sn  Sn23  1  0.909384  0.123102  0.250000  1
  Sn  Sn24  1  0.347345  0.136149  0.750000  1
  Sn  Sn25  1  0.847345  0.363851  0.750000  1
  Sn  Sn26  1  0.650510  0.862915  0.250000  1
  Sn  Sn27  1  0.150510  0.637085  0.250000  1
  Bi  Bi28  1  0.268578  0.018794  0.044671  1
  Bi  Bi29  1  0.768578  0.481206  0.455329  1
  Bi  Bi30  1  0.730108  0.979840  0.544948  1
  Bi  Bi31  1  0.230108  0.520160  0.955052  1
  Bi  Bi32  1  0.730108  0.979840  0.955052  1
  Bi  Bi33  1  0.230108  0.520160  0.544948  1
  Bi  Bi34  1  0.268578  0.018794  0.455329  1
  Bi  Bi35  1  0.768578  0.481206  0.044671  1
