# generated using pymatgen
data_Er3Al12Ru3Pt
_symmetry_space_group_name_H-M   'P 1'
_cell_length_a   8.81658863
_cell_length_b   8.77429083
_cell_length_c   9.54085243
_cell_angle_alpha   90.00000181
_cell_angle_beta   90.10673047
_cell_angle_gamma   119.84142200
_symmetry_Int_Tables_number   1
_chemical_formula_structural   Er3Al12Ru3Pt
_chemical_formula_sum   'Er6 Al24 Ru6 Pt2'
_cell_volume   640.20811069
_cell_formula_units_Z   2
loop_
 _symmetry_equiv_pos_site_id
 _symmetry_equiv_pos_as_xyz
  1  'x, y, z'
loop_
 _atom_site_type_symbol
 _atom_site_label
 _atom_site_symmetry_multiplicity
 _atom_site_fract_x
 _atom_site_fract_y
 _atom_site_fract_z
 _atom_site_occupancy
  Er  Er0  1  0.192663  0.388929  0.251942  1
  Er  Er1  1  0.807337  0.611071  0.748058  1
  Er  Er2  1  0.613612  0.806806  0.251174  1
  Er  Er3  1  0.386388  0.193194  0.748826  1
  Er  Er4  1  0.192663  0.803733  0.251942  1
  Er  Er5  1  0.807337  0.196267  0.748058  1
  Al  Al6  1  0.327892  0.663946  0.027022  1
  Al  Al7  1  0.672108  0.336054  0.972978  1
  Al  Al8  1  0.666589  0.333294  0.522054  1
  Al  Al9  1  0.333411  0.666706  0.477946  1
  Al  Al10  1  0.163562  0.326163  0.577376  1
  Al  Al11  1  0.836438  0.673837  0.422624  1
  Al  Al12  1  0.674881  0.837441  0.577629  1
  Al  Al13  1  0.841394  0.675046  0.078404  1
  Al  Al14  1  0.325119  0.162559  0.422371  1
  Al  Al15  1  0.158606  0.324954  0.921596  1
  Al  Al16  1  0.163562  0.837400  0.577376  1
  Al  Al17  1  0.322990  0.161495  0.079219  1
  Al  Al18  1  0.836438  0.162600  0.422624  1
  Al  Al19  1  0.677010  0.838505  0.920781  1
  Al  Al20  1  0.841394  0.166348  0.078404  1
  Al  Al21  1  0.158606  0.833652  0.921596  1
  Al  Al22  1  0.562590  0.125103  0.252125  1
  Al  Al23  1  0.437410  0.874897  0.747875  1
  Al  Al24  1  0.877524  0.438762  0.248784  1
  Al  Al25  1  0.122476  0.561238  0.751216  1
  Al  Al26  1  0.562590  0.437487  0.252125  1
  Al  Al27  1  0.437410  0.562513  0.747875  1
  Al  Al28  1  0.998688  0.999344  0.250025  1
  Al  Al29  1  0.001312  0.000656  0.749975  1
  Ru  Ru30  1  0.000000  0.500000  0.000000  1
  Ru  Ru31  1  0.500000  0.000000  0.500000  1
  Ru  Ru32  1  0.000000  0.500000  0.500000  1
  Ru  Ru33  1  0.500000  0.500000  0.500000  1
  Ru  Ru34  1  0.000000  0.000000  0.000000  1
  Ru  Ru35  1  0.000000  0.000000  0.500000  1
  Pt  Pt36  1  0.500000  0.000000  0.000000  1
  Pt  Pt37  1  0.500000  0.500000  0.000000  1
