# generated using pymatgen
data_NdY2(Si3Pd10)2
_symmetry_space_group_name_H-M   'P 1'
_cell_length_a   8.72955801
_cell_length_b   8.72955798
_cell_length_c   8.72955800
_cell_angle_alpha   59.99999993
_cell_angle_beta   60.00000003
_cell_angle_gamma   59.99999554
_symmetry_Int_Tables_number   1
_chemical_formula_structural   NdY2(Si3Pd10)2
_chemical_formula_sum   'Nd1 Y2 Si6 Pd20'
_cell_volume   470.39397582
_cell_formula_units_Z   1
loop_
 _symmetry_equiv_pos_site_id
 _symmetry_equiv_pos_as_xyz
  1  'x, y, z'
loop_
 _atom_site_type_symbol
 _atom_site_label
 _atom_site_symmetry_multiplicity
 _atom_site_fract_x
 _atom_site_fract_y
 _atom_site_fract_z
 _atom_site_occupancy
  Nd  Nd0  1  0.750000  0.750000  0.750000  1
  Y  Y1  1  0.250000  0.250000  0.250000  1
  Y  Y2  1  0.000000  0.000000  0.000000  1
  Si  Si3  1  0.733326  0.266674  0.266674  1
  Si  Si4  1  0.266674  0.733326  0.733326  1
  Si  Si5  1  0.266674  0.733326  0.266674  1
  Si  Si6  1  0.733326  0.266674  0.733326  1
  Si  Si7  1  0.266674  0.266674  0.733326  1
  Si  Si8  1  0.733326  0.733326  0.266674  1
  Pd  Pd9  1  0.345004  0.000620  0.000620  1
  Pd  Pd10  1  0.653755  0.000620  0.000620  1
  Pd  Pd11  1  0.000620  0.345004  0.653755  1
  Pd  Pd12  1  0.000620  0.653755  0.345004  1
  Pd  Pd13  1  0.000620  0.345004  0.000620  1
  Pd  Pd14  1  0.653755  0.000620  0.345004  1
  Pd  Pd15  1  0.000620  0.653755  0.000620  1
  Pd  Pd16  1  0.345004  0.000620  0.653755  1
  Pd  Pd17  1  0.000620  0.000620  0.345004  1
  Pd  Pd18  1  0.000620  0.000620  0.653755  1
  Pd  Pd19  1  0.653755  0.345004  0.000620  1
  Pd  Pd20  1  0.345004  0.653755  0.000620  1
  Pd  Pd21  1  0.383797  0.383797  0.383797  1
  Pd  Pd22  1  0.614524  0.614524  0.614524  1
  Pd  Pd23  1  0.383797  0.383797  0.848607  1
  Pd  Pd24  1  0.383797  0.848607  0.383797  1
  Pd  Pd25  1  0.614524  0.614524  0.156429  1
  Pd  Pd26  1  0.614524  0.156429  0.614524  1
  Pd  Pd27  1  0.848607  0.383797  0.383797  1
  Pd  Pd28  1  0.156429  0.614524  0.614524  1
