# generated using pymatgen
data_Pr2ThCo2Sn7
_symmetry_space_group_name_H-M   'P 1'
_cell_length_a   13.82172640
_cell_length_b   13.82172538
_cell_length_c   4.57769200
_cell_angle_alpha   90.00000000
_cell_angle_beta   90.00000000
_cell_angle_gamma   160.28734674
_symmetry_Int_Tables_number   1
_chemical_formula_structural   Pr2ThCo2Sn7
_chemical_formula_sum   'Pr2 Th1 Co2 Sn7'
_cell_volume   294.97929772
_cell_formula_units_Z   1
loop_
 _symmetry_equiv_pos_site_id
 _symmetry_equiv_pos_as_xyz
  1  'x, y, z'
loop_
 _atom_site_type_symbol
 _atom_site_label
 _atom_site_symmetry_multiplicity
 _atom_site_fract_x
 _atom_site_fract_y
 _atom_site_fract_z
 _atom_site_occupancy
  Pr  Pr0  1  0.185493  0.814507  0.000000  1
  Pr  Pr1  1  0.814507  0.185493  0.000000  1
  Th  Th2  1  0.500000  0.500000  0.500000  1
  Co  Co3  1  0.626437  0.373563  0.500000  1
  Co  Co4  1  0.373563  0.626437  0.500000  1
  Sn  Sn5  1  0.718052  0.281948  0.500000  1
  Sn  Sn6  1  0.281948  0.718052  0.500000  1
  Sn  Sn7  1  0.588933  0.411067  0.000000  1
  Sn  Sn8  1  0.000000  0.000000  0.000000  1
  Sn  Sn9  1  0.411067  0.588933  0.000000  1
  Sn  Sn10  1  0.909784  0.090216  0.500000  1
  Sn  Sn11  1  0.090216  0.909784  0.500000  1
