# generated using pymatgen
data_LiErB6Os
_symmetry_space_group_name_H-M   'P 1'
_cell_length_a   3.50059400
_cell_length_b   8.84830000
_cell_length_c   11.18477600
_cell_angle_alpha   90.00000000
_cell_angle_beta   90.00000000
_cell_angle_gamma   90.00000000
_symmetry_Int_Tables_number   1
_chemical_formula_structural   LiErB6Os
_chemical_formula_sum   'Li4 Er4 B24 Os4'
_cell_volume   346.44067314
_cell_formula_units_Z   4
loop_
 _symmetry_equiv_pos_site_id
 _symmetry_equiv_pos_as_xyz
  1  'x, y, z'
loop_
 _atom_site_type_symbol
 _atom_site_label
 _atom_site_symmetry_multiplicity
 _atom_site_fract_x
 _atom_site_fract_y
 _atom_site_fract_z
 _atom_site_occupancy
  Li  Li0  1  0.000000  0.944086  0.372220  1
  Li  Li1  1  0.000000  0.055914  0.627781  1
  Li  Li2  1  0.000000  0.444086  0.127780  1
  Li  Li3  1  0.000000  0.555914  0.872219  1
  Er  Er4  1  0.000000  0.321297  0.413049  1
  Er  Er5  1  0.000000  0.678703  0.586951  1
  Er  Er6  1  0.000000  0.821297  0.086951  1
  Er  Er7  1  0.000000  0.178703  0.913049  1
  B  B8  1  0.500000  0.554040  0.433076  1
  B  B9  1  0.500000  0.445960  0.566924  1
  B  B10  1  0.500000  0.054040  0.066924  1
  B  B11  1  0.500000  0.945960  0.933076  1
  B  B12  1  0.500000  0.758725  0.418136  1
  B  B13  1  0.500000  0.241275  0.581864  1
  B  B14  1  0.500000  0.258725  0.081864  1
  B  B15  1  0.500000  0.741275  0.918136  1
  B  B16  1  0.500000  0.794785  0.263900  1
  B  B17  1  0.500000  0.205215  0.736100  1
  B  B18  1  0.500000  0.294784  0.236100  1
  B  B19  1  0.500000  0.705215  0.763900  1
  B  B20  1  0.500000  0.625523  0.181480  1
  B  B21  1  0.500000  0.374477  0.818520  1
  B  B22  1  0.500000  0.125523  0.318520  1
  B  B23  1  0.500000  0.874477  0.681480  1
  B  B24  1  0.500000  0.978738  0.214094  1
  B  B25  1  0.500000  0.021262  0.785906  1
  B  B26  1  0.500000  0.478738  0.285906  1
  B  B27  1  0.500000  0.521262  0.714094  1
  B  B28  1  0.500000  0.592612  0.025687  1
  B  B29  1  0.500000  0.407388  0.974313  1
  B  B30  1  0.500000  0.092612  0.474313  1
  B  B31  1  0.500000  0.907388  0.525687  1
  Os  Os32  1  0.000000  0.640921  0.318913  1
  Os  Os33  1  0.000000  0.359079  0.681087  1
  Os  Os34  1  0.000000  0.140921  0.181087  1
  Os  Os35  1  0.000000  0.859079  0.818913  1
