# generated using pymatgen
data_Sm8Dy11ScSi15Tc
_symmetry_space_group_name_H-M   'P 1'
_cell_length_a   7.38863800
_cell_length_b   7.81645540
_cell_length_c   14.67013300
_cell_angle_alpha   90.00000000
_cell_angle_beta   90.00000000
_cell_angle_gamma   90.19758613
_symmetry_Int_Tables_number   1
_chemical_formula_structural   Sm8Dy11ScSi15Tc
_chemical_formula_sum   'Sm8 Dy11 Sc1 Si15 Tc1'
_cell_volume   847.23855775
_cell_formula_units_Z   1
loop_
 _symmetry_equiv_pos_site_id
 _symmetry_equiv_pos_as_xyz
  1  'x, y, z'
loop_
 _atom_site_type_symbol
 _atom_site_label
 _atom_site_symmetry_multiplicity
 _atom_site_fract_x
 _atom_site_fract_y
 _atom_site_fract_z
 _atom_site_occupancy
  Sm  Sm0  1  0.021026  0.182773  0.098088  1
  Sm  Sm1  1  0.983773  0.825674  0.905109  1
  Sm  Sm2  1  0.481961  0.680495  0.904927  1
  Sm  Sm3  1  0.983773  0.825674  0.594891  1
  Sm  Sm4  1  0.517416  0.317650  0.097257  1
  Sm  Sm5  1  0.021026  0.182773  0.401912  1
  Sm  Sm6  1  0.517416  0.317650  0.402743  1
  Sm  Sm7  1  0.481961  0.680495  0.595073  1
  Dy  Dy8  1  0.153210  0.513095  0.750000  1
  Dy  Dy9  1  0.843751  0.485744  0.250000  1
  Dy  Dy10  1  0.665184  0.987928  0.750000  1
  Dy  Dy11  1  0.311491  0.174549  0.626759  1
  Dy  Dy12  1  0.676547  0.824597  0.374215  1
  Dy  Dy13  1  0.178895  0.681278  0.374353  1
  Dy  Dy14  1  0.676547  0.824597  0.125785  1
  Dy  Dy15  1  0.832748  0.315282  0.624920  1
  Dy  Dy16  1  0.311491  0.174549  0.873241  1
  Dy  Dy17  1  0.832748  0.315282  0.875080  1
  Dy  Dy18  1  0.178895  0.681278  0.125647  1
  Sc  Sc19  1  0.341466  0.018428  0.250000  1
  Si  Si20  1  0.976441  0.900104  0.250000  1
  Si  Si21  1  0.473911  0.602275  0.250000  1
  Si  Si22  1  0.528481  0.395334  0.750000  1
  Si  Si23  1  0.274567  0.868858  0.750000  1
  Si  Si24  1  0.717867  0.126583  0.250000  1
  Si  Si25  1  0.227043  0.366787  0.250000  1
  Si  Si26  1  0.766307  0.621611  0.750000  1
  Si  Si27  1  0.153586  0.473128  0.536690  1
  Si  Si28  1  0.850493  0.532589  0.461239  1
  Si  Si29  1  0.349271  0.970001  0.459213  1
  Si  Si30  1  0.850493  0.532589  0.038761  1
  Si  Si31  1  0.645912  0.030201  0.537199  1
  Si  Si32  1  0.153586  0.473128  0.963310  1
  Si  Si33  1  0.645912  0.030201  0.962801  1
  Si  Si34  1  0.349271  0.970001  0.040787  1
  Tc  Tc35  1  0.025535  0.096819  0.750000  1
