# generated using pymatgen
data_LiPr2(HoSi2)2
_symmetry_space_group_name_H-M   'P 1'
_cell_length_a   7.24253600
_cell_length_b   7.77113000
_cell_length_c   14.87695700
_cell_angle_alpha   90.00000000
_cell_angle_beta   90.00000000
_cell_angle_gamma   90.00000000
_symmetry_Int_Tables_number   1
_chemical_formula_structural   LiPr2(HoSi2)2
_chemical_formula_sum   'Li4 Pr8 Ho8 Si16'
_cell_volume   837.31514091
_cell_formula_units_Z   4
loop_
 _symmetry_equiv_pos_site_id
 _symmetry_equiv_pos_as_xyz
  1  'x, y, z'
loop_
 _atom_site_type_symbol
 _atom_site_label
 _atom_site_symmetry_multiplicity
 _atom_site_fract_x
 _atom_site_fract_y
 _atom_site_fract_z
 _atom_site_occupancy
  Li  Li0  1  0.656349  0.989082  0.750000  1
  Li  Li1  1  0.843651  0.489082  0.250000  1
  Li  Li2  1  0.343651  0.010918  0.250000  1
  Li  Li3  1  0.156349  0.510918  0.750000  1
  Pr  Pr4  1  0.023064  0.185861  0.396815  1
  Pr  Pr5  1  0.523064  0.314139  0.396815  1
  Pr  Pr6  1  0.476936  0.685861  0.896815  1
  Pr  Pr7  1  0.476936  0.685861  0.603185  1
  Pr  Pr8  1  0.976936  0.814139  0.603185  1
  Pr  Pr9  1  0.976936  0.814139  0.896815  1
  Pr  Pr10  1  0.523064  0.314139  0.103185  1
  Pr  Pr11  1  0.023064  0.185861  0.103185  1
  Ho  Ho12  1  0.327540  0.181483  0.626392  1
  Ho  Ho13  1  0.672460  0.818517  0.373608  1
  Ho  Ho14  1  0.172460  0.681483  0.373608  1
  Ho  Ho15  1  0.827540  0.318517  0.873608  1
  Ho  Ho16  1  0.827540  0.318517  0.626392  1
  Ho  Ho17  1  0.327540  0.181483  0.873608  1
  Ho  Ho18  1  0.172460  0.681483  0.126392  1
  Ho  Ho19  1  0.672460  0.818517  0.126392  1
  Si  Si20  1  0.273206  0.886027  0.750000  1
  Si  Si21  1  0.471603  0.596813  0.250000  1
  Si  Si22  1  0.028397  0.096813  0.750000  1
  Si  Si23  1  0.528397  0.403187  0.750000  1
  Si  Si24  1  0.150328  0.464898  0.534268  1
  Si  Si25  1  0.971603  0.903187  0.250000  1
  Si  Si26  1  0.726794  0.113973  0.250000  1
  Si  Si27  1  0.849672  0.535102  0.034268  1
  Si  Si28  1  0.349672  0.964898  0.034268  1
  Si  Si29  1  0.150328  0.464898  0.965732  1
  Si  Si30  1  0.650328  0.035102  0.534268  1
  Si  Si31  1  0.349672  0.964898  0.465732  1
  Si  Si32  1  0.849672  0.535102  0.465732  1
  Si  Si33  1  0.773206  0.613973  0.750000  1
  Si  Si34  1  0.226794  0.386027  0.250000  1
  Si  Si35  1  0.650328  0.035102  0.965732  1
