# generated using pymatgen
data_Zr5Al6ReRu12
_symmetry_space_group_name_H-M   'P 1'
_cell_length_a   4.45760100
_cell_length_b   6.27685800
_cell_length_c   13.28410800
_cell_angle_alpha   90.00082483
_cell_angle_beta   90.00073954
_cell_angle_gamma   89.99901865
_symmetry_Int_Tables_number   1
_chemical_formula_structural   Zr5Al6ReRu12
_chemical_formula_sum   'Zr5 Al6 Re1 Ru12'
_cell_volume   371.68573511
_cell_formula_units_Z   1
loop_
 _symmetry_equiv_pos_site_id
 _symmetry_equiv_pos_as_xyz
  1  'x, y, z'
loop_
 _atom_site_type_symbol
 _atom_site_label
 _atom_site_symmetry_multiplicity
 _atom_site_fract_x
 _atom_site_fract_y
 _atom_site_fract_z
 _atom_site_occupancy
  Zr  Zr0  1  0.499928  0.499998  0.165856  1
  Zr  Zr1  1  0.999943  0.000002  0.333018  1
  Zr  Zr2  1  0.500001  0.500000  0.500000  1
  Zr  Zr3  1  0.000057  0.999998  0.666982  1
  Zr  Zr4  1  0.500070  0.500002  0.834145  1
  Al  Al5  1  0.000000  0.500000  0.000000  1
  Al  Al6  1  0.499928  0.999983  0.167285  1
  Al  Al7  1  0.999933  0.500011  0.331722  1
  Al  Al8  1  0.500001  0.000000  0.500000  1
  Al  Al9  1  0.000067  0.499989  0.668278  1
  Al  Al10  1  0.500074  0.000017  0.832715  1
  Re  Re11  1  0.000000  0.000000  0.000000  1
  Ru  Ru12  1  0.500008  0.233959  0.000006  1
  Ru  Ru13  1  0.499994  0.766040  0.999994  1
  Ru  Ru14  1  0.999938  0.242963  0.158291  1
  Ru  Ru15  1  0.999930  0.757028  0.158286  1
  Ru  Ru16  1  0.499940  0.249353  0.330993  1
  Ru  Ru17  1  0.499938  0.750649  0.330995  1
  Ru  Ru18  1  0.000002  0.251874  0.499998  1
  Ru  Ru19  1  0.999998  0.748124  0.500002  1
  Ru  Ru20  1  0.500062  0.249351  0.669005  1
  Ru  Ru21  1  0.500060  0.750647  0.669007  1
  Ru  Ru22  1  0.000070  0.242971  0.841715  1
  Ru  Ru23  1  0.000062  0.757036  0.841710  1
