# generated using pymatgen
data_Gd3Sc2AlIr3
_symmetry_space_group_name_H-M   'P 1'
_cell_length_a   7.23006600
_cell_length_b   7.23006524
_cell_length_c   4.37011300
_cell_angle_alpha   90.00000000
_cell_angle_beta   90.00000000
_cell_angle_gamma   120.36713016
_symmetry_Int_Tables_number   1
_chemical_formula_structural   Gd3Sc2AlIr3
_chemical_formula_sum   'Gd3 Sc2 Al1 Ir3'
_cell_volume   197.10117371
_cell_formula_units_Z   1
loop_
 _symmetry_equiv_pos_site_id
 _symmetry_equiv_pos_as_xyz
  1  'x, y, z'
loop_
 _atom_site_type_symbol
 _atom_site_label
 _atom_site_symmetry_multiplicity
 _atom_site_fract_x
 _atom_site_fract_y
 _atom_site_fract_z
 _atom_site_occupancy
  Gd  Gd0  1  0.412735  0.017459  0.500000  1
  Gd  Gd1  1  0.017459  0.412735  0.500000  1
  Gd  Gd2  1  0.570525  0.570525  0.500000  1
  Sc  Sc3  1  0.756575  0.002985  0.000000  1
  Sc  Sc4  1  0.002985  0.756575  0.000000  1
  Al  Al5  1  0.245151  0.245151  0.000000  1
  Ir  Ir6  1  0.334362  0.661472  0.000000  1
  Ir  Ir7  1  0.661472  0.334362  0.000000  1
  Ir  Ir8  1  0.998737  0.998737  0.500000  1
