# generated using pymatgen
data_La2B2Pt4Rh3Au
_symmetry_space_group_name_H-M   'P 1'
_cell_length_a   5.52140268
_cell_length_b   5.54424044
_cell_length_c   7.62100932
_cell_angle_alpha   90.00721304
_cell_angle_beta   90.02466070
_cell_angle_gamma   119.64033089
_symmetry_Int_Tables_number   1
_chemical_formula_structural   La2B2Pt4Rh3Au
_chemical_formula_sum   'La2 B2 Pt4 Rh3 Au1'
_cell_volume   202.76693959
_cell_formula_units_Z   1
loop_
 _symmetry_equiv_pos_site_id
 _symmetry_equiv_pos_as_xyz
  1  'x, y, z'
loop_
 _atom_site_type_symbol
 _atom_site_label
 _atom_site_symmetry_multiplicity
 _atom_site_fract_x
 _atom_site_fract_y
 _atom_site_fract_z
 _atom_site_occupancy
  La  La0  1  0.000038  0.001818  0.497337  1
  La  La1  1  0.000212  0.999516  0.004530  1
  B  B2  1  0.334043  0.672254  0.001987  1
  B  B3  1  0.665769  0.328889  0.001795  1
  Pt  Pt4  1  0.667795  0.320685  0.498623  1
  Pt  Pt5  1  0.998030  0.498706  0.803580  1
  Pt  Pt6  1  0.500358  0.499336  0.199321  1
  Pt  Pt7  1  0.500632  0.499444  0.801163  1
  Rh  Rh8  1  0.501841  0.003287  0.191649  1
  Rh  Rh9  1  0.501819  0.002750  0.809511  1
  Rh  Rh10  1  0.997316  0.498263  0.192162  1
  Au  Au11  1  0.332147  0.675050  0.498342  1
