# generated using pymatgen
data_LiNd16Cd3IrPt3
_symmetry_space_group_name_H-M   'P 1'
_cell_length_a   10.02249145
_cell_length_b   10.00532008
_cell_length_c   10.00531967
_cell_angle_alpha   60.04429561
_cell_angle_beta   60.16500775
_cell_angle_gamma   60.16501772
_symmetry_Int_Tables_number   1
_chemical_formula_structural   LiNd16Cd3IrPt3
_chemical_formula_sum   'Li1 Nd16 Cd3 Ir1 Pt3'
_cell_volume   711.45471236
_cell_formula_units_Z   1
loop_
 _symmetry_equiv_pos_site_id
 _symmetry_equiv_pos_as_xyz
  1  'x, y, z'
loop_
 _atom_site_type_symbol
 _atom_site_label
 _atom_site_symmetry_multiplicity
 _atom_site_fract_x
 _atom_site_fract_y
 _atom_site_fract_z
 _atom_site_occupancy
  Li  Li0  1  0.571044  0.571032  0.571032  1
  Nd  Nd1  1  0.352456  0.348317  0.348317  1
  Nd  Nd2  1  0.352658  0.348087  0.952581  1
  Nd  Nd3  1  0.352658  0.952581  0.348087  1
  Nd  Nd4  1  0.947516  0.351433  0.351433  1
  Nd  Nd5  1  0.807032  0.191082  0.191082  1
  Nd  Nd6  1  0.187455  0.811339  0.811339  1
  Nd  Nd7  1  0.192374  0.809631  0.192002  1
  Nd  Nd8  1  0.808876  0.186215  0.815426  1
  Nd  Nd9  1  0.192374  0.192002  0.809631  1
  Nd  Nd10  1  0.808876  0.815426  0.186215  1
  Nd  Nd11  1  0.937835  0.563759  0.563759  1
  Nd  Nd12  1  0.563469  0.936801  0.936801  1
  Nd  Nd13  1  0.565378  0.937191  0.562107  1
  Nd  Nd14  1  0.937478  0.561897  0.936548  1
  Nd  Nd15  1  0.565378  0.562107  0.937191  1
  Nd  Nd16  1  0.937478  0.936548  0.561897  1
  Cd  Cd17  1  0.581649  0.582034  0.256629  1
  Cd  Cd18  1  0.581649  0.256629  0.582034  1
  Cd  Cd19  1  0.256962  0.581750  0.581750  1
  Ir  Ir20  1  0.572823  0.143543  0.143543  1
  Pt  Pt21  1  0.142411  0.144565  0.144565  1
  Pt  Pt22  1  0.142085  0.144242  0.571792  1
  Pt  Pt23  1  0.142085  0.571792  0.144242  1
