# generated using pymatgen
data_YbU2S5
_symmetry_space_group_name_H-M   'P 1'
_cell_length_a   7.32292300
_cell_length_b   8.00135600
_cell_length_c   11.58118100
_cell_angle_alpha   90.00000000
_cell_angle_beta   90.00000000
_cell_angle_gamma   90.00000000
_symmetry_Int_Tables_number   1
_chemical_formula_structural   YbU2S5
_chemical_formula_sum   'Yb4 U8 S20'
_cell_volume   678.57977348
_cell_formula_units_Z   4
loop_
 _symmetry_equiv_pos_site_id
 _symmetry_equiv_pos_as_xyz
  1  'x, y, z'
loop_
 _atom_site_type_symbol
 _atom_site_label
 _atom_site_symmetry_multiplicity
 _atom_site_fract_x
 _atom_site_fract_y
 _atom_site_fract_z
 _atom_site_occupancy
  Yb  Yb0  1  0.480633  0.999662  0.319583  1
  Yb  Yb1  1  0.980633  0.000338  0.180417  1
  Yb  Yb2  1  0.519367  0.499662  0.680417  1
  Yb  Yb3  1  0.019367  0.500338  0.819583  1
  U  U4  1  0.922717  0.746541  0.489998  1
  U  U5  1  0.422717  0.253459  0.010002  1
  U  U6  1  0.077283  0.246541  0.510002  1
  U  U7  1  0.577283  0.753459  0.989998  1
  U  U8  1  0.526104  0.000958  0.674159  1
  U  U9  1  0.026104  0.999042  0.825841  1
  U  U10  1  0.473896  0.500958  0.325841  1
  U  U11  1  0.973896  0.499042  0.174159  1
  S  S12  1  0.166399  0.731968  0.311500  1
  S  S13  1  0.666399  0.268032  0.188500  1
  S  S14  1  0.833601  0.231968  0.688500  1
  S  S15  1  0.333601  0.768032  0.811500  1
  S  S16  1  0.539825  0.748368  0.498623  1
  S  S17  1  0.039825  0.251632  0.001377  1
  S  S18  1  0.460175  0.248368  0.501377  1
  S  S19  1  0.960175  0.751632  0.998623  1
  S  S20  1  0.802615  0.761217  0.717345  1
  S  S21  1  0.302615  0.238783  0.782655  1
  S  S22  1  0.197385  0.261217  0.282655  1
  S  S23  1  0.697385  0.738783  0.217345  1
  S  S24  1  0.159367  0.541109  0.593895  1
  S  S25  1  0.659367  0.458891  0.906105  1
  S  S26  1  0.840633  0.041109  0.406105  1
  S  S27  1  0.340633  0.958891  0.093895  1
  S  S28  1  0.831826  0.450145  0.403165  1
  S  S29  1  0.331826  0.549855  0.096835  1
  S  S30  1  0.168174  0.950145  0.596835  1
  S  S31  1  0.668174  0.049855  0.903165  1
