# generated using pymatgen
data_Er5Fe13(P2Ir)6
_symmetry_space_group_name_H-M   'P 1'
_cell_length_a   12.15608946
_cell_length_b   12.10734422
_cell_length_c   3.76218300
_cell_angle_alpha   90.00000000
_cell_angle_beta   90.00000000
_cell_angle_gamma   119.96259370
_symmetry_Int_Tables_number   1
_chemical_formula_structural   Er5Fe13(P2Ir)6
_chemical_formula_sum   'Er5 Fe13 P12 Ir6'
_cell_volume   479.70793407
_cell_formula_units_Z   1
loop_
 _symmetry_equiv_pos_site_id
 _symmetry_equiv_pos_as_xyz
  1  'x, y, z'
loop_
 _atom_site_type_symbol
 _atom_site_label
 _atom_site_symmetry_multiplicity
 _atom_site_fract_x
 _atom_site_fract_y
 _atom_site_fract_z
 _atom_site_occupancy
  Er  Er0  1  0.666482  0.332858  0.000000  1
  Er  Er1  1  0.334407  0.672228  0.000000  1
  Er  Er2  1  0.814067  0.813675  0.500000  1
  Er  Er3  1  0.188131  0.999744  0.500000  1
  Er  Er4  1  0.999056  0.185823  0.500000  1
  Fe  Fe5  1  0.799486  0.179198  0.000000  1
  Fe  Fe6  1  0.819974  0.620954  0.000000  1
  Fe  Fe7  1  0.379472  0.196094  0.000000  1
  Fe  Fe8  1  0.180249  0.803239  0.000000  1
  Fe  Fe9  1  0.622876  0.819687  0.000000  1
  Fe  Fe10  1  0.197382  0.376420  0.000000  1
  Fe  Fe11  1  0.288268  0.285072  0.500000  1
  Fe  Fe12  1  0.713370  0.001212  0.500000  1
  Fe  Fe13  1  0.999852  0.712881  0.500000  1
  Fe  Fe14  1  0.872303  0.359108  0.500000  1
  Fe  Fe15  1  0.640600  0.512626  0.500000  1
  Fe  Fe16  1  0.486285  0.123905  0.500000  1
  Fe  Fe17  1  0.363238  0.881608  0.500000  1
  P  P18  1  0.691554  0.171500  0.500000  1
  P  P19  1  0.828843  0.520771  0.500000  1
  P  P20  1  0.479413  0.305341  0.500000  1
  P  P21  1  0.176466  0.705225  0.500000  1
  P  P22  1  0.522198  0.838515  0.500000  1
  P  P23  1  0.305472  0.471772  0.500000  1
  P  P24  1  0.644413  0.633751  0.000000  1
  P  P25  1  0.363871  0.001335  0.000000  1
  P  P26  1  0.988285  0.355517  0.000000  1
  P  P27  1  0.192517  0.189657  0.000000  1
  P  P28  1  0.808491  0.999568  0.000000  1
  P  P29  1  0.999407  0.808383  0.000000  1
  Ir  Ir30  1  0.450214  0.442782  0.000000  1
  Ir  Ir31  1  0.552740  0.999397  0.000000  1
  Ir  Ir32  1  0.992998  0.550079  0.000000  1
  Ir  Ir33  1  0.512049  0.639102  0.500000  1
  Ir  Ir34  1  0.125491  0.490729  0.500000  1
  Ir  Ir35  1  0.000081  0.000243  0.000000  1
