# generated using pymatgen
data_Li4Ca3HoSi8
_symmetry_space_group_name_H-M   'P 1'
_cell_length_a   3.80315800
_cell_length_b   7.86125875
_cell_length_c   10.50334309
_cell_angle_alpha   89.82758729
_cell_angle_beta   90.00000000
_cell_angle_gamma   90.00000000
_symmetry_Int_Tables_number   1
_chemical_formula_structural   Li4Ca3HoSi8
_chemical_formula_sum   'Li4 Ca3 Ho1 Si8'
_cell_volume   314.02342418
_cell_formula_units_Z   1
loop_
 _symmetry_equiv_pos_site_id
 _symmetry_equiv_pos_as_xyz
  1  'x, y, z'
loop_
 _atom_site_type_symbol
 _atom_site_label
 _atom_site_symmetry_multiplicity
 _atom_site_fract_x
 _atom_site_fract_y
 _atom_site_fract_z
 _atom_site_occupancy
  Li  Li0  1  0.250000  0.997723  0.388362  1
  Li  Li1  1  0.750000  0.000918  0.610591  1
  Li  Li2  1  0.250000  0.497281  0.109420  1
  Li  Li3  1  0.750000  0.508111  0.888277  1
  Ca  Ca4  1  0.750000  0.866618  0.134870  1
  Ca  Ca5  1  0.250000  0.634897  0.637544  1
  Ca  Ca6  1  0.750000  0.363546  0.365054  1
  Ho  Ho7  1  0.250000  0.128270  0.865467  1
  Si  Si8  1  0.750000  0.266965  0.060065  1
  Si  Si9  1  0.250000  0.739213  0.932727  1
  Si  Si10  1  0.750000  0.767483  0.432306  1
  Si  Si11  1  0.250000  0.226252  0.573769  1
  Si  Si12  1  0.750000  0.844242  0.824042  1
  Si  Si13  1  0.250000  0.163944  0.169794  1
  Si  Si14  1  0.750000  0.330492  0.682994  1
  Si  Si15  1  0.250000  0.664048  0.324718  1
