# generated using pymatgen
data_HoNp3(Ni7P4)2
_symmetry_space_group_name_H-M   'P 1'
_cell_length_a   3.70782800
_cell_length_b   9.16750702
_cell_length_c   10.28045400
_cell_angle_alpha   89.99618758
_cell_angle_beta   90.00000000
_cell_angle_gamma   90.00000000
_symmetry_Int_Tables_number   1
_chemical_formula_structural   HoNp3(Ni7P4)2
_chemical_formula_sum   'Ho1 Np3 Ni14 P8'
_cell_volume   349.44845457
_cell_formula_units_Z   1
loop_
 _symmetry_equiv_pos_site_id
 _symmetry_equiv_pos_as_xyz
  1  'x, y, z'
loop_
 _atom_site_type_symbol
 _atom_site_label
 _atom_site_symmetry_multiplicity
 _atom_site_fract_x
 _atom_site_fract_y
 _atom_site_fract_z
 _atom_site_occupancy
  Ho  Ho0  1  0.000000  0.058034  0.395081  1
  Np  Np1  1  0.500000  0.942441  0.897730  1
  Np  Np2  1  0.000000  0.436221  0.180786  1
  Np  Np3  1  0.500000  0.564470  0.681634  1
  Ni  Ni4  1  0.000000  0.057070  0.696994  1
  Ni  Ni5  1  0.500000  0.944114  0.199949  1
  Ni  Ni6  1  0.000000  0.725039  0.508553  1
  Ni  Ni7  1  0.500000  0.274565  0.007958  1
  Ni  Ni8  1  0.000000  0.101296  0.098824  1
  Ni  Ni9  1  0.500000  0.903390  0.593698  1
  Ni  Ni10  1  0.000000  0.744476  0.272151  1
  Ni  Ni11  1  0.500000  0.255590  0.772979  1
  Ni  Ni12  1  0.000000  0.307520  0.605351  1
  Ni  Ni13  1  0.500000  0.691456  0.109052  1
  Ni  Ni14  1  0.000000  0.681326  0.911696  1
  Ni  Ni15  1  0.500000  0.314851  0.411617  1
  Ni  Ni16  1  0.000000  0.417363  0.867512  1
  Ni  Ni17  1  0.500000  0.581212  0.364783  1
  P  P18  1  0.000000  0.175851  0.890861  1
  P  P19  1  0.500000  0.819437  0.390092  1
  P  P20  1  0.000000  0.848492  0.080418  1
  P  P21  1  0.500000  0.153670  0.582975  1
  P  P22  1  0.000000  0.807921  0.716399  1
  P  P23  1  0.500000  0.195582  0.213727  1
  P  P24  1  0.000000  0.476315  0.456765  1
  P  P25  1  0.500000  0.522300  0.960611  1
