# generated using pymatgen
data_Ho2Al4CoNi
_symmetry_space_group_name_H-M   'P 1'
_cell_length_a   5.39618884
_cell_length_b   5.39618902
_cell_length_c   6.94821400
_cell_angle_alpha   90.00000000
_cell_angle_beta   90.00000000
_cell_angle_gamma   136.04001990
_symmetry_Int_Tables_number   1
_chemical_formula_structural   Ho2Al4CoNi
_chemical_formula_sum   'Ho2 Al4 Co1 Ni1'
_cell_volume   140.44439416
_cell_formula_units_Z   1
loop_
 _symmetry_equiv_pos_site_id
 _symmetry_equiv_pos_as_xyz
  1  'x, y, z'
loop_
 _atom_site_type_symbol
 _atom_site_label
 _atom_site_symmetry_multiplicity
 _atom_site_fract_x
 _atom_site_fract_y
 _atom_site_fract_z
 _atom_site_occupancy
  Ho  Ho0  1  0.060099  0.939901  0.250000  1
  Ho  Ho1  1  0.938644  0.061356  0.750000  1
  Al  Al2  1  0.656908  0.343092  0.946255  1
  Al  Al3  1  0.342666  0.657334  0.055671  1
  Al  Al4  1  0.342666  0.657334  0.444329  1
  Al  Al5  1  0.656908  0.343092  0.553745  1
  Co  Co6  1  0.786656  0.213344  0.250000  1
  Ni  Ni7  1  0.215452  0.784548  0.750000  1
