# generated using pymatgen
data_Dy2YEr7Cd3Ru
_symmetry_space_group_name_H-M   'P 1'
_cell_length_a   9.54764700
_cell_length_b   9.54764690
_cell_length_c   9.77700100
_cell_angle_alpha   90.00000000
_cell_angle_beta   90.00000000
_cell_angle_gamma   120.00303963
_symmetry_Int_Tables_number   1
_chemical_formula_structural   Dy2YEr7Cd3Ru
_chemical_formula_sum   'Dy4 Y2 Er14 Cd6 Ru2'
_cell_volume   771.81940139
_cell_formula_units_Z   2
loop_
 _symmetry_equiv_pos_site_id
 _symmetry_equiv_pos_as_xyz
  1  'x, y, z'
loop_
 _atom_site_type_symbol
 _atom_site_label
 _atom_site_symmetry_multiplicity
 _atom_site_fract_x
 _atom_site_fract_y
 _atom_site_fract_z
 _atom_site_occupancy
  Dy  Dy0  1  0.540818  0.459182  0.250000  1
  Dy  Dy1  1  0.540832  0.081664  0.250000  1
  Dy  Dy2  1  0.918336  0.459168  0.250000  1
  Dy  Dy3  1  0.459327  0.540673  0.750000  1
  Y  Y4  1  0.459207  0.918350  0.750000  1
  Y  Y5  1  0.081650  0.540793  0.750000  1
  Er  Er6  1  0.999988  0.000012  0.500042  1
  Er  Er7  1  0.999988  0.000012  0.999958  1
  Er  Er8  1  0.209807  0.790193  0.439927  1
  Er  Er9  1  0.209918  0.419693  0.440068  1
  Er  Er10  1  0.580307  0.790082  0.440068  1
  Er  Er11  1  0.790130  0.209870  0.559793  1
  Er  Er12  1  0.790011  0.580261  0.559911  1
  Er  Er13  1  0.419739  0.209989  0.559911  1
  Er  Er14  1  0.790130  0.209870  0.940207  1
  Er  Er15  1  0.790011  0.580261  0.940089  1
  Er  Er16  1  0.419739  0.209989  0.940089  1
  Er  Er17  1  0.209807  0.790193  0.060073  1
  Er  Er18  1  0.209918  0.419693  0.059932  1
  Er  Er19  1  0.580307  0.790082  0.059932  1
  Cd  Cd20  1  0.885625  0.114375  0.250000  1
  Cd  Cd21  1  0.885634  0.771231  0.250000  1
  Cd  Cd22  1  0.228769  0.114366  0.250000  1
  Cd  Cd23  1  0.114286  0.885714  0.750000  1
  Cd  Cd24  1  0.114486  0.228723  0.750000  1
  Cd  Cd25  1  0.771277  0.885514  0.750000  1
  Ru  Ru26  1  0.333350  0.666650  0.250000  1
  Ru  Ru27  1  0.666605  0.333395  0.750000  1
