# generated using pymatgen
data_Tm4VTc3B16
_symmetry_space_group_name_H-M   'P 1'
_cell_length_a   3.54713900
_cell_length_b   5.94050987
_cell_length_c   11.47590649
_cell_angle_alpha   89.85509895
_cell_angle_beta   90.00000000
_cell_angle_gamma   90.00000000
_symmetry_Int_Tables_number   1
_chemical_formula_structural   Tm4VTc3B16
_chemical_formula_sum   'Tm4 V1 Tc3 B16'
_cell_volume   241.81739645
_cell_formula_units_Z   1
loop_
 _symmetry_equiv_pos_site_id
 _symmetry_equiv_pos_as_xyz
  1  'x, y, z'
loop_
 _atom_site_type_symbol
 _atom_site_label
 _atom_site_symmetry_multiplicity
 _atom_site_fract_x
 _atom_site_fract_y
 _atom_site_fract_z
 _atom_site_occupancy
  Tm  Tm0  1  0.000000  0.626324  0.350412  1
  Tm  Tm1  1  0.000000  0.373762  0.649792  1
  Tm  Tm2  1  0.000000  0.128172  0.149974  1
  Tm  Tm3  1  0.000000  0.871675  0.848784  1
  V  V4  1  0.000000  0.871391  0.582390  1
  Tc  Tc5  1  0.000000  0.635247  0.088004  1
  Tc  Tc6  1  0.000000  0.365209  0.913188  1
  Tc  Tc7  1  0.000000  0.127764  0.416356  1
  B  B8  1  0.500000  0.787284  0.186246  1
  B  B9  1  0.500000  0.212770  0.814188  1
  B  B10  1  0.500000  0.287279  0.315313  1
  B  B11  1  0.500000  0.712545  0.685085  1
  B  B12  1  0.500000  0.865286  0.031047  1
  B  B13  1  0.500000  0.134941  0.968883  1
  B  B14  1  0.500000  0.365572  0.468191  1
  B  B15  1  0.500000  0.633998  0.531993  1
  B  B16  1  0.500000  0.885669  0.452400  1
  B  B17  1  0.500000  0.114564  0.547829  1
  B  B18  1  0.500000  0.386294  0.047816  1
  B  B19  1  0.500000  0.614313  0.952116  1
  B  B20  1  0.500000  0.977749  0.306906  1
  B  B21  1  0.500000  0.022276  0.693147  1
  B  B22  1  0.500000  0.476351  0.193354  1
  B  B23  1  0.500000  0.523564  0.806586  1
