# generated using pymatgen
data_Ho17Sc3(Pt2Rh)4
_symmetry_space_group_name_H-M   'P 1'
_cell_length_a   10.91973100
_cell_length_b   10.91973100
_cell_length_c   6.26484600
_cell_angle_alpha   90.00000000
_cell_angle_beta   90.00000000
_cell_angle_gamma   90.00000000
_symmetry_Int_Tables_number   1
_chemical_formula_structural   Ho17Sc3(Pt2Rh)4
_chemical_formula_sum   'Ho17 Sc3 Pt8 Rh4'
_cell_volume   747.02352679
_cell_formula_units_Z   1
loop_
 _symmetry_equiv_pos_site_id
 _symmetry_equiv_pos_as_xyz
  1  'x, y, z'
loop_
 _atom_site_type_symbol
 _atom_site_label
 _atom_site_symmetry_multiplicity
 _atom_site_fract_x
 _atom_site_fract_y
 _atom_site_fract_z
 _atom_site_occupancy
  Ho  Ho0  1  0.289795  0.086847  0.375307  1
  Ho  Ho1  1  0.289738  0.913550  0.875018  1
  Ho  Ho2  1  0.710262  0.086450  0.875018  1
  Ho  Ho3  1  0.710205  0.913153  0.375307  1
  Ho  Ho4  1  0.586930  0.791949  0.873922  1
  Ho  Ho5  1  0.587985  0.206253  0.373502  1
  Ho  Ho6  1  0.412015  0.793747  0.373502  1
  Ho  Ho7  1  0.413070  0.208051  0.873922  1
  Ho  Ho8  1  0.206253  0.412015  0.626498  1
  Ho  Ho9  1  0.208051  0.586930  0.126078  1
  Ho  Ho10  1  0.791949  0.413070  0.126078  1
  Ho  Ho11  1  0.793747  0.587985  0.626498  1
  Ho  Ho12  1  0.913550  0.710262  0.124982  1
  Ho  Ho13  1  0.913153  0.289795  0.624693  1
  Ho  Ho14  1  0.086847  0.710205  0.624693  1
  Ho  Ho15  1  0.086450  0.289738  0.124982  1
  Ho  Ho16  1  0.500000  0.500000  0.500000  1
  Sc  Sc17  1  0.000000  0.000000  0.500000  1
  Sc  Sc18  1  0.000000  0.000000  0.000000  1
  Sc  Sc19  1  0.500000  0.500000  0.000000  1
  Pt  Pt20  1  0.851760  0.148202  0.249909  1
  Pt  Pt21  1  0.851798  0.851760  0.750091  1
  Pt  Pt22  1  0.148202  0.148240  0.750091  1
  Pt  Pt23  1  0.148240  0.851798  0.249909  1
  Pt  Pt24  1  0.651835  0.347322  0.754992  1
  Pt  Pt25  1  0.652678  0.651835  0.245008  1
  Pt  Pt26  1  0.347322  0.348165  0.245008  1
  Pt  Pt27  1  0.348165  0.652678  0.754992  1
  Rh  Rh28  1  0.500000  0.000000  0.118744  1
  Rh  Rh29  1  0.500000  0.000000  0.618666  1
  Rh  Rh30  1  0.000000  0.500000  0.881256  1
  Rh  Rh31  1  0.000000  0.500000  0.381334  1
