# generated using pymatgen
data_Tm7Lu3(Bi2Te)2
_symmetry_space_group_name_H-M   'P 1'
_cell_length_a   8.06956411
_cell_length_b   9.36029566
_cell_length_c   11.80439900
_cell_angle_alpha   90.00315851
_cell_angle_beta   89.99059929
_cell_angle_gamma   90.02134497
_symmetry_Int_Tables_number   1
_chemical_formula_structural   Tm7Lu3(Bi2Te)2
_chemical_formula_sum   'Tm14 Lu6 Bi8 Te4'
_cell_volume   891.62756669
_cell_formula_units_Z   2
loop_
 _symmetry_equiv_pos_site_id
 _symmetry_equiv_pos_as_xyz
  1  'x, y, z'
loop_
 _atom_site_type_symbol
 _atom_site_label
 _atom_site_symmetry_multiplicity
 _atom_site_fract_x
 _atom_site_fract_y
 _atom_site_fract_z
 _atom_site_occupancy
  Tm  Tm0  1  0.521997  0.249790  0.989310  1
  Tm  Tm1  1  0.355350  0.250074  0.284937  1
  Tm  Tm2  1  0.644497  0.750306  0.715359  1
  Tm  Tm3  1  0.143859  0.750382  0.784697  1
  Tm  Tm4  1  0.856186  0.250195  0.215116  1
  Tm  Tm5  1  0.180050  0.249922  0.783955  1
  Tm  Tm6  1  0.820202  0.750228  0.215995  1
  Tm  Tm7  1  0.320166  0.750387  0.284328  1
  Tm  Tm8  1  0.680179  0.250071  0.716005  1
  Tm  Tm9  1  0.811625  0.565079  0.942149  1
  Tm  Tm10  1  0.688717  0.064496  0.442269  1
  Tm  Tm11  1  0.188310  0.435239  0.057746  1
  Tm  Tm12  1  0.688412  0.434860  0.442265  1
  Tm  Tm13  1  0.311298  0.564719  0.557750  1
  Lu  Lu14  1  0.021688  0.250014  0.510346  1
  Lu  Lu15  1  0.978494  0.750342  0.489668  1
  Lu  Lu16  1  0.478669  0.750315  0.010281  1
  Lu  Lu17  1  0.188776  0.066032  0.057852  1
  Lu  Lu18  1  0.811220  0.933973  0.941941  1
  Lu  Lu19  1  0.311011  0.933855  0.557864  1
  Bi  Bi20  1  0.069420  0.003631  0.326246  1
  Bi  Bi21  1  0.930662  0.996727  0.673715  1
  Bi  Bi22  1  0.429939  0.996058  0.825794  1
  Bi  Bi23  1  0.930654  0.503683  0.673658  1
  Bi  Bi24  1  0.569211  0.003370  0.174143  1
  Bi  Bi25  1  0.069456  0.496717  0.326304  1
  Bi  Bi26  1  0.569426  0.496858  0.174040  1
  Bi  Bi27  1  0.429934  0.504211  0.825822  1
  Te  Te28  1  0.400990  0.248524  0.542997  1
  Te  Te29  1  0.598705  0.749855  0.457528  1
  Te  Te30  1  0.099501  0.751456  0.042991  1
  Te  Te31  1  0.901396  0.248631  0.956929  1
