# generated using pymatgen
data_Li3Ru4Rh2W3
_symmetry_space_group_name_H-M   'P 1'
_cell_length_a   4.27562900
_cell_length_b   6.08567500
_cell_length_c   12.83245300
_cell_angle_alpha   90.00107244
_cell_angle_beta   90.00077260
_cell_angle_gamma   90.00045376
_symmetry_Int_Tables_number   1
_chemical_formula_structural   Li3Ru4Rh2W3
_chemical_formula_sum   'Li6 Ru8 Rh4 W6'
_cell_volume   333.90156287
_cell_formula_units_Z   2
loop_
 _symmetry_equiv_pos_site_id
 _symmetry_equiv_pos_as_xyz
  1  'x, y, z'
loop_
 _atom_site_type_symbol
 _atom_site_label
 _atom_site_symmetry_multiplicity
 _atom_site_fract_x
 _atom_site_fract_y
 _atom_site_fract_z
 _atom_site_occupancy
  Li  Li0  1  0.000002  0.000067  0.000160  1
  Li  Li1  1  0.499674  0.499918  0.166413  1
  Li  Li2  1  0.999685  0.000065  0.333335  1
  Li  Li3  1  0.499993  0.499962  0.500140  1
  Li  Li4  1  0.000293  0.000031  0.666586  1
  Li  Li5  1  0.500313  0.499944  0.833340  1
  Ru  Ru6  1  0.499766  0.250168  0.330972  1
  Ru  Ru7  1  0.499755  0.749846  0.330967  1
  Ru  Ru8  1  0.999994  0.250177  0.499150  1
  Ru  Ru9  1  0.999989  0.749828  0.499149  1
  Ru  Ru10  1  0.500246  0.249834  0.667555  1
  Ru  Ru11  1  0.500242  0.750157  0.667552  1
  Ru  Ru12  1  0.000254  0.249815  0.835700  1
  Ru  Ru13  1  0.000252  0.750178  0.835702  1
  Rh  Rh14  1  0.500016  0.250500  0.001593  1
  Rh  Rh15  1  0.500025  0.749485  0.001595  1
  Rh  Rh16  1  0.999755  0.249482  0.165053  1
  Rh  Rh17  1  0.999741  0.750542  0.165051  1
  W  W18  1  0.000021  0.500029  0.994015  1
  W  W19  1  0.499748  0.999972  0.172692  1
  W  W20  1  0.999788  0.500007  0.338883  1
  W  W21  1  0.500002  0.000003  0.500227  1
  W  W22  1  0.000216  0.499998  0.666406  1
  W  W23  1  0.500233  0.999992  0.827763  1
