# generated using pymatgen
data_Hf16ReNi4MoRh2
_symmetry_space_group_name_H-M   'P 1'
_cell_length_a   8.65138444
_cell_length_b   8.66708176
_cell_length_c   8.62204400
_cell_angle_alpha   60.17175532
_cell_angle_beta   60.11213148
_cell_angle_gamma   60.22849115
_symmetry_Int_Tables_number   1
_chemical_formula_structural   Hf16ReNi4MoRh2
_chemical_formula_sum   'Hf16 Re1 Ni4 Mo1 Rh2'
_cell_volume   458.91209782
_cell_formula_units_Z   1
loop_
 _symmetry_equiv_pos_site_id
 _symmetry_equiv_pos_as_xyz
  1  'x, y, z'
loop_
 _atom_site_type_symbol
 _atom_site_label
 _atom_site_symmetry_multiplicity
 _atom_site_fract_x
 _atom_site_fract_y
 _atom_site_fract_z
 _atom_site_occupancy
  Hf  Hf0  1  0.683198  0.105766  0.105478  1
  Hf  Hf1  1  0.106482  0.680090  0.106778  1
  Hf  Hf2  1  0.103401  0.103831  0.689475  1
  Hf  Hf3  1  0.103348  0.103888  0.103241  1
  Hf  Hf4  1  0.316445  0.316460  0.683532  1
  Hf  Hf5  1  0.685893  0.686565  0.313748  1
  Hf  Hf6  1  0.316066  0.690896  0.314845  1
  Hf  Hf7  1  0.690080  0.316202  0.678930  1
  Hf  Hf8  1  0.690053  0.316209  0.314757  1
  Hf  Hf9  1  0.316085  0.690905  0.678173  1
  Hf  Hf10  1  0.953522  0.953826  0.546388  1
  Hf  Hf11  1  0.548261  0.548523  0.951576  1
  Hf  Hf12  1  0.948942  0.549027  0.952276  1
  Hf  Hf13  1  0.550921  0.946740  0.551602  1
  Hf  Hf14  1  0.551064  0.946737  0.950690  1
  Hf  Hf15  1  0.948967  0.549092  0.549642  1
  Re  Re16  1  0.995415  0.333142  0.335706  1
  Ni  Ni17  1  0.323227  0.887701  0.894601  1
  Ni  Ni18  1  0.887836  0.324266  0.893872  1
  Ni  Ni19  1  0.892069  0.891326  0.320775  1
  Ni  Ni20  1  0.892289  0.891158  0.895955  1
  Mo  Mo21  1  0.331516  0.000688  0.333884  1
  Rh  Rh22  1  0.332469  0.333453  0.995941  1
  Rh  Rh23  1  0.332446  0.333505  0.338132  1
