# generated using pymatgen
data_Be(Nb2Si)5
_symmetry_space_group_name_H-M   'P 1'
_cell_length_a   7.55879992
_cell_length_b   7.55879967
_cell_length_c   7.55134286
_cell_angle_alpha   128.46281503
_cell_angle_beta   128.46281689
_cell_angle_gamma   75.94897519
_symmetry_Int_Tables_number   1
_chemical_formula_structural   Be(Nb2Si)5
_chemical_formula_sum   'Be1 Nb10 Si5'
_cell_volume   257.11435230
_cell_formula_units_Z   1
loop_
 _symmetry_equiv_pos_site_id
 _symmetry_equiv_pos_as_xyz
  1  'x, y, z'
loop_
 _atom_site_type_symbol
 _atom_site_label
 _atom_site_symmetry_multiplicity
 _atom_site_fract_x
 _atom_site_fract_y
 _atom_site_fract_z
 _atom_site_occupancy
  Be  Be0  1  0.124940  0.624940  0.749880  1
  Nb  Nb1  1  0.018665  0.188515  0.504957  1
  Nb  Nb2  1  0.518164  0.018164  0.834464  1
  Nb  Nb3  1  0.180701  0.680701  0.155648  1
  Nb  Nb4  1  0.474947  0.974947  0.155648  1
  Nb  Nb5  1  0.688515  0.518665  0.504957  1
  Nb  Nb6  1  0.986291  0.816442  0.504957  1
  Nb  Nb7  1  0.316442  0.486291  0.504957  1
  Nb  Nb8  1  0.816300  0.316300  0.834464  1
  Nb  Nb9  1  0.496257  0.500442  0.996698  1
  Nb  Nb10  1  0.000442  0.996257  0.996698  1
  Si  Si11  1  0.628023  0.869698  0.497721  1
  Si  Si12  1  0.369698  0.128023  0.497721  1
  Si  Si13  1  0.878557  0.378557  0.257114  1
  Si  Si14  1  0.751029  0.751029  0.002058  1
  Si  Si15  1  0.251029  0.251029  0.002058  1
