# generated using pymatgen
data_Pr2Ho3Bi4
_symmetry_space_group_name_H-M   'P 1'
_cell_length_a   8.43274900
_cell_length_b   8.32392900
_cell_length_c   15.68166100
_cell_angle_alpha   90.00000000
_cell_angle_beta   90.00000000
_cell_angle_gamma   90.00000000
_symmetry_Int_Tables_number   1
_chemical_formula_structural   Pr2Ho3Bi4
_chemical_formula_sum   'Pr8 Ho12 Bi16'
_cell_volume   1100.75230153
_cell_formula_units_Z   4
loop_
 _symmetry_equiv_pos_site_id
 _symmetry_equiv_pos_as_xyz
  1  'x, y, z'
loop_
 _atom_site_type_symbol
 _atom_site_label
 _atom_site_symmetry_multiplicity
 _atom_site_fract_x
 _atom_site_fract_y
 _atom_site_fract_z
 _atom_site_occupancy
  Pr  Pr0  1  0.479281  0.676528  0.591138  1
  Pr  Pr1  1  0.979281  0.823472  0.908862  1
  Pr  Pr2  1  0.520719  0.323472  0.091138  1
  Pr  Pr3  1  0.020719  0.176528  0.408862  1
  Pr  Pr4  1  0.520719  0.323472  0.408862  1
  Pr  Pr5  1  0.020719  0.176528  0.091138  1
  Pr  Pr6  1  0.479281  0.676528  0.908862  1
  Pr  Pr7  1  0.979281  0.823472  0.591138  1
  Ho  Ho8  1  0.649524  0.147851  0.623516  1
  Ho  Ho9  1  0.149524  0.352149  0.876484  1
  Ho  Ho10  1  0.350476  0.852149  0.123516  1
  Ho  Ho11  1  0.850476  0.647851  0.376484  1
  Ho  Ho12  1  0.350476  0.852149  0.376484  1
  Ho  Ho13  1  0.850476  0.647851  0.123516  1
  Ho  Ho14  1  0.649524  0.147851  0.876484  1
  Ho  Ho15  1  0.149524  0.352149  0.623516  1
  Ho  Ho16  1  0.809179  0.500763  0.750000  1
  Ho  Ho17  1  0.309179  0.999237  0.750000  1
  Ho  Ho18  1  0.190821  0.499237  0.250000  1
  Ho  Ho19  1  0.690821  0.000763  0.250000  1
  Bi  Bi20  1  0.701472  0.956255  0.453326  1
  Bi  Bi21  1  0.201472  0.543745  0.046674  1
  Bi  Bi22  1  0.298528  0.043745  0.953326  1
  Bi  Bi23  1  0.798528  0.456255  0.546674  1
  Bi  Bi24  1  0.298528  0.043745  0.546674  1
  Bi  Bi25  1  0.798528  0.456255  0.953326  1
  Bi  Bi26  1  0.701472  0.956255  0.046674  1
  Bi  Bi27  1  0.201472  0.543745  0.453326  1
  Bi  Bi28  1  0.450483  0.365349  0.750000  1
  Bi  Bi29  1  0.950483  0.134651  0.750000  1
  Bi  Bi30  1  0.549517  0.634651  0.250000  1
  Bi  Bi31  1  0.049517  0.865349  0.250000  1
  Bi  Bi32  1  0.657599  0.843564  0.750000  1
  Bi  Bi33  1  0.157599  0.656436  0.750000  1
  Bi  Bi34  1  0.342401  0.156436  0.250000  1
  Bi  Bi35  1  0.842401  0.343564  0.250000  1
