# generated using pymatgen
data_Ca2SmEr3(Si3Ru)8
_symmetry_space_group_name_H-M   'P 1'
_cell_length_a   10.14738258
_cell_length_b   10.14735206
_cell_length_c   8.15348517
_cell_angle_alpha   90.03986708
_cell_angle_beta   89.96042724
_cell_angle_gamma   132.61048602
_symmetry_Int_Tables_number   1
_chemical_formula_structural   Ca2SmEr3(Si3Ru)8
_chemical_formula_sum   'Ca2 Sm1 Er3 Si24 Ru8'
_cell_volume   617.89107433
_cell_formula_units_Z   1
loop_
 _symmetry_equiv_pos_site_id
 _symmetry_equiv_pos_as_xyz
  1  'x, y, z'
loop_
 _atom_site_type_symbol
 _atom_site_label
 _atom_site_symmetry_multiplicity
 _atom_site_fract_x
 _atom_site_fract_y
 _atom_site_fract_z
 _atom_site_occupancy
  Ca  Ca0  1  0.499076  0.999068  0.249999  1
  Ca  Ca1  1  0.001182  0.501184  0.749986  1
  Sm  Sm2  1  0.503040  0.003042  0.749999  1
  Er  Er3  1  0.997731  0.497715  0.250000  1
  Er  Er4  1  0.500091  0.499998  0.499920  1
  Er  Er5  1  0.000013  0.000108  0.000088  1
  Si  Si6  1  0.389110  0.155739  0.003820  1
  Si  Si7  1  0.655736  0.889103  0.496190  1
  Si  Si8  1  0.111131  0.343688  0.503071  1
  Si  Si9  1  0.843698  0.611141  0.996929  1
  Si  Si10  1  0.611534  0.844312  0.994848  1
  Si  Si11  1  0.344299  0.111522  0.505153  1
  Si  Si12  1  0.888447  0.656050  0.494020  1
  Si  Si13  1  0.156055  0.388458  0.005972  1
  Si  Si14  1  0.612376  0.379391  0.227315  1
  Si  Si15  1  0.879389  0.112376  0.272684  1
  Si  Si16  1  0.888776  0.122363  0.727821  1
  Si  Si17  1  0.622365  0.388779  0.772180  1
  Si  Si18  1  0.388966  0.622459  0.771995  1
  Si  Si19  1  0.122453  0.888964  0.728008  1
  Si  Si20  1  0.708213  0.295933  0.001907  1
  Si  Si21  1  0.795920  0.208203  0.498092  1
  Si  Si22  1  0.292581  0.704037  0.001636  1
  Si  Si23  1  0.204034  0.792581  0.498353  1
  Si  Si24  1  0.164911  0.169232  0.333221  1
  Si  Si25  1  0.669240  0.664918  0.166784  1
  Si  Si26  1  0.334919  0.330713  0.832920  1
  Si  Si27  1  0.830706  0.834918  0.667080  1
  Si  Si28  1  0.376075  0.609003  0.227647  1
  Si  Si29  1  0.108997  0.876067  0.272352  1
  Ru  Ru30  1  0.625520  0.626591  0.873197  1
  Ru  Ru31  1  0.126581  0.125515  0.626810  1
  Ru  Ru32  1  0.873754  0.873259  0.373583  1
  Ru  Ru33  1  0.373257  0.373761  0.126422  1
  Ru  Ru34  1  0.329762  0.667461  0.498592  1
  Ru  Ru35  1  0.167467  0.829761  0.001410  1
  Ru  Ru36  1  0.669421  0.333163  0.498405  1
  Ru  Ru37  1  0.833175  0.169425  0.001590  1
