# generated using pymatgen
data_Cs4HoSbCl12
_symmetry_space_group_name_H-M   'P 1'
_cell_length_a   7.71937900
_cell_length_b   7.71937900
_cell_length_c   10.80871200
_cell_angle_alpha   90.00000000
_cell_angle_beta   90.00000000
_cell_angle_gamma   90.00000000
_symmetry_Int_Tables_number   1
_chemical_formula_structural   Cs4HoSbCl12
_chemical_formula_sum   'Cs4 Ho1 Sb1 Cl12'
_cell_volume   644.07830890
_cell_formula_units_Z   1
loop_
 _symmetry_equiv_pos_site_id
 _symmetry_equiv_pos_as_xyz
  1  'x, y, z'
loop_
 _atom_site_type_symbol
 _atom_site_label
 _atom_site_symmetry_multiplicity
 _atom_site_fract_x
 _atom_site_fract_y
 _atom_site_fract_z
 _atom_site_occupancy
  Cs  Cs0  1  0.500000  0.000000  0.779156  1
  Cs  Cs1  1  0.000000  0.500000  0.220844  1
  Cs  Cs2  1  0.500000  0.000000  0.220844  1
  Cs  Cs3  1  0.000000  0.500000  0.779156  1
  Ho  Ho4  1  0.000000  0.000000  0.000000  1
  Sb  Sb5  1  0.500000  0.500000  0.500000  1
  Cl  Cl6  1  0.000000  0.000000  0.755230  1
  Cl  Cl7  1  0.500000  0.500000  0.276422  1
  Cl  Cl8  1  0.721236  0.721236  0.500000  1
  Cl  Cl9  1  0.241822  0.241822  0.000000  1
  Cl  Cl10  1  0.721236  0.278764  0.500000  1
  Cl  Cl11  1  0.241822  0.758178  0.000000  1
  Cl  Cl12  1  0.000000  0.000000  0.244770  1
  Cl  Cl13  1  0.500000  0.500000  0.723578  1
  Cl  Cl14  1  0.278764  0.278764  0.500000  1
  Cl  Cl15  1  0.758178  0.758178  0.000000  1
  Cl  Cl16  1  0.278764  0.721236  0.500000  1
  Cl  Cl17  1  0.758178  0.241822  0.000000  1
