# generated using pymatgen
data_HoLu2Al3SiAu2
_symmetry_space_group_name_H-M   'P 1'
_cell_length_a   6.94439823
_cell_length_b   6.97133070
_cell_length_c   4.27808000
_cell_angle_alpha   90.00000000
_cell_angle_beta   90.00000000
_cell_angle_gamma   120.38650159
_symmetry_Int_Tables_number   1
_chemical_formula_structural   HoLu2Al3SiAu2
_chemical_formula_sum   'Ho1 Lu2 Al3 Si1 Au2'
_cell_volume   178.65912502
_cell_formula_units_Z   1
loop_
 _symmetry_equiv_pos_site_id
 _symmetry_equiv_pos_as_xyz
  1  'x, y, z'
loop_
 _atom_site_type_symbol
 _atom_site_label
 _atom_site_symmetry_multiplicity
 _atom_site_fract_x
 _atom_site_fract_y
 _atom_site_fract_z
 _atom_site_occupancy
  Ho  Ho0  1  0.426255  0.422509  0.500000  1
  Lu  Lu1  1  0.577605  0.001976  0.500000  1
  Lu  Lu2  1  0.999491  0.576892  0.500000  1
  Al  Al3  1  0.751668  0.758771  0.000000  1
  Al  Al4  1  0.242075  0.994301  0.000000  1
  Al  Al5  1  0.004861  0.247966  0.000000  1
  Si  Si6  1  0.668405  0.331392  0.000000  1
  Au  Au7  1  0.332161  0.668729  0.000000  1
  Au  Au8  1  0.997478  0.997466  0.500000  1
