# generated using pymatgen
data_Ho2TmSiAg3Ge2
_symmetry_space_group_name_H-M   'P 1'
_cell_length_a   7.11327103
_cell_length_b   7.12224110
_cell_length_c   4.18126300
_cell_angle_alpha   90.00000000
_cell_angle_beta   90.00000000
_cell_angle_gamma   120.05016298
_symmetry_Int_Tables_number   1
_chemical_formula_structural   Ho2TmSiAg3Ge2
_chemical_formula_sum   'Ho2 Tm1 Si1 Ag3 Ge2'
_cell_volume   183.35991441
_cell_formula_units_Z   1
loop_
 _symmetry_equiv_pos_site_id
 _symmetry_equiv_pos_as_xyz
  1  'x, y, z'
loop_
 _atom_site_type_symbol
 _atom_site_label
 _atom_site_symmetry_multiplicity
 _atom_site_fract_x
 _atom_site_fract_y
 _atom_site_fract_z
 _atom_site_occupancy
  Ho  Ho0  1  0.416510  0.418457  0.500000  1
  Ho  Ho1  1  0.581811  0.998542  0.500000  1
  Tm  Tm2  1  0.001795  0.583729  0.500000  1
  Si  Si3  1  0.332037  0.666173  0.000000  1
  Ag  Ag4  1  0.742923  0.747902  0.000000  1
  Ag  Ag5  1  0.251583  0.994008  0.000000  1
  Ag  Ag6  1  0.005455  0.258054  0.000000  1
  Ge  Ge7  1  0.667927  0.334134  0.000000  1
  Ge  Ge8  1  0.999960  0.999002  0.500000  1
