# generated using pymatgen
data_Ac2NdEr(ZnSn)4
_symmetry_space_group_name_H-M   'P 1'
_cell_length_a   4.60325900
_cell_length_b   4.60325818
_cell_length_c   17.24159200
_cell_angle_alpha   90.00000000
_cell_angle_beta   90.00000000
_cell_angle_gamma   120.00001307
_symmetry_Int_Tables_number   1
_chemical_formula_structural   Ac2NdEr(ZnSn)4
_chemical_formula_sum   'Ac2 Nd1 Er1 Zn4 Sn4'
_cell_volume   316.40160873
_cell_formula_units_Z   1
loop_
 _symmetry_equiv_pos_site_id
 _symmetry_equiv_pos_as_xyz
  1  'x, y, z'
loop_
 _atom_site_type_symbol
 _atom_site_label
 _atom_site_symmetry_multiplicity
 _atom_site_fract_x
 _atom_site_fract_y
 _atom_site_fract_z
 _atom_site_occupancy
  Ac  Ac0  1  0.000000  0.000000  0.496567  1
  Ac  Ac1  1  0.000000  0.000000  0.003433  1
  Nd  Nd2  1  0.000000  0.000000  0.750000  1
  Er  Er3  1  0.000000  0.000000  0.250000  1
  Zn  Zn4  1  0.333333  0.666667  0.329588  1
  Zn  Zn5  1  0.666667  0.333333  0.663365  1
  Zn  Zn6  1  0.666667  0.333333  0.836635  1
  Zn  Zn7  1  0.333333  0.666667  0.170412  1
  Sn  Sn8  1  0.333333  0.666667  0.878271  1
  Sn  Sn9  1  0.666667  0.333333  0.126413  1
  Sn  Sn10  1  0.666667  0.333333  0.373587  1
  Sn  Sn11  1  0.333333  0.666667  0.621729  1
