# generated using pymatgen
data_Ti3BeTc3Ge2
_symmetry_space_group_name_H-M   'P 1'
_cell_length_a   6.80925300
_cell_length_b   6.80925318
_cell_length_c   3.21539200
_cell_angle_alpha   90.00000000
_cell_angle_beta   90.00000000
_cell_angle_gamma   120.00000398
_symmetry_Int_Tables_number   1
_chemical_formula_structural   Ti3BeTc3Ge2
_chemical_formula_sum   'Ti3 Be1 Tc3 Ge2'
_cell_volume   129.11107420
_cell_formula_units_Z   1
loop_
 _symmetry_equiv_pos_site_id
 _symmetry_equiv_pos_as_xyz
  1  'x, y, z'
loop_
 _atom_site_type_symbol
 _atom_site_label
 _atom_site_symmetry_multiplicity
 _atom_site_fract_x
 _atom_site_fract_y
 _atom_site_fract_z
 _atom_site_occupancy
  Ti  Ti0  1  0.000000  0.373697  0.500000  1
  Ti  Ti1  1  0.626303  0.626303  0.500000  1
  Ti  Ti2  1  0.373697  0.000000  0.500000  1
  Be  Be3  1  0.000000  0.000000  0.500000  1
  Tc  Tc4  1  0.000000  0.750054  0.000000  1
  Tc  Tc5  1  0.249946  0.249946  0.000000  1
  Tc  Tc6  1  0.750054  0.000000  0.000000  1
  Ge  Ge7  1  0.333333  0.666667  0.000000  1
  Ge  Ge8  1  0.666667  0.333333  0.000000  1
