# generated using pymatgen
data_Sr2CdB2Rh7
_symmetry_space_group_name_H-M   'P 1'
_cell_length_a   5.50155100
_cell_length_b   5.50154945
_cell_length_c   7.45024900
_cell_angle_alpha   90.00000000
_cell_angle_beta   90.00000000
_cell_angle_gamma   119.99999129
_symmetry_Int_Tables_number   1
_chemical_formula_structural   Sr2CdB2Rh7
_chemical_formula_sum   'Sr2 Cd1 B2 Rh7'
_cell_volume   195.28623010
_cell_formula_units_Z   1
loop_
 _symmetry_equiv_pos_site_id
 _symmetry_equiv_pos_as_xyz
  1  'x, y, z'
loop_
 _atom_site_type_symbol
 _atom_site_label
 _atom_site_symmetry_multiplicity
 _atom_site_fract_x
 _atom_site_fract_y
 _atom_site_fract_z
 _atom_site_occupancy
  Sr  Sr0  1  0.000000  0.000000  0.500000  1
  Sr  Sr1  1  0.000000  0.000000  0.000000  1
  Cd  Cd2  1  0.666667  0.333333  0.000000  1
  B  B3  1  0.666667  0.333333  0.500000  1
  B  B4  1  0.333333  0.666667  0.500000  1
  Rh  Rh5  1  0.497580  0.502420  0.697052  1
  Rh  Rh6  1  0.497580  0.995160  0.697052  1
  Rh  Rh7  1  0.004840  0.502420  0.697052  1
  Rh  Rh8  1  0.497580  0.502420  0.302948  1
  Rh  Rh9  1  0.497580  0.995160  0.302948  1
  Rh  Rh10  1  0.004840  0.502420  0.302948  1
  Rh  Rh11  1  0.333333  0.666667  0.000000  1
