# generated using pymatgen
data_Lu4MgAlGa4
_symmetry_space_group_name_H-M   'P 1'
_cell_length_a   7.08022300
_cell_length_b   7.08022300
_cell_length_c   4.28788600
_cell_angle_alpha   90.00000000
_cell_angle_beta   90.00000000
_cell_angle_gamma   90.00000000
_symmetry_Int_Tables_number   1
_chemical_formula_structural   Lu4MgAlGa4
_chemical_formula_sum   'Lu4 Mg1 Al1 Ga4'
_cell_volume   214.94982878
_cell_formula_units_Z   1
loop_
 _symmetry_equiv_pos_site_id
 _symmetry_equiv_pos_as_xyz
  1  'x, y, z'
loop_
 _atom_site_type_symbol
 _atom_site_label
 _atom_site_symmetry_multiplicity
 _atom_site_fract_x
 _atom_site_fract_y
 _atom_site_fract_z
 _atom_site_occupancy
  Lu  Lu0  1  0.320220  0.165981  0.499999  1
  Lu  Lu1  1  0.834019  0.320220  0.499999  1
  Lu  Lu2  1  0.165981  0.679780  0.499999  1
  Lu  Lu3  1  0.679780  0.834019  0.499999  1
  Mg  Mg4  1  0.500000  0.500000  0.000000  1
  Al  Al5  1  0.000000  0.000000  0.000000  1
  Ga  Ga6  1  0.631020  0.126848  0.000000  1
  Ga  Ga7  1  0.126848  0.368980  0.000000  1
  Ga  Ga8  1  0.873151  0.631020  0.000000  1
  Ga  Ga9  1  0.368980  0.873151  0.000000  1
