# generated using pymatgen
data_AcTh(SiTc2)4
_symmetry_space_group_name_H-M   'P 1'
_cell_length_a   4.19839800
_cell_length_b   7.27994546
_cell_length_c   15.77734705
_cell_angle_alpha   89.81626309
_cell_angle_beta   90.00000000
_cell_angle_gamma   90.00000000
_symmetry_Int_Tables_number   1
_chemical_formula_structural   AcTh(SiTc2)4
_chemical_formula_sum   'Ac2 Th2 Si8 Tc16'
_cell_volume   482.21806729
_cell_formula_units_Z   2
loop_
 _symmetry_equiv_pos_site_id
 _symmetry_equiv_pos_as_xyz
  1  'x, y, z'
loop_
 _atom_site_type_symbol
 _atom_site_label
 _atom_site_symmetry_multiplicity
 _atom_site_fract_x
 _atom_site_fract_y
 _atom_site_fract_z
 _atom_site_occupancy
  Ac  Ac0  1  0.000000  0.588117  0.117394  1
  Ac  Ac1  1  0.000000  0.411883  0.882606  1
  Th  Th2  1  0.500000  0.091081  0.384716  1
  Th  Th3  1  0.500000  0.908919  0.615284  1
  Si  Si4  1  0.000000  0.823452  0.473444  1
  Si  Si5  1  0.000000  0.176548  0.526556  1
  Si  Si6  1  0.500000  0.310788  0.029356  1
  Si  Si7  1  0.500000  0.689212  0.970644  1
  Si  Si8  1  0.000000  0.309934  0.277195  1
  Si  Si9  1  0.000000  0.690066  0.722805  1
  Si  Si10  1  0.500000  0.810943  0.230213  1
  Si  Si11  1  0.500000  0.189057  0.769787  1
  Tc  Tc12  1  0.000000  0.131641  0.054406  1
  Tc  Tc13  1  0.000000  0.868359  0.945594  1
  Tc  Tc14  1  0.500000  0.642143  0.449615  1
  Tc  Tc15  1  0.500000  0.357857  0.550385  1
  Tc  Tc16  1  0.000000  0.739853  0.322300  1
  Tc  Tc17  1  0.000000  0.260147  0.677700  1
  Tc  Tc18  1  0.500000  0.229894  0.184486  1
  Tc  Tc19  1  0.500000  0.770106  0.815514  1
  Tc  Tc20  1  0.000000  0.433347  0.421292  1
  Tc  Tc21  1  0.000000  0.566653  0.578708  1
  Tc  Tc22  1  0.500000  0.938092  0.080485  1
  Tc  Tc23  1  0.500000  0.061908  0.919515  1
  Tc  Tc24  1  0.000000  0.008078  0.209348  1
  Tc  Tc25  1  0.000000  0.991922  0.790652  1
  Tc  Tc26  1  0.500000  0.500837  0.296538  1
  Tc  Tc27  1  0.500000  0.499163  0.703462  1
