# generated using pymatgen
data_Y9Th(Al2Ru3)2
_symmetry_space_group_name_H-M   'P 1'
_cell_length_a   8.40781875
_cell_length_b   8.36882058
_cell_length_c   8.36882053
_cell_angle_alpha   109.03126723
_cell_angle_beta   109.61772495
_cell_angle_gamma   109.57540744
_symmetry_Int_Tables_number   1
_chemical_formula_structural   Y9Th(Al2Ru3)2
_chemical_formula_sum   'Y9 Th1 Al4 Ru6'
_cell_volume   454.34905487
_cell_formula_units_Z   1
loop_
 _symmetry_equiv_pos_site_id
 _symmetry_equiv_pos_as_xyz
  1  'x, y, z'
loop_
 _atom_site_type_symbol
 _atom_site_label
 _atom_site_symmetry_multiplicity
 _atom_site_fract_x
 _atom_site_fract_y
 _atom_site_fract_z
 _atom_site_occupancy
  Y  Y0  1  0.750000  0.817877  0.067877  1
  Y  Y1  1  0.432539  0.251201  0.682961  1
  Y  Y2  1  0.680076  0.432103  0.248812  1
  Y  Y3  1  0.067461  0.750422  0.818662  1
  Y  Y4  1  0.819924  0.068736  0.752027  1
  Y  Y5  1  0.216399  0.213733  0.216361  1
  Y  Y6  1  0.503790  0.001101  0.285180  1
  Y  Y7  1  0.283601  0.499961  0.997335  1
  Y  Y8  1  0.996210  0.281390  0.497312  1
  Th  Th9  1  0.250000  0.688540  0.438540  1
  Al  Al10  1  0.594643  0.589784  0.589942  1
  Al  Al11  1  0.503250  0.006100  0.916516  1
  Al  Al12  1  0.905357  0.495299  0.995141  1
  Al  Al13  1  0.996750  0.913265  0.502850  1
  Ru  Ru14  1  0.250000  0.122249  0.872249  1
  Ru  Ru15  1  0.750000  0.377292  0.627292  1
  Ru  Ru16  1  0.875585  0.250045  0.124982  1
  Ru  Ru17  1  0.126125  0.860732  0.256895  1
  Ru  Ru18  1  0.624414  0.749396  0.374459  1
  Ru  Ru19  1  0.373875  0.630770  0.734608  1
