# generated using pymatgen
data_Rb2Al2As2O9
_symmetry_space_group_name_H-M   'P 1'
_cell_length_a   5.01367308
_cell_length_b   7.35745627
_cell_length_c   8.20188200
_cell_angle_alpha   95.65273428
_cell_angle_beta   107.26620870
_cell_angle_gamma   108.62178972
_symmetry_Int_Tables_number   1
_chemical_formula_structural   Rb2Al2As2O9
_chemical_formula_sum   'Rb2 Al2 As2 O9'
_cell_volume   267.47283289
_cell_formula_units_Z   1
loop_
 _symmetry_equiv_pos_site_id
 _symmetry_equiv_pos_as_xyz
  1  'x, y, z'
loop_
 _atom_site_type_symbol
 _atom_site_label
 _atom_site_symmetry_multiplicity
 _atom_site_fract_x
 _atom_site_fract_y
 _atom_site_fract_z
 _atom_site_occupancy
  Rb  Rb0  1  0.781077  0.190298  0.351037  1
  Rb  Rb1  1  0.218923  0.809702  0.648963  1
  Al  Al2  1  0.162376  0.233124  0.976262  1
  Al  Al3  1  0.837624  0.766876  0.023738  1
  As  As4  1  0.619023  0.349637  0.769757  1
  As  As5  1  0.380977  0.650363  0.230243  1
  O  O6  1  0.045086  0.686479  0.199004  1
  O  O7  1  0.615009  0.760844  0.434343  1
  O  O8  1  0.494694  0.250175  0.929238  1
  O  O9  1  0.716180  0.602797  0.816128  1
  O  O10  1  0.954914  0.313521  0.800996  1
  O  O11  1  0.283820  0.397203  0.183872  1
  O  O12  1  0.384991  0.239156  0.565657  1
  O  O13  1  0.000000  0.000000  0.000000  1
  O  O14  1  0.505306  0.749825  0.070762  1
