# generated using pymatgen
data_Cs2Ta2Nb4PbBr18
_symmetry_space_group_name_H-M   'P 1'
_cell_length_a   11.06773187
_cell_length_b   11.07077808
_cell_length_c   11.07230181
_cell_angle_alpha   55.02782331
_cell_angle_beta   55.06247344
_cell_angle_gamma   55.06182744
_symmetry_Int_Tables_number   1
_chemical_formula_structural   Cs2Ta2Nb4PbBr18
_chemical_formula_sum   'Cs2 Ta2 Nb4 Pb1 Br18'
_cell_volume   848.86468657
_cell_formula_units_Z   1
loop_
 _symmetry_equiv_pos_site_id
 _symmetry_equiv_pos_as_xyz
  1  'x, y, z'
loop_
 _atom_site_type_symbol
 _atom_site_label
 _atom_site_symmetry_multiplicity
 _atom_site_fract_x
 _atom_site_fract_y
 _atom_site_fract_z
 _atom_site_occupancy
  Cs  Cs0  1  0.276822  0.277222  0.276323  1
  Cs  Cs1  1  0.722795  0.723398  0.723417  1
  Ta  Ta2  1  0.576598  0.689637  0.361825  1
  Ta  Ta3  1  0.310394  0.637978  0.423483  1
  Nb  Nb4  1  0.422684  0.308459  0.639520  1
  Nb  Nb5  1  0.360770  0.577192  0.691320  1
  Nb  Nb6  1  0.691442  0.360508  0.577473  1
  Nb  Nb7  1  0.639375  0.422665  0.308715  1
  Pb  Pb8  1  0.000875  0.000717  0.998455  1
  Br  Br9  1  0.638432  0.095380  0.767865  1
  Br  Br10  1  0.766989  0.640173  0.096599  1
  Br  Br11  1  0.095940  0.767791  0.636152  1
  Br  Br12  1  0.826900  0.322382  0.040718  1
  Br  Br13  1  0.169639  0.437900  0.575097  1
  Br  Br14  1  0.676300  0.956081  0.174818  1
  Br  Br15  1  0.904814  0.232138  0.361444  1
  Br  Br16  1  0.564431  0.423329  0.830796  1
  Br  Br17  1  0.424925  0.830521  0.562086  1
  Br  Br18  1  0.959727  0.172710  0.678356  1
  Br  Br19  1  0.172282  0.679487  0.958445  1
  Br  Br20  1  0.044343  0.825475  0.322738  1
  Br  Br21  1  0.320618  0.040759  0.827818  1
  Br  Br22  1  0.232023  0.361514  0.904871  1
  Br  Br23  1  0.576741  0.169223  0.435516  1
  Br  Br24  1  0.433211  0.578066  0.171146  1
  Br  Br25  1  0.362221  0.902511  0.233104  1
  Br  Br26  1  0.828709  0.566784  0.421902  1
