# generated using pymatgen
data_Yb2AlGaO5
_symmetry_space_group_name_H-M   'P 1'
_cell_length_a   5.22352717
_cell_length_b   5.38819674
_cell_length_c   8.23638034
_cell_angle_alpha   109.09268838
_cell_angle_beta   108.48768040
_cell_angle_gamma   89.99999369
_symmetry_Int_Tables_number   1
_chemical_formula_structural   Yb2AlGaO5
_chemical_formula_sum   'Yb4 Al2 Ga2 O10'
_cell_volume   206.36253829
_cell_formula_units_Z   2
loop_
 _symmetry_equiv_pos_site_id
 _symmetry_equiv_pos_as_xyz
  1  'x, y, z'
loop_
 _atom_site_type_symbol
 _atom_site_label
 _atom_site_symmetry_multiplicity
 _atom_site_fract_x
 _atom_site_fract_y
 _atom_site_fract_z
 _atom_site_occupancy
  Yb  Yb0  1  0.611017  0.126537  0.209430  1
  Yb  Yb1  1  0.111017  0.582893  0.209430  1
  Yb  Yb2  1  0.901587  0.417107  0.790570  1
  Yb  Yb3  1  0.401587  0.873462  0.790570  1
  Al  Al4  1  0.998463  0.000000  0.000000  1
  Al  Al5  1  0.498463  0.500000  0.000000  1
  Ga  Ga6  1  0.298965  0.183373  0.500000  1
  Ga  Ga7  1  0.798965  0.816626  0.500000  1
  O  O8  1  0.760447  0.756949  0.020769  1
  O  O9  1  0.260445  0.763819  0.020769  1
  O  O10  1  0.110933  0.196805  0.273631  1
  O  O11  1  0.610933  0.576826  0.273631  1
  O  O12  1  0.662009  0.142592  0.500000  1
  O  O13  1  0.162010  0.857408  0.500000  1
  O  O14  1  0.337302  0.423173  0.726368  1
  O  O15  1  0.837301  0.803194  0.726368  1
  O  O16  1  0.239677  0.236181  0.979231  1
  O  O17  1  0.739676  0.243051  0.979231  1
