# generated using pymatgen
data_Na2CaMgBi2
_symmetry_space_group_name_H-M   'P 1'
_cell_length_a   4.84548200
_cell_length_b   9.39024500
_cell_length_c   7.97755100
_cell_angle_alpha   90.00000000
_cell_angle_beta   90.00000000
_cell_angle_gamma   90.00000000
_symmetry_Int_Tables_number   1
_chemical_formula_structural   Na2CaMgBi2
_chemical_formula_sum   'Na4 Ca2 Mg2 Bi4'
_cell_volume   362.98066958
_cell_formula_units_Z   2
loop_
 _symmetry_equiv_pos_site_id
 _symmetry_equiv_pos_as_xyz
  1  'x, y, z'
loop_
 _atom_site_type_symbol
 _atom_site_label
 _atom_site_symmetry_multiplicity
 _atom_site_fract_x
 _atom_site_fract_y
 _atom_site_fract_z
 _atom_site_occupancy
  Na  Na0  1  0.500001  0.419974  0.051417  1
  Na  Na1  1  0.000000  0.330429  0.369057  1
  Na  Na2  1  0.500001  0.580025  0.551418  1
  Na  Na3  1  0.000000  0.669571  0.869058  1
  Ca  Ca4  1  0.000000  0.055651  0.998255  1
  Ca  Ca5  1  0.000000  0.944349  0.498254  1
  Mg  Mg6  1  0.500001  0.813523  0.161544  1
  Mg  Mg7  1  0.500001  0.186477  0.661545  1
  Bi  Bi8  1  0.000000  0.659383  0.268795  1
  Bi  Bi9  1  0.500001  0.118024  0.283401  1
  Bi  Bi10  1  0.000000  0.340616  0.768794  1
  Bi  Bi11  1  0.500001  0.881976  0.783400  1
