# generated using pymatgen
data_Ho5Nb3Fe15CoP12
_symmetry_space_group_name_H-M   'P 1'
_cell_length_a   12.25799500
_cell_length_b   12.25799606
_cell_length_c   3.72535100
_cell_angle_alpha   90.00000000
_cell_angle_beta   90.00000000
_cell_angle_gamma   119.99999985
_symmetry_Int_Tables_number   1
_chemical_formula_structural   Ho5Nb3Fe15CoP12
_chemical_formula_sum   'Ho5 Nb3 Fe15 Co1 P12'
_cell_volume   484.77112937
_cell_formula_units_Z   1
loop_
 _symmetry_equiv_pos_site_id
 _symmetry_equiv_pos_as_xyz
  1  'x, y, z'
loop_
 _atom_site_type_symbol
 _atom_site_label
 _atom_site_symmetry_multiplicity
 _atom_site_fract_x
 _atom_site_fract_y
 _atom_site_fract_z
 _atom_site_occupancy
  Ho  Ho0  1  0.821860  0.000000  0.500000  1
  Ho  Ho1  1  0.000000  0.821860  0.500000  1
  Ho  Ho2  1  0.178140  0.178140  0.500000  1
  Ho  Ho3  1  0.333333  0.666667  0.000000  1
  Ho  Ho4  1  0.666667  0.333333  0.000000  1
  Nb  Nb5  1  0.442575  0.000000  0.000000  1
  Nb  Nb6  1  0.000000  0.442575  0.000000  1
  Nb  Nb7  1  0.557425  0.557425  0.000000  1
  Fe  Fe8  1  0.280705  0.000000  0.500000  1
  Fe  Fe9  1  0.000000  0.280705  0.500000  1
  Fe  Fe10  1  0.719295  0.719295  0.500000  1
  Fe  Fe11  1  0.620130  0.802243  0.000000  1
  Fe  Fe12  1  0.197757  0.817887  0.000000  1
  Fe  Fe13  1  0.182113  0.379870  0.000000  1
  Fe  Fe14  1  0.379870  0.182113  0.000000  1
  Fe  Fe15  1  0.802243  0.620130  0.000000  1
  Fe  Fe16  1  0.817887  0.197757  0.000000  1
  Fe  Fe17  1  0.525525  0.879102  0.500000  1
  Fe  Fe18  1  0.120898  0.646423  0.500000  1
  Fe  Fe19  1  0.353577  0.474475  0.500000  1
  Fe  Fe20  1  0.474475  0.353577  0.500000  1
  Fe  Fe21  1  0.879102  0.525525  0.500000  1
  Fe  Fe22  1  0.646423  0.120898  0.500000  1
  Co  Co23  1  0.000000  0.000000  0.000000  1
  P  P24  1  0.182787  0.000000  0.000000  1
  P  P25  1  0.000000  0.182787  0.000000  1
  P  P26  1  0.817213  0.817213  0.000000  1
  P  P27  1  0.522663  0.689692  0.500000  1
  P  P28  1  0.310308  0.832971  0.500000  1
  P  P29  1  0.167029  0.477337  0.500000  1
  P  P30  1  0.477337  0.167029  0.500000  1
  P  P31  1  0.689692  0.522663  0.500000  1
  P  P32  1  0.832971  0.310308  0.500000  1
  P  P33  1  0.649417  0.000000  0.000000  1
  P  P34  1  0.000000  0.649417  0.000000  1
  P  P35  1  0.350583  0.350583  0.000000  1
