# generated using pymatgen
data_PrEr2UO7
_symmetry_space_group_name_H-M   'P 1'
_cell_length_a   6.61237533
_cell_length_b   6.60904618
_cell_length_c   7.73016500
_cell_angle_alpha   106.94916718
_cell_angle_beta   89.98202893
_cell_angle_gamma   99.30966466
_symmetry_Int_Tables_number   1
_chemical_formula_structural   PrEr2UO7
_chemical_formula_sum   'Pr2 Er4 U2 O14'
_cell_volume   318.49687490
_cell_formula_units_Z   2
loop_
 _symmetry_equiv_pos_site_id
 _symmetry_equiv_pos_as_xyz
  1  'x, y, z'
loop_
 _atom_site_type_symbol
 _atom_site_label
 _atom_site_symmetry_multiplicity
 _atom_site_fract_x
 _atom_site_fract_y
 _atom_site_fract_z
 _atom_site_occupancy
  Pr  Pr0  1  0.740967  0.483236  0.621492  1
  Pr  Pr1  1  0.259033  0.516764  0.378508  1
  Er  Er2  1  0.465752  0.009449  0.250749  1
  Er  Er3  1  0.534248  0.990551  0.749251  1
  Er  Er4  1  0.276252  0.540217  0.886488  1
  Er  Er5  1  0.723748  0.459783  0.113512  1
  U  U6  1  0.000000  0.000000  0.500000  1
  U  U7  1  0.000000  0.000000  0.000000  1
  O  O8  1  0.458220  0.657740  0.159083  1
  O  O9  1  0.541780  0.342260  0.840917  1
  O  O10  1  0.299246  0.916669  0.949952  1
  O  O11  1  0.700754  0.083331  0.050048  1
  O  O12  1  0.296212  0.925736  0.515627  1
  O  O13  1  0.703788  0.074264  0.484373  1
  O  O14  1  0.551802  0.360312  0.334750  1
  O  O15  1  0.448198  0.639688  0.665250  1
  O  O16  1  0.922984  0.670085  0.962439  1
  O  O17  1  0.077016  0.329915  0.037561  1
  O  O18  1  0.073329  0.343740  0.628921  1
  O  O19  1  0.926671  0.656260  0.371079  1
  O  O20  1  0.860052  0.899820  0.723320  1
  O  O21  1  0.139948  0.100180  0.276680  1
