# generated using pymatgen
data_LuHf7Fe9Si16Ru3
_symmetry_space_group_name_H-M   'P 1'
_cell_length_a   9.75070417
_cell_length_b   9.69982553
_cell_length_c   13.01040076
_cell_angle_alpha   53.19643134
_cell_angle_beta   53.23334922
_cell_angle_gamma   31.18339664
_symmetry_Int_Tables_number   1
_chemical_formula_structural   LuHf7Fe9Si16Ru3
_chemical_formula_sum   'Lu1 Hf7 Fe9 Si16 Ru3'
_cell_volume   499.04692117
_cell_formula_units_Z   1
loop_
 _symmetry_equiv_pos_site_id
 _symmetry_equiv_pos_as_xyz
  1  'x, y, z'
loop_
 _atom_site_type_symbol
 _atom_site_label
 _atom_site_symmetry_multiplicity
 _atom_site_fract_x
 _atom_site_fract_y
 _atom_site_fract_z
 _atom_site_occupancy
  Lu  Lu0  1  0.296720  0.565117  0.641336  1
  Hf  Hf1  1  0.426658  0.712956  0.856654  1
  Hf  Hf2  1  0.712197  0.435573  0.349307  1
  Hf  Hf3  1  0.562503  0.297924  0.142396  1
  Hf  Hf4  1  0.031574  0.296434  0.640641  1
  Hf  Hf5  1  0.703511  0.955164  0.863558  1
  Hf  Hf6  1  0.963857  0.708841  0.354747  1
  Hf  Hf7  1  0.298750  0.035018  0.142469  1
  Fe  Fe8  1  0.649911  0.827887  0.276250  1
  Fe  Fe9  1  0.175148  0.350208  0.219553  1
  Fe  Fe10  1  0.797556  0.458677  0.072471  1
  Fe  Fe11  1  0.823983  0.647949  0.783887  1
  Fe  Fe12  1  0.897969  0.145702  0.584479  1
  Fe  Fe13  1  0.854308  0.105541  0.917483  1
  Fe  Fe14  1  0.106324  0.855705  0.409939  1
  Fe  Fe15  1  0.112946  0.919985  0.083975  1
  Fe  Fe16  1  0.239492  0.519370  0.934918  1
  Si  Si17  1  0.884614  0.120158  0.246255  1
  Si  Si18  1  0.106381  0.885765  0.756163  1
  Si  Si19  1  0.386471  0.628695  0.234592  1
  Si  Si20  1  0.619000  0.373322  0.756672  1
  Si  Si21  1  0.959387  0.263511  0.899944  1
  Si  Si22  1  0.751840  0.028434  0.602259  1
  Si  Si23  1  0.030548  0.743633  0.102752  1
  Si  Si24  1  0.256051  0.970617  0.392948  1
  Si  Si25  1  0.569181  0.093969  0.063987  1
  Si  Si26  1  0.913400  0.429023  0.430619  1
  Si  Si27  1  0.440199  0.876712  0.952494  1
  Si  Si28  1  0.076745  0.581411  0.565730  1
  Si  Si29  1  0.388333  0.142605  0.389178  1
  Si  Si30  1  0.871004  0.607254  0.104284  1
  Si  Si31  1  0.612784  0.856022  0.604769  1
  Si  Si32  1  0.139291  0.385073  0.899180  1
  Ru  Ru33  1  0.478746  0.762265  0.566346  1
  Ru  Ru34  1  0.513525  0.247239  0.431700  1
  Ru  Ru35  1  0.349097  0.166245  0.726063  1
