# generated using pymatgen
data_Lu8Al2CoNi
_symmetry_space_group_name_H-M   'P 1'
_cell_length_a   9.24472484
_cell_length_b   9.24472512
_cell_length_c   9.23151500
_cell_angle_alpha   60.04725398
_cell_angle_beta   60.04725301
_cell_angle_gamma   60.15726098
_symmetry_Int_Tables_number   1
_chemical_formula_structural   Lu8Al2CoNi
_chemical_formula_sum   'Lu16 Al4 Co2 Ni2'
_cell_volume   558.94623310
_cell_formula_units_Z   2
loop_
 _symmetry_equiv_pos_site_id
 _symmetry_equiv_pos_as_xyz
  1  'x, y, z'
loop_
 _atom_site_type_symbol
 _atom_site_label
 _atom_site_symmetry_multiplicity
 _atom_site_fract_x
 _atom_site_fract_y
 _atom_site_fract_z
 _atom_site_occupancy
  Lu  Lu0  1  0.805921  0.191476  0.190218  1
  Lu  Lu1  1  0.191476  0.805921  0.812385  1
  Lu  Lu2  1  0.191476  0.805921  0.190218  1
  Lu  Lu3  1  0.805921  0.191476  0.812385  1
  Lu  Lu4  1  0.192028  0.192028  0.807972  1
  Lu  Lu5  1  0.809330  0.809330  0.190670  1
  Lu  Lu6  1  0.938058  0.563716  0.560762  1
  Lu  Lu7  1  0.563716  0.938058  0.937464  1
  Lu  Lu8  1  0.563717  0.938058  0.560762  1
  Lu  Lu9  1  0.938058  0.563716  0.937464  1
  Lu  Lu10  1  0.562622  0.562621  0.937379  1
  Lu  Lu11  1  0.936926  0.936926  0.563074  1
  Lu  Lu12  1  0.351067  0.351067  0.347214  1
  Lu  Lu13  1  0.351067  0.351067  0.950650  1
  Lu  Lu14  1  0.352905  0.947643  0.349725  1
  Lu  Lu15  1  0.947643  0.352905  0.349725  1
  Al  Al16  1  0.578351  0.578351  0.578476  1
  Al  Al17  1  0.578351  0.578351  0.264823  1
  Al  Al18  1  0.578709  0.265029  0.578130  1
  Al  Al19  1  0.265029  0.578709  0.578130  1
  Co  Co20  1  0.140384  0.572902  0.143358  1
  Co  Co21  1  0.572902  0.140384  0.143358  1
  Ni  Ni22  1  0.142171  0.142171  0.141010  1
  Ni  Ni23  1  0.142171  0.142171  0.574650  1
