# generated using pymatgen
data_Hf4Al7Pt
_symmetry_space_group_name_H-M   'P 1'
_cell_length_a   5.28683800
_cell_length_b   5.23991337
_cell_length_c   8.65998900
_cell_angle_alpha   90.00000000
_cell_angle_beta   90.00000000
_cell_angle_gamma   120.29668145
_symmetry_Int_Tables_number   1
_chemical_formula_structural   Hf4Al7Pt
_chemical_formula_sum   'Hf4 Al7 Pt1'
_cell_volume   207.13903763
_cell_formula_units_Z   1
loop_
 _symmetry_equiv_pos_site_id
 _symmetry_equiv_pos_as_xyz
  1  'x, y, z'
loop_
 _atom_site_type_symbol
 _atom_site_label
 _atom_site_symmetry_multiplicity
 _atom_site_fract_x
 _atom_site_fract_y
 _atom_site_fract_z
 _atom_site_occupancy
  Hf  Hf0  1  0.335401  0.670803  0.432352  1
  Hf  Hf1  1  0.666927  0.333853  0.934629  1
  Hf  Hf2  1  0.666927  0.333853  0.565371  1
  Hf  Hf3  1  0.335401  0.670803  0.067648  1
  Al  Al4  1  0.830067  0.171301  0.250000  1
  Al  Al5  1  0.341234  0.171301  0.250000  1
  Al  Al6  1  0.650314  0.821511  0.750000  1
  Al  Al7  1  0.003135  0.006270  0.994330  1
  Al  Al8  1  0.003135  0.006270  0.505670  1
  Al  Al9  1  0.830192  0.660382  0.250000  1
  Al  Al10  1  0.171196  0.821511  0.750000  1
  Pt  Pt11  1  0.166070  0.332142  0.750000  1
