# generated using pymatgen
data_Hf16Pt5Rh3N4
_symmetry_space_group_name_H-M   'P 1'
_cell_length_a   8.75417935
_cell_length_b   8.74760103
_cell_length_c   8.74760300
_cell_angle_alpha   59.99999633
_cell_angle_beta   60.02485097
_cell_angle_gamma   60.02485043
_symmetry_Int_Tables_number   1
_chemical_formula_structural   Hf16Pt5Rh3N4
_chemical_formula_sum   'Hf16 Pt5 Rh3 N4'
_cell_volume   473.85065879
_cell_formula_units_Z   1
loop_
 _symmetry_equiv_pos_site_id
 _symmetry_equiv_pos_as_xyz
  1  'x, y, z'
loop_
 _atom_site_type_symbol
 _atom_site_label
 _atom_site_symmetry_multiplicity
 _atom_site_fract_x
 _atom_site_fract_y
 _atom_site_fract_z
 _atom_site_occupancy
  Hf  Hf0  1  0.114512  0.628496  0.628496  1
  Hf  Hf1  1  0.629462  0.118553  0.625992  1
  Hf  Hf2  1  0.629462  0.625992  0.118553  1
  Hf  Hf3  1  0.629462  0.625992  0.625992  1
  Hf  Hf4  1  0.817898  0.818108  0.181997  1
  Hf  Hf5  1  0.179047  0.184996  0.817979  1
  Hf  Hf6  1  0.817898  0.181997  0.818108  1
  Hf  Hf7  1  0.179047  0.817979  0.184996  1
  Hf  Hf8  1  0.179047  0.817979  0.817979  1
  Hf  Hf9  1  0.817898  0.181997  0.181997  1
  Hf  Hf10  1  0.433286  0.432683  0.067016  1
  Hf  Hf11  1  0.067840  0.066733  0.432714  1
  Hf  Hf12  1  0.433286  0.067016  0.432683  1
  Hf  Hf13  1  0.067840  0.432714  0.066733  1
  Hf  Hf14  1  0.067840  0.432714  0.432714  1
  Hf  Hf15  1  0.433286  0.067016  0.067016  1
  Pt  Pt16  1  0.779196  0.406935  0.406935  1
  Pt  Pt17  1  0.407751  0.776197  0.408026  1
  Pt  Pt18  1  0.407751  0.408026  0.776197  1
  Pt  Pt19  1  0.407751  0.408026  0.408026  1
  Pt  Pt20  1  0.470250  0.843250  0.843250  1
  Rh  Rh21  1  0.843275  0.470779  0.842973  1
  Rh  Rh22  1  0.843275  0.842973  0.470779  1
  Rh  Rh23  1  0.843275  0.842973  0.842973  1
  N  N24  1  0.624290  0.125237  0.125237  1
  N  N25  1  0.125360  0.624989  0.124826  1
  N  N26  1  0.125360  0.124826  0.624989  1
  N  N27  1  0.125360  0.124826  0.124826  1
