# generated using pymatgen
data_YTm2Fe8Co
_symmetry_space_group_name_H-M   'P 1'
_cell_length_a   5.08537667
_cell_length_b   5.08537614
_cell_length_c   8.59591360
_cell_angle_alpha   72.79436748
_cell_angle_beta   72.79437368
_cell_angle_gamma   59.99999385
_symmetry_Int_Tables_number   1
_chemical_formula_structural   YTm2Fe8Co
_chemical_formula_sum   'Y1 Tm2 Fe8 Co1'
_cell_volume   180.93874310
_cell_formula_units_Z   1
loop_
 _symmetry_equiv_pos_site_id
 _symmetry_equiv_pos_as_xyz
  1  'x, y, z'
loop_
 _atom_site_type_symbol
 _atom_site_label
 _atom_site_symmetry_multiplicity
 _atom_site_fract_x
 _atom_site_fract_y
 _atom_site_fract_z
 _atom_site_occupancy
  Y  Y0  1  0.000000  0.000000  0.000000  1
  Tm  Tm1  1  0.142174  0.142174  0.573478  1
  Tm  Tm2  1  0.857826  0.857826  0.426522  1
  Fe  Fe3  1  0.082026  0.582429  0.753113  1
  Fe  Fe4  1  0.582429  0.582429  0.753113  1
  Fe  Fe5  1  0.582429  0.082026  0.753113  1
  Fe  Fe6  1  0.917974  0.417571  0.246887  1
  Fe  Fe7  1  0.417571  0.417571  0.246887  1
  Fe  Fe8  1  0.417571  0.917974  0.246887  1
  Fe  Fe9  1  0.332888  0.332888  0.001334  1
  Fe  Fe10  1  0.667112  0.667112  0.998666  1
  Co  Co11  1  0.500000  0.500000  0.500000  1
