# generated using pymatgen
data_Nd8Er12Si15As
_symmetry_space_group_name_H-M   'P 1'
_cell_length_a   7.49985135
_cell_length_b   14.69133895
_cell_length_c   7.73888700
_cell_angle_alpha   89.86584580
_cell_angle_beta   89.67119983
_cell_angle_gamma   88.36270864
_symmetry_Int_Tables_number   1
_chemical_formula_structural   Nd8Er12Si15As
_chemical_formula_sum   'Nd8 Er12 Si15 As1'
_cell_volume   852.32850309
_cell_formula_units_Z   1
loop_
 _symmetry_equiv_pos_site_id
 _symmetry_equiv_pos_as_xyz
  1  'x, y, z'
loop_
 _atom_site_type_symbol
 _atom_site_label
 _atom_site_symmetry_multiplicity
 _atom_site_fract_x
 _atom_site_fract_y
 _atom_site_fract_z
 _atom_site_occupancy
  Nd  Nd0  1  0.024023  0.099889  0.179145  1
  Nd  Nd1  1  0.010681  0.400736  0.179617  1
  Nd  Nd2  1  0.524087  0.099156  0.318423  1
  Nd  Nd3  1  0.514740  0.403307  0.318479  1
  Nd  Nd4  1  0.484156  0.596145  0.682603  1
  Nd  Nd5  1  0.477298  0.901151  0.679556  1
  Nd  Nd6  1  0.992909  0.598573  0.822219  1
  Nd  Nd7  1  0.977609  0.900686  0.820580  1
  Er  Er8  1  0.340833  0.253709  0.007512  1
  Er  Er9  1  0.332725  0.619424  0.172207  1
  Er  Er10  1  0.322810  0.876684  0.178109  1
  Er  Er11  1  0.833241  0.625878  0.327973  1
  Er  Er12  1  0.820451  0.876362  0.323472  1
  Er  Er13  1  0.842778  0.251863  0.492320  1
  Er  Er14  1  0.157812  0.748920  0.508336  1
  Er  Er15  1  0.179461  0.123009  0.675914  1
  Er  Er16  1  0.167980  0.374517  0.673430  1
  Er  Er17  1  0.677092  0.122481  0.821659  1
  Er  Er18  1  0.664166  0.380512  0.827585  1
  Er  Er19  1  0.658954  0.749246  0.991914  1
  Si  Si20  1  0.644072  0.958757  0.030086  1
  Si  Si21  1  0.034906  0.751512  0.115009  1
  Si  Si22  1  0.722208  0.250001  0.120304  1
  Si  Si23  1  0.224453  0.249108  0.375741  1
  Si  Si24  1  0.528759  0.749293  0.387123  1
  Si  Si25  1  0.156226  0.539464  0.466123  1
  Si  Si26  1  0.143020  0.958982  0.469050  1
  Si  Si27  1  0.856582  0.040743  0.530072  1
  Si  Si28  1  0.843362  0.461583  0.535466  1
  Si  Si29  1  0.471319  0.249553  0.612007  1
  Si  Si30  1  0.776801  0.750512  0.625099  1
  Si  Si31  1  0.278992  0.749973  0.878921  1
  Si  Si32  1  0.963780  0.247844  0.884603  1
  Si  Si33  1  0.355191  0.040322  0.968419  1
  Si  Si34  1  0.313402  0.455498  0.962902  1
  As  As35  1  0.683120  0.544602  0.038023  1
