# generated using pymatgen
data_CsLi3Ho2S5
_symmetry_space_group_name_H-M   'P 1'
_cell_length_a   4.01431600
_cell_length_b   7.62849436
_cell_length_c   16.84723900
_cell_angle_alpha   90.00000000
_cell_angle_beta   90.00000000
_cell_angle_gamma   74.74512766
_symmetry_Int_Tables_number   1
_chemical_formula_structural   CsLi3Ho2S5
_chemical_formula_sum   'Cs2 Li6 Ho4 S10'
_cell_volume   497.73781978
_cell_formula_units_Z   2
loop_
 _symmetry_equiv_pos_site_id
 _symmetry_equiv_pos_as_xyz
  1  'x, y, z'
loop_
 _atom_site_type_symbol
 _atom_site_label
 _atom_site_symmetry_multiplicity
 _atom_site_fract_x
 _atom_site_fract_y
 _atom_site_fract_z
 _atom_site_occupancy
  Cs  Cs0  1  0.930732  0.138537  0.250000  1
  Cs  Cs1  1  0.069270  0.861463  0.750000  1
  Li  Li2  1  0.420812  0.158376  0.042763  1
  Li  Li3  1  0.644551  0.710900  0.250000  1
  Li  Li4  1  0.420812  0.158376  0.457238  1
  Li  Li5  1  0.579190  0.841623  0.542763  1
  Li  Li6  1  0.355450  0.289100  0.750000  1
  Li  Li7  1  0.579190  0.841623  0.957238  1
  Ho  Ho8  1  0.195441  0.609119  0.094183  1
  Ho  Ho9  1  0.195441  0.609119  0.405817  1
  Ho  Ho10  1  0.804560  0.390881  0.594183  1
  Ho  Ho11  1  0.804560  0.390881  0.905817  1
  S  S12  1  0.824450  0.351103  0.067469  1
  S  S13  1  0.571855  0.856293  0.108913  1
  S  S14  1  0.231716  0.536569  0.250000  1
  S  S15  1  0.571855  0.856293  0.391087  1
  S  S16  1  0.824450  0.351103  0.432532  1
  S  S17  1  0.175552  0.648896  0.567469  1
  S  S18  1  0.428147  0.143707  0.608913  1
  S  S19  1  0.768286  0.463431  0.750000  1
  S  S20  1  0.428147  0.143707  0.891087  1
  S  S21  1  0.175552  0.648896  0.932532  1
