# generated using pymatgen
data_TbPa5(Al3Os)8
_symmetry_space_group_name_H-M   'P 1'
_cell_length_a   8.88187986
_cell_length_b   8.88187986
_cell_length_c   9.43961800
_cell_angle_alpha   90.00000000
_cell_angle_beta   90.00000000
_cell_angle_gamma   119.94966193
_symmetry_Int_Tables_number   1
_chemical_formula_structural   TbPa5(Al3Os)8
_chemical_formula_sum   'Tb1 Pa5 Al24 Os8'
_cell_volume   645.23052919
_cell_formula_units_Z   1
loop_
 _symmetry_equiv_pos_site_id
 _symmetry_equiv_pos_as_xyz
  1  'x, y, z'
loop_
 _atom_site_type_symbol
 _atom_site_label
 _atom_site_symmetry_multiplicity
 _atom_site_fract_x
 _atom_site_fract_y
 _atom_site_fract_z
 _atom_site_occupancy
  Tb  Tb0  1  0.804182  0.195818  0.750000  1
  Pa  Pa1  1  0.196760  0.394991  0.250000  1
  Pa  Pa2  1  0.801800  0.606794  0.750000  1
  Pa  Pa3  1  0.605009  0.803240  0.250000  1
  Pa  Pa4  1  0.393206  0.198200  0.750000  1
  Pa  Pa5  1  0.197903  0.802097  0.250000  1
  Al  Al6  1  0.334152  0.665848  0.016250  1
  Al  Al7  1  0.668815  0.331185  0.979024  1
  Al  Al8  1  0.668815  0.331185  0.520976  1
  Al  Al9  1  0.334152  0.665848  0.483750  1
  Al  Al10  1  0.161067  0.324346  0.577815  1
  Al  Al11  1  0.837662  0.675690  0.421681  1
  Al  Al12  1  0.675654  0.838933  0.577815  1
  Al  Al13  1  0.837662  0.675690  0.078319  1
  Al  Al14  1  0.324310  0.162338  0.421681  1
  Al  Al15  1  0.161067  0.324346  0.922185  1
  Al  Al16  1  0.161793  0.838207  0.579938  1
  Al  Al17  1  0.324310  0.162338  0.078319  1
  Al  Al18  1  0.837731  0.162269  0.422783  1
  Al  Al19  1  0.675654  0.838933  0.922185  1
  Al  Al20  1  0.837731  0.162269  0.077217  1
  Al  Al21  1  0.161793  0.838207  0.920062  1
  Al  Al22  1  0.564030  0.127315  0.250000  1
  Al  Al23  1  0.440566  0.878209  0.750000  1
  Al  Al24  1  0.872685  0.435970  0.250000  1
  Al  Al25  1  0.121791  0.559434  0.750000  1
  Al  Al26  1  0.562862  0.437138  0.250000  1
  Al  Al27  1  0.436431  0.563569  0.750000  1
  Al  Al28  1  0.999893  0.000107  0.250000  1
  Al  Al29  1  0.000141  0.999859  0.750000  1
  Os  Os30  1  0.496172  0.996374  0.004148  1
  Os  Os31  1  0.003626  0.503828  0.004148  1
  Os  Os32  1  0.496172  0.996374  0.495852  1
  Os  Os33  1  0.500615  0.499385  0.999762  1
  Os  Os34  1  0.003626  0.503828  0.495852  1
  Os  Os35  1  0.500615  0.499385  0.500238  1
  Os  Os36  1  0.999772  0.000228  0.000199  1
  Os  Os37  1  0.999772  0.000228  0.499801  1
