# generated using pymatgen
data_EuY(Co5P3)2
_symmetry_space_group_name_H-M   'P 1'
_cell_length_a   3.65053000
_cell_length_b   10.32128100
_cell_length_c   11.76826400
_cell_angle_alpha   90.00000000
_cell_angle_beta   90.00000000
_cell_angle_gamma   90.00000000
_symmetry_Int_Tables_number   1
_chemical_formula_structural   EuY(Co5P3)2
_chemical_formula_sum   'Eu2 Y2 Co20 P12'
_cell_volume   443.40636832
_cell_formula_units_Z   2
loop_
 _symmetry_equiv_pos_site_id
 _symmetry_equiv_pos_as_xyz
  1  'x, y, z'
loop_
 _atom_site_type_symbol
 _atom_site_label
 _atom_site_symmetry_multiplicity
 _atom_site_fract_x
 _atom_site_fract_y
 _atom_site_fract_z
 _atom_site_occupancy
  Eu  Eu0  1  0.250000  0.583304  0.703224  1
  Eu  Eu1  1  0.250000  0.916696  0.203224  1
  Y  Y2  1  0.750000  0.416604  0.297237  1
  Y  Y3  1  0.750000  0.083396  0.797237  1
  Co  Co4  1  0.250000  0.714100  0.990100  1
  Co  Co5  1  0.250000  0.785900  0.490100  1
  Co  Co6  1  0.750000  0.284934  0.009589  1
  Co  Co7  1  0.750000  0.215066  0.509589  1
  Co  Co8  1  0.250000  0.404998  0.486901  1
  Co  Co9  1  0.250000  0.095002  0.986901  1
  Co  Co10  1  0.750000  0.592379  0.508870  1
  Co  Co11  1  0.750000  0.907621  0.008870  1
  Co  Co12  1  0.250000  0.221520  0.175926  1
  Co  Co13  1  0.250000  0.278480  0.675926  1
  Co  Co14  1  0.750000  0.780693  0.824123  1
  Co  Co15  1  0.750000  0.719307  0.324123  1
  Co  Co16  1  0.250000  0.883876  0.698564  1
  Co  Co17  1  0.250000  0.616124  0.198564  1
  Co  Co18  1  0.750000  0.120577  0.302834  1
  Co  Co19  1  0.750000  0.379423  0.802834  1
  Co  Co20  1  0.250000  0.466467  0.933560  1
  Co  Co21  1  0.250000  0.033533  0.433560  1
  Co  Co22  1  0.750000  0.531698  0.068568  1
  Co  Co23  1  0.750000  0.968302  0.568568  1
  P  P24  1  0.250000  0.418353  0.112489  1
  P  P25  1  0.250000  0.081647  0.612489  1
  P  P26  1  0.750000  0.581114  0.889038  1
  P  P27  1  0.750000  0.918886  0.389038  1
  P  P28  1  0.250000  0.271281  0.869782  1
  P  P29  1  0.250000  0.228719  0.369782  1
  P  P30  1  0.750000  0.728145  0.129214  1
  P  P31  1  0.750000  0.771855  0.629214  1
  P  P32  1  0.250000  0.602506  0.391799  1
  P  P33  1  0.250000  0.897494  0.891799  1
  P  P34  1  0.750000  0.396743  0.608185  1
  P  P35  1  0.750000  0.103257  0.108185  1
