# generated using pymatgen
data_Li4Dy4HgSb3
_symmetry_space_group_name_H-M   'P 1'
_cell_length_a   9.47520100
_cell_length_b   9.47520095
_cell_length_c   7.00285600
_cell_angle_alpha   90.00000000
_cell_angle_beta   90.00000000
_cell_angle_gamma   119.99999669
_symmetry_Int_Tables_number   1
_chemical_formula_structural   Li4Dy4HgSb3
_chemical_formula_sum   'Li8 Dy8 Hg2 Sb6'
_cell_volume   544.48096677
_cell_formula_units_Z   2
loop_
 _symmetry_equiv_pos_site_id
 _symmetry_equiv_pos_as_xyz
  1  'x, y, z'
loop_
 _atom_site_type_symbol
 _atom_site_label
 _atom_site_symmetry_multiplicity
 _atom_site_fract_x
 _atom_site_fract_y
 _atom_site_fract_z
 _atom_site_occupancy
  Li  Li0  1  0.168295  0.336591  0.276078  1
  Li  Li1  1  0.168295  0.831705  0.276078  1
  Li  Li2  1  0.663409  0.831705  0.276078  1
  Li  Li3  1  0.831705  0.663409  0.776078  1
  Li  Li4  1  0.831705  0.168295  0.776078  1
  Li  Li5  1  0.336591  0.168295  0.776078  1
  Li  Li6  1  0.333333  0.666667  0.694365  1
  Li  Li7  1  0.666667  0.333333  0.194365  1
  Dy  Dy8  1  0.510383  0.020766  0.496902  1
  Dy  Dy9  1  0.510383  0.489617  0.496902  1
  Dy  Dy10  1  0.979234  0.489617  0.496902  1
  Dy  Dy11  1  0.489617  0.979234  0.996902  1
  Dy  Dy12  1  0.489617  0.510383  0.996902  1
  Dy  Dy13  1  0.020766  0.510383  0.996902  1
  Dy  Dy14  1  0.000000  0.000000  0.501060  1
  Dy  Dy15  1  0.000000  0.000000  0.001060  1
  Hg  Hg16  1  0.333333  0.666667  0.252834  1
  Hg  Hg17  1  0.666667  0.333333  0.752834  1
  Sb  Sb18  1  0.166473  0.332945  0.734600  1
  Sb  Sb19  1  0.166473  0.833527  0.734600  1
  Sb  Sb20  1  0.667055  0.833527  0.734600  1
  Sb  Sb21  1  0.833527  0.667055  0.234600  1
  Sb  Sb22  1  0.833527  0.166473  0.234600  1
  Sb  Sb23  1  0.332945  0.166473  0.234600  1
