# generated using pymatgen
data_Tb3Nd4HoAu4
_symmetry_space_group_name_H-M   'P 1'
_cell_length_a   5.03069700
_cell_length_b   7.29344574
_cell_length_c   9.08529208
_cell_angle_alpha   89.76543412
_cell_angle_beta   90.00000000
_cell_angle_gamma   90.00000000
_symmetry_Int_Tables_number   1
_chemical_formula_structural   Tb3Nd4HoAu4
_chemical_formula_sum   'Tb3 Nd4 Ho1 Au4'
_cell_volume   333.34670822
_cell_formula_units_Z   1
loop_
 _symmetry_equiv_pos_site_id
 _symmetry_equiv_pos_as_xyz
  1  'x, y, z'
loop_
 _atom_site_type_symbol
 _atom_site_label
 _atom_site_symmetry_multiplicity
 _atom_site_fract_x
 _atom_site_fract_y
 _atom_site_fract_z
 _atom_site_occupancy
  Tb  Tb0  1  0.250000  0.850176  0.917840  1
  Tb  Tb1  1  0.250000  0.348912  0.581523  1
  Tb  Tb2  1  0.750000  0.150988  0.083771  1
  Nd  Nd3  1  0.250000  0.490334  0.177789  1
  Nd  Nd4  1  0.250000  0.988673  0.323269  1
  Nd  Nd5  1  0.750000  0.510265  0.820422  1
  Nd  Nd6  1  0.750000  0.008358  0.677406  1
  Ho  Ho7  1  0.750000  0.650503  0.416896  1
  Au  Au8  1  0.250000  0.248567  0.903455  1
  Au  Au9  1  0.250000  0.746322  0.596564  1
  Au  Au10  1  0.750000  0.751628  0.098090  1
  Au  Au11  1  0.750000  0.255276  0.402976  1
