# generated using pymatgen
data_Hf4Co(SiIr)6
_symmetry_space_group_name_H-M   'P 1'
_cell_length_a   6.94960537
_cell_length_b   6.94960556
_cell_length_c   6.94960484
_cell_angle_alpha   109.27276877
_cell_angle_beta   109.86885187
_cell_angle_gamma   109.27277185
_symmetry_Int_Tables_number   1
_chemical_formula_structural   Hf4Co(SiIr)6
_chemical_formula_sum   'Hf4 Co1 Si6 Ir6'
_cell_volume   258.37044509
_cell_formula_units_Z   1
loop_
 _symmetry_equiv_pos_site_id
 _symmetry_equiv_pos_as_xyz
  1  'x, y, z'
loop_
 _atom_site_type_symbol
 _atom_site_label
 _atom_site_symmetry_multiplicity
 _atom_site_fract_x
 _atom_site_fract_y
 _atom_site_fract_z
 _atom_site_occupancy
  Hf  Hf0  1  0.498322  0.500000  0.501678  1
  Hf  Hf1  1  0.001678  0.500000  0.998322  1
  Hf  Hf2  1  0.001678  0.003356  0.501678  1
  Hf  Hf3  1  0.498322  0.996644  0.998322  1
  Co  Co4  1  0.250000  0.500000  0.750000  1
  Si  Si5  1  0.674433  0.679620  0.994813  1
  Si  Si6  1  0.683605  0.000000  0.683605  1
  Si  Si7  1  0.315193  0.320380  0.994813  1
  Si  Si8  1  0.005187  0.679620  0.684807  1
  Si  Si9  1  0.316395  0.000000  0.316395  1
  Si  Si10  1  0.005187  0.320380  0.325567  1
  Ir  Ir11  1  0.000000  0.000000  0.000000  1
  Ir  Ir12  1  0.750000  0.500000  0.250000  1
  Ir  Ir13  1  0.495971  0.748317  0.244289  1
  Ir  Ir14  1  0.495971  0.251683  0.747654  1
  Ir  Ir15  1  0.755711  0.251683  0.504029  1
  Ir  Ir16  1  0.252346  0.748317  0.504029  1
