# generated using pymatgen
data_Sr3Tb(Si3Pd5)4
_symmetry_space_group_name_H-M   'P 1'
_cell_length_a   4.06612400
_cell_length_b   19.97777532
_cell_length_c   7.34192982
_cell_angle_alpha   89.87284041
_cell_angle_beta   90.00000000
_cell_angle_gamma   90.00000000
_symmetry_Int_Tables_number   1
_chemical_formula_structural   Sr3Tb(Si3Pd5)4
_chemical_formula_sum   'Sr3 Tb1 Si12 Pd20'
_cell_volume   596.39899467
_cell_formula_units_Z   1
loop_
 _symmetry_equiv_pos_site_id
 _symmetry_equiv_pos_as_xyz
  1  'x, y, z'
loop_
 _atom_site_type_symbol
 _atom_site_label
 _atom_site_symmetry_multiplicity
 _atom_site_fract_x
 _atom_site_fract_y
 _atom_site_fract_z
 _atom_site_occupancy
  Sr  Sr0  1  0.750000  0.642734  0.122536  1
  Sr  Sr1  1  0.250000  0.356154  0.877350  1
  Sr  Sr2  1  0.250000  0.858426  0.624804  1
  Tb  Tb3  1  0.750000  0.144207  0.376832  1
  Si  Si4  1  0.750000  0.737441  0.628048  1
  Si  Si5  1  0.250000  0.258996  0.370418  1
  Si  Si6  1  0.250000  0.763701  0.128326  1
  Si  Si7  1  0.750000  0.236031  0.873025  1
  Si  Si8  1  0.750000  0.925534  0.343566  1
  Si  Si9  1  0.250000  0.076375  0.647292  1
  Si  Si10  1  0.250000  0.573823  0.844228  1
  Si  Si11  1  0.750000  0.424130  0.157362  1
  Si  Si12  1  0.750000  0.918853  0.916242  1
  Si  Si13  1  0.250000  0.085325  0.098257  1
  Si  Si14  1  0.250000  0.583513  0.415764  1
  Si  Si15  1  0.750000  0.414462  0.581502  1
  Pd  Pd16  1  0.750000  0.800377  0.324220  1
  Pd  Pd17  1  0.250000  0.198139  0.669234  1
  Pd  Pd18  1  0.250000  0.700284  0.825009  1
  Pd  Pd19  1  0.750000  0.298057  0.177423  1
  Pd  Pd20  1  0.750000  0.994027  0.625459  1
  Pd  Pd21  1  0.250000  0.008710  0.373445  1
  Pd  Pd22  1  0.250000  0.504671  0.127633  1
  Pd  Pd23  1  0.750000  0.493630  0.872667  1
  Pd  Pd24  1  0.750000  0.513099  0.379431  1
  Pd  Pd25  1  0.250000  0.485622  0.619585  1
  Pd  Pd26  1  0.250000  0.991006  0.879923  1
  Pd  Pd27  1  0.750000  0.015468  0.124244  1
  Pd  Pd28  1  0.750000  0.797509  0.932677  1
  Pd  Pd29  1  0.250000  0.203127  0.068299  1
  Pd  Pd30  1  0.250000  0.704287  0.433687  1
  Pd  Pd31  1  0.750000  0.293945  0.568313  1
  Pd  Pd32  1  0.750000  0.616505  0.642707  1
  Pd  Pd33  1  0.250000  0.381222  0.358424  1
  Pd  Pd34  1  0.250000  0.885168  0.141471  1
  Pd  Pd35  1  0.750000  0.115441  0.850598  1
