# generated using pymatgen
data_Y5Th5(Pb3C)2
_symmetry_space_group_name_H-M   'P 1'
_cell_length_a   9.19447600
_cell_length_b   9.19447657
_cell_length_c   6.62440800
_cell_angle_alpha   90.00000000
_cell_angle_beta   90.00000000
_cell_angle_gamma   119.78245487
_symmetry_Int_Tables_number   1
_chemical_formula_structural   Y5Th5(Pb3C)2
_chemical_formula_sum   'Y5 Th5 Pb6 C2'
_cell_volume   486.04844734
_cell_formula_units_Z   1
loop_
 _symmetry_equiv_pos_site_id
 _symmetry_equiv_pos_as_xyz
  1  'x, y, z'
loop_
 _atom_site_type_symbol
 _atom_site_label
 _atom_site_symmetry_multiplicity
 _atom_site_fract_x
 _atom_site_fract_y
 _atom_site_fract_z
 _atom_site_occupancy
  Y  Y0  1  0.219676  0.219676  0.750000  1
  Y  Y1  1  0.332900  0.666411  0.000167  1
  Y  Y2  1  0.666411  0.332900  0.000167  1
  Y  Y3  1  0.666411  0.332900  0.499833  1
  Y  Y4  1  0.332900  0.666411  0.499833  1
  Th  Th5  1  0.219243  0.000787  0.250000  1
  Th  Th6  1  0.783310  0.001995  0.750000  1
  Th  Th7  1  0.000787  0.219243  0.250000  1
  Th  Th8  1  0.001995  0.783310  0.750000  1
  Th  Th9  1  0.781664  0.781664  0.250000  1
  Pb  Pb10  1  0.590827  0.999910  0.250000  1
  Pb  Pb11  1  0.406897  0.001871  0.750000  1
  Pb  Pb12  1  0.999910  0.590827  0.250000  1
  Pb  Pb13  1  0.001871  0.406897  0.750000  1
  Pb  Pb14  1  0.408975  0.408975  0.250000  1
  Pb  Pb15  1  0.589678  0.589678  0.750000  1
  C  C16  1  0.998273  0.998273  0.000671  1
  C  C17  1  0.998273  0.998273  0.499329  1
