# generated using pymatgen
data_Tb12Ga2TcNi3
_symmetry_space_group_name_H-M   'P 1'
_cell_length_a   8.38762747
_cell_length_b   8.38762743
_cell_length_c   8.38762754
_cell_angle_alpha   105.97428007
_cell_angle_beta   109.64839396
_cell_angle_gamma   112.86411873
_symmetry_Int_Tables_number   1
_chemical_formula_structural   Tb12Ga2TcNi3
_chemical_formula_sum   'Tb12 Ga2 Tc1 Ni3'
_cell_volume   452.61036448
_cell_formula_units_Z   1
loop_
 _symmetry_equiv_pos_site_id
 _symmetry_equiv_pos_as_xyz
  1  'x, y, z'
loop_
 _atom_site_type_symbol
 _atom_site_label
 _atom_site_symmetry_multiplicity
 _atom_site_fract_x
 _atom_site_fract_y
 _atom_site_fract_z
 _atom_site_occupancy
  Tb  Tb0  1  0.694204  0.252308  0.946512  1
  Tb  Tb1  1  0.306348  0.731714  0.038062  1
  Tb  Tb2  1  0.694204  0.747692  0.441897  1
  Tb  Tb3  1  0.306348  0.268286  0.574633  1
  Tb  Tb4  1  0.808013  0.138651  0.325599  1
  Tb  Tb5  1  0.808013  0.482415  0.669362  1
  Tb  Tb6  1  0.186948  0.861349  0.669362  1
  Tb  Tb7  1  0.186948  0.517585  0.325599  1
  Tb  Tb8  1  0.604405  0.779184  0.825221  1
  Tb  Tb9  1  0.965422  0.780167  0.185256  1
  Tb  Tb10  1  0.046037  0.220816  0.825221  1
  Tb  Tb11  1  0.405088  0.219833  0.185256  1
  Ga  Ga12  1  0.516969  0.500000  0.016969  1
  Ga  Ga13  1  0.494666  0.000000  0.494666  1
  Tc  Tc14  1  0.823833  0.500000  0.323833  1
  Ni  Ni15  1  0.153153  0.500000  0.653153  1
  Ni  Ni16  1  0.999699  0.117308  0.117007  1
  Ni  Ni17  1  0.999699  0.882692  0.882391  1
