# generated using pymatgen
data_Y5Mg2Ru3
_symmetry_space_group_name_H-M   'P 1'
_cell_length_a   8.49088170
_cell_length_b   8.49088182
_cell_length_c   8.49088300
_cell_angle_alpha   109.47122105
_cell_angle_beta   109.47122136
_cell_angle_gamma   109.47121961
_symmetry_Int_Tables_number   1
_chemical_formula_structural   Y5Mg2Ru3
_chemical_formula_sum   'Y10 Mg4 Ru6'
_cell_volume   471.23392831
_cell_formula_units_Z   2
loop_
 _symmetry_equiv_pos_site_id
 _symmetry_equiv_pos_as_xyz
  1  'x, y, z'
loop_
 _atom_site_type_symbol
 _atom_site_label
 _atom_site_symmetry_multiplicity
 _atom_site_fract_x
 _atom_site_fract_y
 _atom_site_fract_z
 _atom_site_occupancy
  Y  Y0  1  0.788810  0.000000  0.000000  1
  Y  Y1  1  0.250000  0.326757  0.076757  1
  Y  Y2  1  0.711192  0.711192  0.211192  1
  Y  Y3  1  0.173243  0.923243  0.250000  1
  Y  Y4  1  0.000000  0.500001  0.288809  1
  Y  Y5  1  0.750000  0.173243  0.423243  1
  Y  Y6  1  0.500001  0.788810  0.500001  1
  Y  Y7  1  0.923243  0.750000  0.673243  1
  Y  Y8  1  0.326757  0.576757  0.750000  1
  Y  Y9  1  0.576757  0.250000  0.826756  1
  Mg  Mg10  1  0.398669  0.000000  0.000000  1
  Mg  Mg11  1  0.500000  0.398669  0.500000  1
  Mg  Mg12  1  0.101331  0.101331  0.601331  1
  Mg  Mg13  1  0.000000  0.500000  0.898669  1
  Ru  Ru14  1  0.382901  0.750000  0.132901  1
  Ru  Ru15  1  0.632901  0.382901  0.250000  1
  Ru  Ru16  1  0.117099  0.250000  0.367099  1
  Ru  Ru17  1  0.250000  0.867099  0.617100  1
  Ru  Ru18  1  0.867098  0.117099  0.750000  1
  Ru  Ru19  1  0.750000  0.632901  0.882901  1
