# generated using pymatgen
data_Pa(VC)4
_symmetry_space_group_name_H-M   'P 1'
_cell_length_a   5.92986873
_cell_length_b   5.92986816
_cell_length_c   5.92986802
_cell_angle_alpha   94.04675769
_cell_angle_beta   94.04677387
_cell_angle_gamma   149.18869426
_symmetry_Int_Tables_number   1
_chemical_formula_structural   Pa(VC)4
_chemical_formula_sum   'Pa1 V4 C4'
_cell_volume   102.96588324
_cell_formula_units_Z   1
loop_
 _symmetry_equiv_pos_site_id
 _symmetry_equiv_pos_as_xyz
  1  'x, y, z'
loop_
 _atom_site_type_symbol
 _atom_site_label
 _atom_site_symmetry_multiplicity
 _atom_site_fract_x
 _atom_site_fract_y
 _atom_site_fract_z
 _atom_site_occupancy
  Pa  Pa0  1  0.000000  0.000000  0.000000  1
  V  V1  1  0.826930  0.632351  0.459280  1
  V  V2  1  0.173070  0.367649  0.540720  1
  V  V3  1  0.632351  0.173070  0.805421  1
  V  V4  1  0.367649  0.826930  0.194579  1
  C  C5  1  0.270441  0.597376  0.867818  1
  C  C6  1  0.729559  0.402624  0.132182  1
  C  C7  1  0.597376  0.729559  0.326934  1
  C  C8  1  0.402624  0.270441  0.673066  1
