# generated using pymatgen
data_YSc2Co7(NiP3)2
_symmetry_space_group_name_H-M   'P 1'
_cell_length_a   3.65129100
_cell_length_b   10.40862400
_cell_length_c   12.05516400
_cell_angle_alpha   90.00000000
_cell_angle_beta   90.00000000
_cell_angle_gamma   90.00000000
_symmetry_Int_Tables_number   1
_chemical_formula_structural   YSc2Co7(NiP3)2
_chemical_formula_sum   'Y2 Sc4 Co14 Ni4 P12'
_cell_volume   458.15548474
_cell_formula_units_Z   2
loop_
 _symmetry_equiv_pos_site_id
 _symmetry_equiv_pos_as_xyz
  1  'x, y, z'
loop_
 _atom_site_type_symbol
 _atom_site_label
 _atom_site_symmetry_multiplicity
 _atom_site_fract_x
 _atom_site_fract_y
 _atom_site_fract_z
 _atom_site_occupancy
  Y  Y0  1  0.000000  0.500000  0.523505  1
  Y  Y1  1  0.500000  0.000000  0.476495  1
  Sc  Sc2  1  0.500000  0.816197  0.205002  1
  Sc  Sc3  1  0.500000  0.183803  0.205002  1
  Sc  Sc4  1  0.000000  0.683803  0.794998  1
  Sc  Sc5  1  0.000000  0.316197  0.794998  1
  Co  Co6  1  0.000000  0.500000  0.984803  1
  Co  Co7  1  0.500000  0.000000  0.015197  1
  Co  Co8  1  0.500000  0.333665  0.995475  1
  Co  Co9  1  0.500000  0.666335  0.995475  1
  Co  Co10  1  0.000000  0.166335  0.004525  1
  Co  Co11  1  0.000000  0.833665  0.004525  1
  Co  Co12  1  0.500000  0.297840  0.429534  1
  Co  Co13  1  0.500000  0.702160  0.429534  1
  Co  Co14  1  0.000000  0.202160  0.570466  1
  Co  Co15  1  0.000000  0.797840  0.570466  1
  Co  Co16  1  0.500000  0.876820  0.712252  1
  Co  Co17  1  0.500000  0.123180  0.712252  1
  Co  Co18  1  0.000000  0.623180  0.287748  1
  Co  Co19  1  0.000000  0.376820  0.287748  1
  Ni  Ni20  1  0.500000  0.500000  0.161057  1
  Ni  Ni21  1  0.000000  0.000000  0.838943  1
  Ni  Ni22  1  0.500000  0.500000  0.706003  1
  Ni  Ni23  1  0.000000  0.000000  0.293997  1
  P  P24  1  0.500000  0.500000  0.881926  1
  P  P25  1  0.000000  0.000000  0.118074  1
  P  P26  1  0.500000  0.500000  0.346079  1
  P  P27  1  0.000000  0.000000  0.653921  1
  P  P28  1  0.500000  0.311105  0.619412  1
  P  P29  1  0.500000  0.688895  0.619412  1
  P  P30  1  0.000000  0.188895  0.380588  1
  P  P31  1  0.000000  0.811105  0.380588  1
  P  P32  1  0.500000  0.843363  0.892930  1
  P  P33  1  0.500000  0.156637  0.892930  1
  P  P34  1  0.000000  0.656637  0.107070  1
  P  P35  1  0.000000  0.343363  0.107070  1
