# generated using pymatgen
data_Tb7Dy12LuPb16
_symmetry_space_group_name_H-M   'P 1'
_cell_length_a   8.21129919
_cell_length_b   8.29769792
_cell_length_c   15.66473921
_cell_angle_alpha   90.00616161
_cell_angle_beta   90.01757829
_cell_angle_gamma   89.92907103
_symmetry_Int_Tables_number   1
_chemical_formula_structural   Tb7Dy12LuPb16
_chemical_formula_sum   'Tb7 Dy12 Lu1 Pb16'
_cell_volume   1067.31425473
_cell_formula_units_Z   1
loop_
 _symmetry_equiv_pos_site_id
 _symmetry_equiv_pos_as_xyz
  1  'x, y, z'
loop_
 _atom_site_type_symbol
 _atom_site_label
 _atom_site_symmetry_multiplicity
 _atom_site_fract_x
 _atom_site_fract_y
 _atom_site_fract_z
 _atom_site_occupancy
  Tb  Tb0  1  0.034521  0.177236  0.600180  1
  Tb  Tb1  1  0.465788  0.676683  0.400020  1
  Tb  Tb2  1  0.965678  0.823351  0.100229  1
  Tb  Tb3  1  0.465747  0.676644  0.099964  1
  Tb  Tb4  1  0.965717  0.823312  0.399779  1
  Tb  Tb5  1  0.533945  0.323688  0.600157  1
  Tb  Tb6  1  0.034552  0.177246  0.899843  1
  Dy  Dy7  1  0.376382  0.840890  0.879333  1
  Dy  Dy8  1  0.877344  0.658515  0.620739  1
  Dy  Dy9  1  0.623209  0.158987  0.379389  1
  Dy  Dy10  1  0.123219  0.340980  0.120327  1
  Dy  Dy11  1  0.623145  0.159037  0.120547  1
  Dy  Dy12  1  0.123292  0.341012  0.379666  1
  Dy  Dy13  1  0.376349  0.840876  0.620696  1
  Dy  Dy14  1  0.877332  0.658452  0.879273  1
  Dy  Dy15  1  0.534094  0.323777  0.899732  1
  Dy  Dy16  1  0.708504  0.996131  0.750050  1
  Dy  Dy17  1  0.791344  0.496091  0.249992  1
  Dy  Dy18  1  0.291341  0.004133  0.249982  1
  Lu  Lu19  1  0.209038  0.504386  0.750061  1
  Pb  Pb20  1  0.281481  0.033475  0.042735  1
  Pb  Pb21  1  0.781404  0.466229  0.457331  1
  Pb  Pb22  1  0.718625  0.966379  0.542937  1
  Pb  Pb23  1  0.218826  0.532979  0.956297  1
  Pb  Pb24  1  0.718527  0.966571  0.957041  1
  Pb  Pb25  1  0.218529  0.533238  0.543654  1
  Pb  Pb26  1  0.281514  0.033505  0.457288  1
  Pb  Pb27  1  0.781215  0.466068  0.042528  1
  Pb  Pb28  1  0.571011  0.625550  0.750006  1
  Pb  Pb29  1  0.072838  0.872559  0.750012  1
  Pb  Pb30  1  0.427382  0.373476  0.249992  1
  Pb  Pb31  1  0.927444  0.126756  0.250013  1
  Pb  Pb32  1  0.345511  0.154165  0.750160  1
  Pb  Pb33  1  0.845891  0.348188  0.750045  1
  Pb  Pb34  1  0.654506  0.847665  0.249997  1
  Pb  Pb35  1  0.154761  0.651769  0.250004  1
