# generated using pymatgen
data_RbNaReH9
_symmetry_space_group_name_H-M   'P 1'
_cell_length_a   9.22321000
_cell_length_b   9.22320936
_cell_length_c   5.62283900
_cell_angle_alpha   90.00000000
_cell_angle_beta   90.00000000
_cell_angle_gamma   119.99999513
_symmetry_Int_Tables_number   1
_chemical_formula_structural   RbNaReH9
_chemical_formula_sum   'Rb3 Na3 Re3 H27'
_cell_volume   414.23850460
_cell_formula_units_Z   3
loop_
 _symmetry_equiv_pos_site_id
 _symmetry_equiv_pos_as_xyz
  1  'x, y, z'
loop_
 _atom_site_type_symbol
 _atom_site_label
 _atom_site_symmetry_multiplicity
 _atom_site_fract_x
 _atom_site_fract_y
 _atom_site_fract_z
 _atom_site_occupancy
  Rb  Rb0  1  0.588789  0.000000  0.000000  1
  Rb  Rb1  1  0.000000  0.588789  0.000000  1
  Rb  Rb2  1  0.411211  0.411211  0.000000  1
  Na  Na3  1  0.266719  0.000000  0.500000  1
  Na  Na4  1  0.000000  0.266719  0.500000  1
  Na  Na5  1  0.733281  0.733281  0.500000  1
  Re  Re6  1  0.000000  0.000000  0.000000  1
  Re  Re7  1  0.333333  0.666667  0.500000  1
  Re  Re8  1  0.666667  0.333333  0.500000  1
  H  H9  1  0.870094  0.000000  0.218174  1
  H  H10  1  0.000000  0.870094  0.218174  1
  H  H11  1  0.870094  0.000000  0.781826  1
  H  H12  1  0.000000  0.870094  0.781826  1
  H  H13  1  0.129906  0.129906  0.218174  1
  H  H14  1  0.129906  0.129906  0.781826  1
  H  H15  1  0.182865  0.000000  0.000000  1
  H  H16  1  0.000000  0.182865  0.000000  1
  H  H17  1  0.817135  0.817135  0.000000  1
  H  H18  1  0.218600  0.524033  0.284253  1
  H  H19  1  0.475967  0.694566  0.284253  1
  H  H20  1  0.218600  0.524033  0.715747  1
  H  H21  1  0.524033  0.218600  0.715747  1
  H  H22  1  0.305434  0.781400  0.284253  1
  H  H23  1  0.475967  0.694566  0.715747  1
  H  H24  1  0.694566  0.475967  0.715747  1
  H  H25  1  0.524033  0.218600  0.284253  1
  H  H26  1  0.305434  0.781400  0.715747  1
  H  H27  1  0.694566  0.475967  0.284253  1
  H  H28  1  0.781400  0.305434  0.715747  1
  H  H29  1  0.781400  0.305434  0.284253  1
  H  H30  1  0.371129  0.506306  0.500000  1
  H  H31  1  0.493694  0.864823  0.500000  1
  H  H32  1  0.506306  0.371129  0.500000  1
  H  H33  1  0.135177  0.628871  0.500000  1
  H  H34  1  0.864823  0.493694  0.500000  1
  H  H35  1  0.628871  0.135177  0.500000  1
