# generated using pymatgen
data_HoLu5MgCo17P12
_symmetry_space_group_name_H-M   'P 1'
_cell_length_a   3.67600500
_cell_length_b   10.49816800
_cell_length_c   12.13368900
_cell_angle_alpha   90.00000000
_cell_angle_beta   90.00000000
_cell_angle_gamma   90.00000000
_symmetry_Int_Tables_number   1
_chemical_formula_structural   HoLu5MgCo17P12
_chemical_formula_sum   'Ho1 Lu5 Mg1 Co17 P12'
_cell_volume   468.25505143
_cell_formula_units_Z   1
loop_
 _symmetry_equiv_pos_site_id
 _symmetry_equiv_pos_as_xyz
  1  'x, y, z'
loop_
 _atom_site_type_symbol
 _atom_site_label
 _atom_site_symmetry_multiplicity
 _atom_site_fract_x
 _atom_site_fract_y
 _atom_site_fract_z
 _atom_site_occupancy
  Ho  Ho0  1  0.500000  0.000000  0.477044  1
  Lu  Lu1  1  0.000000  0.500000  0.526408  1
  Lu  Lu2  1  0.500000  0.822617  0.207197  1
  Lu  Lu3  1  0.500000  0.177383  0.207197  1
  Lu  Lu4  1  0.000000  0.681584  0.794347  1
  Lu  Lu5  1  0.000000  0.318416  0.794347  1
  Mg  Mg6  1  0.500000  0.500000  0.155231  1
  Co  Co7  1  0.000000  0.000000  0.837921  1
  Co  Co8  1  0.500000  0.500000  0.704485  1
  Co  Co9  1  0.000000  0.000000  0.294849  1
  Co  Co10  1  0.000000  0.500000  0.986368  1
  Co  Co11  1  0.500000  0.000000  0.011821  1
  Co  Co12  1  0.500000  0.329250  0.992951  1
  Co  Co13  1  0.500000  0.670750  0.992951  1
  Co  Co14  1  0.000000  0.163689  0.001603  1
  Co  Co15  1  0.000000  0.836311  0.001603  1
  Co  Co16  1  0.500000  0.296801  0.433367  1
  Co  Co17  1  0.500000  0.703199  0.433367  1
  Co  Co18  1  0.000000  0.203108  0.570315  1
  Co  Co19  1  0.000000  0.796892  0.570315  1
  Co  Co20  1  0.500000  0.878675  0.708247  1
  Co  Co21  1  0.500000  0.121325  0.708247  1
  Co  Co22  1  0.000000  0.623704  0.293224  1
  Co  Co23  1  0.000000  0.376296  0.293224  1
  P  P24  1  0.500000  0.500000  0.882718  1
  P  P25  1  0.000000  0.000000  0.116465  1
  P  P26  1  0.500000  0.500000  0.356839  1
  P  P27  1  0.000000  0.000000  0.653810  1
  P  P28  1  0.500000  0.311741  0.618168  1
  P  P29  1  0.500000  0.688259  0.618168  1
  P  P30  1  0.000000  0.188380  0.384410  1
  P  P31  1  0.000000  0.811620  0.384410  1
  P  P32  1  0.500000  0.848252  0.888743  1
  P  P33  1  0.500000  0.151748  0.888743  1
  P  P34  1  0.000000  0.663926  0.105448  1
  P  P35  1  0.000000  0.336074  0.105448  1
