# generated using pymatgen
data_Y4Pa(PdPt2)5
_symmetry_space_group_name_H-M   'P 1'
_cell_length_a   4.15634900
_cell_length_b   4.13435200
_cell_length_c   20.62931400
_cell_angle_alpha   90.00000000
_cell_angle_beta   90.00000000
_cell_angle_gamma   90.00000000
_symmetry_Int_Tables_number   1
_chemical_formula_structural   Y4Pa(PdPt2)5
_chemical_formula_sum   'Y4 Pa1 Pd5 Pt10'
_cell_volume   354.49020810
_cell_formula_units_Z   1
loop_
 _symmetry_equiv_pos_site_id
 _symmetry_equiv_pos_as_xyz
  1  'x, y, z'
loop_
 _atom_site_type_symbol
 _atom_site_label
 _atom_site_symmetry_multiplicity
 _atom_site_fract_x
 _atom_site_fract_y
 _atom_site_fract_z
 _atom_site_occupancy
  Y  Y0  1  0.000000  0.000000  0.203754  1
  Y  Y1  1  0.000000  0.000000  0.400666  1
  Y  Y2  1  0.000000  0.000000  0.599334  1
  Y  Y3  1  0.000000  0.000000  0.796246  1
  Pa  Pa4  1  0.000000  0.000000  0.000000  1
  Pd  Pd5  1  0.500000  0.500000  0.198574  1
  Pd  Pd6  1  0.500000  0.500000  0.399922  1
  Pd  Pd7  1  0.500000  0.500000  0.600078  1
  Pd  Pd8  1  0.500000  0.500000  0.801426  1
  Pd  Pd9  1  0.000000  0.500000  0.500000  1
  Pt  Pt10  1  0.500000  0.500000  0.000000  1
  Pt  Pt11  1  0.500000  0.000000  0.097682  1
  Pt  Pt12  1  0.500000  0.000000  0.300237  1
  Pt  Pt13  1  0.500000  0.000000  0.500000  1
  Pt  Pt14  1  0.500000  0.000000  0.699763  1
  Pt  Pt15  1  0.500000  0.000000  0.902318  1
  Pt  Pt16  1  0.000000  0.500000  0.097627  1
  Pt  Pt17  1  0.000000  0.500000  0.299841  1
  Pt  Pt18  1  0.000000  0.500000  0.700159  1
  Pt  Pt19  1  0.000000  0.500000  0.902373  1
