# generated using pymatgen
data_CrAg3(NO3)8
_symmetry_space_group_name_H-M   'P 1'
_cell_length_a   7.96517938
_cell_length_b   7.96517935
_cell_length_c   7.96517991
_cell_angle_alpha   88.62744156
_cell_angle_beta   91.37255447
_cell_angle_gamma   91.37255505
_symmetry_Int_Tables_number   1
_chemical_formula_structural   CrAg3(NO3)8
_chemical_formula_sum   'Cr1 Ag3 N8 O24'
_cell_volume   504.91537277
_cell_formula_units_Z   1
loop_
 _symmetry_equiv_pos_site_id
 _symmetry_equiv_pos_as_xyz
  1  'x, y, z'
loop_
 _atom_site_type_symbol
 _atom_site_label
 _atom_site_symmetry_multiplicity
 _atom_site_fract_x
 _atom_site_fract_y
 _atom_site_fract_z
 _atom_site_occupancy
  Cr  Cr0  1  0.000000  0.000000  0.500000  1
  Ag  Ag1  1  0.500000  0.500000  0.500000  1
  Ag  Ag2  1  0.500000  0.000000  0.000000  1
  Ag  Ag3  1  0.000000  0.500000  0.000000  1
  N  N4  1  0.691515  0.136498  0.314455  1
  N  N5  1  0.667242  0.332758  0.832758  1
  N  N6  1  0.863502  0.814455  0.808485  1
  N  N7  1  0.814455  0.691515  0.363502  1
  N  N8  1  0.136498  0.185545  0.191515  1
  N  N9  1  0.185545  0.308485  0.636498  1
  N  N10  1  0.332758  0.667242  0.167242  1
  N  N11  1  0.308485  0.863502  0.685545  1
  O  O12  1  0.547107  0.227315  0.818354  1
  O  O13  1  0.578223  0.239818  0.303400  1
  O  O14  1  0.681646  0.452893  0.727315  1
  O  O15  1  0.711782  0.026600  0.204765  1
  O  O16  1  0.704765  0.711782  0.473400  1
  O  O17  1  0.760182  0.803400  0.921777  1
  O  O18  1  0.772685  0.318354  0.952893  1
  O  O19  1  0.793950  0.140500  0.443604  1
  O  O20  1  0.859500  0.943604  0.706050  1
  O  O21  1  0.803400  0.578223  0.260182  1
  O  O22  1  0.973400  0.704765  0.788218  1
  O  O23  1  0.943604  0.793950  0.359500  1
  O  O24  1  0.056396  0.206050  0.640500  1
  O  O25  1  0.026600  0.295235  0.211782  1
  O  O26  1  0.196600  0.421777  0.739818  1
  O  O27  1  0.140500  0.056396  0.293950  1
  O  O28  1  0.227315  0.681646  0.047107  1
  O  O29  1  0.206050  0.859500  0.556396  1
  O  O30  1  0.239818  0.196600  0.078223  1
  O  O31  1  0.295235  0.288218  0.526600  1
  O  O32  1  0.318354  0.547107  0.272685  1
  O  O33  1  0.288218  0.973400  0.795235  1
  O  O34  1  0.421777  0.760182  0.696600  1
  O  O35  1  0.452893  0.772685  0.181646  1
