# generated using pymatgen
data_Cs(PtO3)2
_symmetry_space_group_name_H-M   'P 1'
_cell_length_a   7.27085103
_cell_length_b   7.27085080
_cell_length_c   7.27085100
_cell_angle_alpha   60.00000362
_cell_angle_beta   60.00000470
_cell_angle_gamma   60.00000206
_symmetry_Int_Tables_number   1
_chemical_formula_structural   Cs(PtO3)2
_chemical_formula_sum   'Cs2 Pt4 O12'
_cell_volume   271.79456031
_cell_formula_units_Z   2
loop_
 _symmetry_equiv_pos_site_id
 _symmetry_equiv_pos_as_xyz
  1  'x, y, z'
loop_
 _atom_site_type_symbol
 _atom_site_label
 _atom_site_symmetry_multiplicity
 _atom_site_fract_x
 _atom_site_fract_y
 _atom_site_fract_z
 _atom_site_occupancy
  Cs  Cs0  1  0.250000  0.250000  0.250000  1
  Cs  Cs1  1  0.000000  0.000000  0.000000  1
  Pt  Pt2  1  0.625000  0.625000  0.625000  1
  Pt  Pt3  1  0.625000  0.625000  0.125000  1
  Pt  Pt4  1  0.125000  0.625000  0.625000  1
  Pt  Pt5  1  0.625000  0.125000  0.625000  1
  O  O6  1  0.549989  0.549989  0.950011  1
  O  O7  1  0.950011  0.549989  0.549989  1
  O  O8  1  0.299989  0.299989  0.700011  1
  O  O9  1  0.700011  0.299989  0.299989  1
  O  O10  1  0.549989  0.950011  0.549989  1
  O  O11  1  0.950011  0.549989  0.950011  1
  O  O12  1  0.700011  0.299989  0.700011  1
  O  O13  1  0.549989  0.950011  0.950011  1
  O  O14  1  0.950011  0.950011  0.549989  1
  O  O15  1  0.299989  0.700011  0.299989  1
  O  O16  1  0.700011  0.700011  0.299989  1
  O  O17  1  0.299989  0.700011  0.700011  1
