# generated using pymatgen
data_Li2P2PtRh
_symmetry_space_group_name_H-M   'P 1'
_cell_length_a   3.91631800
_cell_length_b   6.49341711
_cell_length_c   6.85900374
_cell_angle_alpha   89.83437081
_cell_angle_beta   90.00000000
_cell_angle_gamma   90.00000000
_symmetry_Int_Tables_number   1
_chemical_formula_structural   Li2P2PtRh
_chemical_formula_sum   'Li4 P4 Pt2 Rh2'
_cell_volume   174.42569997
_cell_formula_units_Z   2
loop_
 _symmetry_equiv_pos_site_id
 _symmetry_equiv_pos_as_xyz
  1  'x, y, z'
loop_
 _atom_site_type_symbol
 _atom_site_label
 _atom_site_symmetry_multiplicity
 _atom_site_fract_x
 _atom_site_fract_y
 _atom_site_fract_z
 _atom_site_occupancy
  Li  Li0  1  0.250000  0.519046  0.168356  1
  Li  Li1  1  0.750000  0.480954  0.831644  1
  Li  Li2  1  0.750000  0.981835  0.669604  1
  Li  Li3  1  0.250000  0.018165  0.330396  1
  P  P4  1  0.250000  0.782183  0.868255  1
  P  P5  1  0.750000  0.217817  0.131745  1
  P  P6  1  0.750000  0.713640  0.383905  1
  P  P7  1  0.250000  0.286360  0.616095  1
  Pt  Pt8  1  0.750000  0.845634  0.061807  1
  Pt  Pt9  1  0.250000  0.154366  0.938193  1
  Rh  Rh10  1  0.250000  0.645543  0.557991  1
  Rh  Rh11  1  0.750000  0.354457  0.442009  1
