# generated using pymatgen
data_TbZr3(SbRh5)2
_symmetry_space_group_name_H-M   'P 1'
_cell_length_a   4.16067100
_cell_length_b   5.69105992
_cell_length_c   11.12060700
_cell_angle_alpha   89.93274787
_cell_angle_beta   90.00000000
_cell_angle_gamma   90.00000000
_symmetry_Int_Tables_number   1
_chemical_formula_structural   TbZr3(SbRh5)2
_chemical_formula_sum   'Tb1 Zr3 Sb2 Rh10'
_cell_volume   263.32053456
_cell_formula_units_Z   1
loop_
 _symmetry_equiv_pos_site_id
 _symmetry_equiv_pos_as_xyz
  1  'x, y, z'
loop_
 _atom_site_type_symbol
 _atom_site_label
 _atom_site_symmetry_multiplicity
 _atom_site_fract_x
 _atom_site_fract_y
 _atom_site_fract_z
 _atom_site_occupancy
  Tb  Tb0  1  0.500000  0.320208  0.141769  1
  Zr  Zr1  1  0.500000  0.176341  0.641874  1
  Zr  Zr2  1  0.500000  0.822144  0.356578  1
  Zr  Zr3  1  0.500000  0.676650  0.856083  1
  Sb  Sb4  1  0.000000  0.501500  0.501076  1
  Sb  Sb5  1  0.000000  0.998644  0.998053  1
  Rh  Rh6  1  0.500000  0.197193  0.883157  1
  Rh  Rh7  1  0.500000  0.805717  0.111160  1
  Rh  Rh8  1  0.500000  0.699941  0.611488  1
  Rh  Rh9  1  0.500000  0.299072  0.395707  1
  Rh  Rh10  1  0.000000  0.433549  0.744364  1
  Rh  Rh11  1  0.000000  0.569154  0.258370  1
  Rh  Rh12  1  0.000000  0.999102  0.501564  1
  Rh  Rh13  1  0.000000  0.508356  0.993990  1
  Rh  Rh14  1  0.000000  0.058207  0.251698  1
  Rh  Rh15  1  0.000000  0.934222  0.753069  1
