# generated using pymatgen
data_Li4TmNi9As5P2
_symmetry_space_group_name_H-M   'P 1'
_cell_length_a   9.37506466
_cell_length_b   9.35977329
_cell_length_c   3.73063600
_cell_angle_alpha   90.00000000
_cell_angle_beta   90.00000000
_cell_angle_gamma   120.09762464
_symmetry_Int_Tables_number   1
_chemical_formula_structural   Li4TmNi9As5P2
_chemical_formula_sum   'Li4 Tm1 Ni9 As5 P2'
_cell_volume   283.22073143
_cell_formula_units_Z   1
loop_
 _symmetry_equiv_pos_site_id
 _symmetry_equiv_pos_as_xyz
  1  'x, y, z'
loop_
 _atom_site_type_symbol
 _atom_site_label
 _atom_site_symmetry_multiplicity
 _atom_site_fract_x
 _atom_site_fract_y
 _atom_site_fract_z
 _atom_site_occupancy
  Li  Li0  1  0.769295  0.553248  0.500000  1
  Li  Li1  1  0.449140  0.216907  0.500000  1
  Li  Li2  1  0.773426  0.224530  0.500000  1
  Li  Li3  1  0.000451  0.002359  0.500000  1
  Tm  Tm4  1  0.338245  0.670227  0.000000  1
  Ni  Ni5  1  0.284525  0.387219  0.500000  1
  Ni  Ni6  1  0.607690  0.885538  0.500000  1
  Ni  Ni7  1  0.113231  0.731597  0.500000  1
  Ni  Ni8  1  0.500190  0.459549  0.000000  1
  Ni  Ni9  1  0.542426  0.040106  0.000000  1
  Ni  Ni10  1  0.954775  0.504812  0.000000  1
  Ni  Ni11  1  0.710425  0.757162  0.000000  1
  Ni  Ni12  1  0.245475  0.954391  0.000000  1
  Ni  Ni13  1  0.044051  0.280140  0.000000  1
  As  As14  1  0.965313  0.759893  0.000000  1
  As  As15  1  0.246904  0.208519  0.000000  1
  As  As16  1  0.789205  0.033183  0.000000  1
  As  As17  1  0.665693  0.333573  0.000000  1
  As  As18  1  0.076630  0.456474  0.500000  1
  P  P19  1  0.541593  0.619143  0.500000  1
  P  P20  1  0.381320  0.921429  0.500000  1
