# generated using pymatgen
data_Y2Ho6Re3TcB24
_symmetry_space_group_name_H-M   'P 1'
_cell_length_a   3.67477700
_cell_length_b   9.16345924
_cell_length_c   11.54661600
_cell_angle_alpha   90.03062338
_cell_angle_beta   90.00000000
_cell_angle_gamma   90.00000000
_symmetry_Int_Tables_number   1
_chemical_formula_structural   Y2Ho6Re3TcB24
_chemical_formula_sum   'Y2 Ho6 Re3 Tc1 B24'
_cell_volume   388.81687251
_cell_formula_units_Z   1
loop_
 _symmetry_equiv_pos_site_id
 _symmetry_equiv_pos_as_xyz
  1  'x, y, z'
loop_
 _atom_site_type_symbol
 _atom_site_label
 _atom_site_symmetry_multiplicity
 _atom_site_fract_x
 _atom_site_fract_y
 _atom_site_fract_z
 _atom_site_occupancy
  Y  Y0  1  0.000000  0.323860  0.413842  1
  Y  Y1  1  0.000000  0.676443  0.585866  1
  Ho  Ho2  1  0.000000  0.823764  0.086041  1
  Ho  Ho3  1  0.000000  0.176467  0.913989  1
  Ho  Ho4  1  0.000000  0.942141  0.369615  1
  Ho  Ho5  1  0.000000  0.056788  0.629849  1
  Ho  Ho6  1  0.000000  0.443773  0.130645  1
  Ho  Ho7  1  0.000000  0.556771  0.870278  1
  Re  Re8  1  0.000000  0.361167  0.679476  1
  Re  Re9  1  0.000000  0.138611  0.179201  1
  Re  Re10  1  0.000000  0.861491  0.820817  1
  Tc  Tc11  1  0.000000  0.638971  0.320485  1
  B  B12  1  0.500000  0.553533  0.432673  1
  B  B13  1  0.500000  0.446689  0.567023  1
  B  B14  1  0.500000  0.053332  0.066954  1
  B  B15  1  0.500000  0.946789  0.933022  1
  B  B16  1  0.500000  0.749025  0.418489  1
  B  B17  1  0.500000  0.250558  0.581321  1
  B  B18  1  0.500000  0.249506  0.081177  1
  B  B19  1  0.500000  0.750697  0.918872  1
  B  B20  1  0.500000  0.792001  0.265240  1
  B  B21  1  0.500000  0.207594  0.734580  1
  B  B22  1  0.500000  0.292303  0.234601  1
  B  B23  1  0.500000  0.707680  0.765565  1
  B  B24  1  0.500000  0.631184  0.185611  1
  B  B25  1  0.500000  0.369038  0.814520  1
  B  B26  1  0.500000  0.130627  0.314452  1
  B  B27  1  0.500000  0.869167  0.685557  1
  B  B28  1  0.500000  0.982143  0.211827  1
  B  B29  1  0.500000  0.017784  0.788063  1
  B  B30  1  0.500000  0.482740  0.288095  1
  B  B31  1  0.500000  0.517606  0.712100  1
  B  B32  1  0.500000  0.600306  0.028129  1
  B  B33  1  0.500000  0.399905  0.972240  1
  B  B34  1  0.500000  0.099685  0.471910  1
  B  B35  1  0.500000  0.899863  0.527875  1
