# generated using pymatgen
data_Y6Al7Pd16Cl
_symmetry_space_group_name_H-M   'P 1'
_cell_length_a   9.04846477
_cell_length_b   9.04846462
_cell_length_c   9.04846400
_cell_angle_alpha   59.99998763
_cell_angle_beta   59.99999550
_cell_angle_gamma   60.00000334
_symmetry_Int_Tables_number   1
_chemical_formula_structural   Y6Al7Pd16Cl
_chemical_formula_sum   'Y6 Al7 Pd16 Cl1'
_cell_volume   523.85321396
_cell_formula_units_Z   1
loop_
 _symmetry_equiv_pos_site_id
 _symmetry_equiv_pos_as_xyz
  1  'x, y, z'
loop_
 _atom_site_type_symbol
 _atom_site_label
 _atom_site_symmetry_multiplicity
 _atom_site_fract_x
 _atom_site_fract_y
 _atom_site_fract_z
 _atom_site_occupancy
  Y  Y0  1  0.717768  0.282232  0.282232  1
  Y  Y1  1  0.282232  0.717768  0.717768  1
  Y  Y2  1  0.282232  0.717768  0.282232  1
  Y  Y3  1  0.717768  0.282232  0.717768  1
  Y  Y4  1  0.282232  0.282232  0.717768  1
  Y  Y5  1  0.717768  0.717768  0.282232  1
  Al  Al6  1  0.000000  0.000000  0.000000  1
  Al  Al7  1  0.500000  0.000000  0.000000  1
  Al  Al8  1  0.000000  0.500000  0.500000  1
  Al  Al9  1  0.000000  0.500000  0.000000  1
  Al  Al10  1  0.500000  0.000000  0.500000  1
  Al  Al11  1  0.000000  0.000000  0.500000  1
  Al  Al12  1  0.500000  0.500000  0.000000  1
  Pd  Pd13  1  0.118931  0.118931  0.118931  1
  Pd  Pd14  1  0.881069  0.881069  0.881069  1
  Pd  Pd15  1  0.118931  0.118931  0.643208  1
  Pd  Pd16  1  0.118931  0.643207  0.118931  1
  Pd  Pd17  1  0.881069  0.881069  0.356792  1
  Pd  Pd18  1  0.881069  0.356793  0.881069  1
  Pd  Pd19  1  0.643207  0.118931  0.118931  1
  Pd  Pd20  1  0.356793  0.881069  0.881069  1
  Pd  Pd21  1  0.333861  0.333861  0.333861  1
  Pd  Pd22  1  0.666139  0.666139  0.666139  1
  Pd  Pd23  1  0.333861  0.333861  0.998415  1
  Pd  Pd24  1  0.333861  0.998415  0.333861  1
  Pd  Pd25  1  0.666139  0.666139  0.001585  1
  Pd  Pd26  1  0.666139  0.001585  0.666139  1
  Pd  Pd27  1  0.998415  0.333861  0.333861  1
  Pd  Pd28  1  0.001585  0.666139  0.666139  1
  Cl  Cl29  1  0.500000  0.500000  0.500000  1
