# generated using pymatgen
data_Cs12Na3Ca5(Bi3Pb)4
_symmetry_space_group_name_H-M   'P 1'
_cell_length_a   15.27421242
_cell_length_b   15.27421183
_cell_length_c   15.26985888
_cell_angle_alpha   150.56277139
_cell_angle_beta   106.74681067
_cell_angle_gamma   80.86811954
_symmetry_Int_Tables_number   1
_chemical_formula_structural   Cs12Na3Ca5(Bi3Pb)4
_chemical_formula_sum   'Cs12 Na3 Ca5 Bi12 Pb4'
_cell_volume   1644.07999788
_cell_formula_units_Z   1
loop_
 _symmetry_equiv_pos_site_id
 _symmetry_equiv_pos_as_xyz
  1  'x, y, z'
loop_
 _atom_site_type_symbol
 _atom_site_label
 _atom_site_symmetry_multiplicity
 _atom_site_fract_x
 _atom_site_fract_y
 _atom_site_fract_z
 _atom_site_occupancy
  Cs  Cs0  1  0.587721  0.928529  0.192964  1
  Cs  Cs1  1  0.082734  0.750966  0.834175  1
  Cs  Cs2  1  0.912455  0.103614  0.340003  1
  Cs  Cs3  1  0.405296  0.074763  0.810052  1
  Cs  Cs4  1  0.764711  0.595243  0.689948  1
  Cs  Cs5  1  0.235565  0.394757  0.307036  1
  Cs  Cs6  1  0.088479  0.895768  0.659876  1
  Cs  Cs7  1  0.416792  0.248559  0.665825  1
  Cs  Cs8  1  0.735892  0.428603  0.840124  1
  Cs  Cs9  1  0.263611  0.572453  0.159997  1
  Cs  Cs10  1  0.924372  0.259133  0.178192  1
  Cs  Cs11  1  0.580941  0.746180  0.321808  1
  Na  Na12  1  0.166619  0.416619  0.750000  1
  Na  Na13  1  0.333381  0.083381  0.250000  1
  Na  Na14  1  0.833371  0.583371  0.250000  1
  Ca  Ca15  1  0.001708  0.251708  0.750000  1
  Ca  Ca16  1  0.666074  0.916074  0.750000  1
  Ca  Ca17  1  0.998932  0.748932  0.250000  1
  Ca  Ca18  1  0.498805  0.248805  0.250000  1
  Ca  Ca19  1  0.497817  0.747817  0.750000  1
  Bi  Bi20  1  0.345776  0.750491  0.097285  1
  Bi  Bi21  1  0.486529  0.579856  0.400342  1
  Bi  Bi22  1  0.984310  0.595705  0.915164  1
  Bi  Bi23  1  0.516416  0.426582  0.608470  1
  Bi  Bi24  1  0.318112  0.907945  0.891530  1
  Bi  Bi25  1  0.679514  0.086189  0.099658  1
  Bi  Bi26  1  0.017691  0.407944  0.088698  1
  Bi  Bi27  1  0.653825  0.242797  0.897013  1
  Bi  Bi28  1  0.819246  0.928992  0.411302  1
  Bi  Bi29  1  0.153206  0.248491  0.402715  1
  Bi  Bi30  1  0.180541  0.069147  0.584836  1
  Bi  Bi31  1  0.845784  0.756812  0.602987  1
  Pb  Pb32  1  0.668100  0.418100  0.250000  1
  Pb  Pb33  1  0.166426  0.916426  0.250000  1
  Pb  Pb34  1  0.836464  0.086464  0.750000  1
  Pb  Pb35  1  0.332784  0.582784  0.750000  1
