# generated using pymatgen
data_DyTmU2(B4Ru)4
_symmetry_space_group_name_H-M   'P 1'
_cell_length_a   3.55115500
_cell_length_b   5.95520453
_cell_length_c   11.52643731
_cell_angle_alpha   90.11749054
_cell_angle_beta   90.00000000
_cell_angle_gamma   90.00000000
_symmetry_Int_Tables_number   1
_chemical_formula_structural   DyTmU2(B4Ru)4
_chemical_formula_sum   'Dy1 Tm1 U2 B16 Ru4'
_cell_volume   243.75890497
_cell_formula_units_Z   1
loop_
 _symmetry_equiv_pos_site_id
 _symmetry_equiv_pos_as_xyz
  1  'x, y, z'
loop_
 _atom_site_type_symbol
 _atom_site_label
 _atom_site_symmetry_multiplicity
 _atom_site_fract_x
 _atom_site_fract_y
 _atom_site_fract_z
 _atom_site_occupancy
  Dy  Dy0  1  0.500000  0.628771  0.351599  1
  Tm  Tm1  1  0.500000  0.371313  0.648495  1
  U  U2  1  0.500000  0.127559  0.150923  1
  U  U3  1  0.500000  0.872246  0.848792  1
  B  B4  1  0.000000  0.473879  0.191779  1
  B  B5  1  0.000000  0.525223  0.807380  1
  B  B6  1  0.000000  0.973850  0.308173  1
  B  B7  1  0.000000  0.027129  0.692062  1
  B  B8  1  0.000000  0.287975  0.312627  1
  B  B9  1  0.000000  0.710384  0.687345  1
  B  B10  1  0.000000  0.790804  0.186680  1
  B  B11  1  0.000000  0.209581  0.812688  1
  B  B12  1  0.000000  0.363841  0.469706  1
  B  B13  1  0.000000  0.636126  0.531600  1
  B  B14  1  0.000000  0.867943  0.032486  1
  B  B15  1  0.000000  0.132066  0.967086  1
  B  B16  1  0.000000  0.385407  0.046667  1
  B  B17  1  0.000000  0.614350  0.952738  1
  B  B18  1  0.000000  0.887276  0.454529  1
  B  B19  1  0.000000  0.114234  0.546646  1
  Ru  Ru20  1  0.500000  0.138850  0.405497  1
  Ru  Ru21  1  0.500000  0.861252  0.595545  1
  Ru  Ru22  1  0.500000  0.641145  0.093069  1
  Ru  Ru23  1  0.500000  0.358799  0.905887  1
