# generated using pymatgen
data_Ho8Al3Os
_symmetry_space_group_name_H-M   'P 1'
_cell_length_a   10.19282800
_cell_length_b   10.19282938
_cell_length_c   6.89537800
_cell_angle_alpha   90.00000000
_cell_angle_beta   90.00000000
_cell_angle_gamma   120.00000201
_symmetry_Int_Tables_number   1
_chemical_formula_structural   Ho8Al3Os
_chemical_formula_sum   'Ho16 Al6 Os2'
_cell_volume   620.40908957
_cell_formula_units_Z   2
loop_
 _symmetry_equiv_pos_site_id
 _symmetry_equiv_pos_as_xyz
  1  'x, y, z'
loop_
 _atom_site_type_symbol
 _atom_site_label
 _atom_site_symmetry_multiplicity
 _atom_site_fract_x
 _atom_site_fract_y
 _atom_site_fract_z
 _atom_site_occupancy
  Ho  Ho0  1  0.173998  0.826002  0.996990  1
  Ho  Ho1  1  0.347995  0.173998  0.496990  1
  Ho  Ho2  1  0.826002  0.652005  0.496990  1
  Ho  Ho3  1  0.173998  0.347995  0.996990  1
  Ho  Ho4  1  0.652005  0.826002  0.996990  1
  Ho  Ho5  1  0.826002  0.173998  0.496990  1
  Ho  Ho6  1  0.333333  0.666667  0.658186  1
  Ho  Ho7  1  0.666667  0.333333  0.158186  1
  Ho  Ho8  1  0.468900  0.531100  0.292386  1
  Ho  Ho9  1  0.937800  0.468900  0.792386  1
  Ho  Ho10  1  0.531100  0.062200  0.792386  1
  Ho  Ho11  1  0.468900  0.937800  0.292386  1
  Ho  Ho12  1  0.062200  0.531100  0.292386  1
  Ho  Ho13  1  0.531100  0.468900  0.792386  1
  Ho  Ho14  1  0.000000  0.000000  0.273400  1
  Ho  Ho15  1  0.000000  0.000000  0.773400  1
  Al  Al16  1  0.162731  0.837269  0.532655  1
  Al  Al17  1  0.325461  0.162731  0.032655  1
  Al  Al18  1  0.837269  0.674539  0.032655  1
  Al  Al19  1  0.162731  0.325461  0.532655  1
  Al  Al20  1  0.674539  0.837269  0.532655  1
  Al  Al21  1  0.837269  0.162731  0.032655  1
  Os  Os22  1  0.333333  0.666667  0.065321  1
  Os  Os23  1  0.666667  0.333333  0.565321  1
