# generated using pymatgen
data_EuLu3(ReN3)4
_symmetry_space_group_name_H-M   'P 1'
_cell_length_a   7.50394722
_cell_length_b   7.50394613
_cell_length_c   6.34973700
_cell_angle_alpha   73.04641912
_cell_angle_beta   73.04640568
_cell_angle_gamma   82.37018415
_symmetry_Int_Tables_number   1
_chemical_formula_structural   EuLu3(ReN3)4
_chemical_formula_sum   'Eu1 Lu3 Re4 N12'
_cell_volume   326.70110092
_cell_formula_units_Z   1
loop_
 _symmetry_equiv_pos_site_id
 _symmetry_equiv_pos_as_xyz
  1  'x, y, z'
loop_
 _atom_site_type_symbol
 _atom_site_label
 _atom_site_symmetry_multiplicity
 _atom_site_fract_x
 _atom_site_fract_y
 _atom_site_fract_z
 _atom_site_occupancy
  Eu  Eu0  1  0.711728  0.288272  0.250000  1
  Lu  Lu1  1  0.903889  0.096111  0.750000  1
  Lu  Lu2  1  0.280811  0.719189  0.750000  1
  Lu  Lu3  1  0.100876  0.899124  0.250000  1
  Re  Re4  1  0.624069  0.792333  0.285377  1
  Re  Re5  1  0.207667  0.375931  0.214623  1
  Re  Re6  1  0.373835  0.204255  0.719792  1
  Re  Re7  1  0.795745  0.626165  0.780208  1
  N  N8  1  0.317491  0.373273  0.904679  1
  N  N9  1  0.021734  0.208898  0.345535  1
  N  N10  1  0.791102  0.978266  0.154465  1
  N  N11  1  0.217082  0.004197  0.842303  1
  N  N12  1  0.675005  0.642561  0.078601  1
  N  N13  1  0.863745  0.381445  0.817118  1
  N  N14  1  0.141945  0.625245  0.160049  1
  N  N15  1  0.995803  0.782918  0.657697  1
  N  N16  1  0.374755  0.858055  0.339951  1
  N  N17  1  0.626727  0.682509  0.595321  1
  N  N18  1  0.618555  0.136255  0.682882  1
  N  N19  1  0.357439  0.324995  0.421399  1
