# generated using pymatgen
data_La4Ni2Sn5
_symmetry_space_group_name_H-M   'P 1'
_cell_length_a   7.60633994
_cell_length_b   7.60634073
_cell_length_c   11.16467863
_cell_angle_alpha   52.91470247
_cell_angle_beta   52.91469755
_cell_angle_gamma   35.47655320
_symmetry_Int_Tables_number   1
_chemical_formula_structural   La4Ni2Sn5
_chemical_formula_sum   'La4 Ni2 Sn5'
_cell_volume   290.18953586
_cell_formula_units_Z   1
loop_
 _symmetry_equiv_pos_site_id
 _symmetry_equiv_pos_as_xyz
  1  'x, y, z'
loop_
 _atom_site_type_symbol
 _atom_site_label
 _atom_site_symmetry_multiplicity
 _atom_site_fract_x
 _atom_site_fract_y
 _atom_site_fract_z
 _atom_site_occupancy
  La  La0  1  0.061908  0.061908  0.778837  1
  La  La1  1  0.938092  0.938092  0.221163  1
  La  La2  1  0.334898  0.334898  0.782248  1
  La  La3  1  0.665102  0.665102  0.217752  1
  Ni  Ni4  1  0.770353  0.770353  0.637491  1
  Ni  Ni5  1  0.229647  0.229647  0.362509  1
  Sn  Sn6  1  0.372761  0.372761  0.057020  1
  Sn  Sn7  1  0.627239  0.627239  0.942980  1
  Sn  Sn8  1  0.000000  0.000000  0.500000  1
  Sn  Sn9  1  0.347513  0.347513  0.478207  1
  Sn  Sn10  1  0.652487  0.652487  0.521793  1
