# generated using pymatgen
data_Sc4BeNi2Os5
_symmetry_space_group_name_H-M   'P 1'
_cell_length_a   5.01466571
_cell_length_b   5.07802477
_cell_length_c   8.52061300
_cell_angle_alpha   90.00000000
_cell_angle_beta   90.00000000
_cell_angle_gamma   120.41883321
_symmetry_Int_Tables_number   1
_chemical_formula_structural   Sc4BeNi2Os5
_chemical_formula_sum   'Sc4 Be1 Ni2 Os5'
_cell_volume   187.10691752
_cell_formula_units_Z   1
loop_
 _symmetry_equiv_pos_site_id
 _symmetry_equiv_pos_as_xyz
  1  'x, y, z'
loop_
 _atom_site_type_symbol
 _atom_site_label
 _atom_site_symmetry_multiplicity
 _atom_site_fract_x
 _atom_site_fract_y
 _atom_site_fract_z
 _atom_site_occupancy
  Sc  Sc0  1  0.325167  0.662583  0.435334  1
  Sc  Sc1  1  0.658326  0.329162  0.566931  1
  Sc  Sc2  1  0.658326  0.329162  0.933069  1
  Sc  Sc3  1  0.325167  0.662583  0.064666  1
  Be  Be4  1  0.336410  0.168205  0.250000  1
  Ni  Ni5  1  0.190271  0.350395  0.750000  1
  Ni  Ni6  1  0.190271  0.839874  0.750000  1
  Os  Os7  1  0.826755  0.654793  0.250000  1
  Os  Os8  1  0.683216  0.841607  0.750000  1
  Os  Os9  1  0.989669  0.994835  0.996825  1
  Os  Os10  1  0.826755  0.171963  0.250000  1
  Os  Os11  1  0.989669  0.994835  0.503175  1
