# generated using pymatgen
data_NdTh9(In2Rh)4
_symmetry_space_group_name_H-M   'P 1'
_cell_length_a   3.82455200
_cell_length_b   8.20329214
_cell_length_c   18.51964871
_cell_angle_alpha   89.52026717
_cell_angle_beta   90.00000000
_cell_angle_gamma   90.00000000
_symmetry_Int_Tables_number   1
_chemical_formula_structural   NdTh9(In2Rh)4
_chemical_formula_sum   'Nd1 Th9 In8 Rh4'
_cell_volume   581.01356175
_cell_formula_units_Z   1
loop_
 _symmetry_equiv_pos_site_id
 _symmetry_equiv_pos_as_xyz
  1  'x, y, z'
loop_
 _atom_site_type_symbol
 _atom_site_label
 _atom_site_symmetry_multiplicity
 _atom_site_fract_x
 _atom_site_fract_y
 _atom_site_fract_z
 _atom_site_occupancy
  Nd  Nd0  1  0.000000  0.500000  0.500000  1
  Th  Th1  1  0.000000  0.116132  0.416018  1
  Th  Th2  1  0.000000  0.883868  0.583982  1
  Th  Th3  1  0.000000  0.376996  0.915709  1
  Th  Th4  1  0.000000  0.623004  0.084291  1
  Th  Th5  1  0.000000  0.246290  0.223119  1
  Th  Th6  1  0.000000  0.753710  0.776881  1
  Th  Th7  1  0.000000  0.254998  0.721544  1
  Th  Th8  1  0.000000  0.745002  0.278456  1
  Th  Th9  1  0.000000  0.000000  0.000000  1
  In  In10  1  0.500000  0.433080  0.351035  1
  In  In11  1  0.500000  0.566920  0.648965  1
  In  In12  1  0.500000  0.064948  0.850137  1
  In  In13  1  0.500000  0.935052  0.149863  1
  In  In14  1  0.500000  0.291961  0.069233  1
  In  In15  1  0.500000  0.708039  0.930767  1
  In  In16  1  0.500000  0.212232  0.568264  1
  In  In17  1  0.500000  0.787768  0.431736  1
  Rh  Rh18  1  0.500000  0.020368  0.305144  1
  Rh  Rh19  1  0.500000  0.979632  0.694856  1
  Rh  Rh20  1  0.500000  0.480418  0.805914  1
  Rh  Rh21  1  0.500000  0.519582  0.194086  1
