# generated using pymatgen
data_Ta4Nb3B8OsRu5
_symmetry_space_group_name_H-M   'P 1'
_cell_length_a   9.60991082
_cell_length_b   9.61431142
_cell_length_c   3.12710700
_cell_angle_alpha   90.00000000
_cell_angle_beta   90.00000000
_cell_angle_gamma   120.06493583
_symmetry_Int_Tables_number   1
_chemical_formula_structural   Ta4Nb3B8OsRu5
_chemical_formula_sum   'Ta4 Nb3 B8 Os1 Ru5'
_cell_volume   250.04971804
_cell_formula_units_Z   1
loop_
 _symmetry_equiv_pos_site_id
 _symmetry_equiv_pos_as_xyz
  1  'x, y, z'
loop_
 _atom_site_type_symbol
 _atom_site_label
 _atom_site_symmetry_multiplicity
 _atom_site_fract_x
 _atom_site_fract_y
 _atom_site_fract_z
 _atom_site_occupancy
  Ta  Ta0  1  0.912846  0.275409  0.000000  1
  Ta  Ta1  1  0.277122  0.363034  0.000000  1
  Ta  Ta2  1  0.637342  0.913219  0.000000  1
  Ta  Ta3  1  0.085420  0.723941  0.000000  1
  Nb  Nb4  1  0.000368  0.000466  0.000000  1
  Nb  Nb5  1  0.725022  0.638765  0.000000  1
  Nb  Nb6  1  0.360748  0.086638  0.000000  1
  B  B7  1  0.666686  0.333200  0.000000  1
  B  B8  1  0.333882  0.667817  0.000000  1
  B  B9  1  0.152931  0.933421  0.500000  1
  B  B10  1  0.065090  0.218773  0.500000  1
  B  B11  1  0.781962  0.847452  0.500000  1
  B  B12  1  0.846673  0.065645  0.500000  1
  B  B13  1  0.935766  0.782423  0.500000  1
  B  B14  1  0.218992  0.155114  0.500000  1
  Os  Os15  1  0.360506  0.845100  0.500000  1
  Ru  Ru16  1  0.152919  0.511033  0.500000  1
  Ru  Ru17  1  0.485302  0.638956  0.500000  1
  Ru  Ru18  1  0.638974  0.153003  0.500000  1
  Ru  Ru19  1  0.846995  0.485429  0.500000  1
  Ru  Ru20  1  0.514455  0.361163  0.500000  1
