# generated using pymatgen
data_Pr5Zr2P12Ir17
_symmetry_space_group_name_H-M   'P 1'
_cell_length_a   12.76269400
_cell_length_b   12.99711415
_cell_length_c   4.04468100
_cell_angle_alpha   90.00000000
_cell_angle_beta   90.00000000
_cell_angle_gamma   119.40513036
_symmetry_Int_Tables_number   1
_chemical_formula_structural   Pr5Zr2P12Ir17
_chemical_formula_sum   'Pr5 Zr2 P12 Ir17'
_cell_volume   584.48908058
_cell_formula_units_Z   1
loop_
 _symmetry_equiv_pos_site_id
 _symmetry_equiv_pos_as_xyz
  1  'x, y, z'
loop_
 _atom_site_type_symbol
 _atom_site_label
 _atom_site_symmetry_multiplicity
 _atom_site_fract_x
 _atom_site_fract_y
 _atom_site_fract_z
 _atom_site_occupancy
  Pr  Pr0  1  0.329657  0.662072  0.500000  1
  Pr  Pr1  1  0.667586  0.337928  0.500000  1
  Pr  Pr2  1  0.001399  0.814727  0.000000  1
  Pr  Pr3  1  0.186672  0.185273  0.000000  1
  Pr  Pr4  1  0.813462  0.000000  0.000000  1
  Zr  Zr5  1  0.997599  0.445945  0.500000  1
  Zr  Zr6  1  0.551654  0.554055  0.500000  1
  P  P7  1  0.005267  0.647194  0.500000  1
  P  P8  1  0.358073  0.352806  0.500000  1
  P  P9  1  0.641916  0.000000  0.500000  1
  P  P10  1  0.516218  0.686433  0.000000  1
  P  P11  1  0.308861  0.825721  0.000000  1
  P  P12  1  0.163431  0.478954  0.000000  1
  P  P13  1  0.483140  0.174279  0.000000  1
  P  P14  1  0.684477  0.521046  0.000000  1
  P  P15  1  0.829785  0.313567  0.000000  1
  P  P16  1  0.999549  0.176428  0.500000  1
  P  P17  1  0.823121  0.823572  0.500000  1
  P  P18  1  0.183700  0.000000  0.500000  1
  Ir  Ir19  1  0.506477  0.867353  0.000000  1
  Ir  Ir20  1  0.125541  0.644203  0.000000  1
  Ir  Ir21  1  0.355336  0.493275  0.000000  1
  Ir  Ir22  1  0.481337  0.355797  0.000000  1
  Ir  Ir23  1  0.862063  0.506725  0.000000  1
  Ir  Ir24  1  0.639126  0.132647  0.000000  1
  Ir  Ir25  1  0.463758  0.000000  0.500000  1
  Ir  Ir26  1  0.996523  0.279731  0.000000  1
  Ir  Ir27  1  0.716791  0.720269  0.000000  1
  Ir  Ir28  1  0.293522  0.000000  0.000000  1
  Ir  Ir29  1  0.621750  0.806386  0.500000  1
  Ir  Ir30  1  0.207368  0.827103  0.500000  1
  Ir  Ir31  1  0.177013  0.368381  0.500000  1
  Ir  Ir32  1  0.380264  0.172897  0.500000  1
  Ir  Ir33  1  0.808632  0.631619  0.500000  1
  Ir  Ir34  1  0.815364  0.193614  0.500000  1
  Ir  Ir35  1  0.003569  0.000000  0.500000  1
