# generated using pymatgen
data_Tb6Dy6TcOs3
_symmetry_space_group_name_H-M   'P 1'
_cell_length_a   6.31728583
_cell_length_b   7.42823950
_cell_length_c   9.12100058
_cell_angle_alpha   90.03438373
_cell_angle_beta   90.07898068
_cell_angle_gamma   90.04202731
_symmetry_Int_Tables_number   1
_chemical_formula_structural   Tb6Dy6TcOs3
_chemical_formula_sum   'Tb6 Dy6 Tc1 Os3'
_cell_volume   428.01432150
_cell_formula_units_Z   1
loop_
 _symmetry_equiv_pos_site_id
 _symmetry_equiv_pos_as_xyz
  1  'x, y, z'
loop_
 _atom_site_type_symbol
 _atom_site_label
 _atom_site_symmetry_multiplicity
 _atom_site_fract_x
 _atom_site_fract_y
 _atom_site_fract_z
 _atom_site_occupancy
  Tb  Tb0  1  0.334137  0.674799  0.063209  1
  Tb  Tb1  1  0.166818  0.175348  0.436526  1
  Tb  Tb2  1  0.870746  0.540066  0.250074  1
  Tb  Tb3  1  0.627554  0.040171  0.249967  1
  Tb  Tb4  1  0.130543  0.459376  0.749941  1
  Tb  Tb5  1  0.369303  0.960365  0.750003  1
  Dy  Dy6  1  0.668610  0.324806  0.563481  1
  Dy  Dy7  1  0.832977  0.825201  0.936078  1
  Dy  Dy8  1  0.668698  0.324516  0.936455  1
  Dy  Dy9  1  0.832759  0.824905  0.563912  1
  Dy  Dy10  1  0.334263  0.674474  0.436926  1
  Dy  Dy11  1  0.166718  0.175176  0.063395  1
  Tc  Tc12  1  0.038575  0.884269  0.250046  1
  Os  Os13  1  0.459430  0.383741  0.249944  1
  Os  Os14  1  0.957860  0.116880  0.750376  1
  Os  Os15  1  0.541009  0.615906  0.749666  1
