# generated using pymatgen
data_Dy20Si15Te
_symmetry_space_group_name_H-M   'P 1'
_cell_length_a   7.54981030
_cell_length_b   7.68028683
_cell_length_c   14.69289776
_cell_angle_alpha   90.05125521
_cell_angle_beta   85.71735984
_cell_angle_gamma   90.10507708
_symmetry_Int_Tables_number   1
_chemical_formula_structural   Dy20Si15Te
_chemical_formula_sum   'Dy20 Si15 Te1'
_cell_volume   849.58287335
_cell_formula_units_Z   1
loop_
 _symmetry_equiv_pos_site_id
 _symmetry_equiv_pos_as_xyz
  1  'x, y, z'
loop_
 _atom_site_type_symbol
 _atom_site_label
 _atom_site_symmetry_multiplicity
 _atom_site_fract_x
 _atom_site_fract_y
 _atom_site_fract_z
 _atom_site_occupancy
  Dy  Dy0  1  0.668104  0.991637  0.246567  1
  Dy  Dy1  1  0.166916  0.505479  0.245535  1
  Dy  Dy2  1  0.835212  0.495893  0.746798  1
  Dy  Dy3  1  0.329609  0.007696  0.751287  1
  Dy  Dy4  1  0.009530  0.824756  0.102713  1
  Dy  Dy5  1  0.469604  0.686322  0.396879  1
  Dy  Dy6  1  0.480234  0.314142  0.894981  1
  Dy  Dy7  1  0.029394  0.185869  0.601584  1
  Dy  Dy8  1  0.996108  0.174386  0.898125  1
  Dy  Dy9  1  0.530145  0.314359  0.601275  1
  Dy  Dy10  1  0.494806  0.686171  0.105143  1
  Dy  Dy11  1  0.969998  0.811869  0.398185  1
  Dy  Dy12  1  0.637684  0.849698  0.878202  1
  Dy  Dy13  1  0.178342  0.676723  0.621968  1
  Dy  Dy14  1  0.863386  0.321774  0.126556  1
  Dy  Dy15  1  0.323427  0.176587  0.378937  1
  Dy  Dy16  1  0.358779  0.165444  0.119606  1
  Dy  Dy17  1  0.823155  0.322649  0.378087  1
  Dy  Dy18  1  0.154407  0.669530  0.878904  1
  Dy  Dy19  1  0.677934  0.822796  0.621447  1
  Si  Si20  1  0.782417  0.626892  0.251636  1
  Si  Si21  1  0.282022  0.871461  0.252950  1
  Si  Si22  1  0.715266  0.133095  0.747575  1
  Si  Si23  1  0.214759  0.371067  0.748278  1
  Si  Si24  1  0.043880  0.105730  0.254210  1
  Si  Si25  1  0.541741  0.391453  0.251735  1
  Si  Si26  1  0.461289  0.608032  0.749086  1
  Si  Si27  1  0.957135  0.890978  0.748736  1
  Si  Si28  1  0.358784  0.971863  0.542556  1
  Si  Si29  1  0.708114  0.030653  0.043877  1
  Si  Si30  1  0.143614  0.471426  0.457652  1
  Si  Si31  1  0.210143  0.465697  0.042528  1
  Si  Si32  1  0.643849  0.026605  0.457162  1
  Si  Si33  1  0.292823  0.970448  0.956011  1
  Si  Si34  1  0.859435  0.526854  0.542461  1
  Te  Te35  1  0.787954  0.533965  0.960767  1
