# generated using pymatgen
data_NdCd2Cu9
_symmetry_space_group_name_H-M   'P 1'
_cell_length_a   5.14109701
_cell_length_b   5.14045798
_cell_length_c   15.89609400
_cell_angle_alpha   89.99987556
_cell_angle_beta   89.99949934
_cell_angle_gamma   120.00680251
_symmetry_Int_Tables_number   1
_chemical_formula_structural   NdCd2Cu9
_chemical_formula_sum   'Nd2 Cd4 Cu18'
_cell_volume   363.78843821
_cell_formula_units_Z   2
loop_
 _symmetry_equiv_pos_site_id
 _symmetry_equiv_pos_as_xyz
  1  'x, y, z'
loop_
 _atom_site_type_symbol
 _atom_site_label
 _atom_site_symmetry_multiplicity
 _atom_site_fract_x
 _atom_site_fract_y
 _atom_site_fract_z
 _atom_site_occupancy
  Nd  Nd0  1  0.333394  0.666617  0.749949  1
  Nd  Nd1  1  0.666589  0.333381  0.250042  1
  Cd  Cd2  1  0.333331  0.666723  0.533803  1
  Cd  Cd3  1  0.666664  0.333289  0.033767  1
  Cd  Cd4  1  0.666657  0.333282  0.466192  1
  Cd  Cd5  1  0.333338  0.666715  0.966223  1
  Cu  Cu6  1  0.168177  0.336470  0.123480  1
  Cu  Cu7  1  0.831839  0.663599  0.623568  1
  Cu  Cu8  1  0.663522  0.831799  0.123482  1
  Cu  Cu9  1  0.168213  0.831817  0.123496  1
  Cu  Cu10  1  0.831829  0.168184  0.623580  1
  Cu  Cu11  1  0.336410  0.168169  0.623566  1
  Cu  Cu12  1  0.831835  0.663572  0.876475  1
  Cu  Cu13  1  0.831822  0.168181  0.876464  1
  Cu  Cu14  1  0.336437  0.168171  0.876479  1
  Cu  Cu15  1  0.663480  0.831776  0.376485  1
  Cu  Cu16  1  0.168205  0.831768  0.376474  1
  Cu  Cu17  1  0.168199  0.336500  0.376487  1
  Cu  Cu18  1  0.333296  0.666700  0.249957  1
  Cu  Cu19  1  0.666680  0.333278  0.750035  1
  Cu  Cu20  1  0.999916  0.000042  0.249954  1
  Cu  Cu21  1  0.000078  0.999975  0.750053  1
  Cu  Cu22  1  0.999992  0.999982  0.999988  1
  Cu  Cu23  1  0.999990  0.000004  0.500004  1
