# generated using pymatgen
data_CaNd4LuSi4
_symmetry_space_group_name_H-M   'P 1'
_cell_length_a   7.60544400
_cell_length_b   7.60544400
_cell_length_c   4.40756000
_cell_angle_alpha   90.00000000
_cell_angle_beta   90.00000000
_cell_angle_gamma   90.00000000
_symmetry_Int_Tables_number   1
_chemical_formula_structural   CaNd4LuSi4
_chemical_formula_sum   'Ca1 Nd4 Lu1 Si4'
_cell_volume   254.94551653
_cell_formula_units_Z   1
loop_
 _symmetry_equiv_pos_site_id
 _symmetry_equiv_pos_as_xyz
  1  'x, y, z'
loop_
 _atom_site_type_symbol
 _atom_site_label
 _atom_site_symmetry_multiplicity
 _atom_site_fract_x
 _atom_site_fract_y
 _atom_site_fract_z
 _atom_site_occupancy
  Ca  Ca0  1  0.500000  0.500000  0.000000  1
  Nd  Nd1  1  0.677287  0.177761  0.500000  1
  Nd  Nd2  1  0.822239  0.677287  0.500000  1
  Nd  Nd3  1  0.177761  0.322713  0.500000  1
  Nd  Nd4  1  0.322713  0.822239  0.500000  1
  Lu  Lu5  1  0.000000  0.000000  0.000000  1
  Si  Si6  1  0.620490  0.894400  0.000000  1
  Si  Si7  1  0.894400  0.379510  0.000000  1
  Si  Si8  1  0.105600  0.620490  0.000000  1
  Si  Si9  1  0.379510  0.105600  0.000000  1
