# generated using pymatgen
data_Li2LaLuPt2
_symmetry_space_group_name_H-M   'P 1'
_cell_length_a   4.08086100
_cell_length_b   7.14583217
_cell_length_c   8.59829100
_cell_angle_alpha   89.09055236
_cell_angle_beta   90.00000000
_cell_angle_gamma   90.00000000
_symmetry_Int_Tables_number   1
_chemical_formula_structural   Li2LaLuPt2
_chemical_formula_sum   'Li4 La2 Lu2 Pt4'
_cell_volume   250.70444926
_cell_formula_units_Z   2
loop_
 _symmetry_equiv_pos_site_id
 _symmetry_equiv_pos_as_xyz
  1  'x, y, z'
loop_
 _atom_site_type_symbol
 _atom_site_label
 _atom_site_symmetry_multiplicity
 _atom_site_fract_x
 _atom_site_fract_y
 _atom_site_fract_z
 _atom_site_occupancy
  Li  Li0  1  0.250000  0.631596  0.555620  1
  Li  Li1  1  0.750000  0.368404  0.444380  1
  Li  Li2  1  0.750000  0.884485  0.055479  1
  Li  Li3  1  0.250000  0.115515  0.944521  1
  La  La4  1  0.250000  0.549707  0.186882  1
  La  La5  1  0.750000  0.450293  0.813118  1
  Lu  Lu6  1  0.750000  0.950691  0.672759  1
  Lu  Lu7  1  0.250000  0.049309  0.327241  1
  Pt  Pt8  1  0.250000  0.756274  0.863668  1
  Pt  Pt9  1  0.750000  0.243726  0.136332  1
  Pt  Pt10  1  0.750000  0.769936  0.379513  1
  Pt  Pt11  1  0.250000  0.230064  0.620487  1
