# generated using pymatgen
data_Nb4Si3PRh4
_symmetry_space_group_name_H-M   'P 1'
_cell_length_a   3.76420200
_cell_length_b   6.44544244
_cell_length_c   7.34460000
_cell_angle_alpha   90.11896712
_cell_angle_beta   90.00000000
_cell_angle_gamma   90.00000000
_symmetry_Int_Tables_number   1
_chemical_formula_structural   Nb4Si3PRh4
_chemical_formula_sum   'Nb4 Si3 P1 Rh4'
_cell_volume   178.19391410
_cell_formula_units_Z   1
loop_
 _symmetry_equiv_pos_site_id
 _symmetry_equiv_pos_as_xyz
  1  'x, y, z'
loop_
 _atom_site_type_symbol
 _atom_site_label
 _atom_site_symmetry_multiplicity
 _atom_site_fract_x
 _atom_site_fract_y
 _atom_site_fract_z
 _atom_site_occupancy
  Nb  Nb0  1  0.250000  0.024395  0.828127  1
  Nb  Nb1  1  0.250000  0.528084  0.673742  1
  Nb  Nb2  1  0.750000  0.971693  0.169509  1
  Nb  Nb3  1  0.750000  0.473009  0.328275  1
  Si  Si4  1  0.250000  0.768625  0.374378  1
  Si  Si5  1  0.250000  0.266751  0.126089  1
  Si  Si6  1  0.750000  0.232008  0.625481  1
  P  P7  1  0.750000  0.734444  0.873944  1
  Rh  Rh8  1  0.250000  0.145139  0.438635  1
  Rh  Rh9  1  0.250000  0.647012  0.059208  1
  Rh  Rh10  1  0.750000  0.852954  0.564313  1
  Rh  Rh11  1  0.750000  0.355886  0.938299  1
