# generated using pymatgen
data_Dy3Y3B14MoOs
_symmetry_space_group_name_H-M   'P 1'
_cell_length_a   8.12273801
_cell_length_b   8.12273784
_cell_length_c   9.39917201
_cell_angle_alpha   90.00400381
_cell_angle_beta   89.99599732
_cell_angle_gamma   155.04695828
_symmetry_Int_Tables_number   1
_chemical_formula_structural   Dy3Y3B14MoOs
_chemical_formula_sum   'Dy3 Y3 B14 Mo1 Os1'
_cell_volume   261.62461984
_cell_formula_units_Z   1
loop_
 _symmetry_equiv_pos_site_id
 _symmetry_equiv_pos_as_xyz
  1  'x, y, z'
loop_
 _atom_site_type_symbol
 _atom_site_label
 _atom_site_symmetry_multiplicity
 _atom_site_fract_x
 _atom_site_fract_y
 _atom_site_fract_z
 _atom_site_occupancy
  Dy  Dy0  1  0.393399  0.606601  0.940921  1
  Dy  Dy1  1  0.393420  0.606580  0.559080  1
  Dy  Dy2  1  0.605684  0.394316  0.438203  1
  Y  Y3  1  0.256389  0.743611  0.250105  1
  Y  Y4  1  0.744673  0.255327  0.750043  1
  Y  Y5  1  0.605840  0.394160  0.062181  1
  B  B6  1  0.978590  0.021410  0.096564  1
  B  B7  1  0.019644  0.980356  0.908324  1
  B  B8  1  0.019781  0.980219  0.591502  1
  B  B9  1  0.978721  0.021279  0.403417  1
  B  B10  1  0.773591  0.226409  0.035032  1
  B  B11  1  0.228076  0.771924  0.967833  1
  B  B12  1  0.227951  0.772049  0.532015  1
  B  B13  1  0.773499  0.226501  0.464930  1
  B  B14  1  0.868482  0.131518  0.150974  1
  B  B15  1  0.134384  0.865616  0.852569  1
  B  B16  1  0.134376  0.865624  0.647157  1
  B  B17  1  0.868474  0.131526  0.349069  1
  B  B18  1  0.041382  0.958618  0.250159  1
  B  B19  1  0.955283  0.044717  0.749966  1
  Mo  Mo20  1  0.552758  0.447242  0.749885  1
  Os  Os21  1  0.445606  0.554394  0.250070  1
