# generated using pymatgen
data_Sc3Al3SnPt2
_symmetry_space_group_name_H-M   'P 1'
_cell_length_a   6.91929100
_cell_length_b   6.91929144
_cell_length_c   4.09486100
_cell_angle_alpha   90.00000000
_cell_angle_beta   90.00000000
_cell_angle_gamma   120.00000268
_symmetry_Int_Tables_number   1
_chemical_formula_structural   Sc3Al3SnPt2
_chemical_formula_sum   'Sc3 Al3 Sn1 Pt2'
_cell_volume   169.78253096
_cell_formula_units_Z   1
loop_
 _symmetry_equiv_pos_site_id
 _symmetry_equiv_pos_as_xyz
  1  'x, y, z'
loop_
 _atom_site_type_symbol
 _atom_site_label
 _atom_site_symmetry_multiplicity
 _atom_site_fract_x
 _atom_site_fract_y
 _atom_site_fract_z
 _atom_site_occupancy
  Sc  Sc0  1  0.594975  0.018236  0.500000  1
  Sc  Sc1  1  0.423260  0.405025  0.500000  1
  Sc  Sc2  1  0.981764  0.576740  0.500000  1
  Al  Al3  1  0.774853  0.750180  0.000000  1
  Al  Al4  1  0.975326  0.225147  0.000000  1
  Al  Al5  1  0.249820  0.024674  0.000000  1
  Sn  Sn6  1  0.333333  0.666667  0.000000  1
  Pt  Pt7  1  0.666667  0.333333  0.000000  1
  Pt  Pt8  1  0.000000  0.000000  0.500000  1
