# generated using pymatgen
data_Ho5(AlTe)2
_symmetry_space_group_name_H-M   'P 1'
_cell_length_a   8.71149025
_cell_length_b   8.71149064
_cell_length_c   7.97832600
_cell_angle_alpha   89.98630661
_cell_angle_beta   89.98631977
_cell_angle_gamma   125.64877882
_symmetry_Int_Tables_number   1
_chemical_formula_structural   Ho5(AlTe)2
_chemical_formula_sum   'Ho10 Al4 Te4'
_cell_volume   492.01242612
_cell_formula_units_Z   2
loop_
 _symmetry_equiv_pos_site_id
 _symmetry_equiv_pos_as_xyz
  1  'x, y, z'
loop_
 _atom_site_type_symbol
 _atom_site_label
 _atom_site_symmetry_multiplicity
 _atom_site_fract_x
 _atom_site_fract_y
 _atom_site_fract_z
 _atom_site_occupancy
  Ho  Ho0  1  0.000000  0.000000  0.000000  1
  Ho  Ho1  1  0.500000  0.500000  0.500000  1
  Ho  Ho2  1  0.797360  0.539569  0.168186  1
  Ho  Ho3  1  0.460431  0.202640  0.831814  1
  Ho  Ho4  1  0.960401  0.703358  0.668159  1
  Ho  Ho5  1  0.296642  0.039599  0.331841  1
  Ho  Ho6  1  0.202640  0.460431  0.831814  1
  Ho  Ho7  1  0.539569  0.797360  0.168186  1
  Ho  Ho8  1  0.039599  0.296642  0.331841  1
  Ho  Ho9  1  0.703358  0.960401  0.668159  1
  Al  Al10  1  0.624687  0.624687  0.876305  1
  Al  Al11  1  0.375313  0.375313  0.123695  1
  Al  Al12  1  0.874622  0.874622  0.375745  1
  Al  Al13  1  0.125378  0.125378  0.624255  1
  Te  Te14  1  0.204406  0.795594  0.000000  1
  Te  Te15  1  0.705153  0.294847  0.500000  1
  Te  Te16  1  0.795594  0.204406  0.000000  1
  Te  Te17  1  0.294847  0.705153  0.500000  1
