# generated using pymatgen
data_Zr2InNiRh4
_symmetry_space_group_name_H-M   'P 1'
_cell_length_a   5.61668167
_cell_length_b   5.61668157
_cell_length_c   8.29595500
_cell_angle_alpha   90.00000000
_cell_angle_beta   90.00000000
_cell_angle_gamma   97.21683892
_symmetry_Int_Tables_number   1
_chemical_formula_structural   Zr2InNiRh4
_chemical_formula_sum   'Zr4 In2 Ni2 Rh8'
_cell_volume   259.64008516
_cell_formula_units_Z   2
loop_
 _symmetry_equiv_pos_site_id
 _symmetry_equiv_pos_as_xyz
  1  'x, y, z'
loop_
 _atom_site_type_symbol
 _atom_site_label
 _atom_site_symmetry_multiplicity
 _atom_site_fract_x
 _atom_site_fract_y
 _atom_site_fract_z
 _atom_site_occupancy
  Zr  Zr0  1  0.778984  0.221016  0.500000  1
  Zr  Zr1  1  0.221016  0.778984  0.000000  1
  Zr  Zr2  1  0.221016  0.778984  0.500000  1
  Zr  Zr3  1  0.778984  0.221016  0.000000  1
  In  In4  1  0.501181  0.501181  0.750000  1
  In  In5  1  0.498819  0.498819  0.250000  1
  Ni  Ni6  1  0.000332  0.000332  0.250000  1
  Ni  Ni7  1  0.999668  0.999668  0.750000  1
  Rh  Rh8  1  0.740968  0.740968  0.000522  1
  Rh  Rh9  1  0.740968  0.740968  0.499478  1
  Rh  Rh10  1  0.259032  0.259032  0.999478  1
  Rh  Rh11  1  0.259032  0.259032  0.500522  1
  Rh  Rh12  1  0.499915  0.000623  0.750000  1
  Rh  Rh13  1  0.500085  0.999377  0.250000  1
  Rh  Rh14  1  0.000623  0.499915  0.750000  1
  Rh  Rh15  1  0.999377  0.500085  0.250000  1
