# generated using pymatgen
data_Pr2Fe2Ge2N
_symmetry_space_group_name_H-M   'P 1'
_cell_length_a   5.83030995
_cell_length_b   5.83031050
_cell_length_c   7.06535769
_cell_angle_alpha   124.62945622
_cell_angle_beta   124.62945745
_cell_angle_gamma   40.00391539
_symmetry_Int_Tables_number   1
_chemical_formula_structural   Pr2Fe2Ge2N
_chemical_formula_sum   'Pr2 Fe2 Ge2 N1'
_cell_volume   122.95954885
_cell_formula_units_Z   1
loop_
 _symmetry_equiv_pos_site_id
 _symmetry_equiv_pos_as_xyz
  1  'x, y, z'
loop_
 _atom_site_type_symbol
 _atom_site_label
 _atom_site_symmetry_multiplicity
 _atom_site_fract_x
 _atom_site_fract_y
 _atom_site_fract_z
 _atom_site_occupancy
  Pr  Pr0  1  0.556771  0.556771  0.291856  1
  Pr  Pr1  1  0.443229  0.443229  0.708144  1
  Fe  Fe2  1  0.186131  0.186131  0.073916  1
  Fe  Fe3  1  0.813868  0.813868  0.926084  1
  Ge  Ge4  1  0.826506  0.826506  0.276983  1
  Ge  Ge5  1  0.173494  0.173494  0.723018  1
  N  N6  1  0.000000  0.000000  0.000000  1
