# generated using pymatgen
data_In4Hg11(AsCl4)4
_symmetry_space_group_name_H-M   'P 1'
_cell_length_a   7.94727501
_cell_length_b   7.94727527
_cell_length_c   23.12818752
_cell_angle_alpha   81.86737860
_cell_angle_beta   81.86737834
_cell_angle_gamma   59.33535526
_symmetry_Int_Tables_number   1
_chemical_formula_structural   In4Hg11(AsCl4)4
_chemical_formula_sum   'In4 Hg11 As4 Cl16'
_cell_volume   1239.73126053
_cell_formula_units_Z   1
loop_
 _symmetry_equiv_pos_site_id
 _symmetry_equiv_pos_as_xyz
  1  'x, y, z'
loop_
 _atom_site_type_symbol
 _atom_site_label
 _atom_site_symmetry_multiplicity
 _atom_site_fract_x
 _atom_site_fract_y
 _atom_site_fract_z
 _atom_site_occupancy
  In  In0  1  0.638907  0.638907  0.109997  1
  In  In1  1  0.361093  0.361093  0.890003  1
  In  In2  1  0.759918  0.759918  0.612781  1
  In  In3  1  0.240082  0.240082  0.387219  1
  Hg  Hg4  1  0.031635  0.031635  0.882706  1
  Hg  Hg5  1  0.765718  0.765718  0.283164  1
  Hg  Hg6  1  0.473186  0.473186  0.557824  1
  Hg  Hg7  1  0.732786  0.234887  0.721514  1
  Hg  Hg8  1  0.267214  0.765113  0.278486  1
  Hg  Hg9  1  0.765113  0.267214  0.278486  1
  Hg  Hg10  1  0.234887  0.732786  0.721514  1
  Hg  Hg11  1  0.526814  0.526814  0.442176  1
  Hg  Hg12  1  0.968365  0.968365  0.117294  1
  Hg  Hg13  1  0.000000  0.000000  0.000000  1
  Hg  Hg14  1  0.234282  0.234282  0.716836  1
  As  As15  1  0.942743  0.942743  0.232399  1
  As  As16  1  0.057257  0.057257  0.767601  1
  As  As17  1  0.584940  0.584940  0.329002  1
  As  As18  1  0.415060  0.415060  0.670998  1
  Cl  Cl19  1  0.534493  0.052048  0.846653  1
  Cl  Cl20  1  0.067836  0.067836  0.419932  1
  Cl  Cl21  1  0.531592  0.531592  0.846452  1
  Cl  Cl22  1  0.428775  0.926241  0.586035  1
  Cl  Cl23  1  0.737913  0.737913  0.717890  1
  Cl  Cl24  1  0.335967  0.335967  0.993067  1
  Cl  Cl25  1  0.465507  0.947952  0.153347  1
  Cl  Cl26  1  0.947952  0.465507  0.153347  1
  Cl  Cl27  1  0.468408  0.468408  0.153548  1
  Cl  Cl28  1  0.571225  0.073759  0.413965  1
  Cl  Cl29  1  0.664033  0.664033  0.006933  1
  Cl  Cl30  1  0.926241  0.428775  0.586035  1
  Cl  Cl31  1  0.262087  0.262087  0.282110  1
  Cl  Cl32  1  0.073759  0.571225  0.413965  1
  Cl  Cl33  1  0.932164  0.932164  0.580068  1
  Cl  Cl34  1  0.052048  0.534493  0.846653  1
