# generated using pymatgen
data_SmDyCo9P6Ru
_symmetry_space_group_name_H-M   'P 1'
_cell_length_a   3.68724900
_cell_length_b   10.36349800
_cell_length_c   11.77998300
_cell_angle_alpha   90.00000000
_cell_angle_beta   90.00000000
_cell_angle_gamma   90.00000000
_symmetry_Int_Tables_number   1
_chemical_formula_structural   SmDyCo9P6Ru
_chemical_formula_sum   'Sm2 Dy2 Co18 P12 Ru2'
_cell_volume   450.14610655
_cell_formula_units_Z   2
loop_
 _symmetry_equiv_pos_site_id
 _symmetry_equiv_pos_as_xyz
  1  'x, y, z'
loop_
 _atom_site_type_symbol
 _atom_site_label
 _atom_site_symmetry_multiplicity
 _atom_site_fract_x
 _atom_site_fract_y
 _atom_site_fract_z
 _atom_site_occupancy
  Sm  Sm0  1  0.250000  0.582790  0.702542  1
  Sm  Sm1  1  0.250000  0.917210  0.202542  1
  Dy  Dy2  1  0.750000  0.413856  0.295661  1
  Dy  Dy3  1  0.750000  0.086144  0.795661  1
  Co  Co4  1  0.750000  0.284538  0.008605  1
  Co  Co5  1  0.750000  0.215462  0.508605  1
  Co  Co6  1  0.250000  0.405406  0.487115  1
  Co  Co7  1  0.250000  0.094594  0.987115  1
  Co  Co8  1  0.750000  0.591020  0.508107  1
  Co  Co9  1  0.750000  0.908980  0.008107  1
  Co  Co10  1  0.250000  0.221455  0.176452  1
  Co  Co11  1  0.250000  0.278545  0.676452  1
  Co  Co12  1  0.750000  0.779302  0.823336  1
  Co  Co13  1  0.750000  0.720698  0.323336  1
  Co  Co14  1  0.250000  0.887421  0.701692  1
  Co  Co15  1  0.250000  0.612579  0.201692  1
  Co  Co16  1  0.750000  0.118119  0.301843  1
  Co  Co17  1  0.750000  0.381881  0.801843  1
  Co  Co18  1  0.250000  0.463707  0.933848  1
  Co  Co19  1  0.250000  0.036293  0.433848  1
  Co  Co20  1  0.750000  0.531661  0.069373  1
  Co  Co21  1  0.750000  0.968339  0.569373  1
  P  P22  1  0.250000  0.417064  0.112488  1
  P  P23  1  0.250000  0.082936  0.612488  1
  P  P24  1  0.750000  0.578437  0.888945  1
  P  P25  1  0.750000  0.921563  0.388945  1
  P  P26  1  0.250000  0.270508  0.868709  1
  P  P27  1  0.250000  0.229492  0.368709  1
  P  P28  1  0.750000  0.726064  0.132299  1
  P  P29  1  0.750000  0.773936  0.632299  1
  P  P30  1  0.250000  0.594996  0.390589  1
  P  P31  1  0.250000  0.905004  0.890589  1
  P  P32  1  0.750000  0.394979  0.607623  1
  P  P33  1  0.750000  0.105021  0.107623  1
  Ru  Ru34  1  0.250000  0.714402  0.990774  1
  Ru  Ru35  1  0.250000  0.785598  0.490774  1
