# generated using pymatgen
data_LaPr7(Y3Ga4)4
_symmetry_space_group_name_H-M   'P 1'
_cell_length_a   7.73856808
_cell_length_b   8.03471574
_cell_length_c   15.28749300
_cell_angle_alpha   89.96377438
_cell_angle_beta   89.96968833
_cell_angle_gamma   90.01027804
_symmetry_Int_Tables_number   1
_chemical_formula_structural   LaPr7(Y3Ga4)4
_chemical_formula_sum   'La1 Pr7 Y12 Ga16'
_cell_volume   950.53309111
_cell_formula_units_Z   1
loop_
 _symmetry_equiv_pos_site_id
 _symmetry_equiv_pos_as_xyz
  1  'x, y, z'
loop_
 _atom_site_type_symbol
 _atom_site_label
 _atom_site_symmetry_multiplicity
 _atom_site_fract_x
 _atom_site_fract_y
 _atom_site_fract_z
 _atom_site_occupancy
  La  La0  1  0.022110  0.178620  0.405643  1
  Pr  Pr1  1  0.523259  0.321142  0.405453  1
  Pr  Pr2  1  0.476417  0.679166  0.905430  1
  Pr  Pr3  1  0.476368  0.679279  0.594549  1
  Pr  Pr4  1  0.976277  0.820001  0.595216  1
  Pr  Pr5  1  0.976582  0.820707  0.905468  1
  Pr  Pr6  1  0.523557  0.320725  0.094337  1
  Pr  Pr7  1  0.023461  0.178934  0.094396  1
  Y  Y8  1  0.321680  0.176384  0.621929  1
  Y  Y9  1  0.677410  0.822908  0.378125  1
  Y  Y10  1  0.655195  0.986903  0.749996  1
  Y  Y11  1  0.179245  0.676593  0.378530  1
  Y  Y12  1  0.821533  0.323446  0.878234  1
  Y  Y13  1  0.821368  0.323838  0.622130  1
  Y  Y14  1  0.844642  0.487748  0.249795  1
  Y  Y15  1  0.345011  0.012927  0.249780  1
  Y  Y16  1  0.321205  0.176426  0.878300  1
  Y  Y17  1  0.178756  0.676502  0.121488  1
  Y  Y18  1  0.678332  0.823540  0.121469  1
  Y  Y19  1  0.155464  0.513172  0.749908  1
  Ga  Ga20  1  0.269274  0.879629  0.750211  1
  Ga  Ga21  1  0.473797  0.610859  0.249692  1
  Ga  Ga22  1  0.026332  0.110549  0.749982  1
  Ga  Ga23  1  0.526283  0.389450  0.750044  1
  Ga  Ga24  1  0.149973  0.471459  0.541888  1
  Ga  Ga25  1  0.973691  0.888456  0.249433  1
  Ga  Ga26  1  0.730263  0.120267  0.249295  1
  Ga  Ga27  1  0.850400  0.529073  0.041383  1
  Ga  Ga28  1  0.350306  0.970485  0.041322  1
  Ga  Ga29  1  0.149727  0.470675  0.958747  1
  Ga  Ga30  1  0.649906  0.029571  0.541265  1
  Ga  Ga31  1  0.352021  0.969604  0.459128  1
  Ga  Ga32  1  0.849816  0.530960  0.459104  1
  Ga  Ga33  1  0.769289  0.620282  0.749959  1
  Ga  Ga34  1  0.231440  0.380130  0.249777  1
  Ga  Ga35  1  0.649608  0.029588  0.958594  1
