# generated using pymatgen
data_Ac10Nd5Sm5Sn16
_symmetry_space_group_name_H-M   'P 1'
_cell_length_a   8.50174295
_cell_length_b   8.63984294
_cell_length_c   16.50650014
_cell_angle_alpha   89.68554084
_cell_angle_beta   89.98587547
_cell_angle_gamma   90.05244831
_symmetry_Int_Tables_number   1
_chemical_formula_structural   Ac10Nd5Sm5Sn16
_chemical_formula_sum   'Ac10 Nd5 Sm5 Sn16'
_cell_volume   1212.44509588
_cell_formula_units_Z   1
loop_
 _symmetry_equiv_pos_site_id
 _symmetry_equiv_pos_as_xyz
  1  'x, y, z'
loop_
 _atom_site_type_symbol
 _atom_site_label
 _atom_site_symmetry_multiplicity
 _atom_site_fract_x
 _atom_site_fract_y
 _atom_site_fract_z
 _atom_site_occupancy
  Ac  Ac0  1  0.487906  0.819828  0.904479  1
  Ac  Ac1  1  0.988118  0.680322  0.595547  1
  Ac  Ac2  1  0.513400  0.176092  0.400405  1
  Ac  Ac3  1  0.013396  0.323774  0.099323  1
  Ac  Ac4  1  0.512875  0.182036  0.099286  1
  Ac  Ac5  1  0.012805  0.317976  0.400733  1
  Ac  Ac6  1  0.484625  0.817501  0.596102  1
  Ac  Ac7  1  0.984806  0.682658  0.903954  1
  Ac  Ac8  1  0.640259  0.340629  0.884218  1
  Ac  Ac9  1  0.140421  0.159225  0.615875  1
  Nd  Nd10  1  0.361042  0.659269  0.373607  1
  Nd  Nd11  1  0.860902  0.840816  0.126383  1
  Nd  Nd12  1  0.355809  0.660181  0.122185  1
  Nd  Nd13  1  0.855720  0.839917  0.377785  1
  Nd  Nd14  1  0.644540  0.338053  0.623048  1
  Sm  Sm15  1  0.144563  0.161845  0.876837  1
  Sm  Sm16  1  0.306290  0.497196  0.751325  1
  Sm  Sm17  1  0.806841  0.002421  0.749025  1
  Sm  Sm18  1  0.694698  0.501651  0.250458  1
  Sm  Sm19  1  0.194741  0.998311  0.249504  1
  Sn  Sn20  1  0.193120  0.961541  0.043090  1
  Sn  Sn21  1  0.693176  0.539159  0.456273  1
  Sn  Sn22  1  0.789902  0.038670  0.541969  1
  Sn  Sn23  1  0.289350  0.460073  0.957727  1
  Sn  Sn24  1  0.818927  0.036482  0.959638  1
  Sn  Sn25  1  0.317675  0.464045  0.540151  1
  Sn  Sn26  1  0.195940  0.948972  0.448917  1
  Sn  Sn27  1  0.695910  0.551078  0.051106  1
  Sn  Sn28  1  0.682720  0.645185  0.748587  1
  Sn  Sn29  1  0.182580  0.855659  0.751813  1
  Sn  Sn30  1  0.318320  0.359564  0.249414  1
  Sn  Sn31  1  0.818186  0.140468  0.250569  1
  Sn  Sn32  1  0.443027  0.121878  0.751802  1
  Sn  Sn33  1  0.944461  0.377632  0.748871  1
  Sn  Sn34  1  0.556494  0.871740  0.248686  1
  Sn  Sn35  1  0.056456  0.628153  0.251307  1
