# generated using pymatgen
data_Lu6SiTe2
_symmetry_space_group_name_H-M   'P 1'
_cell_length_a   4.09677600
_cell_length_b   11.18683100
_cell_length_c   20.57331900
_cell_angle_alpha   90.00000000
_cell_angle_beta   90.00000000
_cell_angle_gamma   90.00000000
_symmetry_Int_Tables_number   1
_chemical_formula_structural   Lu6SiTe2
_chemical_formula_sum   'Lu24 Si4 Te8'
_cell_volume   942.87399094
_cell_formula_units_Z   4
loop_
 _symmetry_equiv_pos_site_id
 _symmetry_equiv_pos_as_xyz
  1  'x, y, z'
loop_
 _atom_site_type_symbol
 _atom_site_label
 _atom_site_symmetry_multiplicity
 _atom_site_fract_x
 _atom_site_fract_y
 _atom_site_fract_z
 _atom_site_occupancy
  Lu  Lu0  1  0.750000  0.937709  0.639967  1
  Lu  Lu1  1  0.250000  0.379753  0.476860  1
  Lu  Lu2  1  0.250000  0.120247  0.976860  1
  Lu  Lu3  1  0.250000  0.318425  0.108182  1
  Lu  Lu4  1  0.750000  0.239308  0.228765  1
  Lu  Lu5  1  0.250000  0.760692  0.771235  1
  Lu  Lu6  1  0.750000  0.681575  0.891818  1
  Lu  Lu7  1  0.250000  0.031987  0.152086  1
  Lu  Lu8  1  0.750000  0.110878  0.494901  1
  Lu  Lu9  1  0.250000  0.468013  0.652086  1
  Lu  Lu10  1  0.750000  0.879753  0.023140  1
  Lu  Lu11  1  0.750000  0.562291  0.139967  1
  Lu  Lu12  1  0.750000  0.818425  0.391818  1
  Lu  Lu13  1  0.750000  0.620247  0.523140  1
  Lu  Lu14  1  0.250000  0.437709  0.860033  1
  Lu  Lu15  1  0.250000  0.062291  0.360033  1
  Lu  Lu16  1  0.250000  0.181575  0.608182  1
  Lu  Lu17  1  0.250000  0.739308  0.271235  1
  Lu  Lu18  1  0.750000  0.389122  0.994901  1
  Lu  Lu19  1  0.750000  0.531987  0.347914  1
  Lu  Lu20  1  0.250000  0.610878  0.005099  1
  Lu  Lu21  1  0.750000  0.260692  0.728765  1
  Lu  Lu22  1  0.750000  0.968013  0.847914  1
  Lu  Lu23  1  0.250000  0.889122  0.505099  1
  Si  Si24  1  0.750000  0.137016  0.074586  1
  Si  Si25  1  0.250000  0.637016  0.425414  1
  Si  Si26  1  0.250000  0.862984  0.925414  1
  Si  Si27  1  0.750000  0.362984  0.574586  1
  Te  Te28  1  0.250000  0.728976  0.624461  1
  Te  Te29  1  0.750000  0.271024  0.375539  1
  Te  Te30  1  0.250000  0.042941  0.740281  1
  Te  Te31  1  0.250000  0.457059  0.240281  1
  Te  Te32  1  0.750000  0.228976  0.875539  1
  Te  Te33  1  0.750000  0.542941  0.759719  1
  Te  Te34  1  0.250000  0.771024  0.124461  1
  Te  Te35  1  0.750000  0.957059  0.259719  1
