# generated using pymatgen
data_Ba6NaSr(USe6)2
_symmetry_space_group_name_H-M   'P 1'
_cell_length_a   8.96709959
_cell_length_b   8.96709914
_cell_length_c   8.96710064
_cell_angle_alpha   91.10617007
_cell_angle_beta   91.10616800
_cell_angle_gamma   91.10617524
_symmetry_Int_Tables_number   1
_chemical_formula_structural   Ba6NaSr(USe6)2
_chemical_formula_sum   'Ba6 Na1 Sr1 U2 Se12'
_cell_volume   720.62605384
_cell_formula_units_Z   1
loop_
 _symmetry_equiv_pos_site_id
 _symmetry_equiv_pos_as_xyz
  1  'x, y, z'
loop_
 _atom_site_type_symbol
 _atom_site_label
 _atom_site_symmetry_multiplicity
 _atom_site_fract_x
 _atom_site_fract_y
 _atom_site_fract_z
 _atom_site_occupancy
  Ba  Ba0  1  0.875469  0.624531  0.250000  1
  Ba  Ba1  1  0.250000  0.875469  0.624531  1
  Ba  Ba2  1  0.624531  0.250000  0.875469  1
  Ba  Ba3  1  0.750000  0.126365  0.373635  1
  Ba  Ba4  1  0.373635  0.750000  0.126365  1
  Ba  Ba5  1  0.126365  0.373635  0.750000  1
  Na  Na6  1  0.250000  0.250000  0.250000  1
  Sr  Sr7  1  0.750000  0.750000  0.750000  1
  U  U8  1  0.495669  0.495669  0.495669  1
  U  U9  1  0.004331  0.004331  0.004331  1
  Se  Se10  1  0.202816  0.554552  0.418937  1
  Se  Se11  1  0.418937  0.202816  0.554552  1
  Se  Se12  1  0.554552  0.418937  0.202816  1
  Se  Se13  1  0.917816  0.053170  0.703182  1
  Se  Se14  1  0.703182  0.917816  0.053170  1
  Se  Se15  1  0.053170  0.703182  0.917816  1
  Se  Se16  1  0.796818  0.446830  0.582184  1
  Se  Se17  1  0.582184  0.796818  0.446830  1
  Se  Se18  1  0.446830  0.582184  0.796818  1
  Se  Se19  1  0.081063  0.945448  0.297184  1
  Se  Se20  1  0.297184  0.081063  0.945448  1
  Se  Se21  1  0.945448  0.297184  0.081063  1
