# generated using pymatgen
data_K8BaSr3(ZrSb4)2
_symmetry_space_group_name_H-M   'P 1'
_cell_length_a   11.09357828
_cell_length_b   11.14828554
_cell_length_c   8.39990624
_cell_angle_alpha   88.64856156
_cell_angle_beta   88.18554088
_cell_angle_gamma   119.44726359
_symmetry_Int_Tables_number   1
_chemical_formula_structural   K8BaSr3(ZrSb4)2
_chemical_formula_sum   'K8 Ba1 Sr3 Zr2 Sb8'
_cell_volume   903.27344035
_cell_formula_units_Z   1
loop_
 _symmetry_equiv_pos_site_id
 _symmetry_equiv_pos_as_xyz
  1  'x, y, z'
loop_
 _atom_site_type_symbol
 _atom_site_label
 _atom_site_symmetry_multiplicity
 _atom_site_fract_x
 _atom_site_fract_y
 _atom_site_fract_z
 _atom_site_occupancy
  K  K0  1  0.053206  0.522493  0.622627  1
  K  K1  1  0.523608  0.054461  0.121765  1
  K  K2  1  0.283485  0.137525  0.836110  1
  K  K3  1  0.870753  0.727418  0.771932  1
  K  K4  1  0.859308  0.146946  0.809629  1
  K  K5  1  0.728565  0.870466  0.271185  1
  K  K6  1  0.137625  0.284401  0.334693  1
  K  K7  1  0.145470  0.858261  0.308681  1
  Ba  Ba8  1  0.470172  0.938260  0.612126  1
  Sr  Sr9  1  0.473034  0.521739  0.629259  1
  Sr  Sr10  1  0.934893  0.470325  0.114216  1
  Sr  Sr11  1  0.522700  0.473535  0.129380  1
  Zr  Zr12  1  0.666189  0.337593  0.511499  1
  Zr  Zr13  1  0.334043  0.662698  0.013560  1
  Sb  Sb14  1  0.607920  0.791384  0.877568  1
  Sb  Sb15  1  0.197904  0.386369  0.923657  1
  Sb  Sb16  1  0.187180  0.793269  0.908262  1
  Sb  Sb17  1  0.387147  0.201351  0.423138  1
  Sb  Sb18  1  0.794439  0.607571  0.373123  1
  Sb  Sb19  1  0.799084  0.194387  0.399455  1
  Sb  Sb20  1  0.668629  0.355137  0.850045  1
  Sb  Sb21  1  0.354203  0.663965  0.349357  1
