# generated using pymatgen
data_Hf5ZrTi4Ga5Se
_symmetry_space_group_name_H-M   'P 1'
_cell_length_a   7.89358500
_cell_length_b   7.88225937
_cell_length_c   5.40081300
_cell_angle_alpha   90.00000000
_cell_angle_beta   90.00000000
_cell_angle_gamma   120.04754624
_symmetry_Int_Tables_number   1
_chemical_formula_structural   Hf5ZrTi4Ga5Se
_chemical_formula_sum   'Hf5 Zr1 Ti4 Ga5 Se1'
_cell_volume   290.87507621
_cell_formula_units_Z   1
loop_
 _symmetry_equiv_pos_site_id
 _symmetry_equiv_pos_as_xyz
  1  'x, y, z'
loop_
 _atom_site_type_symbol
 _atom_site_label
 _atom_site_symmetry_multiplicity
 _atom_site_fract_x
 _atom_site_fract_y
 _atom_site_fract_z
 _atom_site_occupancy
  Hf  Hf0  1  0.243641  0.000000  0.250000  1
  Hf  Hf1  1  0.004280  0.246389  0.250000  1
  Hf  Hf2  1  0.996312  0.754520  0.750000  1
  Hf  Hf3  1  0.757890  0.753611  0.250000  1
  Hf  Hf4  1  0.241792  0.245480  0.750000  1
  Zr  Zr5  1  0.750281  0.000000  0.750000  1
  Ti  Ti6  1  0.334734  0.666952  0.998122  1
  Ti  Ti7  1  0.667784  0.333048  0.998122  1
  Ti  Ti8  1  0.667784  0.333048  0.501878  1
  Ti  Ti9  1  0.334734  0.666952  0.501878  1
  Ga  Ga10  1  0.391006  0.000000  0.750000  1
  Ga  Ga11  1  0.001171  0.600524  0.250000  1
  Ga  Ga12  1  0.001411  0.401952  0.750000  1
  Ga  Ga13  1  0.400647  0.399476  0.250000  1
  Ga  Ga14  1  0.599459  0.598048  0.750000  1
  Se  Se15  1  0.607074  0.000000  0.250000  1
