# generated using pymatgen
data_Ho4MnRe2Tc5
_symmetry_space_group_name_H-M   'P 1'
_cell_length_a   5.34961347
_cell_length_b   5.30651167
_cell_length_c   8.93135346
_cell_angle_alpha   89.98618012
_cell_angle_beta   90.19681693
_cell_angle_gamma   119.74742497
_symmetry_Int_Tables_number   1
_chemical_formula_structural   Ho4MnRe2Tc5
_chemical_formula_sum   'Ho4 Mn1 Re2 Tc5'
_cell_volume   220.12834539
_cell_formula_units_Z   1
loop_
 _symmetry_equiv_pos_site_id
 _symmetry_equiv_pos_as_xyz
  1  'x, y, z'
loop_
 _atom_site_type_symbol
 _atom_site_label
 _atom_site_symmetry_multiplicity
 _atom_site_fract_x
 _atom_site_fract_y
 _atom_site_fract_z
 _atom_site_occupancy
  Ho  Ho0  1  0.667242  0.333661  0.564416  1
  Ho  Ho1  1  0.332679  0.666289  0.435690  1
  Ho  Ho2  1  0.332934  0.666467  0.063536  1
  Ho  Ho3  1  0.667095  0.333587  0.936776  1
  Mn  Mn4  1  0.001491  0.000754  0.999452  1
  Re  Re5  1  0.168798  0.339248  0.752005  1
  Re  Re6  1  0.168819  0.829671  0.751962  1
  Tc  Tc7  1  0.002148  0.001055  0.500054  1
  Tc  Tc8  1  0.658065  0.829073  0.752776  1
  Tc  Tc9  1  0.829858  0.659326  0.248034  1
  Tc  Tc10  1  0.830010  0.170433  0.248042  1
  Tc  Tc11  1  0.340862  0.170437  0.247257  1
