# generated using pymatgen
data_Na3Rh(NO3)8
_symmetry_space_group_name_H-M   'P 1'
_cell_length_a   8.03182821
_cell_length_b   8.03182792
_cell_length_c   8.03182759
_cell_angle_alpha   88.78625293
_cell_angle_beta   91.21374465
_cell_angle_gamma   91.21373922
_symmetry_Int_Tables_number   1
_chemical_formula_structural   Na3Rh(NO3)8
_chemical_formula_sum   'Na3 Rh1 N8 O24'
_cell_volume   517.79139191
_cell_formula_units_Z   1
loop_
 _symmetry_equiv_pos_site_id
 _symmetry_equiv_pos_as_xyz
  1  'x, y, z'
loop_
 _atom_site_type_symbol
 _atom_site_label
 _atom_site_symmetry_multiplicity
 _atom_site_fract_x
 _atom_site_fract_y
 _atom_site_fract_z
 _atom_site_occupancy
  Na  Na0  1  0.500000  0.500000  0.500000  1
  Na  Na1  1  0.500000  0.000000  0.000000  1
  Na  Na2  1  0.000000  0.500000  0.000000  1
  Rh  Rh3  1  0.000000  0.000000  0.500000  1
  N  N4  1  0.695231  0.140312  0.319893  1
  N  N5  1  0.666740  0.333260  0.833260  1
  N  N6  1  0.859688  0.819893  0.804769  1
  N  N7  1  0.819893  0.695231  0.359688  1
  N  N8  1  0.140312  0.180107  0.195231  1
  N  N9  1  0.180107  0.304769  0.640312  1
  N  N10  1  0.333260  0.666740  0.166740  1
  N  N11  1  0.304769  0.859688  0.680107  1
  O  O12  1  0.547448  0.230821  0.816615  1
  O  O13  1  0.585845  0.246843  0.316324  1
  O  O14  1  0.683385  0.452552  0.730821  1
  O  O15  1  0.711023  0.031053  0.215365  1
  O  O16  1  0.715365  0.711023  0.468947  1
  O  O17  1  0.753157  0.816324  0.914155  1
  O  O18  1  0.769179  0.316615  0.952552  1
  O  O19  1  0.801042  0.149034  0.450246  1
  O  O20  1  0.850966  0.950246  0.698958  1
  O  O21  1  0.816324  0.585845  0.253157  1
  O  O22  1  0.968947  0.715365  0.788977  1
  O  O23  1  0.950246  0.801042  0.350966  1
  O  O24  1  0.049754  0.198958  0.649034  1
  O  O25  1  0.031053  0.284635  0.211023  1
  O  O26  1  0.183676  0.414155  0.746843  1
  O  O27  1  0.149034  0.049754  0.301042  1
  O  O28  1  0.230821  0.683385  0.047448  1
  O  O29  1  0.198958  0.850966  0.549754  1
  O  O30  1  0.246843  0.183676  0.085845  1
  O  O31  1  0.284635  0.288977  0.531053  1
  O  O32  1  0.316615  0.547448  0.269179  1
  O  O33  1  0.288977  0.968947  0.784635  1
  O  O34  1  0.414155  0.753157  0.683676  1
  O  O35  1  0.452552  0.769179  0.183385  1
