# generated using pymatgen
data_TbDy8Er11Fe2(CoBi4)2
_symmetry_space_group_name_H-M   'P 1'
_cell_length_a   7.94763804
_cell_length_b   8.86877900
_cell_length_c   12.36154600
_cell_angle_alpha   90.00000000
_cell_angle_beta   90.00587546
_cell_angle_gamma   90.00000000
_symmetry_Int_Tables_number   1
_chemical_formula_structural   TbDy8Er11Fe2(CoBi4)2
_chemical_formula_sum   'Tb1 Dy8 Er11 Fe2 Co2 Bi8'
_cell_volume   871.31401524
_cell_formula_units_Z   1
loop_
 _symmetry_equiv_pos_site_id
 _symmetry_equiv_pos_as_xyz
  1  'x, y, z'
loop_
 _atom_site_type_symbol
 _atom_site_label
 _atom_site_symmetry_multiplicity
 _atom_site_fract_x
 _atom_site_fract_y
 _atom_site_fract_z
 _atom_site_occupancy
  Tb  Tb0  1  0.651492  0.750000  0.699701  1
  Dy  Dy1  1  0.349095  0.250000  0.301629  1
  Dy  Dy2  1  0.150320  0.250000  0.801431  1
  Dy  Dy3  1  0.848684  0.750000  0.200094  1
  Dy  Dy4  1  0.115208  0.750000  0.812957  1
  Dy  Dy5  1  0.882891  0.250000  0.187055  1
  Dy  Dy6  1  0.617174  0.250000  0.686586  1
  Dy  Dy7  1  0.385121  0.750000  0.313435  1
  Dy  Dy8  1  0.554488  0.750000  0.995314  1
  Er  Er9  1  0.446645  0.250000  0.003955  1
  Er  Er10  1  0.052984  0.250000  0.503308  1
  Er  Er11  1  0.945201  0.750000  0.495314  1
  Er  Er12  1  0.826902  0.464667  0.936982  1
  Er  Er13  1  0.175214  0.537458  0.063893  1
  Er  Er14  1  0.324464  0.537567  0.563693  1
  Er  Er15  1  0.175214  0.962542  0.063893  1
  Er  Er16  1  0.673438  0.465520  0.436941  1
  Er  Er17  1  0.826902  0.035333  0.936982  1
  Er  Er18  1  0.673438  0.034480  0.436941  1
  Er  Er19  1  0.324464  0.962433  0.563693  1
  Fe  Fe20  1  0.933964  0.750000  0.992786  1
  Fe  Fe21  1  0.567205  0.750000  0.492209  1
  Co  Co22  1  0.065066  0.250000  0.008010  1
  Co  Co23  1  0.434676  0.250000  0.507755  1
  Bi  Bi24  1  0.930643  0.007849  0.671419  1
  Bi  Bi25  1  0.070845  0.992965  0.327173  1
  Bi  Bi26  1  0.428462  0.993972  0.826652  1
  Bi  Bi27  1  0.070845  0.507035  0.327173  1
  Bi  Bi28  1  0.569926  0.007889  0.172478  1
  Bi  Bi29  1  0.930643  0.492151  0.671419  1
  Bi  Bi30  1  0.569926  0.492111  0.172478  1
  Bi  Bi31  1  0.428462  0.506028  0.826652  1
