# generated using pymatgen
data_La3Nd5(ThSe5)4
_symmetry_space_group_name_H-M   'P 1'
_cell_length_a   7.96561203
_cell_length_b   8.61300847
_cell_length_c   12.67848309
_cell_angle_alpha   89.95906425
_cell_angle_beta   90.02386151
_cell_angle_gamma   90.05313770
_symmetry_Int_Tables_number   1
_chemical_formula_structural   La3Nd5(ThSe5)4
_chemical_formula_sum   'La3 Nd5 Th4 Se20'
_cell_volume   869.84322432
_cell_formula_units_Z   1
loop_
 _symmetry_equiv_pos_site_id
 _symmetry_equiv_pos_as_xyz
  1  'x, y, z'
loop_
 _atom_site_type_symbol
 _atom_site_label
 _atom_site_symmetry_multiplicity
 _atom_site_fract_x
 _atom_site_fract_y
 _atom_site_fract_z
 _atom_site_occupancy
  La  La0  1  0.518684  0.499567  0.321540  1
  La  La1  1  0.981222  0.000258  0.822264  1
  La  La2  1  0.481162  0.999666  0.677949  1
  Nd  Nd3  1  0.017315  0.501776  0.179066  1
  Nd  Nd4  1  0.482272  0.502141  0.679990  1
  Nd  Nd5  1  0.018094  0.998192  0.179727  1
  Nd  Nd6  1  0.517250  0.002347  0.319984  1
  Nd  Nd7  1  0.982088  0.497833  0.820814  1
  Th  Th8  1  0.077505  0.749454  0.490870  1
  Th  Th9  1  0.422756  0.749689  0.991252  1
  Th  Th10  1  0.922560  0.249871  0.508861  1
  Th  Th11  1  0.577538  0.250491  0.009158  1
  Se  Se12  1  0.838809  0.955304  0.599371  1
  Se  Se13  1  0.663235  0.544587  0.099584  1
  Se  Se14  1  0.160274  0.455760  0.398955  1
  Se  Se15  1  0.338515  0.044091  0.900629  1
  Se  Se16  1  0.163286  0.043754  0.399699  1
  Se  Se17  1  0.337454  0.456039  0.899450  1
  Se  Se18  1  0.836845  0.543659  0.600234  1
  Se  Se19  1  0.662956  0.956305  0.100484  1
  Se  Se20  1  0.827002  0.751400  0.314900  1
  Se  Se21  1  0.673872  0.746945  0.815609  1
  Se  Se22  1  0.173805  0.253347  0.684356  1
  Se  Se23  1  0.324838  0.248134  0.183906  1
  Se  Se24  1  0.459280  0.750031  0.498545  1
  Se  Se25  1  0.041058  0.747569  0.999878  1
  Se  Se26  1  0.540755  0.249612  0.501164  1
  Se  Se27  1  0.959739  0.252122  0.002269  1
  Se  Se28  1  0.200822  0.746422  0.716000  1
  Se  Se29  1  0.297716  0.752184  0.215562  1
  Se  Se30  1  0.800305  0.248081  0.283671  1
  Se  Se31  1  0.700985  0.253368  0.784259  1
