# generated using pymatgen
data_Gd4PdPt3O14
_symmetry_space_group_name_H-M   'P 1'
_cell_length_a   7.32583496
_cell_length_b   7.32583567
_cell_length_c   7.34070367
_cell_angle_alpha   60.06697978
_cell_angle_beta   60.06698183
_cell_angle_gamma   59.99999740
_symmetry_Int_Tables_number   1
_chemical_formula_structural   Gd4PdPt3O14
_chemical_formula_sum   'Gd4 Pd1 Pt3 O14'
_cell_volume   278.85339395
_cell_formula_units_Z   1
loop_
 _symmetry_equiv_pos_site_id
 _symmetry_equiv_pos_as_xyz
  1  'x, y, z'
loop_
 _atom_site_type_symbol
 _atom_site_label
 _atom_site_symmetry_multiplicity
 _atom_site_fract_x
 _atom_site_fract_y
 _atom_site_fract_z
 _atom_site_occupancy
  Gd  Gd0  1  0.625000  0.625000  0.125000  1
  Gd  Gd1  1  0.625000  0.625000  0.625000  1
  Gd  Gd2  1  0.625000  0.125000  0.625000  1
  Gd  Gd3  1  0.125000  0.625000  0.625000  1
  Pd  Pd4  1  0.125000  0.125000  0.625000  1
  Pt  Pt5  1  0.125000  0.125000  0.125000  1
  Pt  Pt6  1  0.625000  0.125000  0.125000  1
  Pt  Pt7  1  0.125000  0.625000  0.125000  1
  O  O8  1  0.036399  0.464880  0.462322  1
  O  O9  1  0.786238  0.786238  0.213351  1
  O  O10  1  0.786238  0.214173  0.213351  1
  O  O11  1  0.464880  0.036399  0.462322  1
  O  O12  1  0.035827  0.463762  0.036649  1
  O  O13  1  0.749951  0.749951  0.750147  1
  O  O14  1  0.036399  0.036399  0.462322  1
  O  O15  1  0.214173  0.786238  0.213351  1
  O  O16  1  0.213601  0.213601  0.787678  1
  O  O17  1  0.500049  0.500049  0.499853  1
  O  O18  1  0.785120  0.213601  0.787678  1
  O  O19  1  0.463762  0.035827  0.036649  1
  O  O20  1  0.463762  0.463762  0.036649  1
  O  O21  1  0.213601  0.785120  0.787678  1
