# generated using pymatgen
data_PrPdPt4
_symmetry_space_group_name_H-M   'P 1'
_cell_length_a   5.42289700
_cell_length_b   5.42289763
_cell_length_c   4.45311800
_cell_angle_alpha   90.00000000
_cell_angle_beta   90.00000000
_cell_angle_gamma   120.00000227
_symmetry_Int_Tables_number   1
_chemical_formula_structural   PrPdPt4
_chemical_formula_sum   'Pr1 Pd1 Pt4'
_cell_volume   113.41162855
_cell_formula_units_Z   1
loop_
 _symmetry_equiv_pos_site_id
 _symmetry_equiv_pos_as_xyz
  1  'x, y, z'
loop_
 _atom_site_type_symbol
 _atom_site_label
 _atom_site_symmetry_multiplicity
 _atom_site_fract_x
 _atom_site_fract_y
 _atom_site_fract_z
 _atom_site_occupancy
  Pr  Pr0  1  0.333333  0.666667  0.000000  1
  Pd  Pd1  1  0.000000  0.000000  0.000000  1
  Pt  Pt2  1  0.666667  0.333333  0.000000  1
  Pt  Pt3  1  0.833724  0.166276  0.500000  1
  Pt  Pt4  1  0.833724  0.667449  0.500000  1
  Pt  Pt5  1  0.332551  0.166276  0.500000  1
