# generated using pymatgen
data_La5Lu3(P7Ir8)2
_symmetry_space_group_name_H-M   'P 1'
_cell_length_a   3.97662900
_cell_length_b   12.82177639
_cell_length_c   13.22422926
_cell_angle_alpha   81.17068424
_cell_angle_beta   90.00000000
_cell_angle_gamma   90.00000000
_symmetry_Int_Tables_number   1
_chemical_formula_structural   La5Lu3(P7Ir8)2
_chemical_formula_sum   'La5 Lu3 P14 Ir16'
_cell_volume   666.27958720
_cell_formula_units_Z   1
loop_
 _symmetry_equiv_pos_site_id
 _symmetry_equiv_pos_as_xyz
  1  'x, y, z'
loop_
 _atom_site_type_symbol
 _atom_site_label
 _atom_site_symmetry_multiplicity
 _atom_site_fract_x
 _atom_site_fract_y
 _atom_site_fract_z
 _atom_site_occupancy
  La  La0  1  0.250000  0.518114  0.292888  1
  La  La1  1  0.750000  0.719627  0.895142  1
  La  La2  1  0.250000  0.105699  0.786069  1
  La  La3  1  0.750000  0.895534  0.213511  1
  La  La4  1  0.250000  0.280756  0.103435  1
  Lu  Lu5  1  0.750000  0.791966  0.559997  1
  Lu  Lu6  1  0.250000  0.206926  0.442064  1
  Lu  Lu7  1  0.750000  0.478967  0.705437  1
  P  P8  1  0.250000  0.907889  0.414756  1
  P  P9  1  0.750000  0.473903  0.125492  1
  P  P10  1  0.250000  0.527227  0.867812  1
  P  P11  1  0.750000  0.092532  0.587653  1
  P  P12  1  0.250000  0.743454  0.082123  1
  P  P13  1  0.750000  0.257689  0.917017  1
  P  P14  1  0.750000  0.156914  0.285714  1
  P  P15  1  0.250000  0.840532  0.714178  1
  P  P16  1  0.250000  0.053361  0.099760  1
  P  P17  1  0.750000  0.947469  0.899759  1
  P  P18  1  0.250000  0.317452  0.686350  1
  P  P19  1  0.750000  0.686029  0.316665  1
  P  P20  1  0.250000  0.607366  0.566509  1
  P  P21  1  0.750000  0.387866  0.437836  1
  Ir  Ir22  1  0.250000  0.989600  0.575301  1
  Ir  Ir23  1  0.750000  0.011635  0.425883  1
  Ir  Ir24  1  0.250000  0.659361  0.725527  1
  Ir  Ir25  1  0.750000  0.336198  0.272711  1
  Ir  Ir26  1  0.250000  0.551805  0.046202  1
  Ir  Ir27  1  0.750000  0.450039  0.947411  1
  Ir  Ir28  1  0.250000  0.064194  0.275797  1
  Ir  Ir29  1  0.750000  0.934608  0.724418  1
  Ir  Ir30  1  0.250000  0.422269  0.525645  1
  Ir  Ir31  1  0.750000  0.577712  0.481124  1
  Ir  Ir32  1  0.250000  0.916797  0.997127  1
  Ir  Ir33  1  0.750000  0.084282  0.002323  1
  Ir  Ir34  1  0.250000  0.729546  0.403359  1
  Ir  Ir35  1  0.750000  0.271121  0.600254  1
  Ir  Ir36  1  0.250000  0.344091  0.854477  1
  Ir  Ir37  1  0.750000  0.659470  0.142275  1
