# generated using pymatgen
data_YU(AlC)6
_symmetry_space_group_name_H-M   'P 1'
_cell_length_a   3.41490700
_cell_length_b   3.41490657
_cell_length_c   17.35779100
_cell_angle_alpha   90.00000000
_cell_angle_beta   90.00000000
_cell_angle_gamma   119.99999453
_symmetry_Int_Tables_number   1
_chemical_formula_structural   YU(AlC)6
_chemical_formula_sum   'Y1 U1 Al6 C6'
_cell_volume   175.30036356
_cell_formula_units_Z   1
loop_
 _symmetry_equiv_pos_site_id
 _symmetry_equiv_pos_as_xyz
  1  'x, y, z'
loop_
 _atom_site_type_symbol
 _atom_site_label
 _atom_site_symmetry_multiplicity
 _atom_site_fract_x
 _atom_site_fract_y
 _atom_site_fract_z
 _atom_site_occupancy
  Y  Y0  1  0.000000  0.000000  0.502345  1
  U  U1  1  0.000000  0.000000  0.002187  1
  Al  Al2  1  0.666667  0.333333  0.635129  1
  Al  Al3  1  0.333333  0.666667  0.136830  1
  Al  Al4  1  0.666667  0.333333  0.867863  1
  Al  Al5  1  0.333333  0.666667  0.369526  1
  Al  Al6  1  0.666667  0.333333  0.259669  1
  Al  Al7  1  0.333333  0.666667  0.746186  1
  C  C8  1  0.666667  0.333333  0.405791  1
  C  C9  1  0.333333  0.666667  0.910432  1
  C  C10  1  0.666667  0.333333  0.093509  1
  C  C11  1  0.333333  0.666667  0.598162  1
  C  C12  1  0.666667  0.333333  0.752350  1
  C  C13  1  0.333333  0.666667  0.252224  1
