# generated using pymatgen
data_Dy3YLu4Tl3Co
_symmetry_space_group_name_H-M   'P 1'
_cell_length_a   10.18010600
_cell_length_b   10.18001853
_cell_length_c   7.12852600
_cell_angle_alpha   90.00000000
_cell_angle_beta   90.00000000
_cell_angle_gamma   119.99980483
_symmetry_Int_Tables_number   1
_chemical_formula_structural   Dy3YLu4Tl3Co
_chemical_formula_sum   'Dy6 Y2 Lu8 Tl6 Co2'
_cell_volume   639.78211096
_cell_formula_units_Z   2
loop_
 _symmetry_equiv_pos_site_id
 _symmetry_equiv_pos_as_xyz
  1  'x, y, z'
loop_
 _atom_site_type_symbol
 _atom_site_label
 _atom_site_symmetry_multiplicity
 _atom_site_fract_x
 _atom_site_fract_y
 _atom_site_fract_z
 _atom_site_occupancy
  Dy  Dy0  1  0.464061  0.535935  0.482702  1
  Dy  Dy1  1  0.071873  0.535936  0.482706  1
  Dy  Dy2  1  0.464065  0.928134  0.482711  1
  Dy  Dy3  1  0.535939  0.464065  0.982702  1
  Dy  Dy4  1  0.928127  0.464064  0.982706  1
  Dy  Dy5  1  0.535935  0.071866  0.982711  1
  Y  Y6  1  0.000000  0.999998  0.495905  1
  Y  Y7  1  0.000000  0.000002  0.995905  1
  Lu  Lu8  1  0.820101  0.179899  0.280359  1
  Lu  Lu9  1  0.359809  0.179903  0.280354  1
  Lu  Lu10  1  0.820103  0.640201  0.280356  1
  Lu  Lu11  1  0.179899  0.820101  0.780359  1
  Lu  Lu12  1  0.640191  0.820097  0.780354  1
  Lu  Lu13  1  0.179897  0.359799  0.780356  1
  Lu  Lu14  1  0.333331  0.666660  0.086709  1
  Lu  Lu15  1  0.666669  0.333340  0.586709  1
  Tl  Tl16  1  0.163080  0.836923  0.229724  1
  Tl  Tl17  1  0.673844  0.836921  0.229728  1
  Tl  Tl18  1  0.163071  0.326138  0.229740  1
  Tl  Tl19  1  0.836920  0.163077  0.729724  1
  Tl  Tl20  1  0.326156  0.163079  0.729728  1
  Tl  Tl21  1  0.836929  0.673862  0.729740  1
  Co  Co22  1  0.333331  0.666665  0.711282  1
  Co  Co23  1  0.666669  0.333335  0.211282  1
