# generated using pymatgen
data_Ce4AlB4IrRh8
_symmetry_space_group_name_H-M   'P 1'
_cell_length_a   10.76740542
_cell_length_b   10.76740516
_cell_length_c   10.76758601
_cell_angle_alpha   29.84328550
_cell_angle_beta   29.84328865
_cell_angle_gamma   29.82042248
_symmetry_Int_Tables_number   1
_chemical_formula_structural   Ce4AlB4IrRh8
_chemical_formula_sum   'Ce4 Al1 B4 Ir1 Rh8'
_cell_volume   273.63539357
_cell_formula_units_Z   1
loop_
 _symmetry_equiv_pos_site_id
 _symmetry_equiv_pos_as_xyz
  1  'x, y, z'
loop_
 _atom_site_type_symbol
 _atom_site_label
 _atom_site_symmetry_multiplicity
 _atom_site_fract_x
 _atom_site_fract_y
 _atom_site_fract_z
 _atom_site_occupancy
  Ce  Ce0  1  0.150378  0.150378  0.146702  1
  Ce  Ce1  1  0.948314  0.948314  0.948460  1
  Ce  Ce2  1  0.851489  0.851489  0.850853  1
  Ce  Ce3  1  0.052106  0.052106  0.052252  1
  Al  Al4  1  0.499022  0.499022  0.501483  1
  B  B5  1  0.615024  0.615024  0.617693  1
  B  B6  1  0.717560  0.717560  0.717855  1
  B  B7  1  0.383506  0.383506  0.384667  1
  B  B8  1  0.282919  0.282919  0.280552  1
  Ir  Ir9  1  0.402312  0.402312  0.901635  1
  Rh  Rh10  1  0.402318  0.901917  0.401774  1
  Rh  Rh11  1  0.901917  0.402318  0.401774  1
  Rh  Rh12  1  0.500155  0.500155  0.000502  1
  Rh  Rh13  1  0.499897  0.999742  0.500451  1
  Rh  Rh14  1  0.999742  0.499897  0.500451  1
  Rh  Rh15  1  0.597592  0.098273  0.597290  1
  Rh  Rh16  1  0.597476  0.597476  0.098314  1
  Rh  Rh17  1  0.098273  0.597592  0.597290  1
