# generated using pymatgen
data_GdHo2Ag3SnGe2
_symmetry_space_group_name_H-M   'P 1'
_cell_length_a   7.26182100
_cell_length_b   7.28866070
_cell_length_c   4.32472500
_cell_angle_alpha   90.00000000
_cell_angle_beta   90.00000000
_cell_angle_gamma   119.87826657
_symmetry_Int_Tables_number   1
_chemical_formula_structural   GdHo2Ag3SnGe2
_chemical_formula_sum   'Gd1 Ho2 Ag3 Sn1 Ge2'
_cell_volume   198.47866520
_cell_formula_units_Z   1
loop_
 _symmetry_equiv_pos_site_id
 _symmetry_equiv_pos_as_xyz
  1  'x, y, z'
loop_
 _atom_site_type_symbol
 _atom_site_label
 _atom_site_symmetry_multiplicity
 _atom_site_fract_x
 _atom_site_fract_y
 _atom_site_fract_z
 _atom_site_occupancy
  Gd  Gd0  1  0.568210  0.000000  0.000000  1
  Ho  Ho1  1  0.999788  0.568126  0.000000  1
  Ho  Ho2  1  0.431662  0.431874  0.000000  1
  Ag  Ag3  1  0.258748  0.000000  0.500000  1
  Ag  Ag4  1  0.741172  0.742422  0.500000  1
  Ag  Ag5  1  0.998750  0.257578  0.500000  1
  Sn  Sn6  1  0.002901  0.000000  0.000000  1
  Ge  Ge7  1  0.667916  0.337064  0.500000  1
  Ge  Ge8  1  0.330852  0.662936  0.500000  1
