# generated using pymatgen
data_YHo3CoOs7
_symmetry_space_group_name_H-M   'P 1'
_cell_length_a   5.28597272
_cell_length_b   5.28572656
_cell_length_c   8.84050237
_cell_angle_alpha   90.03834357
_cell_angle_beta   90.03863587
_cell_angle_gamma   59.54111328
_symmetry_Int_Tables_number   1
_chemical_formula_structural   YHo3CoOs7
_chemical_formula_sum   'Y1 Ho3 Co1 Os7'
_cell_volume   212.91694650
_cell_formula_units_Z   1
loop_
 _symmetry_equiv_pos_site_id
 _symmetry_equiv_pos_as_xyz
  1  'x, y, z'
loop_
 _atom_site_type_symbol
 _atom_site_label
 _atom_site_symmetry_multiplicity
 _atom_site_fract_x
 _atom_site_fract_y
 _atom_site_fract_z
 _atom_site_occupancy
  Y  Y0  1  0.330001  0.330598  0.562642  1
  Ho  Ho1  1  0.665590  0.666087  0.433364  1
  Ho  Ho2  1  0.665835  0.666265  0.066389  1
  Ho  Ho3  1  0.330317  0.330876  0.937712  1
  Co  Co4  1  0.173850  0.173806  0.249495  1
  Os  Os5  1  0.992762  0.993714  0.497234  1
  Os  Os6  1  0.993011  0.993922  0.002478  1
  Os  Os7  1  0.827582  0.346309  0.750472  1
  Os  Os8  1  0.348227  0.826551  0.750486  1
  Os  Os9  1  0.834517  0.834573  0.750379  1
  Os  Os10  1  0.177462  0.660270  0.249668  1
  Os  Os11  1  0.660849  0.177024  0.249677  1
