# generated using pymatgen
data_Er4TcB12Ru
_symmetry_space_group_name_H-M   'P 1'
_cell_length_a   3.64416700
_cell_length_b   9.10258999
_cell_length_c   11.47934177
_cell_angle_alpha   89.85818833
_cell_angle_beta   90.00000000
_cell_angle_gamma   90.00000000
_symmetry_Int_Tables_number   1
_chemical_formula_structural   Er4TcB12Ru
_chemical_formula_sum   'Er8 Tc2 B24 Ru2'
_cell_volume   380.78418960
_cell_formula_units_Z   2
loop_
 _symmetry_equiv_pos_site_id
 _symmetry_equiv_pos_as_xyz
  1  'x, y, z'
loop_
 _atom_site_type_symbol
 _atom_site_label
 _atom_site_symmetry_multiplicity
 _atom_site_fract_x
 _atom_site_fract_y
 _atom_site_fract_z
 _atom_site_occupancy
  Er  Er0  1  0.000000  0.325269  0.415491  1
  Er  Er1  1  0.000000  0.674731  0.584509  1
  Er  Er2  1  0.000000  0.821551  0.087547  1
  Er  Er3  1  0.000000  0.178449  0.912453  1
  Er  Er4  1  0.000000  0.942593  0.370738  1
  Er  Er5  1  0.000000  0.057407  0.629262  1
  Er  Er6  1  0.000000  0.443416  0.129854  1
  Er  Er7  1  0.000000  0.556584  0.870146  1
  Tc  Tc8  1  0.000000  0.638801  0.320281  1
  Tc  Tc9  1  0.000000  0.361199  0.679719  1
  B  B10  1  0.500000  0.553035  0.433150  1
  B  B11  1  0.500000  0.446965  0.566850  1
  B  B12  1  0.500000  0.053713  0.066696  1
  B  B13  1  0.500000  0.946287  0.933304  1
  B  B14  1  0.500000  0.748948  0.419521  1
  B  B15  1  0.500000  0.251052  0.580479  1
  B  B16  1  0.500000  0.248868  0.080753  1
  B  B17  1  0.500000  0.751132  0.919247  1
  B  B18  1  0.500000  0.792278  0.265186  1
  B  B19  1  0.500000  0.207722  0.734814  1
  B  B20  1  0.500000  0.291308  0.234287  1
  B  B21  1  0.500000  0.708692  0.765713  1
  B  B22  1  0.500000  0.631410  0.184753  1
  B  B23  1  0.500000  0.368590  0.815247  1
  B  B24  1  0.500000  0.131157  0.314390  1
  B  B25  1  0.500000  0.868843  0.685610  1
  B  B26  1  0.500000  0.982995  0.211902  1
  B  B27  1  0.500000  0.017005  0.788098  1
  B  B28  1  0.500000  0.482412  0.287524  1
  B  B29  1  0.500000  0.517588  0.712476  1
  B  B30  1  0.500000  0.603369  0.028370  1
  B  B31  1  0.500000  0.396631  0.971630  1
  B  B32  1  0.500000  0.103431  0.471113  1
  B  B33  1  0.500000  0.896569  0.528887  1
  Ru  Ru34  1  0.000000  0.138149  0.178412  1
  Ru  Ru35  1  0.000000  0.861851  0.821588  1
