# generated using pymatgen
data_Ho8OsRuI8
_symmetry_space_group_name_H-M   'P 1'
_cell_length_a   11.10068356
_cell_length_b   11.10068513
_cell_length_c   6.16381170
_cell_angle_alpha   89.30416718
_cell_angle_beta   89.30417064
_cell_angle_gamma   88.57279401
_symmetry_Int_Tables_number   1
_chemical_formula_structural   Ho8OsRuI8
_chemical_formula_sum   'Ho8 Os1 Ru1 I8'
_cell_volume   759.19198902
_cell_formula_units_Z   1
loop_
 _symmetry_equiv_pos_site_id
 _symmetry_equiv_pos_as_xyz
  1  'x, y, z'
loop_
 _atom_site_type_symbol
 _atom_site_label
 _atom_site_symmetry_multiplicity
 _atom_site_fract_x
 _atom_site_fract_y
 _atom_site_fract_z
 _atom_site_occupancy
  Ho  Ho0  1  0.201832  0.915953  0.996493  1
  Ho  Ho1  1  0.798186  0.084074  0.003445  1
  Ho  Ho2  1  0.084047  0.798168  0.503507  1
  Ho  Ho3  1  0.915926  0.201814  0.496555  1
  Ho  Ho4  1  0.800136  0.920990  0.507543  1
  Ho  Ho5  1  0.199820  0.078977  0.492518  1
  Ho  Ho6  1  0.079010  0.199864  0.992457  1
  Ho  Ho7  1  0.921023  0.800180  0.007482  1
  Os  Os8  1  0.999948  0.000052  0.750000  1
  Ru  Ru9  1  0.000017  0.999983  0.250000  1
  I  I10  1  0.362238  0.842289  0.504177  1
  I  I11  1  0.637800  0.157730  0.496640  1
  I  I12  1  0.157711  0.637762  0.995823  1
  I  I13  1  0.842270  0.362200  0.003360  1
  I  I14  1  0.357903  0.149142  0.002467  1
  I  I15  1  0.642083  0.850808  0.996772  1
  I  I16  1  0.850858  0.642097  0.497533  1
  I  I17  1  0.149192  0.357917  0.503228  1
