# generated using pymatgen
data_La4Si5Cl2
_symmetry_space_group_name_H-M   'P 1'
_cell_length_a   11.30599447
_cell_length_b   11.30599515
_cell_length_c   4.13086900
_cell_angle_alpha   90.00000000
_cell_angle_beta   90.00000000
_cell_angle_gamma   93.09148665
_symmetry_Int_Tables_number   1
_chemical_formula_structural   La4Si5Cl2
_chemical_formula_sum   'La8 Si10 Cl4'
_cell_volume   527.26202700
_cell_formula_units_Z   2
loop_
 _symmetry_equiv_pos_site_id
 _symmetry_equiv_pos_as_xyz
  1  'x, y, z'
loop_
 _atom_site_type_symbol
 _atom_site_label
 _atom_site_symmetry_multiplicity
 _atom_site_fract_x
 _atom_site_fract_y
 _atom_site_fract_z
 _atom_site_occupancy
  La  La0  1  0.731335  0.731335  0.000000  1
  La  La1  1  0.037311  0.671763  0.500000  1
  La  La2  1  0.370271  0.629729  0.000000  1
  La  La3  1  0.962689  0.328237  0.500000  1
  La  La4  1  0.268665  0.268665  0.000000  1
  La  La5  1  0.629729  0.370271  0.000000  1
  La  La6  1  0.671763  0.037311  0.500000  1
  La  La7  1  0.328237  0.962689  0.500000  1
  Si  Si8  1  0.576687  0.576687  0.500000  1
  Si  Si9  1  0.423313  0.423313  0.500000  1
  Si  Si10  1  0.214905  0.470370  0.500000  1
  Si  Si11  1  0.785095  0.529630  0.500000  1
  Si  Si12  1  0.517641  0.896124  0.000000  1
  Si  Si13  1  0.529630  0.785095  0.500000  1
  Si  Si14  1  0.482359  0.103876  0.000000  1
  Si  Si15  1  0.103876  0.482359  0.000000  1
  Si  Si16  1  0.470370  0.214905  0.500000  1
  Si  Si17  1  0.896124  0.517641  0.000000  1
  Cl  Cl18  1  0.877586  0.877586  0.500000  1
  Cl  Cl19  1  0.171494  0.828506  0.000000  1
  Cl  Cl20  1  0.122414  0.122414  0.500000  1
  Cl  Cl21  1  0.828506  0.171494  0.000000  1
