# generated using pymatgen
data_Ga3Ni3Ir2
_symmetry_space_group_name_H-M   'P 1'
_cell_length_a   5.19297151
_cell_length_b   5.19297144
_cell_length_c   3.89163800
_cell_angle_alpha   90.00000000
_cell_angle_beta   90.00000000
_cell_angle_gamma   95.41063118
_symmetry_Int_Tables_number   1
_chemical_formula_structural   Ga3Ni3Ir2
_chemical_formula_sum   'Ga3 Ni3 Ir2'
_cell_volume   104.47803126
_cell_formula_units_Z   1
loop_
 _symmetry_equiv_pos_site_id
 _symmetry_equiv_pos_as_xyz
  1  'x, y, z'
loop_
 _atom_site_type_symbol
 _atom_site_label
 _atom_site_symmetry_multiplicity
 _atom_site_fract_x
 _atom_site_fract_y
 _atom_site_fract_z
 _atom_site_occupancy
  Ga  Ga0  1  0.000000  0.000000  0.000000  1
  Ga  Ga1  1  0.719949  0.280051  0.500000  1
  Ga  Ga2  1  0.280051  0.719949  0.500000  1
  Ni  Ni3  1  0.500000  0.500000  0.000000  1
  Ni  Ni4  1  0.500000  0.000000  0.000000  1
  Ni  Ni5  1  0.000000  0.500000  0.000000  1
  Ir  Ir6  1  0.775744  0.775744  0.500000  1
  Ir  Ir7  1  0.224256  0.224256  0.500000  1
