# generated using pymatgen
data_Tb3Yb3(Ni7B2)2
_symmetry_space_group_name_H-M   'P 1'
_cell_length_a   5.03483700
_cell_length_b   5.03483710
_cell_length_c   14.21344500
_cell_angle_alpha   90.00000000
_cell_angle_beta   90.00000000
_cell_angle_gamma   120.00001903
_symmetry_Int_Tables_number   1
_chemical_formula_structural   Tb3Yb3(Ni7B2)2
_chemical_formula_sum   'Tb3 Yb3 Ni14 B4'
_cell_volume   312.03315396
_cell_formula_units_Z   1
loop_
 _symmetry_equiv_pos_site_id
 _symmetry_equiv_pos_as_xyz
  1  'x, y, z'
loop_
 _atom_site_type_symbol
 _atom_site_label
 _atom_site_symmetry_multiplicity
 _atom_site_fract_x
 _atom_site_fract_y
 _atom_site_fract_z
 _atom_site_occupancy
  Tb  Tb0  1  0.666667  0.333333  0.536933  1
  Tb  Tb1  1  0.333333  0.666667  0.463857  1
  Tb  Tb2  1  0.333333  0.666667  0.032479  1
  Yb  Yb3  1  0.666667  0.333333  0.754741  1
  Yb  Yb4  1  0.666667  0.333333  0.964729  1
  Yb  Yb5  1  0.333333  0.666667  0.248533  1
  Ni  Ni6  1  0.165762  0.331524  0.651263  1
  Ni  Ni7  1  0.331820  0.165910  0.348919  1
  Ni  Ni8  1  0.330807  0.165404  0.149986  1
  Ni  Ni9  1  0.165600  0.834400  0.849932  1
  Ni  Ni10  1  0.834090  0.668180  0.348919  1
  Ni  Ni11  1  0.834596  0.165404  0.149986  1
  Ni  Ni12  1  0.668476  0.834238  0.651263  1
  Ni  Ni13  1  0.668800  0.834400  0.849932  1
  Ni  Ni14  1  0.165762  0.834238  0.651263  1
  Ni  Ni15  1  0.834596  0.669193  0.149986  1
  Ni  Ni16  1  0.000000  0.000000  0.999593  1
  Ni  Ni17  1  0.165600  0.331200  0.849932  1
  Ni  Ni18  1  0.834090  0.165910  0.348919  1
  Ni  Ni19  1  0.000000  0.000000  0.499557  1
  B  B20  1  0.666667  0.333333  0.249074  1
  B  B21  1  0.000000  0.000000  0.750493  1
  B  B22  1  0.333333  0.666667  0.750654  1
  B  B23  1  0.000000  0.000000  0.249062  1
