# generated using pymatgen
data_SmY4Ho(Si3Ru)8
_symmetry_space_group_name_H-M   'P 1'
_cell_length_a   10.13374775
_cell_length_b   10.13396178
_cell_length_c   8.15946587
_cell_angle_alpha   90.03741452
_cell_angle_beta   89.94113545
_cell_angle_gamma   132.53600230
_symmetry_Int_Tables_number   1
_chemical_formula_structural   SmY4Ho(Si3Ru)8
_chemical_formula_sum   'Sm1 Y4 Ho1 Si24 Ru8'
_cell_volume   617.43538947
_cell_formula_units_Z   1
loop_
 _symmetry_equiv_pos_site_id
 _symmetry_equiv_pos_as_xyz
  1  'x, y, z'
loop_
 _atom_site_type_symbol
 _atom_site_label
 _atom_site_symmetry_multiplicity
 _atom_site_fract_x
 _atom_site_fract_y
 _atom_site_fract_z
 _atom_site_occupancy
  Sm  Sm0  1  0.502640  0.002762  0.750259  1
  Y  Y1  1  0.500024  0.500026  0.499892  1
  Y  Y2  1  0.997518  0.497697  0.249720  1
  Y  Y3  1  0.497563  0.997431  0.249695  1
  Y  Y4  1  0.002688  0.502521  0.750278  1
  Ho  Ho5  1  0.999961  0.999975  0.000092  1
  Si  Si6  1  0.795557  0.206276  0.498955  1
  Si  Si7  1  0.293564  0.704908  0.000915  1
  Si  Si8  1  0.204572  0.793943  0.499078  1
  Si  Si9  1  0.706610  0.295177  0.000972  1
  Si  Si10  1  0.332621  0.332725  0.832849  1
  Si  Si11  1  0.667335  0.667267  0.167029  1
  Si  Si12  1  0.167716  0.167700  0.333126  1
  Si  Si13  1  0.832310  0.832223  0.666997  1
  Si  Si14  1  0.121721  0.887885  0.728376  1
  Si  Si15  1  0.111864  0.878317  0.271723  1
  Si  Si16  1  0.612559  0.378450  0.227779  1
  Si  Si17  1  0.621845  0.387418  0.771806  1
  Si  Si18  1  0.877598  0.111344  0.271819  1
  Si  Si19  1  0.888534  0.122582  0.728640  1
  Si  Si20  1  0.386691  0.620895  0.772009  1
  Si  Si21  1  0.379046  0.613003  0.227838  1
  Si  Si22  1  0.345415  0.112061  0.504207  1
  Si  Si23  1  0.888302  0.655294  0.495112  1
  Si  Si24  1  0.388419  0.154581  0.005450  1
  Si  Si25  1  0.844544  0.611369  0.995292  1
  Si  Si26  1  0.654279  0.887991  0.494373  1
  Si  Si27  1  0.111812  0.344830  0.504978  1
  Si  Si28  1  0.611609  0.845116  0.995985  1
  Si  Si29  1  0.155596  0.388743  0.004708  1
  Ru  Ru30  1  0.670143  0.332519  0.498948  1
  Ru  Ru31  1  0.166899  0.830433  0.000708  1
  Ru  Ru32  1  0.329768  0.667457  0.499250  1
  Ru  Ru33  1  0.833140  0.169514  0.001092  1
  Ru  Ru34  1  0.125488  0.125553  0.627579  1
  Ru  Ru35  1  0.874109  0.874406  0.372636  1
  Ru  Ru36  1  0.373685  0.373451  0.126029  1
  Ru  Ru37  1  0.626254  0.626161  0.873809  1
