# generated using pymatgen
data_Sr12Ta3Nb(P3O)4
_symmetry_space_group_name_H-M   'P 1'
_cell_length_a   6.31327800
_cell_length_b   10.55067100
_cell_length_c   12.81475300
_cell_angle_alpha   90.00000000
_cell_angle_beta   89.99694608
_cell_angle_gamma   90.00000000
_symmetry_Int_Tables_number   1
_chemical_formula_structural   Sr12Ta3Nb(P3O)4
_chemical_formula_sum   'Sr12 Ta3 Nb1 P12 O4'
_cell_volume   853.58197128
_cell_formula_units_Z   1
loop_
 _symmetry_equiv_pos_site_id
 _symmetry_equiv_pos_as_xyz
  1  'x, y, z'
loop_
 _atom_site_type_symbol
 _atom_site_label
 _atom_site_symmetry_multiplicity
 _atom_site_fract_x
 _atom_site_fract_y
 _atom_site_fract_z
 _atom_site_occupancy
  Sr  Sr0  1  0.248593  0.040808  0.629822  1
  Sr  Sr1  1  0.748482  0.459277  0.870190  1
  Sr  Sr2  1  0.751789  0.541329  0.370457  1
  Sr  Sr3  1  0.251603  0.959288  0.129647  1
  Sr  Sr4  1  0.248593  0.459192  0.629822  1
  Sr  Sr5  1  0.751789  0.958671  0.370457  1
  Sr  Sr6  1  0.768257  0.250000  0.131184  1
  Sr  Sr7  1  0.268551  0.250000  0.368904  1
  Sr  Sr8  1  0.231730  0.750000  0.869041  1
  Sr  Sr9  1  0.732291  0.750000  0.630626  1
  Sr  Sr10  1  0.251603  0.540712  0.129647  1
  Sr  Sr11  1  0.748482  0.040723  0.870190  1
  Ta  Ta12  1  0.336629  0.250000  0.951065  1
  Ta  Ta13  1  0.836618  0.250000  0.548923  1
  Ta  Ta14  1  0.663573  0.750000  0.048912  1
  Nb  Nb15  1  0.163218  0.750000  0.450944  1
  P  P16  1  0.236613  0.750000  0.633131  1
  P  P17  1  0.736148  0.750000  0.866716  1
  P  P18  1  0.764321  0.250000  0.366754  1
  P  P19  1  0.263948  0.250000  0.133216  1
  P  P20  1  0.237528  0.449565  0.877370  1
  P  P21  1  0.737525  0.050462  0.622665  1
  P  P22  1  0.237528  0.050435  0.877370  1
  P  P23  1  0.737525  0.449538  0.622665  1
  P  P24  1  0.762634  0.550449  0.122631  1
  P  P25  1  0.262743  0.550249  0.377460  1
  P  P26  1  0.262743  0.949751  0.377460  1
  P  P27  1  0.762634  0.949551  0.122631  1
  O  O28  1  0.636665  0.250000  0.945025  1
  O  O29  1  0.136687  0.250000  0.555012  1
  O  O30  1  0.363471  0.750000  0.054974  1
  O  O31  1  0.859486  0.750000  0.445090  1
