# generated using pymatgen
data_Nd(Y3Au5)2
_symmetry_space_group_name_H-M   'P 1'
_cell_length_a   8.78069503
_cell_length_b   8.78069481
_cell_length_c   10.45562886
_cell_angle_alpha   89.90174492
_cell_angle_beta   89.90174312
_cell_angle_gamma   107.09740484
_symmetry_Int_Tables_number   1
_chemical_formula_structural   Nd(Y3Au5)2
_chemical_formula_sum   'Nd2 Y12 Au20'
_cell_volume   770.50600758
_cell_formula_units_Z   2
loop_
 _symmetry_equiv_pos_site_id
 _symmetry_equiv_pos_as_xyz
  1  'x, y, z'
loop_
 _atom_site_type_symbol
 _atom_site_label
 _atom_site_symmetry_multiplicity
 _atom_site_fract_x
 _atom_site_fract_y
 _atom_site_fract_z
 _atom_site_occupancy
  Nd  Nd0  1  0.189371  0.189371  0.690420  1
  Nd  Nd1  1  0.810629  0.810629  0.309580  1
  Y  Y2  1  0.693707  0.306293  0.000000  1
  Y  Y3  1  0.306293  0.693707  0.000000  1
  Y  Y4  1  0.805574  0.194426  0.500000  1
  Y  Y5  1  0.194426  0.805574  0.500000  1
  Y  Y6  1  0.000000  0.000000  0.000000  1
  Y  Y7  1  0.500000  0.500000  0.500000  1
  Y  Y8  1  0.003536  0.503097  0.249645  1
  Y  Y9  1  0.996464  0.496903  0.750355  1
  Y  Y10  1  0.496903  0.996464  0.750355  1
  Y  Y11  1  0.503097  0.003536  0.249645  1
  Y  Y12  1  0.312313  0.312313  0.188921  1
  Y  Y13  1  0.687687  0.687687  0.811079  1
  Au  Au14  1  0.860621  0.153516  0.208058  1
  Au  Au15  1  0.139379  0.846484  0.791942  1
  Au  Au16  1  0.638940  0.350194  0.709839  1
  Au  Au17  1  0.649806  0.361060  0.290161  1
  Au  Au18  1  0.361060  0.649806  0.290161  1
  Au  Au19  1  0.350194  0.638940  0.709839  1
  Au  Au20  1  0.846484  0.139379  0.791942  1
  Au  Au21  1  0.153516  0.860621  0.208058  1
  Au  Au22  1  0.937416  0.644967  0.003112  1
  Au  Au23  1  0.062584  0.355033  0.996888  1
  Au  Au24  1  0.559534  0.855171  0.503971  1
  Au  Au25  1  0.144829  0.440466  0.496029  1
  Au  Au26  1  0.440466  0.144829  0.496029  1
  Au  Au27  1  0.855171  0.559534  0.503971  1
  Au  Au28  1  0.355033  0.062584  0.996888  1
  Au  Au29  1  0.644967  0.937416  0.003112  1
  Au  Au30  1  0.106190  0.106190  0.396694  1
  Au  Au31  1  0.893810  0.893810  0.603306  1
  Au  Au32  1  0.397509  0.397509  0.900964  1
  Au  Au33  1  0.602491  0.602491  0.099036  1
