# generated using pymatgen
data_La8PSBr12
_symmetry_space_group_name_H-M   'P 1'
_cell_length_a   4.21023700
_cell_length_b   13.52776737
_cell_length_c   14.36126300
_cell_angle_alpha   90.01332463
_cell_angle_beta   90.00000000
_cell_angle_gamma   90.00000000
_symmetry_Int_Tables_number   1
_chemical_formula_structural   La8PSBr12
_chemical_formula_sum   'La8 P1 S1 Br12'
_cell_volume   817.94724426
_cell_formula_units_Z   1
loop_
 _symmetry_equiv_pos_site_id
 _symmetry_equiv_pos_as_xyz
  1  'x, y, z'
loop_
 _atom_site_type_symbol
 _atom_site_label
 _atom_site_symmetry_multiplicity
 _atom_site_fract_x
 _atom_site_fract_y
 _atom_site_fract_z
 _atom_site_occupancy
  La  La0  1  0.500000  0.119648  0.339607  1
  La  La1  1  0.500000  0.880352  0.660393  1
  La  La2  1  0.500000  0.618709  0.158908  1
  La  La3  1  0.500000  0.381291  0.841092  1
  La  La4  1  0.000000  0.117516  0.577884  1
  La  La5  1  0.000000  0.882484  0.422116  1
  La  La6  1  0.000000  0.615716  0.923384  1
  La  La7  1  0.000000  0.384284  0.076616  1
  P  P8  1  0.500000  0.000000  0.500000  1
  S  S9  1  0.500000  0.500000  0.000000  1
  Br  Br10  1  0.500000  0.243577  0.159525  1
  Br  Br11  1  0.500000  0.756423  0.840475  1
  Br  Br12  1  0.500000  0.740579  0.337659  1
  Br  Br13  1  0.500000  0.259421  0.662341  1
  Br  Br14  1  0.000000  0.261359  0.411760  1
  Br  Br15  1  0.000000  0.738641  0.588240  1
  Br  Br16  1  0.000000  0.760733  0.087711  1
  Br  Br17  1  0.000000  0.239267  0.912289  1
  Br  Br18  1  0.000000  0.999665  0.238215  1
  Br  Br19  1  0.000000  0.000335  0.761785  1
  Br  Br20  1  0.000000  0.499475  0.260733  1
  Br  Br21  1  0.000000  0.500525  0.739267  1
