# generated using pymatgen
data_Ca20Ga11Sn
_symmetry_space_group_name_H-M   'P 1'
_cell_length_a   8.03781800
_cell_length_b   8.03781800
_cell_length_c   14.77959900
_cell_angle_alpha   90.00000000
_cell_angle_beta   90.00000000
_cell_angle_gamma   90.00000000
_symmetry_Int_Tables_number   1
_chemical_formula_structural   Ca20Ga11Sn
_chemical_formula_sum   'Ca20 Ga11 Sn1'
_cell_volume   954.85843180
_cell_formula_units_Z   1
loop_
 _symmetry_equiv_pos_site_id
 _symmetry_equiv_pos_as_xyz
  1  'x, y, z'
loop_
 _atom_site_type_symbol
 _atom_site_label
 _atom_site_symmetry_multiplicity
 _atom_site_fract_x
 _atom_site_fract_y
 _atom_site_fract_z
 _atom_site_occupancy
  Ca  Ca0  1  0.676758  0.174312  0.104766  1
  Ca  Ca1  1  0.178406  0.673509  0.607165  1
  Ca  Ca2  1  0.323242  0.825688  0.104766  1
  Ca  Ca3  1  0.821594  0.326491  0.607165  1
  Ca  Ca4  1  0.825688  0.676758  0.104766  1
  Ca  Ca5  1  0.326491  0.178406  0.607165  1
  Ca  Ca6  1  0.174312  0.323242  0.104766  1
  Ca  Ca7  1  0.673509  0.821594  0.607165  1
  Ca  Ca8  1  0.825688  0.323242  0.895234  1
  Ca  Ca9  1  0.326491  0.821594  0.392835  1
  Ca  Ca10  1  0.174312  0.676758  0.895234  1
  Ca  Ca11  1  0.673509  0.178406  0.392835  1
  Ca  Ca12  1  0.676758  0.825688  0.895234  1
  Ca  Ca13  1  0.178406  0.326491  0.392835  1
  Ca  Ca14  1  0.323242  0.174312  0.895234  1
  Ca  Ca15  1  0.821594  0.673509  0.392835  1
  Ca  Ca16  1  0.500000  0.500000  0.754752  1
  Ca  Ca17  1  0.000000  0.000000  0.250114  1
  Ca  Ca18  1  0.000000  0.000000  0.749886  1
  Ca  Ca19  1  0.500000  0.500000  0.245248  1
  Ga  Ga20  1  0.500000  0.500000  0.500000  1
  Ga  Ga21  1  0.500000  0.500000  0.000000  1
  Ga  Ga22  1  0.609829  0.111475  0.750817  1
  Ga  Ga23  1  0.111475  0.609829  0.249183  1
  Ga  Ga24  1  0.888525  0.390171  0.249183  1
  Ga  Ga25  1  0.390171  0.888525  0.750817  1
  Ga  Ga26  1  0.888525  0.609829  0.750817  1
  Ga  Ga27  1  0.390171  0.111475  0.249183  1
  Ga  Ga28  1  0.111475  0.390171  0.750817  1
  Ga  Ga29  1  0.609829  0.888525  0.249183  1
  Ga  Ga30  1  0.000000  0.000000  0.000000  1
  Sn  Sn31  1  0.000000  0.000000  0.500000  1
