# generated using pymatgen
data_Er4Tm8Co3Tc
_symmetry_space_group_name_H-M   'P 1'
_cell_length_a   6.19327400
_cell_length_b   7.02783391
_cell_length_c   9.12189500
_cell_angle_alpha   90.00000000
_cell_angle_beta   90.00000000
_cell_angle_gamma   90.05164727
_symmetry_Int_Tables_number   1
_chemical_formula_structural   Er4Tm8Co3Tc
_chemical_formula_sum   'Er4 Tm8 Co3 Tc1'
_cell_volume   397.03306448
_cell_formula_units_Z   1
loop_
 _symmetry_equiv_pos_site_id
 _symmetry_equiv_pos_as_xyz
  1  'x, y, z'
loop_
 _atom_site_type_symbol
 _atom_site_label
 _atom_site_symmetry_multiplicity
 _atom_site_fract_x
 _atom_site_fract_y
 _atom_site_fract_z
 _atom_site_occupancy
  Er  Er0  1  0.857658  0.536352  0.250000  1
  Er  Er1  1  0.623816  0.043779  0.250000  1
  Er  Er2  1  0.140237  0.456917  0.750000  1
  Er  Er3  1  0.362363  0.954979  0.750000  1
  Tm  Tm4  1  0.326625  0.672532  0.065440  1
  Tm  Tm5  1  0.176630  0.181612  0.435281  1
  Tm  Tm6  1  0.676743  0.322905  0.568239  1
  Tm  Tm7  1  0.829714  0.825641  0.935620  1
  Tm  Tm8  1  0.676743  0.322905  0.931761  1
  Tm  Tm9  1  0.829714  0.825641  0.564380  1
  Tm  Tm10  1  0.326625  0.672532  0.434560  1
  Tm  Tm11  1  0.176630  0.181612  0.064719  1
  Co  Co12  1  0.457203  0.385931  0.250000  1
  Co  Co13  1  0.957735  0.114553  0.750000  1
  Co  Co14  1  0.544014  0.611975  0.750000  1
  Tc  Tc15  1  0.037549  0.890135  0.250000  1
