# generated using pymatgen
data_SrNd6As12Pd17
_symmetry_space_group_name_H-M   'P 1'
_cell_length_a   12.80023781
_cell_length_b   12.80023746
_cell_length_c   14.05479330
_cell_angle_alpha   68.59746234
_cell_angle_beta   68.59746319
_cell_angle_gamma   18.78262814
_symmetry_Int_Tables_number   1
_chemical_formula_structural   SrNd6As12Pd17
_chemical_formula_sum   'Sr1 Nd6 As12 Pd17'
_cell_volume   688.87646999
_cell_formula_units_Z   1
loop_
 _symmetry_equiv_pos_site_id
 _symmetry_equiv_pos_as_xyz
  1  'x, y, z'
loop_
 _atom_site_type_symbol
 _atom_site_label
 _atom_site_symmetry_multiplicity
 _atom_site_fract_x
 _atom_site_fract_y
 _atom_site_fract_z
 _atom_site_occupancy
  Sr  Sr0  1  0.500000  0.500000  0.500000  1
  Nd  Nd1  1  0.367010  0.367010  0.000413  1
  Nd  Nd2  1  0.632990  0.632990  0.999587  1
  Nd  Nd3  1  0.233925  0.233925  0.311942  1
  Nd  Nd4  1  0.766075  0.766075  0.688058  1
  Nd  Nd5  1  0.418595  0.418595  0.260106  1
  Nd  Nd6  1  0.581405  0.581405  0.739894  1
  As  As7  1  0.062355  0.062355  0.924823  1
  As  As8  1  0.937645  0.937645  0.075177  1
  As  As9  1  0.885411  0.885411  0.829312  1
  As  As10  1  0.114589  0.114589  0.170688  1
  As  As11  1  0.189306  0.189306  0.620222  1
  As  As12  1  0.810694  0.810694  0.379778  1
  As  As13  1  0.364947  0.364947  0.580463  1
  As  As14  1  0.635053  0.635053  0.419537  1
  As  As15  1  0.011679  0.011679  0.673490  1
  As  As16  1  0.988321  0.988321  0.326510  1
  As  As17  1  0.232954  0.232954  0.883513  1
  As  As18  1  0.767046  0.767046  0.116487  1
  Pd  Pd19  1  0.838422  0.838422  0.193871  1
  Pd  Pd20  1  0.161578  0.161578  0.806129  1
  Pd  Pd21  1  0.024999  0.024999  0.125630  1
  Pd  Pd22  1  0.975001  0.975001  0.874370  1
  Pd  Pd23  1  0.886895  0.886895  0.458732  1
  Pd  Pd24  1  0.113105  0.113105  0.541268  1
  Pd  Pd25  1  0.500000  0.500000  0.000000  1
  Pd  Pd26  1  0.548561  0.548561  0.251389  1
  Pd  Pd27  1  0.451439  0.451439  0.748611  1
  Pd  Pd28  1  0.294548  0.294548  0.490893  1
  Pd  Pd29  1  0.705452  0.705452  0.509107  1
  Pd  Pd30  1  0.664989  0.664989  0.223989  1
  Pd  Pd31  1  0.335011  0.335011  0.776011  1
  Pd  Pd32  1  0.905796  0.905796  0.641584  1
  Pd  Pd33  1  0.094204  0.094204  0.358416  1
  Pd  Pd34  1  0.219727  0.219727  0.070740  1
  Pd  Pd35  1  0.780273  0.780273  0.929260  1
