# generated using pymatgen
data_SmGa2Co2Cu
_symmetry_space_group_name_H-M   'P 1'
_cell_length_a   4.10368400
_cell_length_b   8.87337751
_cell_length_c   8.87337617
_cell_angle_alpha   60.00270388
_cell_angle_beta   90.00000000
_cell_angle_gamma   90.00000000
_symmetry_Int_Tables_number   1
_chemical_formula_structural   SmGa2Co2Cu
_chemical_formula_sum   'Sm3 Ga6 Co6 Cu3'
_cell_volume   279.82997035
_cell_formula_units_Z   3
loop_
 _symmetry_equiv_pos_site_id
 _symmetry_equiv_pos_as_xyz
  1  'x, y, z'
loop_
 _atom_site_type_symbol
 _atom_site_label
 _atom_site_symmetry_multiplicity
 _atom_site_fract_x
 _atom_site_fract_y
 _atom_site_fract_z
 _atom_site_occupancy
  Sm  Sm0  1  0.500000  0.333213  0.333383  1
  Sm  Sm1  1  0.500000  0.666617  0.666787  1
  Sm  Sm2  1  0.000000  0.000252  0.999748  1
  Ga  Ga3  1  0.500000  0.722328  0.277672  1
  Ga  Ga4  1  0.500000  0.277667  0.999973  1
  Ga  Ga5  1  0.500000  0.000027  0.722333  1
  Ga  Ga6  1  0.000000  0.487486  0.512514  1
  Ga  Ga7  1  0.000000  0.512269  0.999862  1
  Ga  Ga8  1  0.000000  0.000138  0.487731  1
  Co  Co9  1  0.000000  0.192690  0.175768  1
  Co  Co10  1  0.000000  0.175807  0.631572  1
  Co  Co11  1  0.000000  0.631455  0.192671  1
  Co  Co12  1  0.000000  0.824231  0.807310  1
  Co  Co13  1  0.000000  0.368428  0.824193  1
  Co  Co14  1  0.000000  0.807329  0.368545  1
  Cu  Cu15  1  0.500000  0.290848  0.709152  1
  Cu  Cu16  1  0.500000  0.709114  0.999996  1
  Cu  Cu17  1  0.500000  0.000004  0.290886  1
