# generated using pymatgen
data_Zr16Co4TcPt3
_symmetry_space_group_name_H-M   'P 1'
_cell_length_a   8.76544785
_cell_length_b   8.76544724
_cell_length_c   8.76544707
_cell_angle_alpha   59.88987064
_cell_angle_beta   59.88987319
_cell_angle_gamma   59.88987394
_symmetry_Int_Tables_number   1
_chemical_formula_structural   Zr16Co4TcPt3
_chemical_formula_sum   'Zr16 Co4 Tc1 Pt3'
_cell_volume   475.02972128
_cell_formula_units_Z   1
loop_
 _symmetry_equiv_pos_site_id
 _symmetry_equiv_pos_as_xyz
  1  'x, y, z'
loop_
 _atom_site_type_symbol
 _atom_site_label
 _atom_site_symmetry_multiplicity
 _atom_site_fract_x
 _atom_site_fract_y
 _atom_site_fract_z
 _atom_site_occupancy
  Zr  Zr0  1  0.057191  0.647457  0.647457  1
  Zr  Zr1  1  0.647457  0.057191  0.647457  1
  Zr  Zr2  1  0.647457  0.647457  0.057191  1
  Zr  Zr3  1  0.643852  0.643852  0.643852  1
  Zr  Zr4  1  0.805964  0.805964  0.194105  1
  Zr  Zr5  1  0.194697  0.194697  0.803253  1
  Zr  Zr6  1  0.805964  0.194105  0.805964  1
  Zr  Zr7  1  0.194697  0.803253  0.194697  1
  Zr  Zr8  1  0.194105  0.805964  0.805964  1
  Zr  Zr9  1  0.803253  0.194697  0.194697  1
  Zr  Zr10  1  0.437538  0.437538  0.071138  1
  Zr  Zr11  1  0.064022  0.064022  0.436515  1
  Zr  Zr12  1  0.437538  0.071138  0.437538  1
  Zr  Zr13  1  0.064022  0.436515  0.064022  1
  Zr  Zr14  1  0.071138  0.437538  0.437538  1
  Zr  Zr15  1  0.436515  0.064022  0.064022  1
  Co  Co16  1  0.427469  0.855072  0.855072  1
  Co  Co17  1  0.855072  0.427469  0.855072  1
  Co  Co18  1  0.855072  0.855072  0.427469  1
  Co  Co19  1  0.858504  0.858504  0.858504  1
  Tc  Tc20  1  0.417770  0.417770  0.417770  1
  Pt  Pt21  1  0.754532  0.413086  0.413086  1
  Pt  Pt22  1  0.413086  0.754532  0.413086  1
  Pt  Pt23  1  0.413086  0.413086  0.754532  1
