# generated using pymatgen
data_PrNdTm2(B6Os)2
_symmetry_space_group_name_H-M   'P 1'
_cell_length_a   3.69178000
_cell_length_b   9.21624200
_cell_length_c   11.65988800
_cell_angle_alpha   89.99923127
_cell_angle_beta   90.00000000
_cell_angle_gamma   90.00000000
_symmetry_Int_Tables_number   1
_chemical_formula_structural   PrNdTm2(B6Os)2
_chemical_formula_sum   'Pr2 Nd2 Tm4 B24 Os4'
_cell_volume   396.71996906
_cell_formula_units_Z   2
loop_
 _symmetry_equiv_pos_site_id
 _symmetry_equiv_pos_as_xyz
  1  'x, y, z'
loop_
 _atom_site_type_symbol
 _atom_site_label
 _atom_site_symmetry_multiplicity
 _atom_site_fract_x
 _atom_site_fract_y
 _atom_site_fract_z
 _atom_site_occupancy
  Pr  Pr0  1  0.000000  0.822336  0.085513  1
  Pr  Pr1  1  0.000000  0.177664  0.914487  1
  Nd  Nd2  1  0.000000  0.322331  0.414574  1
  Nd  Nd3  1  0.000000  0.677669  0.585426  1
  Tm  Tm4  1  0.000000  0.944630  0.372682  1
  Tm  Tm5  1  0.000000  0.055370  0.627319  1
  Tm  Tm6  1  0.000000  0.444601  0.127559  1
  Tm  Tm7  1  0.000000  0.555399  0.872440  1
  B  B8  1  0.500000  0.556559  0.430066  1
  B  B9  1  0.500000  0.443441  0.569934  1
  B  B10  1  0.500000  0.056897  0.070438  1
  B  B11  1  0.500000  0.943103  0.929562  1
  B  B12  1  0.500000  0.750524  0.417101  1
  B  B13  1  0.500000  0.249476  0.582899  1
  B  B14  1  0.500000  0.250681  0.083343  1
  B  B15  1  0.500000  0.749319  0.916657  1
  B  B16  1  0.500000  0.791229  0.266897  1
  B  B17  1  0.500000  0.208771  0.733103  1
  B  B18  1  0.500000  0.291483  0.233561  1
  B  B19  1  0.500000  0.708516  0.766439  1
  B  B20  1  0.500000  0.630228  0.185012  1
  B  B21  1  0.500000  0.369772  0.814988  1
  B  B22  1  0.500000  0.130579  0.315345  1
  B  B23  1  0.500000  0.869421  0.684655  1
  B  B24  1  0.500000  0.985588  0.214846  1
  B  B25  1  0.500000  0.014412  0.785154  1
  B  B26  1  0.500000  0.485169  0.285477  1
  B  B27  1  0.500000  0.514831  0.714523  1
  B  B28  1  0.500000  0.600999  0.027425  1
  B  B29  1  0.500000  0.399001  0.972575  1
  B  B30  1  0.500000  0.101597  0.472417  1
  B  B31  1  0.500000  0.898403  0.527583  1
  Os  Os32  1  0.000000  0.639503  0.319123  1
  Os  Os33  1  0.000000  0.360497  0.680877  1
  Os  Os34  1  0.000000  0.140058  0.181530  1
  Os  Os35  1  0.000000  0.859942  0.818470  1
