# generated using pymatgen
data_RbZnCrF6
_symmetry_space_group_name_H-M   'P 1'
_cell_length_a   7.44749939
_cell_length_b   7.44749982
_cell_length_c   7.44750029
_cell_angle_alpha   121.11808668
_cell_angle_beta   120.04194267
_cell_angle_gamma   89.00085950
_symmetry_Int_Tables_number   1
_chemical_formula_structural   RbZnCrF6
_chemical_formula_sum   'Rb2 Zn2 Cr2 F12'
_cell_volume   289.44880285
_cell_formula_units_Z   2
loop_
 _symmetry_equiv_pos_site_id
 _symmetry_equiv_pos_as_xyz
  1  'x, y, z'
loop_
 _atom_site_type_symbol
 _atom_site_label
 _atom_site_symmetry_multiplicity
 _atom_site_fract_x
 _atom_site_fract_y
 _atom_site_fract_z
 _atom_site_occupancy
  Rb  Rb0  1  0.367200  0.617200  0.750000  1
  Rb  Rb1  1  0.632800  0.382800  0.250000  1
  Zn  Zn2  1  0.000000  0.000000  0.500000  1
  Zn  Zn3  1  0.000000  0.500000  0.000000  1
  Cr  Cr4  1  0.000000  0.000000  0.000000  1
  Cr  Cr5  1  0.500000  0.000000  0.500000  1
  F  F6  1  0.310143  0.060143  0.250000  1
  F  F7  1  0.926343  0.676343  0.250000  1
  F  F8  1  0.334405  0.686456  0.264143  1
  F  F9  1  0.922312  0.070261  0.235857  1
  F  F10  1  0.334405  0.070261  0.647949  1
  F  F11  1  0.922312  0.686456  0.852051  1
  F  F12  1  0.689857  0.939857  0.750000  1
  F  F13  1  0.073657  0.323657  0.750000  1
  F  F14  1  0.665595  0.313544  0.735857  1
  F  F15  1  0.077688  0.929739  0.764143  1
  F  F16  1  0.665595  0.929739  0.352051  1
  F  F17  1  0.077688  0.313544  0.147949  1
