# generated using pymatgen
data_TbEr2In3BiIr2
_symmetry_space_group_name_H-M   'P 1'
_cell_length_a   7.74561582
_cell_length_b   7.74459323
_cell_length_c   4.03708100
_cell_angle_alpha   90.00000000
_cell_angle_beta   90.00000000
_cell_angle_gamma   119.73879020
_symmetry_Int_Tables_number   1
_chemical_formula_structural   TbEr2In3BiIr2
_chemical_formula_sum   'Tb1 Er2 In3 Bi1 Ir2'
_cell_volume   210.27602977
_cell_formula_units_Z   1
loop_
 _symmetry_equiv_pos_site_id
 _symmetry_equiv_pos_as_xyz
  1  'x, y, z'
loop_
 _atom_site_type_symbol
 _atom_site_label
 _atom_site_symmetry_multiplicity
 _atom_site_fract_x
 _atom_site_fract_y
 _atom_site_fract_z
 _atom_site_occupancy
  Tb  Tb0  1  0.970629  0.582573  0.000000  1
  Er  Er1  1  0.417637  0.384988  0.000000  1
  Er  Er2  1  0.614207  0.032246  0.000000  1
  In  In3  1  0.978484  0.235185  0.500000  1
  In  In4  1  0.763741  0.743689  0.500000  1
  In  In5  1  0.257198  0.021673  0.500000  1
  Bi  Bi6  1  0.334964  0.667206  0.500000  1
  Ir  Ir7  1  0.999600  0.001528  0.000000  1
  Ir  Ir8  1  0.663536  0.330916  0.500000  1
