# generated using pymatgen
data_HoErTm2(B6Os)2
_symmetry_space_group_name_H-M   'P 1'
_cell_length_a   3.62668000
_cell_length_b   9.08641901
_cell_length_c   11.46309001
_cell_angle_alpha   90.00556484
_cell_angle_beta   90.00000000
_cell_angle_gamma   90.00000000
_symmetry_Int_Tables_number   1
_chemical_formula_structural   HoErTm2(B6Os)2
_chemical_formula_sum   'Ho2 Er2 Tm4 B24 Os4'
_cell_volume   377.74932584
_cell_formula_units_Z   2
loop_
 _symmetry_equiv_pos_site_id
 _symmetry_equiv_pos_as_xyz
  1  'x, y, z'
loop_
 _atom_site_type_symbol
 _atom_site_label
 _atom_site_symmetry_multiplicity
 _atom_site_fract_x
 _atom_site_fract_y
 _atom_site_fract_z
 _atom_site_occupancy
  Ho  Ho0  1  0.000000  0.321424  0.413956  1
  Ho  Ho1  1  0.000000  0.678576  0.586044  1
  Er  Er2  1  0.000000  0.821394  0.085991  1
  Er  Er3  1  0.000000  0.178606  0.914009  1
  Tm  Tm4  1  0.000000  0.943987  0.373109  1
  Tm  Tm5  1  0.000000  0.056013  0.626892  1
  Tm  Tm6  1  0.000000  0.444007  0.126775  1
  Tm  Tm7  1  0.000000  0.555993  0.873224  1
  B  B8  1  0.500000  0.553885  0.433130  1
  B  B9  1  0.500000  0.446115  0.566870  1
  B  B10  1  0.500000  0.053760  0.066681  1
  B  B11  1  0.500000  0.946240  0.933319  1
  B  B12  1  0.500000  0.748880  0.419943  1
  B  B13  1  0.500000  0.251120  0.580057  1
  B  B14  1  0.500000  0.248802  0.079862  1
  B  B15  1  0.500000  0.751198  0.920138  1
  B  B16  1  0.500000  0.791459  0.266258  1
  B  B17  1  0.500000  0.208541  0.733742  1
  B  B18  1  0.500000  0.291358  0.233557  1
  B  B19  1  0.500000  0.708641  0.766443  1
  B  B20  1  0.500000  0.631215  0.184762  1
  B  B21  1  0.500000  0.368785  0.815238  1
  B  B22  1  0.500000  0.131071  0.315100  1
  B  B23  1  0.500000  0.868929  0.684900  1
  B  B24  1  0.500000  0.982424  0.213184  1
  B  B25  1  0.500000  0.017576  0.786816  1
  B  B26  1  0.500000  0.482615  0.286678  1
  B  B27  1  0.500000  0.517385  0.713322  1
  B  B28  1  0.500000  0.606588  0.029470  1
  B  B29  1  0.500000  0.393412  0.970530  1
  B  B30  1  0.500000  0.106308  0.470607  1
  B  B31  1  0.500000  0.893692  0.529393  1
  Os  Os32  1  0.000000  0.637777  0.320894  1
  Os  Os33  1  0.000000  0.362223  0.679106  1
  Os  Os34  1  0.000000  0.137521  0.178807  1
  Os  Os35  1  0.000000  0.862479  0.821193  1
