# generated using pymatgen
data_Er4Pu2Fe23
_symmetry_space_group_name_H-M   'P 1'
_cell_length_a   8.43318032
_cell_length_b   8.43317996
_cell_length_c   8.43318040
_cell_angle_alpha   89.21075835
_cell_angle_beta   60.67286493
_cell_angle_gamma   119.76410122
_symmetry_Int_Tables_number   1
_chemical_formula_structural   Er4Pu2Fe23
_chemical_formula_sum   'Er4 Pu2 Fe23'
_cell_volume   426.95225285
_cell_formula_units_Z   1
loop_
 _symmetry_equiv_pos_site_id
 _symmetry_equiv_pos_as_xyz
  1  'x, y, z'
loop_
 _atom_site_type_symbol
 _atom_site_label
 _atom_site_symmetry_multiplicity
 _atom_site_fract_x
 _atom_site_fract_y
 _atom_site_fract_z
 _atom_site_occupancy
  Er  Er0  1  0.999837  0.289151  0.711011  1
  Er  Er1  1  0.420746  0.710461  0.289715  1
  Er  Er2  1  0.999825  0.289539  0.289715  1
  Er  Er3  1  0.999837  0.710849  0.289314  1
  Pu  Pu4  1  0.560452  0.280323  0.719871  1
  Pu  Pu5  1  0.999805  0.719677  0.719871  1
  Fe  Fe6  1  0.652302  0.326772  0.020925  1
  Fe  Fe7  1  0.350867  0.323869  0.325263  1
  Fe  Fe8  1  0.349723  0.023814  0.324491  1
  Fe  Fe9  1  0.651696  0.325787  0.324491  1
  Fe  Fe10  1  0.350867  0.676130  0.973002  1
  Fe  Fe11  1  0.652302  0.673228  0.674470  1
  Fe  Fe12  1  0.651696  0.976186  0.674090  1
  Fe  Fe13  1  0.349723  0.674213  0.674090  1
  Fe  Fe14  1  0.992249  0.000000  0.007751  1
  Fe  Fe15  1  0.243136  0.117106  0.639757  1
  Fe  Fe16  1  0.756400  0.122028  0.121572  1
  Fe  Fe17  1  0.759507  0.637568  0.116420  1
  Fe  Fe18  1  0.246012  0.124072  0.116420  1
  Fe  Fe19  1  0.756400  0.877972  0.365629  1
  Fe  Fe20  1  0.243136  0.882894  0.873970  1
  Fe  Fe21  1  0.246012  0.362432  0.878061  1
  Fe  Fe22  1  0.759507  0.875928  0.878061  1
  Fe  Fe23  1  0.001763  0.001459  0.496934  1
  Fe  Fe24  1  0.501607  0.501304  0.496934  1
  Fe  Fe25  1  0.506318  0.000000  0.493682  1
  Fe  Fe26  1  0.001763  0.498696  0.999697  1
  Fe  Fe27  1  0.501607  0.998541  0.999697  1
  Fe  Fe28  1  0.494904  0.500000  0.005096  1
