# generated using pymatgen
data_TmLu4CoSb2
_symmetry_space_group_name_H-M   'P 1'
_cell_length_a   7.67774700
_cell_length_b   8.69660100
_cell_length_c   11.95810900
_cell_angle_alpha   90.00000000
_cell_angle_beta   90.00000000
_cell_angle_gamma   90.00000000
_symmetry_Int_Tables_number   1
_chemical_formula_structural   TmLu4CoSb2
_chemical_formula_sum   'Tm4 Lu16 Co4 Sb8'
_cell_volume   798.44655212
_cell_formula_units_Z   4
loop_
 _symmetry_equiv_pos_site_id
 _symmetry_equiv_pos_as_xyz
  1  'x, y, z'
loop_
 _atom_site_type_symbol
 _atom_site_label
 _atom_site_symmetry_multiplicity
 _atom_site_fract_x
 _atom_site_fract_y
 _atom_site_fract_z
 _atom_site_occupancy
  Tm  Tm0  1  0.621163  0.750000  0.307965  1
  Tm  Tm1  1  0.878837  0.750000  0.807965  1
  Tm  Tm2  1  0.378837  0.250000  0.692035  1
  Tm  Tm3  1  0.121163  0.250000  0.192035  1
  Lu  Lu4  1  0.155222  0.750000  0.203875  1
  Lu  Lu5  1  0.344778  0.750000  0.703875  1
  Lu  Lu6  1  0.844778  0.250000  0.796125  1
  Lu  Lu7  1  0.655222  0.250000  0.296125  1
  Lu  Lu8  1  0.447686  0.750000  0.997946  1
  Lu  Lu9  1  0.052314  0.750000  0.497946  1
  Lu  Lu10  1  0.552314  0.250000  0.002054  1
  Lu  Lu11  1  0.947686  0.250000  0.502054  1
  Lu  Lu12  1  0.823938  0.537595  0.065323  1
  Lu  Lu13  1  0.676062  0.962405  0.565323  1
  Lu  Lu14  1  0.176062  0.037595  0.934677  1
  Lu  Lu15  1  0.323938  0.462405  0.434677  1
  Lu  Lu16  1  0.176062  0.462405  0.934677  1
  Lu  Lu17  1  0.323938  0.037595  0.434677  1
  Lu  Lu18  1  0.823938  0.962405  0.065323  1
  Lu  Lu19  1  0.676062  0.537595  0.565323  1
  Co  Co20  1  0.432167  0.750000  0.491576  1
  Co  Co21  1  0.067833  0.750000  0.991576  1
  Co  Co22  1  0.567833  0.250000  0.508424  1
  Co  Co23  1  0.932167  0.250000  0.008424  1
  Sb  Sb24  1  0.930875  0.508633  0.328421  1
  Sb  Sb25  1  0.569125  0.991367  0.828421  1
  Sb  Sb26  1  0.069125  0.008633  0.671579  1
  Sb  Sb27  1  0.430875  0.491367  0.171579  1
  Sb  Sb28  1  0.069125  0.491367  0.671579  1
  Sb  Sb29  1  0.430875  0.008633  0.171579  1
  Sb  Sb30  1  0.930875  0.991367  0.328421  1
  Sb  Sb31  1  0.569125  0.508633  0.828421  1
