# generated using pymatgen
data_Zr6Co15Si7Tc
_symmetry_space_group_name_H-M   'P 1'
_cell_length_a   8.09530861
_cell_length_b   8.09530717
_cell_length_c   8.13291190
_cell_angle_alpha   60.15282917
_cell_angle_beta   60.15284006
_cell_angle_gamma   60.00000672
_symmetry_Int_Tables_number   1
_chemical_formula_structural   Zr6Co15Si7Tc
_chemical_formula_sum   'Zr6 Co15 Si7 Tc1'
_cell_volume   377.74371098
_cell_formula_units_Z   1
loop_
 _symmetry_equiv_pos_site_id
 _symmetry_equiv_pos_as_xyz
  1  'x, y, z'
loop_
 _atom_site_type_symbol
 _atom_site_label
 _atom_site_symmetry_multiplicity
 _atom_site_fract_x
 _atom_site_fract_y
 _atom_site_fract_z
 _atom_site_occupancy
  Zr  Zr0  1  0.207843  0.793861  0.790452  1
  Zr  Zr1  1  0.796350  0.796350  0.205843  1
  Zr  Zr2  1  0.796350  0.201457  0.205843  1
  Zr  Zr3  1  0.207843  0.207843  0.790452  1
  Zr  Zr4  1  0.793861  0.207843  0.790452  1
  Zr  Zr5  1  0.201457  0.796350  0.205843  1
  Co  Co6  1  0.171109  0.483996  0.173788  1
  Co  Co7  1  0.861135  0.377852  0.383161  1
  Co  Co8  1  0.517274  0.829750  0.823225  1
  Co  Co9  1  0.483996  0.171109  0.173788  1
  Co  Co10  1  0.826932  0.826932  0.519202  1
  Co  Co11  1  0.172392  0.172392  0.482825  1
  Co  Co12  1  0.139235  0.620752  0.619263  1
  Co  Co13  1  0.171109  0.171109  0.173788  1
  Co  Co14  1  0.378844  0.378844  0.863467  1
  Co  Co15  1  0.620752  0.620752  0.619263  1
  Co  Co16  1  0.377852  0.861135  0.383161  1
  Co  Co17  1  0.377852  0.377852  0.383161  1
  Co  Co18  1  0.829750  0.829750  0.823225  1
  Co  Co19  1  0.620752  0.139235  0.619263  1
  Co  Co20  1  0.829750  0.517274  0.823225  1
  Si  Si21  1  0.499615  0.001180  0.498025  1
  Si  Si22  1  0.498284  0.498284  0.998640  1
  Si  Si23  1  0.495123  0.495123  0.514631  1
  Si  Si24  1  0.001180  0.001180  0.498025  1
  Si  Si25  1  0.004791  0.498284  0.998640  1
  Si  Si26  1  0.001180  0.499615  0.498025  1
  Si  Si27  1  0.498284  0.004791  0.998640  1
  Tc  Tc28  1  0.619104  0.619104  0.142687  1
