# generated using pymatgen
data_Sc4ZnAs5Rh7
_symmetry_space_group_name_H-M   'P 1'
_cell_length_a   7.09762823
_cell_length_b   7.09753050
_cell_length_c   7.09762904
_cell_angle_alpha   109.85870013
_cell_angle_beta   109.86756430
_cell_angle_gamma   108.69075399
_symmetry_Int_Tables_number   1
_chemical_formula_structural   Sc4ZnAs5Rh7
_chemical_formula_sum   'Sc4 Zn1 As5 Rh7'
_cell_volume   275.20011671
_cell_formula_units_Z   1
loop_
 _symmetry_equiv_pos_site_id
 _symmetry_equiv_pos_as_xyz
  1  'x, y, z'
loop_
 _atom_site_type_symbol
 _atom_site_label
 _atom_site_symmetry_multiplicity
 _atom_site_fract_x
 _atom_site_fract_y
 _atom_site_fract_z
 _atom_site_occupancy
  Sc  Sc0  1  0.494236  0.494232  0.498622  1
  Sc  Sc1  1  0.995619  0.995629  0.501386  1
  Sc  Sc2  1  0.494244  0.995629  0.000010  1
  Sc  Sc3  1  0.995610  0.494232  0.999996  1
  Zn  Zn4  1  0.699119  0.699122  0.000002  1
  As  As5  1  0.328522  0.328517  0.999995  1
  As  As6  1  0.995476  0.307714  0.312238  1
  As  As7  1  0.995470  0.683223  0.687753  1
  As  As8  1  0.683202  0.995459  0.687741  1
  As  As9  1  0.307718  0.995459  0.312258  1
  Rh  Rh10  1  0.746756  0.246773  0.500017  1
  Rh  Rh11  1  0.499237  0.247664  0.748427  1
  Rh  Rh12  1  0.499226  0.750804  0.251578  1
  Rh  Rh13  1  0.247665  0.499221  0.748411  1
  Rh  Rh14  1  0.750811  0.499221  0.251556  1
  Rh  Rh15  1  0.246744  0.746758  0.500014  1
  Rh  Rh16  1  0.020343  0.020339  0.999996  1
