# generated using pymatgen
data_Zr3AlRh2N
_symmetry_space_group_name_H-M   'P 1'
_cell_length_a   8.58645375
_cell_length_b   8.58645380
_cell_length_c   8.58645400
_cell_angle_alpha   59.99999921
_cell_angle_beta   59.99999902
_cell_angle_gamma   59.99999731
_symmetry_Int_Tables_number   1
_chemical_formula_structural   Zr3AlRh2N
_chemical_formula_sum   'Zr12 Al4 Rh8 N4'
_cell_volume   447.63754714
_cell_formula_units_Z   4
loop_
 _symmetry_equiv_pos_site_id
 _symmetry_equiv_pos_as_xyz
  1  'x, y, z'
loop_
 _atom_site_type_symbol
 _atom_site_label
 _atom_site_symmetry_multiplicity
 _atom_site_fract_x
 _atom_site_fract_y
 _atom_site_fract_z
 _atom_site_occupancy
  Zr  Zr0  1  0.810213  0.810213  0.189787  1
  Zr  Zr1  1  0.189787  0.189787  0.810213  1
  Zr  Zr2  1  0.810213  0.189787  0.810213  1
  Zr  Zr3  1  0.189787  0.810213  0.189787  1
  Zr  Zr4  1  0.189787  0.810213  0.810213  1
  Zr  Zr5  1  0.810213  0.189787  0.189787  1
  Zr  Zr6  1  0.439787  0.439787  0.060213  1
  Zr  Zr7  1  0.060213  0.060213  0.439787  1
  Zr  Zr8  1  0.439787  0.060213  0.439787  1
  Zr  Zr9  1  0.060213  0.439787  0.060213  1
  Zr  Zr10  1  0.060213  0.439787  0.439787  1
  Zr  Zr11  1  0.439787  0.060213  0.060213  1
  Al  Al12  1  0.125000  0.625000  0.625000  1
  Al  Al13  1  0.625000  0.125000  0.625000  1
  Al  Al14  1  0.625000  0.625000  0.125000  1
  Al  Al15  1  0.625000  0.625000  0.625000  1
  Rh  Rh16  1  0.753396  0.415534  0.415534  1
  Rh  Rh17  1  0.415534  0.753396  0.415534  1
  Rh  Rh18  1  0.415534  0.415534  0.753396  1
  Rh  Rh19  1  0.415534  0.415534  0.415534  1
  Rh  Rh20  1  0.496604  0.834466  0.834466  1
  Rh  Rh21  1  0.834466  0.496604  0.834466  1
  Rh  Rh22  1  0.834466  0.834466  0.496604  1
  Rh  Rh23  1  0.834466  0.834466  0.834466  1
  N  N24  1  0.625000  0.125000  0.125000  1
  N  N25  1  0.125000  0.625000  0.125000  1
  N  N26  1  0.125000  0.125000  0.625000  1
  N  N27  1  0.125000  0.125000  0.125000  1
