# generated using pymatgen
data_Mn7Nb8Si14Ni
_symmetry_space_group_name_H-M   'P 1'
_cell_length_a   9.37112417
_cell_length_b   9.37546724
_cell_length_c   9.34932463
_cell_angle_alpha   94.11457564
_cell_angle_beta   94.09031438
_cell_angle_gamma   149.01551223
_symmetry_Int_Tables_number   1
_chemical_formula_structural   Mn7Nb8Si14Ni
_chemical_formula_sum   'Mn7 Nb8 Si14 Ni1'
_cell_volume   407.42218843
_cell_formula_units_Z   1
loop_
 _symmetry_equiv_pos_site_id
 _symmetry_equiv_pos_as_xyz
  1  'x, y, z'
loop_
 _atom_site_type_symbol
 _atom_site_label
 _atom_site_symmetry_multiplicity
 _atom_site_fract_x
 _atom_site_fract_y
 _atom_site_fract_z
 _atom_site_occupancy
  Mn  Mn0  1  0.399514  0.899523  0.799028  1
  Mn  Mn1  1  0.100635  0.600626  0.201233  1
  Mn  Mn2  1  0.103291  0.903606  0.501615  1
  Mn  Mn3  1  0.398365  0.598040  0.501605  1
  Mn  Mn4  1  0.600641  0.398992  0.497577  1
  Mn  Mn5  1  0.896901  0.098638  0.497593  1
  Mn  Mn6  1  0.899681  0.399670  0.799323  1
  Nb  Nb7  1  0.135307  0.135346  0.270749  1
  Nb  Nb8  1  0.865191  0.865225  0.730341  1
  Nb  Nb9  1  0.864745  0.134945  0.999450  1
  Nb  Nb10  1  0.134735  0.864522  0.999448  1
  Nb  Nb11  1  0.501985  0.309411  0.809211  1
  Nb  Nb12  1  0.499686  0.692215  0.191874  1
  Nb  Nb13  1  0.692175  0.499634  0.191800  1
  Nb  Nb14  1  0.307141  0.499727  0.809125  1
  Si  Si15  1  0.508658  0.101956  0.591332  1
  Si  Si16  1  0.488536  0.893664  0.406044  1
  Si  Si17  1  0.917819  0.512497  0.405957  1
  Si  Si18  1  0.082431  0.488925  0.591246  1
  Si  Si19  1  0.751579  0.751371  0.000400  1
  Si  Si20  1  0.248834  0.249036  0.000414  1
  Si  Si21  1  0.293025  0.293239  0.586918  1
  Si  Si22  1  0.706910  0.707153  0.413347  1
  Si  Si23  1  0.710960  0.296179  0.002118  1
  Si  Si24  1  0.291168  0.705928  0.002114  1
  Si  Si25  1  0.002213  0.297468  0.293092  1
  Si  Si26  1  0.997923  0.705477  0.706590  1
  Si  Si27  1  0.708905  0.001265  0.706385  1
  Si  Si28  1  0.290527  0.995177  0.292920  1
  Ni  Ni29  1  0.600517  0.100544  0.201149  1
