# generated using pymatgen
data_Pa4AlGe5Os7
_symmetry_space_group_name_H-M   'P 1'
_cell_length_a   7.28551667
_cell_length_b   7.28551590
_cell_length_c   7.28551657
_cell_angle_alpha   109.44859961
_cell_angle_beta   109.44859460
_cell_angle_gamma   109.51647246
_symmetry_Int_Tables_number   1
_chemical_formula_structural   Pa4AlGe5Os7
_chemical_formula_sum   'Pa4 Al1 Ge5 Os7'
_cell_volume   297.68636836
_cell_formula_units_Z   1
loop_
 _symmetry_equiv_pos_site_id
 _symmetry_equiv_pos_as_xyz
  1  'x, y, z'
loop_
 _atom_site_type_symbol
 _atom_site_label
 _atom_site_symmetry_multiplicity
 _atom_site_fract_x
 _atom_site_fract_y
 _atom_site_fract_z
 _atom_site_occupancy
  Pa  Pa0  1  0.000051  0.000051  0.503590  1
  Pa  Pa1  1  0.000051  0.496461  0.000000  1
  Pa  Pa2  1  0.496461  0.000051  0.000000  1
  Pa  Pa3  1  0.496461  0.496461  0.496410  1
  Al  Al4  1  0.689125  0.689125  0.000000  1
  Ge  Ge5  1  0.307336  0.997507  0.309829  1
  Ge  Ge6  1  0.997507  0.307336  0.309829  1
  Ge  Ge7  1  0.318138  0.318138  0.000000  1
  Ge  Ge8  1  0.687677  0.997507  0.690171  1
  Ge  Ge9  1  0.997507  0.687677  0.690171  1
  Os  Os10  1  0.748785  0.248785  0.500000  1
  Os  Os11  1  0.752934  0.501804  0.251130  1
  Os  Os12  1  0.501804  0.250674  0.748870  1
  Os  Os13  1  0.250674  0.501804  0.748870  1
  Os  Os14  1  0.248785  0.748785  0.500000  1
  Os  Os15  1  0.501804  0.752934  0.251130  1
  Os  Os16  1  0.004899  0.004899  0.000000  1
