# generated using pymatgen
data_K(IrSe2)4
_symmetry_space_group_name_H-M   'P 1'
_cell_length_a   3.82178902
_cell_length_b   8.35502631
_cell_length_c   9.48113948
_cell_angle_alpha   80.34969797
_cell_angle_beta   78.37256218
_cell_angle_gamma   76.77874626
_symmetry_Int_Tables_number   1
_chemical_formula_structural   K(IrSe2)4
_chemical_formula_sum   'K1 Ir4 Se8'
_cell_volume   286.31660787
_cell_formula_units_Z   1
loop_
 _symmetry_equiv_pos_site_id
 _symmetry_equiv_pos_as_xyz
  1  'x, y, z'
loop_
 _atom_site_type_symbol
 _atom_site_label
 _atom_site_symmetry_multiplicity
 _atom_site_fract_x
 _atom_site_fract_y
 _atom_site_fract_z
 _atom_site_occupancy
  K  K0  1  0.499489  0.000153  0.000867  1
  Ir  Ir1  1  0.633987  0.196955  0.535071  1
  Ir  Ir2  1  0.839317  0.500543  0.820820  1
  Ir  Ir3  1  0.161367  0.498253  0.179013  1
  Ir  Ir4  1  0.365722  0.804150  0.464405  1
  Se  Se5  1  0.457085  0.319816  0.766014  1
  Se  Se6  1  0.543473  0.679455  0.233598  1
  Se  Se7  1  0.895972  0.637104  0.570952  1
  Se  Se8  1  0.103521  0.363740  0.429218  1
  Se  Se9  1  0.213126  0.653349  0.920399  1
  Se  Se10  1  0.787483  0.345297  0.079737  1
  Se  Se11  1  0.827677  0.988568  0.356078  1
  Se  Se12  1  0.171779  0.012615  0.643826  1
