# generated using pymatgen
data_Nd4FeNi2PdO12
_symmetry_space_group_name_H-M   'P 1'
_cell_length_a   5.47543878
_cell_length_b   5.66987261
_cell_length_c   7.84506398
_cell_angle_alpha   90.50306130
_cell_angle_beta   90.28176775
_cell_angle_gamma   90.11085288
_symmetry_Int_Tables_number   1
_chemical_formula_structural   Nd4FeNi2PdO12
_chemical_formula_sum   'Nd4 Fe1 Ni2 Pd1 O12'
_cell_volume   243.53751925
_cell_formula_units_Z   1
loop_
 _symmetry_equiv_pos_site_id
 _symmetry_equiv_pos_as_xyz
  1  'x, y, z'
loop_
 _atom_site_type_symbol
 _atom_site_label
 _atom_site_symmetry_multiplicity
 _atom_site_fract_x
 _atom_site_fract_y
 _atom_site_fract_z
 _atom_site_occupancy
  Nd  Nd0  1  0.019108  0.940691  0.752161  1
  Nd  Nd1  1  0.488393  0.440988  0.753501  1
  Nd  Nd2  1  0.511607  0.559012  0.246499  1
  Nd  Nd3  1  0.980892  0.059309  0.247839  1
  Fe  Fe4  1  0.000000  0.500000  0.000000  1
  Ni  Ni5  1  0.000000  0.500000  0.500000  1
  Ni  Ni6  1  0.500000  0.000000  0.000000  1
  Pd  Pd7  1  0.500000  0.000000  0.500000  1
  O  O8  1  0.696813  0.295230  0.444623  1
  O  O9  1  0.793822  0.790853  0.046131  1
  O  O10  1  0.202797  0.202000  0.554488  1
  O  O11  1  0.290757  0.703946  0.955460  1
  O  O12  1  0.303187  0.704770  0.555377  1
  O  O13  1  0.206178  0.209147  0.953869  1
  O  O14  1  0.797203  0.798000  0.445512  1
  O  O15  1  0.709243  0.296054  0.044540  1
  O  O16  1  0.086857  0.477059  0.245522  1
  O  O17  1  0.398580  0.970958  0.252343  1
  O  O18  1  0.601420  0.029042  0.747657  1
  O  O19  1  0.913143  0.522941  0.754478  1
