# generated using pymatgen
data_LiYP3Rh4
_symmetry_space_group_name_H-M   'P 1'
_cell_length_a   3.93824700
_cell_length_b   10.73658500
_cell_length_c   12.69694200
_cell_angle_alpha   90.00000000
_cell_angle_beta   90.00000000
_cell_angle_gamma   90.00000000
_symmetry_Int_Tables_number   1
_chemical_formula_structural   LiYP3Rh4
_chemical_formula_sum   'Li4 Y4 P12 Rh16'
_cell_volume   536.86890816
_cell_formula_units_Z   4
loop_
 _symmetry_equiv_pos_site_id
 _symmetry_equiv_pos_as_xyz
  1  'x, y, z'
loop_
 _atom_site_type_symbol
 _atom_site_label
 _atom_site_symmetry_multiplicity
 _atom_site_fract_x
 _atom_site_fract_y
 _atom_site_fract_z
 _atom_site_occupancy
  Li  Li0  1  0.250000  0.791673  0.493307  1
  Li  Li1  1  0.750000  0.208327  0.506693  1
  Li  Li2  1  0.750000  0.291673  0.006693  1
  Li  Li3  1  0.250000  0.708327  0.993307  1
  Y  Y4  1  0.250000  0.926946  0.202230  1
  Y  Y5  1  0.750000  0.073054  0.797770  1
  Y  Y6  1  0.750000  0.426946  0.297770  1
  Y  Y7  1  0.250000  0.573054  0.702230  1
  P  P8  1  0.250000  0.069053  0.616896  1
  P  P9  1  0.750000  0.930947  0.383104  1
  P  P10  1  0.750000  0.569053  0.883104  1
  P  P11  1  0.250000  0.430947  0.116896  1
  P  P12  1  0.250000  0.240820  0.356202  1
  P  P13  1  0.750000  0.759180  0.643798  1
  P  P14  1  0.750000  0.740820  0.143798  1
  P  P15  1  0.250000  0.259180  0.856202  1
  P  P16  1  0.250000  0.896522  0.892120  1
  P  P17  1  0.750000  0.103478  0.107880  1
  P  P18  1  0.750000  0.396522  0.607880  1
  P  P19  1  0.250000  0.603478  0.392120  1
  Rh  Rh20  1  0.250000  0.093935  0.977159  1
  Rh  Rh21  1  0.750000  0.906065  0.022841  1
  Rh  Rh22  1  0.750000  0.593935  0.522841  1
  Rh  Rh23  1  0.250000  0.406065  0.477159  1
  Rh  Rh24  1  0.250000  0.268957  0.670666  1
  Rh  Rh25  1  0.750000  0.731043  0.329334  1
  Rh  Rh26  1  0.750000  0.768957  0.829334  1
  Rh  Rh27  1  0.250000  0.231043  0.170666  1
  Rh  Rh28  1  0.250000  0.625502  0.201532  1
  Rh  Rh29  1  0.750000  0.374498  0.798468  1
  Rh  Rh30  1  0.750000  0.125502  0.298468  1
  Rh  Rh31  1  0.250000  0.874498  0.701532  1
  Rh  Rh32  1  0.250000  0.040342  0.432988  1
  Rh  Rh33  1  0.750000  0.959658  0.567012  1
  Rh  Rh34  1  0.750000  0.540342  0.067012  1
  Rh  Rh35  1  0.250000  0.459658  0.932988  1
