# generated using pymatgen
data_CeTh2(SnIr)3
_symmetry_space_group_name_H-M   'P 1'
_cell_length_a   7.55648830
_cell_length_b   7.54880570
_cell_length_c   4.12231400
_cell_angle_alpha   90.00000000
_cell_angle_beta   90.00000000
_cell_angle_gamma   119.96636490
_symmetry_Int_Tables_number   1
_chemical_formula_structural   CeTh2(SnIr)3
_chemical_formula_sum   'Ce1 Th2 Sn3 Ir3'
_cell_volume   203.71220899
_cell_formula_units_Z   1
loop_
 _symmetry_equiv_pos_site_id
 _symmetry_equiv_pos_as_xyz
  1  'x, y, z'
loop_
 _atom_site_type_symbol
 _atom_site_label
 _atom_site_symmetry_multiplicity
 _atom_site_fract_x
 _atom_site_fract_y
 _atom_site_fract_z
 _atom_site_occupancy
  Ce  Ce0  1  0.000000  0.588172  0.000000  1
  Th  Th1  1  0.412462  0.413043  0.000000  1
  Th  Th2  1  0.587538  0.000580  0.000000  1
  Sn  Sn3  1  0.000000  0.256137  0.500000  1
  Sn  Sn4  1  0.752568  0.747886  0.500000  1
  Sn  Sn5  1  0.247432  0.995318  0.500000  1
  Ir  Ir6  1  0.000000  0.003421  0.000000  1
  Ir  Ir7  1  0.663021  0.329232  0.500000  1
  Ir  Ir8  1  0.336979  0.666212  0.500000  1
