# generated using pymatgen
data_Tb4TmLu5Sn6
_symmetry_space_group_name_H-M   'P 1'
_cell_length_a   8.88855300
_cell_length_b   8.88855335
_cell_length_c   6.44635600
_cell_angle_alpha   90.00000000
_cell_angle_beta   90.00000000
_cell_angle_gamma   119.81659198
_symmetry_Int_Tables_number   1
_chemical_formula_structural   Tb4TmLu5Sn6
_chemical_formula_sum   'Tb4 Tm1 Lu5 Sn6'
_cell_volume   441.88243806
_cell_formula_units_Z   1
loop_
 _symmetry_equiv_pos_site_id
 _symmetry_equiv_pos_as_xyz
  1  'x, y, z'
loop_
 _atom_site_type_symbol
 _atom_site_label
 _atom_site_symmetry_multiplicity
 _atom_site_fract_x
 _atom_site_fract_y
 _atom_site_fract_z
 _atom_site_occupancy
  Tb  Tb0  1  0.238511  0.000016  0.750000  1
  Tb  Tb1  1  0.000016  0.238511  0.750000  1
  Tb  Tb2  1  0.761698  0.999649  0.250000  1
  Tb  Tb3  1  0.999649  0.761698  0.250000  1
  Tm  Tm4  1  0.241617  0.241617  0.250000  1
  Lu  Lu5  1  0.666760  0.333121  0.999801  1
  Lu  Lu6  1  0.333121  0.666760  0.999801  1
  Lu  Lu7  1  0.333121  0.666760  0.500199  1
  Lu  Lu8  1  0.666760  0.333121  0.500199  1
  Lu  Lu9  1  0.759747  0.759747  0.750000  1
  Sn  Sn10  1  0.398269  0.398269  0.750000  1
  Sn  Sn11  1  0.603907  0.998176  0.750000  1
  Sn  Sn12  1  0.998176  0.603907  0.750000  1
  Sn  Sn13  1  0.601328  0.601328  0.250000  1
  Sn  Sn14  1  0.396372  0.000953  0.250000  1
  Sn  Sn15  1  0.000953  0.396372  0.250000  1
