# generated using pymatgen
data_Dy4As6Ru2Rh5
_symmetry_space_group_name_H-M   'P 1'
_cell_length_a   7.25863577
_cell_length_b   7.25939764
_cell_length_c   7.25863512
_cell_angle_alpha   109.49394796
_cell_angle_beta   109.41507567
_cell_angle_gamma   109.49395086
_symmetry_Int_Tables_number   1
_chemical_formula_structural   Dy4As6Ru2Rh5
_chemical_formula_sum   'Dy4 As6 Ru2 Rh5'
_cell_volume   294.47316776
_cell_formula_units_Z   1
loop_
 _symmetry_equiv_pos_site_id
 _symmetry_equiv_pos_as_xyz
  1  'x, y, z'
loop_
 _atom_site_type_symbol
 _atom_site_label
 _atom_site_symmetry_multiplicity
 _atom_site_fract_x
 _atom_site_fract_y
 _atom_site_fract_z
 _atom_site_occupancy
  Dy  Dy0  1  0.999937  0.999835  0.499923  1
  Dy  Dy1  1  0.500077  0.000165  0.000063  1
  Dy  Dy2  1  0.999905  0.500000  0.000095  1
  Dy  Dy3  1  0.500085  0.500000  0.499915  1
  As  As4  1  0.680230  0.682728  0.997466  1
  As  As5  1  0.314784  0.317236  0.997553  1
  As  As6  1  0.002447  0.682764  0.685216  1
  As  As7  1  0.002534  0.317272  0.319770  1
  As  As8  1  0.684463  0.999968  0.684471  1
  As  As9  1  0.315529  0.000032  0.315537  1
  Ru  Ru10  1  0.999991  0.000000  0.000009  1
  Ru  Ru11  1  0.250002  0.500000  0.749998  1
  Rh  Rh12  1  0.749590  0.249076  0.500493  1
  Rh  Rh13  1  0.499534  0.249095  0.748599  1
  Rh  Rh14  1  0.499507  0.750924  0.250410  1
  Rh  Rh15  1  0.749983  0.500000  0.250017  1
  Rh  Rh16  1  0.251401  0.750905  0.500466  1
