# generated using pymatgen
data_Pr5As2BrO10
_symmetry_space_group_name_H-M   'P 1'
_cell_length_a   5.74513595
_cell_length_b   6.89056710
_cell_length_c   8.96441700
_cell_angle_alpha   68.83981090
_cell_angle_beta   71.31351013
_cell_angle_gamma   65.36073569
_symmetry_Int_Tables_number   1
_chemical_formula_structural   Pr5As2BrO10
_chemical_formula_sum   'Pr5 As2 Br1 O10'
_cell_volume   294.71213078
_cell_formula_units_Z   1
loop_
 _symmetry_equiv_pos_site_id
 _symmetry_equiv_pos_as_xyz
  1  'x, y, z'
loop_
 _atom_site_type_symbol
 _atom_site_label
 _atom_site_symmetry_multiplicity
 _atom_site_fract_x
 _atom_site_fract_y
 _atom_site_fract_z
 _atom_site_occupancy
  Pr  Pr0  1  0.499251  0.708946  0.292745  1
  Pr  Pr1  1  0.253778  0.363906  0.128763  1
  Pr  Pr2  1  0.000000  0.000000  0.000000  1
  Pr  Pr3  1  0.746222  0.636094  0.871237  1
  Pr  Pr4  1  0.500749  0.291054  0.707255  1
  As  As5  1  0.215029  0.963125  0.606504  1
  As  As6  1  0.784971  0.036875  0.393496  1
  Br  Br7  1  0.000000  0.500000  0.500000  1
  O  O8  1  0.866569  0.675353  0.084339  1
  O  O9  1  0.907506  0.963479  0.752416  1
  O  O10  1  0.359583  0.680195  0.600641  1
  O  O11  1  0.640417  0.319805  0.399359  1
  O  O12  1  0.373772  0.675384  0.084352  1
  O  O13  1  0.626228  0.324616  0.915648  1
  O  O14  1  0.376494  0.963528  0.752317  1
  O  O15  1  0.133431  0.324647  0.915661  1
  O  O16  1  0.623506  0.036472  0.247683  1
  O  O17  1  0.092494  0.036521  0.247584  1
