# generated using pymatgen
data_Zr2Si7(Ni5Ru)2
_symmetry_space_group_name_H-M   'P 1'
_cell_length_a   9.10016194
_cell_length_b   9.16723267
_cell_length_c   3.65751800
_cell_angle_alpha   90.00000000
_cell_angle_beta   90.00000000
_cell_angle_gamma   119.92779508
_symmetry_Int_Tables_number   1
_chemical_formula_structural   Zr2Si7(Ni5Ru)2
_chemical_formula_sum   'Zr2 Si7 Ni10 Ru2'
_cell_volume   264.43565050
_cell_formula_units_Z   1
loop_
 _symmetry_equiv_pos_site_id
 _symmetry_equiv_pos_as_xyz
  1  'x, y, z'
loop_
 _atom_site_type_symbol
 _atom_site_label
 _atom_site_symmetry_multiplicity
 _atom_site_fract_x
 _atom_site_fract_y
 _atom_site_fract_z
 _atom_site_occupancy
  Zr  Zr0  1  0.998446  0.000658  0.000000  1
  Zr  Zr1  1  0.330649  0.664155  0.500000  1
  Si  Si2  1  0.665975  0.332970  0.000000  1
  Si  Si3  1  0.071770  0.453319  0.000000  1
  Si  Si4  1  0.255768  0.214545  0.500000  1
  Si  Si5  1  0.779668  0.040322  0.500000  1
  Si  Si6  1  0.961253  0.744857  0.500000  1
  Si  Si7  1  0.546139  0.619740  0.000000  1
  Si  Si8  1  0.385098  0.929119  0.000000  1
  Ni  Ni9  1  0.284514  0.390094  0.000000  1
  Ni  Ni10  1  0.108915  0.718504  0.000000  1
  Ni  Ni11  1  0.380336  0.171586  0.000000  1
  Ni  Ni12  1  0.794974  0.622953  0.000000  1
  Ni  Ni13  1  0.823146  0.204741  0.000000  1
  Ni  Ni14  1  0.235938  0.951044  0.500000  1
  Ni  Ni15  1  0.048962  0.279113  0.500000  1
  Ni  Ni16  1  0.719301  0.769378  0.500000  1
  Ni  Ni17  1  0.572018  0.119530  0.500000  1
  Ni  Ni18  1  0.609142  0.891160  0.000000  1
  Ru  Ru19  1  0.881606  0.452025  0.500000  1
  Ru  Ru20  1  0.546382  0.430187  0.500000  1
