# generated using pymatgen
data_K2Si(TeO4)3
_symmetry_space_group_name_H-M   'P 1'
_cell_length_a   6.92097379
_cell_length_b   6.92097287
_cell_length_c   6.92021346
_cell_angle_alpha   62.43147418
_cell_angle_beta   62.43147345
_cell_angle_gamma   62.43202005
_symmetry_Int_Tables_number   1
_chemical_formula_structural   K2Si(TeO4)3
_chemical_formula_sum   'K2 Si1 Te3 O12'
_cell_volume   247.09797738
_cell_formula_units_Z   1
loop_
 _symmetry_equiv_pos_site_id
 _symmetry_equiv_pos_as_xyz
  1  'x, y, z'
loop_
 _atom_site_type_symbol
 _atom_site_label
 _atom_site_symmetry_multiplicity
 _atom_site_fract_x
 _atom_site_fract_y
 _atom_site_fract_z
 _atom_site_occupancy
  K  K0  1  0.852702  0.874592  0.361736  1
  K  K1  1  0.125408  0.147298  0.638264  1
  Si  Si2  1  0.496838  0.503162  0.000000  1
  Te  Te3  1  0.996891  0.503464  0.000041  1
  Te  Te4  1  0.496536  0.003109  0.999959  1
  Te  Te5  1  0.496489  0.503511  0.500000  1
  O  O6  1  0.163325  0.169996  0.065348  1
  O  O7  1  0.562680  0.567493  0.697468  1
  O  O8  1  0.194481  0.567963  0.065352  1
  O  O9  1  0.561536  0.170025  0.666627  1
  O  O10  1  0.562534  0.200328  0.064592  1
  O  O11  1  0.163184  0.568798  0.666571  1
  O  O12  1  0.830004  0.836675  0.934652  1
  O  O13  1  0.432507  0.437320  0.302532  1
  O  O14  1  0.799672  0.437466  0.935408  1
  O  O15  1  0.431202  0.836816  0.333429  1
  O  O16  1  0.432037  0.805519  0.934648  1
  O  O17  1  0.829975  0.438464  0.333373  1
