# generated using pymatgen
data_Tb3Dy7CuRhPb6
_symmetry_space_group_name_H-M   'P 1'
_cell_length_a   9.21882600
_cell_length_b   9.21882593
_cell_length_c   6.73723500
_cell_angle_alpha   90.00000000
_cell_angle_beta   90.00000000
_cell_angle_gamma   119.99999309
_symmetry_Int_Tables_number   1
_chemical_formula_structural   Tb3Dy7CuRhPb6
_chemical_formula_sum   'Tb3 Dy7 Cu1 Rh1 Pb6'
_cell_volume   495.86515447
_cell_formula_units_Z   1
loop_
 _symmetry_equiv_pos_site_id
 _symmetry_equiv_pos_as_xyz
  1  'x, y, z'
loop_
 _atom_site_type_symbol
 _atom_site_label
 _atom_site_symmetry_multiplicity
 _atom_site_fract_x
 _atom_site_fract_y
 _atom_site_fract_z
 _atom_site_occupancy
  Tb  Tb0  1  0.666667  0.333333  0.000000  1
  Tb  Tb1  1  0.666667  0.333333  0.500000  1
  Tb  Tb2  1  0.333333  0.666667  0.500000  1
  Dy  Dy3  1  0.246667  0.999983  0.238132  1
  Dy  Dy4  1  0.753316  0.999983  0.761868  1
  Dy  Dy5  1  0.000017  0.246684  0.238132  1
  Dy  Dy6  1  0.000017  0.753333  0.761868  1
  Dy  Dy7  1  0.753316  0.753333  0.238132  1
  Dy  Dy8  1  0.246667  0.246684  0.761868  1
  Dy  Dy9  1  0.333333  0.666667  0.000000  1
  Cu  Cu10  1  0.000000  0.000000  0.500000  1
  Rh  Rh11  1  0.000000  0.000000  0.000000  1
  Pb  Pb12  1  0.605139  0.999949  0.251836  1
  Pb  Pb13  1  0.394811  0.999949  0.748164  1
  Pb  Pb14  1  0.000051  0.605189  0.251836  1
  Pb  Pb15  1  0.000051  0.394861  0.748164  1
  Pb  Pb16  1  0.394811  0.394861  0.251836  1
  Pb  Pb17  1  0.605139  0.605189  0.748164  1
