# generated using pymatgen
data_Cs6DyLuBr12
_symmetry_space_group_name_H-M   'P 1'
_cell_length_a   9.95560041
_cell_length_b   9.94951741
_cell_length_c   8.26325900
_cell_angle_alpha   90.00000000
_cell_angle_beta   90.00000000
_cell_angle_gamma   90.07979049
_symmetry_Int_Tables_number   1
_chemical_formula_structural   Cs6DyLuBr12
_chemical_formula_sum   'Cs6 Dy1 Lu1 Br12'
_cell_volume   818.50326780
_cell_formula_units_Z   1
loop_
 _symmetry_equiv_pos_site_id
 _symmetry_equiv_pos_as_xyz
  1  'x, y, z'
loop_
 _atom_site_type_symbol
 _atom_site_label
 _atom_site_symmetry_multiplicity
 _atom_site_fract_x
 _atom_site_fract_y
 _atom_site_fract_z
 _atom_site_occupancy
  Cs  Cs0  1  0.000000  0.000000  0.500000  1
  Cs  Cs1  1  0.000000  0.000000  0.000000  1
  Cs  Cs2  1  0.235408  0.584760  0.500000  1
  Cs  Cs3  1  0.764592  0.415240  0.500000  1
  Cs  Cs4  1  0.415475  0.234774  0.000000  1
  Cs  Cs5  1  0.584525  0.765226  0.000000  1
  Dy  Dy6  1  0.000000  0.500000  0.000000  1
  Lu  Lu7  1  0.500000  0.000000  0.500000  1
  Br  Br8  1  0.689252  0.057462  0.737243  1
  Br  Br9  1  0.310748  0.942538  0.737243  1
  Br  Br10  1  0.941652  0.692607  0.241228  1
  Br  Br11  1  0.058348  0.307393  0.241228  1
  Br  Br12  1  0.310748  0.942538  0.262757  1
  Br  Br13  1  0.689252  0.057462  0.262757  1
  Br  Br14  1  0.058348  0.307393  0.758772  1
  Br  Br15  1  0.941652  0.692607  0.758772  1
  Br  Br16  1  0.570235  0.732623  0.500000  1
  Br  Br17  1  0.429765  0.267377  0.500000  1
  Br  Br18  1  0.272136  0.571671  0.000000  1
  Br  Br19  1  0.727864  0.428329  0.000000  1
