# generated using pymatgen
data_Tm2P3Ir4
_symmetry_space_group_name_H-M   'P 1'
_cell_length_a   12.93814100
_cell_length_b   12.93814094
_cell_length_c   3.97886200
_cell_angle_alpha   90.00000000
_cell_angle_beta   90.00000000
_cell_angle_gamma   119.99999760
_symmetry_Int_Tables_number   1
_chemical_formula_structural   Tm2P3Ir4
_chemical_formula_sum   'Tm8 P12 Ir16'
_cell_volume   576.81065778
_cell_formula_units_Z   4
loop_
 _symmetry_equiv_pos_site_id
 _symmetry_equiv_pos_as_xyz
  1  'x, y, z'
loop_
 _atom_site_type_symbol
 _atom_site_label
 _atom_site_symmetry_multiplicity
 _atom_site_fract_x
 _atom_site_fract_y
 _atom_site_fract_z
 _atom_site_occupancy
  Tm  Tm0  1  0.446987  0.446987  0.000000  1
  Tm  Tm1  1  0.553013  0.000000  0.000000  1
  Tm  Tm2  1  0.000000  0.553013  0.000000  1
  Tm  Tm3  1  0.666667  0.333333  0.000000  1
  Tm  Tm4  1  0.333333  0.666667  0.000000  1
  Tm  Tm5  1  0.815319  0.815319  0.500000  1
  Tm  Tm6  1  0.184681  0.000000  0.500000  1
  Tm  Tm7  1  0.000000  0.184681  0.500000  1
  P  P8  1  0.653563  0.653563  0.000000  1
  P  P9  1  0.346437  0.000000  0.000000  1
  P  P10  1  0.000000  0.346437  0.000000  1
  P  P11  1  0.483739  0.311800  0.500000  1
  P  P12  1  0.688200  0.171938  0.500000  1
  P  P13  1  0.828062  0.516261  0.500000  1
  P  P14  1  0.516261  0.828062  0.500000  1
  P  P15  1  0.171938  0.688200  0.500000  1
  P  P16  1  0.824133  0.000000  0.000000  1
  P  P17  1  0.000000  0.824133  0.000000  1
  P  P18  1  0.311800  0.483739  0.500000  1
  P  P19  1  0.175867  0.175867  0.000000  1
  Ir  Ir20  1  0.189739  0.368351  0.000000  1
  Ir  Ir21  1  0.178611  0.810261  0.000000  1
  Ir  Ir22  1  0.821389  0.631649  0.000000  1
  Ir  Ir23  1  0.810261  0.178611  0.000000  1
  Ir  Ir24  1  0.368351  0.189739  0.000000  1
  Ir  Ir25  1  0.135267  0.491869  0.500000  1
  Ir  Ir26  1  0.356602  0.864733  0.500000  1
  Ir  Ir27  1  0.508131  0.643398  0.500000  1
  Ir  Ir28  1  0.643398  0.508131  0.500000  1
  Ir  Ir29  1  0.864733  0.356602  0.500000  1
  Ir  Ir30  1  0.491869  0.135267  0.500000  1
  Ir  Ir31  1  0.000000  0.000000  0.000000  1
  Ir  Ir32  1  0.725241  0.000000  0.500000  1
  Ir  Ir33  1  0.000000  0.725241  0.500000  1
  Ir  Ir34  1  0.631649  0.821389  0.000000  1
  Ir  Ir35  1  0.274759  0.274759  0.500000  1
