# generated using pymatgen
data_Pr2Sn(PRh2)6
_symmetry_space_group_name_H-M   'P 1'
_cell_length_a   9.85980200
_cell_length_b   9.85980336
_cell_length_c   3.89328500
_cell_angle_alpha   90.00000000
_cell_angle_beta   90.00000000
_cell_angle_gamma   120.00000215
_symmetry_Int_Tables_number   1
_chemical_formula_structural   Pr2Sn(PRh2)6
_chemical_formula_sum   'Pr2 Sn1 P6 Rh12'
_cell_volume   327.78061528
_cell_formula_units_Z   1
loop_
 _symmetry_equiv_pos_site_id
 _symmetry_equiv_pos_as_xyz
  1  'x, y, z'
loop_
 _atom_site_type_symbol
 _atom_site_label
 _atom_site_symmetry_multiplicity
 _atom_site_fract_x
 _atom_site_fract_y
 _atom_site_fract_z
 _atom_site_occupancy
  Pr  Pr0  1  0.333333  0.666667  0.751722  1
  Pr  Pr1  1  0.000000  0.000000  0.249067  1
  Sn  Sn2  1  0.666667  0.333333  0.595543  1
  P  P3  1  0.955636  0.219655  0.747821  1
  P  P4  1  0.780345  0.735981  0.747821  1
  P  P5  1  0.264019  0.044364  0.747821  1
  P  P6  1  0.377254  0.445231  0.253076  1
  P  P7  1  0.554769  0.932023  0.253076  1
  P  P8  1  0.067977  0.622746  0.253076  1
  Rh  Rh9  1  0.732195  0.950510  0.748351  1
  Rh  Rh10  1  0.049490  0.781685  0.748351  1
  Rh  Rh11  1  0.218315  0.267805  0.748351  1
  Rh  Rh12  1  0.604987  0.721600  0.253149  1
  Rh  Rh13  1  0.278400  0.883389  0.253149  1
  Rh  Rh14  1  0.116611  0.395013  0.253149  1
  Rh  Rh15  1  0.958736  0.461311  0.757902  1
  Rh  Rh16  1  0.538689  0.497425  0.757902  1
  Rh  Rh17  1  0.502575  0.041264  0.757902  1
  Rh  Rh18  1  0.389674  0.211002  0.242319  1
  Rh  Rh19  1  0.788998  0.178671  0.242319  1
  Rh  Rh20  1  0.821329  0.610326  0.242319  1
