# generated using pymatgen
data_TbY2Tm3(Al3Ru)8
_symmetry_space_group_name_H-M   'P 1'
_cell_length_a   8.77083804
_cell_length_b   8.77463643
_cell_length_c   9.60029600
_cell_angle_alpha   90.00000000
_cell_angle_beta   90.00000000
_cell_angle_gamma   119.94422897
_symmetry_Int_Tables_number   1
_chemical_formula_structural   TbY2Tm3(Al3Ru)8
_chemical_formula_sum   'Tb1 Y2 Tm3 Al24 Ru8'
_cell_volume   640.22004950
_cell_formula_units_Z   1
loop_
 _symmetry_equiv_pos_site_id
 _symmetry_equiv_pos_as_xyz
  1  'x, y, z'
loop_
 _atom_site_type_symbol
 _atom_site_label
 _atom_site_symmetry_multiplicity
 _atom_site_fract_x
 _atom_site_fract_y
 _atom_site_fract_z
 _atom_site_occupancy
  Tb  Tb0  1  0.807007  0.193380  0.750000  1
  Y  Y1  1  0.193689  0.806377  0.250000  1
  Y  Y2  1  0.387679  0.193877  0.750000  1
  Tm  Tm3  1  0.610704  0.805297  0.250000  1
  Tm  Tm4  1  0.805468  0.610593  0.750000  1
  Tm  Tm5  1  0.194753  0.389308  0.250000  1
  Al  Al6  1  0.667069  0.333809  0.983057  1
  Al  Al7  1  0.333591  0.666483  0.018174  1
  Al  Al8  1  0.333591  0.666483  0.481826  1
  Al  Al9  1  0.667069  0.333809  0.516943  1
  Al  Al10  1  0.837206  0.162770  0.421855  1
  Al  Al11  1  0.162367  0.836665  0.577131  1
  Al  Al12  1  0.325664  0.163400  0.422227  1
  Al  Al13  1  0.162367  0.836665  0.922869  1
  Al  Al14  1  0.674111  0.836560  0.576707  1
  Al  Al15  1  0.837206  0.162770  0.078145  1
  Al  Al16  1  0.836629  0.674420  0.422800  1
  Al  Al17  1  0.674111  0.836560  0.923293  1
  Al  Al18  1  0.163119  0.326214  0.576409  1
  Al  Al19  1  0.325664  0.163400  0.077773  1
  Al  Al20  1  0.163119  0.326214  0.923591  1
  Al  Al21  1  0.836629  0.674420  0.077200  1
  Al  Al22  1  0.438794  0.562510  0.750000  1
  Al  Al23  1  0.561408  0.438712  0.250000  1
  Al  Al24  1  0.123795  0.562414  0.750000  1
  Al  Al25  1  0.876123  0.437701  0.250000  1
  Al  Al26  1  0.437745  0.875249  0.750000  1
  Al  Al27  1  0.562372  0.123909  0.250000  1
  Al  Al28  1  0.999622  0.997824  0.750000  1
  Al  Al29  1  0.999122  0.000957  0.250000  1
  Ru  Ru30  1  0.500392  0.500830  0.000719  1
  Ru  Ru31  1  0.000248  0.500129  0.000074  1
  Ru  Ru32  1  0.500392  0.500830  0.499281  1
  Ru  Ru33  1  0.500390  0.999563  0.000620  1
  Ru  Ru34  1  0.000248  0.500129  0.499926  1
  Ru  Ru35  1  0.500390  0.999563  0.499380  1
  Ru  Ru36  1  0.000073  0.000105  0.000017  1
  Ru  Ru37  1  0.000073  0.000105  0.499983  1
