# generated using pymatgen
data_Y4AlOs7
_symmetry_space_group_name_H-M   'P 1'
_cell_length_a   5.37864000
_cell_length_b   5.37864011
_cell_length_c   8.71910500
_cell_angle_alpha   90.00000000
_cell_angle_beta   90.00000000
_cell_angle_gamma   119.99999935
_symmetry_Int_Tables_number   1
_chemical_formula_structural   Y4AlOs7
_chemical_formula_sum   'Y4 Al1 Os7'
_cell_volume   218.44771456
_cell_formula_units_Z   1
loop_
 _symmetry_equiv_pos_site_id
 _symmetry_equiv_pos_as_xyz
  1  'x, y, z'
loop_
 _atom_site_type_symbol
 _atom_site_label
 _atom_site_symmetry_multiplicity
 _atom_site_fract_x
 _atom_site_fract_y
 _atom_site_fract_z
 _atom_site_occupancy
  Y  Y0  1  0.333333  0.666667  0.429182  1
  Y  Y1  1  0.666667  0.333333  0.570818  1
  Y  Y2  1  0.666667  0.333333  0.935264  1
  Y  Y3  1  0.333333  0.666667  0.064736  1
  Al  Al4  1  0.000000  0.000000  0.500000  1
  Os  Os5  1  0.000000  0.000000  0.000000  1
  Os  Os6  1  0.828722  0.171278  0.250546  1
  Os  Os7  1  0.828722  0.657443  0.250546  1
  Os  Os8  1  0.342557  0.171278  0.250546  1
  Os  Os9  1  0.171278  0.828722  0.749454  1
  Os  Os10  1  0.171278  0.342557  0.749454  1
  Os  Os11  1  0.657443  0.828722  0.749454  1
