# generated using pymatgen
data_YGaAu3
_symmetry_space_group_name_H-M   'P 1'
_cell_length_a   9.22135400
_cell_length_b   9.22135400
_cell_length_c   9.22135400
_cell_angle_alpha   90.00000000
_cell_angle_beta   90.00000000
_cell_angle_gamma   90.00000000
_symmetry_Int_Tables_number   1
_chemical_formula_structural   YGaAu3
_chemical_formula_sum   'Y8 Ga8 Au24'
_cell_volume   784.12280283
_cell_formula_units_Z   8
loop_
 _symmetry_equiv_pos_site_id
 _symmetry_equiv_pos_as_xyz
  1  'x, y, z'
loop_
 _atom_site_type_symbol
 _atom_site_label
 _atom_site_symmetry_multiplicity
 _atom_site_fract_x
 _atom_site_fract_y
 _atom_site_fract_z
 _atom_site_occupancy
  Y  Y0  1  0.390753  0.390753  0.390753  1
  Y  Y1  1  0.609247  0.890753  0.109247  1
  Y  Y2  1  0.109247  0.890753  0.390753  1
  Y  Y3  1  0.609247  0.609247  0.609247  1
  Y  Y4  1  0.890753  0.390753  0.109247  1
  Y  Y5  1  0.390753  0.109247  0.890753  1
  Y  Y6  1  0.109247  0.609247  0.890753  1
  Y  Y7  1  0.890753  0.109247  0.609247  1
  Ga  Ga8  1  0.895343  0.604657  0.395343  1
  Ga  Ga9  1  0.604657  0.395343  0.895343  1
  Ga  Ga10  1  0.895343  0.895343  0.895343  1
  Ga  Ga11  1  0.395343  0.604657  0.104657  1
  Ga  Ga12  1  0.104657  0.104657  0.104657  1
  Ga  Ga13  1  0.395343  0.895343  0.604657  1
  Ga  Ga14  1  0.604657  0.104657  0.395343  1
  Ga  Ga15  1  0.104657  0.395343  0.604657  1
  Au  Au16  1  0.579213  0.261746  0.142964  1
  Au  Au17  1  0.079213  0.238254  0.857036  1
  Au  Au18  1  0.261746  0.142964  0.579213  1
  Au  Au19  1  0.642964  0.579213  0.238254  1
  Au  Au20  1  0.579213  0.238254  0.642964  1
  Au  Au21  1  0.261746  0.357036  0.079213  1
  Au  Au22  1  0.357036  0.420787  0.761746  1
  Au  Au23  1  0.238254  0.857036  0.079213  1
  Au  Au24  1  0.238254  0.642964  0.579213  1
  Au  Au25  1  0.761746  0.142964  0.920787  1
  Au  Au26  1  0.738254  0.642964  0.920787  1
  Au  Au27  1  0.738254  0.857036  0.420787  1
  Au  Au28  1  0.357036  0.079213  0.261746  1
  Au  Au29  1  0.420787  0.738254  0.857036  1
  Au  Au30  1  0.920787  0.738254  0.642964  1
  Au  Au31  1  0.642964  0.920787  0.738254  1
  Au  Au32  1  0.857036  0.420787  0.738254  1
  Au  Au33  1  0.420787  0.761746  0.357036  1
  Au  Au34  1  0.920787  0.761746  0.142964  1
  Au  Au35  1  0.079213  0.261746  0.357036  1
  Au  Au36  1  0.761746  0.357036  0.420787  1
  Au  Au37  1  0.142964  0.579213  0.261746  1
  Au  Au38  1  0.857036  0.079213  0.238254  1
  Au  Au39  1  0.142964  0.920787  0.761746  1
