# generated using pymatgen
data_SbRu(NF10)2
_symmetry_space_group_name_H-M   'P 1'
_cell_length_a   5.68767241
_cell_length_b   7.70211763
_cell_length_c   9.11964805
_cell_angle_alpha   88.73946426
_cell_angle_beta   109.33204155
_cell_angle_gamma   96.69047703
_symmetry_Int_Tables_number   1
_chemical_formula_structural   SbRu(NF10)2
_chemical_formula_sum   'Sb1 Ru1 N2 F20'
_cell_volume   374.35405799
_cell_formula_units_Z   1
loop_
 _symmetry_equiv_pos_site_id
 _symmetry_equiv_pos_as_xyz
  1  'x, y, z'
loop_
 _atom_site_type_symbol
 _atom_site_label
 _atom_site_symmetry_multiplicity
 _atom_site_fract_x
 _atom_site_fract_y
 _atom_site_fract_z
 _atom_site_occupancy
  Sb  Sb0  1  0.004312  0.244935  0.703684  1
  Ru  Ru1  1  0.996373  0.754441  0.294660  1
  N  N2  1  0.295151  0.274434  0.215093  1
  N  N3  1  0.704356  0.725592  0.785448  1
  F  F4  1  0.060223  0.233005  0.213716  1
  F  F5  1  0.939332  0.766621  0.786373  1
  F  F6  1  0.370061  0.140966  0.156264  1
  F  F7  1  0.629779  0.859102  0.844384  1
  F  F8  1  0.933121  0.194710  0.894429  1
  F  F9  1  0.068503  0.806009  0.106250  1
  F  F10  1  0.076420  0.299899  0.517034  1
  F  F11  1  0.925712  0.701562  0.479450  1
  F  F12  1  0.781408  0.043026  0.606816  1
  F  F13  1  0.213999  0.954302  0.392216  1
  F  F14  1  0.279754  0.107765  0.778318  1
  F  F15  1  0.723879  0.890472  0.223632  1
  F  F16  1  0.214597  0.452538  0.805164  1
  F  F17  1  0.785594  0.548873  0.195169  1
  F  F18  1  0.725357  0.380707  0.639115  1
  F  F19  1  0.272948  0.620708  0.361346  1
  F  F20  1  0.695686  0.585254  0.873631  1
  F  F21  1  0.304265  0.414994  0.127271  1
  F  F22  1  0.550649  0.691816  0.639863  1
  F  F23  1  0.448522  0.308269  0.360673  1
