# generated using pymatgen
data_Cs2Rh5F17
_symmetry_space_group_name_H-M   'P 1'
_cell_length_a   7.75561100
_cell_length_b   13.97683898
_cell_length_c   15.30878600
_cell_angle_alpha   90.00000000
_cell_angle_beta   90.00000000
_cell_angle_gamma   106.10778149
_symmetry_Int_Tables_number   1
_chemical_formula_structural   Cs2Rh5F17
_chemical_formula_sum   'Cs8 Rh20 F68'
_cell_volume   1594.30818165
_cell_formula_units_Z   4
loop_
 _symmetry_equiv_pos_site_id
 _symmetry_equiv_pos_as_xyz
  1  'x, y, z'
loop_
 _atom_site_type_symbol
 _atom_site_label
 _atom_site_symmetry_multiplicity
 _atom_site_fract_x
 _atom_site_fract_y
 _atom_site_fract_z
 _atom_site_occupancy
  Cs  Cs0  1  0.000000  0.000000  0.000000  1
  Cs  Cs1  1  0.249148  0.498295  0.034625  1
  Cs  Cs2  1  0.249148  0.498295  0.465375  1
  Cs  Cs3  1  0.750852  0.501705  0.534625  1
  Cs  Cs4  1  0.750852  0.501705  0.965375  1
  Cs  Cs5  1  0.251445  0.502889  0.750000  1
  Cs  Cs6  1  0.000000  0.000000  0.500000  1
  Cs  Cs7  1  0.748555  0.497111  0.250000  1
  Rh  Rh8  1  0.626942  0.758930  0.874250  1
  Rh  Rh9  1  0.373058  0.241070  0.374250  1
  Rh  Rh10  1  0.872126  0.244421  0.873237  1
  Rh  Rh11  1  0.372295  0.244421  0.626763  1
  Rh  Rh12  1  0.749173  0.001720  0.750000  1
  Rh  Rh13  1  0.872126  0.244421  0.626763  1
  Rh  Rh14  1  0.626942  0.758930  0.625750  1
  Rh  Rh15  1  0.127874  0.755579  0.373237  1
  Rh  Rh16  1  0.252547  0.001720  0.750000  1
  Rh  Rh17  1  0.131989  0.758930  0.625750  1
  Rh  Rh18  1  0.868011  0.241070  0.125750  1
  Rh  Rh19  1  0.627705  0.755579  0.373237  1
  Rh  Rh20  1  0.373058  0.241070  0.125750  1
  Rh  Rh21  1  0.372295  0.244421  0.873237  1
  Rh  Rh22  1  0.868011  0.241070  0.374250  1
  Rh  Rh23  1  0.747453  0.998280  0.250000  1
  Rh  Rh24  1  0.250827  0.998280  0.250000  1
  Rh  Rh25  1  0.131989  0.758930  0.874250  1
  Rh  Rh26  1  0.127874  0.755579  0.126763  1
  Rh  Rh27  1  0.627705  0.755579  0.126763  1
  F  F28  1  0.554948  0.710553  0.250000  1
  F  F29  1  0.448040  0.280740  0.250000  1
  F  F30  1  0.755935  0.905628  0.651952  1
  F  F31  1  0.900640  0.202096  0.500776  1
  F  F32  1  0.892347  0.380298  0.098346  1
  F  F33  1  0.977246  0.954493  0.250000  1
  F  F34  1  0.108475  0.216951  0.657151  1
  F  F35  1  0.477087  0.954172  0.750000  1
  F  F36  1  0.149693  0.905628  0.848048  1
  F  F37  1  0.551960  0.719260  0.750000  1
  F  F38  1  0.603474  0.615217  0.103378  1
  F  F39  1  0.244065  0.094372  0.151952  1
  F  F40  1  0.900640  0.202096  0.999224  1
  F  F41  1  0.099360  0.797904  0.000776  1
  F  F42  1  0.844396  0.289447  0.750000  1
  F  F43  1  0.141296  0.282591  0.354716  1
  F  F44  1  0.651464  0.903810  0.149462  1
  F  F45  1  0.599439  0.198879  0.395670  1
  F  F46  1  0.603474  0.615217  0.396622  1
  F  F47  1  0.099360  0.797904  0.499224  1
  F  F48  1  0.141296  0.282591  0.145284  1
  F  F49  1  0.149693  0.905628  0.651952  1
  F  F50  1  0.252346  0.903810  0.149462  1
  F  F51  1  0.301456  0.202096  0.500776  1
  F  F52  1  0.599439  0.198879  0.104330  1
  F  F53  1  0.252346  0.903810  0.350538  1
  F  F54  1  0.892347  0.380298  0.401654  1
  F  F55  1  0.850307  0.094372  0.348048  1
  F  F56  1  0.396526  0.384783  0.603378  1
  F  F57  1  0.755935  0.905628  0.848048  1
  F  F58  1  0.011742  0.615217  0.103378  1
  F  F59  1  0.301456  0.202096  0.999224  1
  F  F60  1  0.400561  0.801121  0.895670  1
  F  F61  1  0.107653  0.619702  0.598346  1
  F  F62  1  0.698544  0.797904  0.499224  1
  F  F63  1  0.155604  0.710553  0.250000  1
  F  F64  1  0.651464  0.903810  0.350538  1
  F  F65  1  0.396526  0.384783  0.896622  1
  F  F66  1  0.891525  0.783049  0.157151  1
  F  F67  1  0.891525  0.783049  0.342849  1
  F  F68  1  0.364323  0.728646  0.407057  1
  F  F69  1  0.445052  0.289447  0.750000  1
  F  F70  1  0.522913  0.045828  0.250000  1
  F  F71  1  0.988258  0.384783  0.896622  1
  F  F72  1  0.487950  0.380298  0.401654  1
  F  F73  1  0.858704  0.717409  0.645284  1
  F  F74  1  0.364323  0.728646  0.092943  1
  F  F75  1  0.022754  0.045507  0.750000  1
  F  F76  1  0.747654  0.096190  0.850538  1
  F  F77  1  0.512050  0.619702  0.901654  1
  F  F78  1  0.635677  0.271354  0.592943  1
  F  F79  1  0.348536  0.096190  0.850538  1
  F  F80  1  0.850307  0.094372  0.151952  1
  F  F81  1  0.348536  0.096190  0.649462  1
  F  F82  1  0.635677  0.271354  0.907057  1
  F  F83  1  0.512050  0.619702  0.598346  1
  F  F84  1  0.011742  0.615217  0.396622  1
  F  F85  1  0.747654  0.096190  0.649462  1
  F  F86  1  0.858704  0.717409  0.854716  1
  F  F87  1  0.832700  0.280740  0.250000  1
  F  F88  1  0.988258  0.384783  0.603378  1
  F  F89  1  0.487950  0.380298  0.098346  1
  F  F90  1  0.167300  0.719260  0.750000  1
  F  F91  1  0.108475  0.216951  0.842849  1
  F  F92  1  0.698544  0.797904  0.000776  1
  F  F93  1  0.107653  0.619702  0.901654  1
  F  F94  1  0.244065  0.094372  0.348048  1
  F  F95  1  0.400561  0.801121  0.604330  1
