# generated using pymatgen
data_Tb2Y7Tm11Bi12
_symmetry_space_group_name_H-M   'P 1'
_cell_length_a   8.22683629
_cell_length_b   9.45464434
_cell_length_c   12.04021115
_cell_angle_alpha   89.99341767
_cell_angle_beta   90.07230889
_cell_angle_gamma   89.98335183
_symmetry_Int_Tables_number   1
_chemical_formula_structural   Tb2Y7Tm11Bi12
_chemical_formula_sum   'Tb2 Y7 Tm11 Bi12'
_cell_volume   936.50863762
_cell_formula_units_Z   1
loop_
 _symmetry_equiv_pos_site_id
 _symmetry_equiv_pos_as_xyz
  1  'x, y, z'
loop_
 _atom_site_type_symbol
 _atom_site_label
 _atom_site_symmetry_multiplicity
 _atom_site_fract_x
 _atom_site_fract_y
 _atom_site_fract_z
 _atom_site_occupancy
  Tb  Tb0  1  0.186213  0.750035  0.718596  1
  Tb  Tb1  1  0.686365  0.750061  0.781561  1
  Y  Y2  1  0.813686  0.249364  0.281059  1
  Y  Y3  1  0.313571  0.249809  0.218236  1
  Y  Y4  1  0.807800  0.437275  0.559307  1
  Y  Y5  1  0.353830  0.749856  0.216145  1
  Y  Y6  1  0.853387  0.749445  0.283750  1
  Y  Y7  1  0.645124  0.248799  0.784278  1
  Y  Y8  1  0.147011  0.249093  0.716516  1
  Tm  Tm9  1  0.024847  0.749800  0.989052  1
  Tm  Tm10  1  0.524495  0.749940  0.511162  1
  Tm  Tm11  1  0.975228  0.249845  0.011042  1
  Tm  Tm12  1  0.474360  0.249422  0.488893  1
  Tm  Tm13  1  0.307466  0.434007  0.940781  1
  Tm  Tm14  1  0.807353  0.066234  0.559570  1
  Tm  Tm15  1  0.692582  0.933956  0.059217  1
  Tm  Tm16  1  0.192420  0.566232  0.440617  1
  Tm  Tm17  1  0.692423  0.566135  0.059236  1
  Tm  Tm18  1  0.193294  0.934238  0.440289  1
  Tm  Tm19  1  0.307438  0.065860  0.940959  1
  Bi  Bi20  1  0.433877  0.003569  0.672373  1
  Bi  Bi21  1  0.934200  0.495602  0.828065  1
  Bi  Bi22  1  0.566057  0.503556  0.327537  1
  Bi  Bi23  1  0.066143  0.995702  0.172127  1
  Bi  Bi24  1  0.566029  0.995865  0.327762  1
  Bi  Bi25  1  0.066373  0.503880  0.171972  1
  Bi  Bi26  1  0.433378  0.495669  0.672427  1
  Bi  Bi27  1  0.933963  0.003944  0.828006  1
  Bi  Bi28  1  0.405639  0.749986  0.957713  1
  Bi  Bi29  1  0.906900  0.753143  0.541656  1
  Bi  Bi30  1  0.594344  0.250149  0.042626  1
  Bi  Bi31  1  0.094205  0.249526  0.457470  1
