# generated using pymatgen
data_Dy4Tm(Lu5Bi4)3
_symmetry_space_group_name_H-M   'P 1'
_cell_length_a   8.17458516
_cell_length_b   9.39106900
_cell_length_c   11.86026024
_cell_angle_alpha   90.00000000
_cell_angle_beta   90.02282828
_cell_angle_gamma   90.00000000
_symmetry_Int_Tables_number   1
_chemical_formula_structural   Dy4Tm(Lu5Bi4)3
_chemical_formula_sum   'Dy4 Tm1 Lu15 Bi12'
_cell_volume   910.48949210
_cell_formula_units_Z   1
loop_
 _symmetry_equiv_pos_site_id
 _symmetry_equiv_pos_as_xyz
  1  'x, y, z'
loop_
 _atom_site_type_symbol
 _atom_site_label
 _atom_site_symmetry_multiplicity
 _atom_site_fract_x
 _atom_site_fract_y
 _atom_site_fract_z
 _atom_site_occupancy
  Dy  Dy0  1  0.312584  0.250000  0.217945  1
  Dy  Dy1  1  0.812369  0.250000  0.282148  1
  Dy  Dy2  1  0.687532  0.750000  0.782064  1
  Dy  Dy3  1  0.187517  0.750000  0.717904  1
  Tm  Tm4  1  0.352298  0.750000  0.217943  1
  Lu  Lu5  1  0.852151  0.750000  0.281973  1
  Lu  Lu6  1  0.647752  0.250000  0.781988  1
  Lu  Lu7  1  0.147717  0.250000  0.718093  1
  Lu  Lu8  1  0.692881  0.567246  0.059884  1
  Lu  Lu9  1  0.192793  0.932827  0.440245  1
  Lu  Lu10  1  0.307116  0.067219  0.940084  1
  Lu  Lu11  1  0.807160  0.432789  0.559869  1
  Lu  Lu12  1  0.307116  0.432781  0.940084  1
  Lu  Lu13  1  0.807160  0.067211  0.559869  1
  Lu  Lu14  1  0.692881  0.932754  0.059884  1
  Lu  Lu15  1  0.192793  0.567173  0.440245  1
  Lu  Lu16  1  0.476605  0.250000  0.489299  1
  Lu  Lu17  1  0.976448  0.250000  0.010667  1
  Lu  Lu18  1  0.523572  0.750000  0.510827  1
  Lu  Lu19  1  0.023458  0.750000  0.989278  1
  Bi  Bi20  1  0.403956  0.750000  0.958771  1
  Bi  Bi21  1  0.903828  0.750000  0.540871  1
  Bi  Bi22  1  0.596143  0.250000  0.040930  1
  Bi  Bi23  1  0.096188  0.250000  0.459115  1
  Bi  Bi24  1  0.565471  0.994509  0.325850  1
  Bi  Bi25  1  0.065259  0.505652  0.174154  1
  Bi  Bi26  1  0.434642  0.494354  0.674197  1
  Bi  Bi27  1  0.934619  0.005726  0.825810  1
  Bi  Bi28  1  0.434642  0.005646  0.674197  1
  Bi  Bi29  1  0.934619  0.494274  0.825810  1
  Bi  Bi30  1  0.565471  0.505491  0.325850  1
  Bi  Bi31  1  0.065259  0.994348  0.174154  1
