# generated using pymatgen
data_Hf4Re5Mo3
_symmetry_space_group_name_H-M   'P 1'
_cell_length_a   5.34238200
_cell_length_b   5.32254840
_cell_length_c   8.65682900
_cell_angle_alpha   90.00000000
_cell_angle_beta   90.00000000
_cell_angle_gamma   120.12333048
_symmetry_Int_Tables_number   1
_chemical_formula_structural   Hf4Re5Mo3
_chemical_formula_sum   'Hf4 Re5 Mo3'
_cell_volume   212.91338379
_cell_formula_units_Z   1
loop_
 _symmetry_equiv_pos_site_id
 _symmetry_equiv_pos_as_xyz
  1  'x, y, z'
loop_
 _atom_site_type_symbol
 _atom_site_label
 _atom_site_symmetry_multiplicity
 _atom_site_fract_x
 _atom_site_fract_y
 _atom_site_fract_z
 _atom_site_occupancy
  Hf  Hf0  1  0.333396  0.666794  0.061123  1
  Hf  Hf1  1  0.666643  0.333286  0.562513  1
  Hf  Hf2  1  0.666643  0.333286  0.937487  1
  Hf  Hf3  1  0.333396  0.666794  0.438877  1
  Re  Re4  1  0.170814  0.827125  0.750000  1
  Re  Re5  1  0.656311  0.827125  0.750000  1
  Re  Re6  1  0.342217  0.170042  0.250000  1
  Re  Re7  1  0.827824  0.170042  0.250000  1
  Re  Re8  1  0.171187  0.342374  0.750000  1
  Mo  Mo9  1  0.001061  0.002122  0.998478  1
  Mo  Mo10  1  0.001061  0.002122  0.501522  1
  Mo  Mo11  1  0.829445  0.658890  0.250000  1
