# generated using pymatgen
data_Dy6ZrTi(Co4P3)4
_symmetry_space_group_name_H-M   'P 1'
_cell_length_a   3.70490400
_cell_length_b   10.64525600
_cell_length_c   12.35330700
_cell_angle_alpha   90.00000000
_cell_angle_beta   90.00000000
_cell_angle_gamma   90.00000000
_symmetry_Int_Tables_number   1
_chemical_formula_structural   Dy6ZrTi(Co4P3)4
_chemical_formula_sum   'Dy6 Zr1 Ti1 Co16 P12'
_cell_volume   487.21012339
_cell_formula_units_Z   1
loop_
 _symmetry_equiv_pos_site_id
 _symmetry_equiv_pos_as_xyz
  1  'x, y, z'
loop_
 _atom_site_type_symbol
 _atom_site_label
 _atom_site_symmetry_multiplicity
 _atom_site_fract_x
 _atom_site_fract_y
 _atom_site_fract_z
 _atom_site_occupancy
  Dy  Dy0  1  0.000000  0.500000  0.529342  1
  Dy  Dy1  1  0.500000  0.000000  0.475231  1
  Dy  Dy2  1  0.500000  0.821861  0.204773  1
  Dy  Dy3  1  0.500000  0.178139  0.204773  1
  Dy  Dy4  1  0.000000  0.680609  0.795481  1
  Dy  Dy5  1  0.000000  0.319391  0.795481  1
  Zr  Zr6  1  0.500000  0.500000  0.156092  1
  Ti  Ti7  1  0.000000  0.000000  0.844512  1
  Co  Co8  1  0.500000  0.500000  0.702513  1
  Co  Co9  1  0.000000  0.000000  0.296982  1
  Co  Co10  1  0.000000  0.500000  0.984045  1
  Co  Co11  1  0.500000  0.000000  0.011577  1
  Co  Co12  1  0.500000  0.329336  0.989991  1
  Co  Co13  1  0.500000  0.670664  0.989991  1
  Co  Co14  1  0.000000  0.165023  0.003384  1
  Co  Co15  1  0.000000  0.834977  0.003384  1
  Co  Co16  1  0.500000  0.294334  0.434239  1
  Co  Co17  1  0.500000  0.705666  0.434239  1
  Co  Co18  1  0.000000  0.203352  0.568879  1
  Co  Co19  1  0.000000  0.796648  0.568879  1
  Co  Co20  1  0.500000  0.879037  0.705678  1
  Co  Co21  1  0.500000  0.120963  0.705678  1
  Co  Co22  1  0.000000  0.622797  0.298726  1
  Co  Co23  1  0.000000  0.377203  0.298726  1
  P  P24  1  0.500000  0.500000  0.882056  1
  P  P25  1  0.000000  0.000000  0.115986  1
  P  P26  1  0.500000  0.500000  0.362092  1
  P  P27  1  0.000000  0.000000  0.646259  1
  P  P28  1  0.500000  0.309228  0.616707  1
  P  P29  1  0.500000  0.690772  0.616707  1
  P  P30  1  0.000000  0.188819  0.385495  1
  P  P31  1  0.000000  0.811181  0.385495  1
  P  P32  1  0.500000  0.844507  0.890124  1
  P  P33  1  0.500000  0.155493  0.890124  1
  P  P34  1  0.000000  0.663532  0.103179  1
  P  P35  1  0.000000  0.336468  0.103179  1
