# generated using pymatgen
data_Tb4AlCuRu6
_symmetry_space_group_name_H-M   'P 1'
_cell_length_a   5.38584290
_cell_length_b   5.38584205
_cell_length_c   8.58108803
_cell_angle_alpha   90.00742322
_cell_angle_beta   89.99257288
_cell_angle_gamma   120.24083309
_symmetry_Int_Tables_number   1
_chemical_formula_structural   Tb4AlCuRu6
_chemical_formula_sum   'Tb4 Al1 Cu1 Ru6'
_cell_volume   215.04097040
_cell_formula_units_Z   1
loop_
 _symmetry_equiv_pos_site_id
 _symmetry_equiv_pos_as_xyz
  1  'x, y, z'
loop_
 _atom_site_type_symbol
 _atom_site_label
 _atom_site_symmetry_multiplicity
 _atom_site_fract_x
 _atom_site_fract_y
 _atom_site_fract_z
 _atom_site_occupancy
  Tb  Tb0  1  0.331798  0.668202  0.429736  1
  Tb  Tb1  1  0.664034  0.335966  0.571539  1
  Tb  Tb2  1  0.669343  0.330657  0.938359  1
  Tb  Tb3  1  0.335466  0.664534  0.063867  1
  Al  Al4  1  0.005446  0.994554  0.502364  1
  Cu  Cu5  1  0.831153  0.168847  0.251304  1
  Ru  Ru6  1  0.004801  0.995199  0.993956  1
  Ru  Ru7  1  0.821409  0.661396  0.252032  1
  Ru  Ru8  1  0.338604  0.178591  0.252032  1
  Ru  Ru9  1  0.170441  0.829559  0.753719  1
  Ru  Ru10  1  0.171728  0.344223  0.745547  1
  Ru  Ru11  1  0.655777  0.828272  0.745547  1
