# generated using pymatgen
data_Pb(SCl6)2
_symmetry_space_group_name_H-M   'P 1'
_cell_length_a   8.63432984
_cell_length_b   8.63432898
_cell_length_c   8.63433075
_cell_angle_alpha   79.36920738
_cell_angle_beta   79.36920979
_cell_angle_gamma   79.36921011
_symmetry_Int_Tables_number   1
_chemical_formula_structural   Pb(SCl6)2
_chemical_formula_sum   'Pb1 S2 Cl12'
_cell_volume   614.20875012
_cell_formula_units_Z   1
loop_
 _symmetry_equiv_pos_site_id
 _symmetry_equiv_pos_as_xyz
  1  'x, y, z'
loop_
 _atom_site_type_symbol
 _atom_site_label
 _atom_site_symmetry_multiplicity
 _atom_site_fract_x
 _atom_site_fract_y
 _atom_site_fract_z
 _atom_site_occupancy
  Pb  Pb0  1  0.000000  0.000000  0.000000  1
  S  S1  1  0.208014  0.208014  0.208014  1
  S  S2  1  0.791986  0.791986  0.791986  1
  Cl  Cl3  1  0.833261  0.833261  0.549104  1
  Cl  Cl4  1  0.868581  0.195381  0.195381  1
  Cl  Cl5  1  0.195381  0.195381  0.868581  1
  Cl  Cl6  1  0.195381  0.868581  0.195381  1
  Cl  Cl7  1  0.804619  0.131419  0.804619  1
  Cl  Cl8  1  0.131419  0.804619  0.804619  1
  Cl  Cl9  1  0.804619  0.804619  0.131419  1
  Cl  Cl10  1  0.450896  0.166739  0.166739  1
  Cl  Cl11  1  0.166739  0.166739  0.450896  1
  Cl  Cl12  1  0.166739  0.450896  0.166739  1
  Cl  Cl13  1  0.833261  0.549104  0.833261  1
  Cl  Cl14  1  0.549104  0.833261  0.833261  1
