# generated using pymatgen
data_TbSmPt10
_symmetry_space_group_name_H-M   'P 1'
_cell_length_a   4.46708200
_cell_length_b   5.38273900
_cell_length_c   9.30508500
_cell_angle_alpha   89.99998936
_cell_angle_beta   90.00000000
_cell_angle_gamma   90.00000000
_symmetry_Int_Tables_number   1
_chemical_formula_structural   TbSmPt10
_chemical_formula_sum   'Tb1 Sm1 Pt10'
_cell_volume   223.74203895
_cell_formula_units_Z   1
loop_
 _symmetry_equiv_pos_site_id
 _symmetry_equiv_pos_as_xyz
  1  'x, y, z'
loop_
 _atom_site_type_symbol
 _atom_site_label
 _atom_site_symmetry_multiplicity
 _atom_site_fract_x
 _atom_site_fract_y
 _atom_site_fract_z
 _atom_site_occupancy
  Tb  Tb0  1  0.000000  0.499975  0.500000  1
  Sm  Sm1  1  0.000000  0.999981  0.000000  1
  Pt  Pt2  1  0.000000  0.999970  0.334093  1
  Pt  Pt3  1  0.000000  0.499973  0.831873  1
  Pt  Pt4  1  0.000000  0.499973  0.168127  1
  Pt  Pt5  1  0.000000  0.999970  0.665907  1
  Pt  Pt6  1  0.500000  0.999998  0.500000  1
  Pt  Pt7  1  0.500000  0.500000  0.000000  1
  Pt  Pt8  1  0.500000  0.250791  0.251308  1
  Pt  Pt9  1  0.500000  0.749189  0.748696  1
  Pt  Pt10  1  0.500000  0.749189  0.251304  1
  Pt  Pt11  1  0.500000  0.250791  0.748692  1
