# generated using pymatgen
data_TbFe3B4Os
_symmetry_space_group_name_H-M   'P 1'
_cell_length_a   7.01475310
_cell_length_b   7.24252945
_cell_length_c   3.88072700
_cell_angle_alpha   90.00000000
_cell_angle_beta   90.00000000
_cell_angle_gamma   91.69511474
_symmetry_Int_Tables_number   1
_chemical_formula_structural   TbFe3B4Os
_chemical_formula_sum   'Tb2 Fe6 B8 Os2'
_cell_volume   197.07233230
_cell_formula_units_Z   2
loop_
 _symmetry_equiv_pos_site_id
 _symmetry_equiv_pos_as_xyz
  1  'x, y, z'
loop_
 _atom_site_type_symbol
 _atom_site_label
 _atom_site_symmetry_multiplicity
 _atom_site_fract_x
 _atom_site_fract_y
 _atom_site_fract_z
 _atom_site_occupancy
  Tb  Tb0  1  0.000000  0.000000  0.922107  1
  Tb  Tb1  1  0.500000  0.500000  0.417061  1
  Fe  Fe2  1  0.889987  0.347606  0.394596  1
  Fe  Fe3  1  0.110013  0.652394  0.394596  1
  Fe  Fe4  1  0.378723  0.112471  0.623136  1
  Fe  Fe5  1  0.621277  0.887529  0.623136  1
  Fe  Fe6  1  0.621820  0.122324  0.123815  1
  Fe  Fe7  1  0.378180  0.877676  0.123815  1
  B  B8  1  0.660115  0.817845  0.121511  1
  B  B9  1  0.339885  0.182155  0.121511  1
  B  B10  1  0.312467  0.833052  0.618831  1
  B  B11  1  0.687533  0.166948  0.618831  1
  B  B12  1  0.828474  0.730647  0.402486  1
  B  B13  1  0.171526  0.269353  0.402486  1
  B  B14  1  0.208780  0.672292  0.899381  1
  B  B15  1  0.791220  0.327708  0.899381  1
  Os  Os16  1  0.147911  0.387120  0.896660  1
  Os  Os17  1  0.852089  0.612880  0.896660  1
