# generated using pymatgen
data_Tm5In2(RuPb)2
_symmetry_space_group_name_H-M   'P 1'
_cell_length_a   3.54514400
_cell_length_b   8.09221400
_cell_length_c   18.32352800
_cell_angle_alpha   90.00000000
_cell_angle_beta   90.00000000
_cell_angle_gamma   90.00000000
_symmetry_Int_Tables_number   1
_chemical_formula_structural   Tm5In2(RuPb)2
_chemical_formula_sum   'Tm10 In4 Ru4 Pb4'
_cell_volume   525.66654230
_cell_formula_units_Z   2
loop_
 _symmetry_equiv_pos_site_id
 _symmetry_equiv_pos_as_xyz
  1  'x, y, z'
loop_
 _atom_site_type_symbol
 _atom_site_label
 _atom_site_symmetry_multiplicity
 _atom_site_fract_x
 _atom_site_fract_y
 _atom_site_fract_z
 _atom_site_occupancy
  Tm  Tm0  1  0.000000  0.500000  0.500000  1
  Tm  Tm1  1  0.000000  0.000000  0.000000  1
  Tm  Tm2  1  0.000000  0.741143  0.278401  1
  Tm  Tm3  1  0.000000  0.258857  0.721599  1
  Tm  Tm4  1  0.000000  0.758857  0.778401  1
  Tm  Tm5  1  0.000000  0.241143  0.221599  1
  Tm  Tm6  1  0.000000  0.621505  0.089395  1
  Tm  Tm7  1  0.000000  0.378495  0.910605  1
  Tm  Tm8  1  0.000000  0.878495  0.589395  1
  Tm  Tm9  1  0.000000  0.121505  0.410605  1
  In  In10  1  0.500000  0.578540  0.652598  1
  In  In11  1  0.500000  0.421460  0.347402  1
  In  In12  1  0.500000  0.921460  0.152598  1
  In  In13  1  0.500000  0.078540  0.847402  1
  Ru  Ru14  1  0.500000  0.523227  0.195761  1
  Ru  Ru15  1  0.500000  0.476773  0.804239  1
  Ru  Ru16  1  0.500000  0.976773  0.695761  1
  Ru  Ru17  1  0.500000  0.023227  0.304239  1
  Pb  Pb18  1  0.500000  0.704493  0.932669  1
  Pb  Pb19  1  0.500000  0.295507  0.067331  1
  Pb  Pb20  1  0.500000  0.795507  0.432669  1
  Pb  Pb21  1  0.500000  0.204493  0.567331  1
