# generated using pymatgen
data_Ce2DyAlC3
_symmetry_space_group_name_H-M   'P 1'
_cell_length_a   3.62034300
_cell_length_b   7.34048565
_cell_length_c   9.87706224
_cell_angle_alpha   88.59069040
_cell_angle_beta   90.00000000
_cell_angle_gamma   90.00000000
_symmetry_Int_Tables_number   1
_chemical_formula_structural   Ce2DyAlC3
_chemical_formula_sum   'Ce4 Dy2 Al2 C6'
_cell_volume   262.40427867
_cell_formula_units_Z   2
loop_
 _symmetry_equiv_pos_site_id
 _symmetry_equiv_pos_as_xyz
  1  'x, y, z'
loop_
 _atom_site_type_symbol
 _atom_site_label
 _atom_site_symmetry_multiplicity
 _atom_site_fract_x
 _atom_site_fract_y
 _atom_site_fract_z
 _atom_site_occupancy
  Ce  Ce0  1  0.500000  0.515713  0.193066  1
  Ce  Ce1  1  0.500000  0.484287  0.806934  1
  Ce  Ce2  1  0.000000  0.746352  0.469079  1
  Ce  Ce3  1  0.000000  0.253648  0.530921  1
  Dy  Dy4  1  0.500000  0.985794  0.197187  1
  Dy  Dy5  1  0.500000  0.014206  0.802813  1
  Al  Al6  1  0.000000  0.768608  0.002314  1
  Al  Al7  1  0.000000  0.231392  0.997686  1
  C  C8  1  0.500000  0.504941  0.568892  1
  C  C9  1  0.500000  0.495059  0.431108  1
  C  C10  1  0.500000  0.993944  0.567420  1
  C  C11  1  0.500000  0.006056  0.432580  1
  C  C12  1  0.000000  0.747946  0.209213  1
  C  C13  1  0.000000  0.252054  0.790787  1
