# generated using pymatgen
data_Rb3SmV2O8
_symmetry_space_group_name_H-M   'P 1'
_cell_length_a   6.15247800
_cell_length_b   6.15247729
_cell_length_c   8.05390600
_cell_angle_alpha   90.00000000
_cell_angle_beta   90.00000000
_cell_angle_gamma   119.99999307
_symmetry_Int_Tables_number   1
_chemical_formula_structural   Rb3SmV2O8
_chemical_formula_sum   'Rb3 Sm1 V2 O8'
_cell_volume   264.02029206
_cell_formula_units_Z   1
loop_
 _symmetry_equiv_pos_site_id
 _symmetry_equiv_pos_as_xyz
  1  'x, y, z'
loop_
 _atom_site_type_symbol
 _atom_site_label
 _atom_site_symmetry_multiplicity
 _atom_site_fract_x
 _atom_site_fract_y
 _atom_site_fract_z
 _atom_site_occupancy
  Rb  Rb0  1  0.333333  0.666667  0.701642  1
  Rb  Rb1  1  0.666667  0.333333  0.298358  1
  Rb  Rb2  1  0.000000  0.000000  0.000000  1
  Sm  Sm3  1  0.000000  0.000000  0.500000  1
  V  V4  1  0.333333  0.666667  0.254761  1
  V  V5  1  0.666667  0.333333  0.745239  1
  O  O6  1  0.333333  0.666667  0.045683  1
  O  O7  1  0.666667  0.333333  0.954317  1
  O  O8  1  0.177176  0.822824  0.329609  1
  O  O9  1  0.822824  0.177176  0.670391  1
  O  O10  1  0.177176  0.354352  0.329609  1
  O  O11  1  0.822824  0.645648  0.670391  1
  O  O12  1  0.645648  0.822824  0.329609  1
  O  O13  1  0.354352  0.177176  0.670391  1
