# generated using pymatgen
data_Y7Tm5InCo4Pt
_symmetry_space_group_name_H-M   'P 1'
_cell_length_a   8.29860043
_cell_length_b   8.29860055
_cell_length_c   8.28522661
_cell_angle_alpha   111.29270781
_cell_angle_beta   110.35411202
_cell_angle_gamma   106.86945419
_symmetry_Int_Tables_number   1
_chemical_formula_structural   Y7Tm5InCo4Pt
_chemical_formula_sum   'Y7 Tm5 In1 Co4 Pt1'
_cell_volume   438.13389991
_cell_formula_units_Z   1
loop_
 _symmetry_equiv_pos_site_id
 _symmetry_equiv_pos_as_xyz
  1  'x, y, z'
loop_
 _atom_site_type_symbol
 _atom_site_label
 _atom_site_symmetry_multiplicity
 _atom_site_fract_x
 _atom_site_fract_y
 _atom_site_fract_z
 _atom_site_occupancy
  Y  Y0  1  0.417982  0.218828  0.198238  1
  Y  Y1  1  0.583375  0.782240  0.802422  1
  Y  Y2  1  0.020181  0.219046  0.802422  1
  Y  Y3  1  0.979410  0.780256  0.198238  1
  Y  Y4  1  0.185441  0.288969  0.474410  1
  Y  Y5  1  0.813858  0.710547  0.524405  1
  Y  Y6  1  0.186204  0.710947  0.897152  1
  Tm  Tm7  1  0.815303  0.289337  0.104639  1
  Tm  Tm8  1  0.315620  0.623147  0.306810  1
  Tm  Tm9  1  0.683764  0.376287  0.693706  1
  Tm  Tm10  1  0.317420  0.009941  0.693706  1
  Tm  Tm11  1  0.683663  0.991191  0.306810  1
  In  In12  1  0.499988  0.499978  0.999966  1
  Co  Co13  1  0.381180  0.000075  0.381255  1
  Co  Co14  1  0.619034  0.000416  0.619451  1
  Co  Co15  1  0.110939  0.610867  0.497793  1
  Co  Co16  1  0.886926  0.386854  0.497793  1
  Pt  Pt17  1  0.999710  0.001074  0.000784  1
