# generated using pymatgen
data_Tb2Al4Ge2Ir
_symmetry_space_group_name_H-M   'P 1'
_cell_length_a   4.22800087
_cell_length_b   4.22800057
_cell_length_c   10.28535279
_cell_angle_alpha   101.92456792
_cell_angle_beta   101.92455461
_cell_angle_gamma   89.93100281
_symmetry_Int_Tables_number   1
_chemical_formula_structural   Tb2Al4Ge2Ir
_chemical_formula_sum   'Tb2 Al4 Ge2 Ir1'
_cell_volume   175.84585391
_cell_formula_units_Z   1
loop_
 _symmetry_equiv_pos_site_id
 _symmetry_equiv_pos_as_xyz
  1  'x, y, z'
loop_
 _atom_site_type_symbol
 _atom_site_label
 _atom_site_symmetry_multiplicity
 _atom_site_fract_x
 _atom_site_fract_y
 _atom_site_fract_z
 _atom_site_occupancy
  Tb  Tb0  1  0.184195  0.184195  0.368715  1
  Tb  Tb1  1  0.815806  0.815806  0.631285  1
  Al  Al2  1  0.569183  0.068781  0.137810  1
  Al  Al3  1  0.068781  0.569183  0.137810  1
  Al  Al4  1  0.931219  0.430817  0.862190  1
  Al  Al5  1  0.430817  0.931219  0.862190  1
  Ge  Ge6  1  0.663774  0.663774  0.327791  1
  Ge  Ge7  1  0.336229  0.336229  0.672211  1
  Ir  Ir8  1  0.000000  0.000000  0.000000  1
