# generated using pymatgen
data_Li2ErTmIn4
_symmetry_space_group_name_H-M   'P 1'
_cell_length_a   6.25149207
_cell_length_b   6.25149105
_cell_length_c   9.94804100
_cell_angle_alpha   90.00000000
_cell_angle_beta   90.00000000
_cell_angle_gamma   104.25911710
_symmetry_Int_Tables_number   1
_chemical_formula_structural   Li2ErTmIn4
_chemical_formula_sum   'Li4 Er2 Tm2 In8'
_cell_volume   376.80318425
_cell_formula_units_Z   2
loop_
 _symmetry_equiv_pos_site_id
 _symmetry_equiv_pos_as_xyz
  1  'x, y, z'
loop_
 _atom_site_type_symbol
 _atom_site_label
 _atom_site_symmetry_multiplicity
 _atom_site_fract_x
 _atom_site_fract_y
 _atom_site_fract_z
 _atom_site_occupancy
  Li  Li0  1  0.249174  0.750826  0.500000  1
  Li  Li1  1  0.249174  0.750826  0.000000  1
  Li  Li2  1  0.750826  0.249174  0.500000  1
  Li  Li3  1  0.750826  0.249174  0.000000  1
  Er  Er4  1  0.510718  0.510718  0.250000  1
  Er  Er5  1  0.489282  0.489282  0.750000  1
  Tm  Tm6  1  0.990163  0.990163  0.250000  1
  Tm  Tm7  1  0.009837  0.009837  0.750000  1
  In  In8  1  0.249373  0.249373  0.006160  1
  In  In9  1  0.750627  0.750627  0.993840  1
  In  In10  1  0.249373  0.249373  0.493840  1
  In  In11  1  0.750627  0.750627  0.506160  1
  In  In12  1  0.494445  0.006644  0.250000  1
  In  In13  1  0.993356  0.505555  0.750000  1
  In  In14  1  0.505555  0.993356  0.750000  1
  In  In15  1  0.006644  0.494445  0.250000  1
