# generated using pymatgen
data_Ba10Si17P
_symmetry_space_group_name_H-M   'P 1'
_cell_length_a   6.54287760
_cell_length_b   6.54287782
_cell_length_c   17.81585345
_cell_angle_alpha   81.64152302
_cell_angle_beta   81.64151275
_cell_angle_gamma   100.72797729
_symmetry_Int_Tables_number   1
_chemical_formula_structural   Ba10Si17P
_chemical_formula_sum   'Ba10 Si17 P1'
_cell_volume   729.63717663
_cell_formula_units_Z   1
loop_
 _symmetry_equiv_pos_site_id
 _symmetry_equiv_pos_as_xyz
  1  'x, y, z'
loop_
 _atom_site_type_symbol
 _atom_site_label
 _atom_site_symmetry_multiplicity
 _atom_site_fract_x
 _atom_site_fract_y
 _atom_site_fract_z
 _atom_site_occupancy
  Ba  Ba0  1  0.747419  0.252303  0.998923  1
  Ba  Ba1  1  0.111163  0.581774  0.791758  1
  Ba  Ba2  1  0.289518  0.710464  0.500145  1
  Ba  Ba3  1  0.760082  0.760082  0.646064  1
  Ba  Ba4  1  0.241851  0.241851  0.351986  1
  Ba  Ba5  1  0.581774  0.111163  0.791758  1
  Ba  Ba6  1  0.252303  0.747419  0.998923  1
  Ba  Ba7  1  0.710464  0.289518  0.500145  1
  Ba  Ba8  1  0.419650  0.890884  0.208953  1
  Ba  Ba9  1  0.890884  0.419650  0.208953  1
  Si  Si10  1  0.223788  0.223788  0.068943  1
  Si  Si11  1  0.923739  0.923739  0.262741  1
  Si  Si12  1  0.075579  0.075579  0.735698  1
  Si  Si13  1  0.777691  0.777691  0.931012  1
  Si  Si14  1  0.352436  0.352436  0.648065  1
  Si  Si15  1  0.287351  0.287351  0.932307  1
  Si  Si16  1  0.938522  0.938522  0.128796  1
  Si  Si17  1  0.648416  0.648416  0.352430  1
  Si  Si18  1  0.427882  0.427882  0.142129  1
  Si  Si19  1  0.061162  0.061162  0.868198  1
  Si  Si20  1  0.819286  0.819286  0.449949  1
  Si  Si21  1  0.332319  0.968469  0.644073  1
  Si  Si22  1  0.669802  0.031524  0.356405  1
  Si  Si23  1  0.181562  0.181562  0.550255  1
  Si  Si24  1  0.968469  0.332319  0.644073  1
  Si  Si25  1  0.031524  0.669802  0.356405  1
  Si  Si26  1  0.707172  0.707172  0.067575  1
  P  P27  1  0.568193  0.568193  0.863338  1
