# generated using pymatgen
data_Li4YbPr3(Si2Sn)2
_symmetry_space_group_name_H-M   'P 1'
_cell_length_a   9.81183635
_cell_length_b   9.81183742
_cell_length_c   6.91840500
_cell_angle_alpha   90.00000000
_cell_angle_beta   90.00000000
_cell_angle_gamma   153.11708802
_symmetry_Int_Tables_number   1
_chemical_formula_structural   Li4YbPr3(Si2Sn)2
_chemical_formula_sum   'Li4 Yb1 Pr3 Si4 Sn2'
_cell_volume   301.16682792
_cell_formula_units_Z   1
loop_
 _symmetry_equiv_pos_site_id
 _symmetry_equiv_pos_as_xyz
  1  'x, y, z'
loop_
 _atom_site_type_symbol
 _atom_site_label
 _atom_site_symmetry_multiplicity
 _atom_site_fract_x
 _atom_site_fract_y
 _atom_site_fract_z
 _atom_site_occupancy
  Li  Li0  1  0.816535  0.183465  0.555747  1
  Li  Li1  1  0.183248  0.816752  0.443979  1
  Li  Li2  1  0.183248  0.816752  0.056021  1
  Li  Li3  1  0.816535  0.183465  0.944253  1
  Yb  Yb4  1  0.547902  0.452098  0.250000  1
  Pr  Pr5  1  0.453187  0.546813  0.750000  1
  Pr  Pr6  1  0.348988  0.651012  0.250000  1
  Pr  Pr7  1  0.651835  0.348165  0.750000  1
  Si  Si8  1  0.943495  0.056505  0.075786  1
  Si  Si9  1  0.055809  0.944191  0.922534  1
  Si  Si10  1  0.055809  0.944191  0.577466  1
  Si  Si11  1  0.943495  0.056505  0.424214  1
  Sn  Sn12  1  0.718761  0.281239  0.250000  1
  Sn  Sn13  1  0.281151  0.718849  0.750000  1
