# generated using pymatgen
data_CaDy3Tm2(Si3Ru)8
_symmetry_space_group_name_H-M   'P 1'
_cell_length_a   10.13303855
_cell_length_b   10.13303853
_cell_length_c   8.14269104
_cell_angle_alpha   89.89247758
_cell_angle_beta   90.10752989
_cell_angle_gamma   132.61643063
_symmetry_Int_Tables_number   1
_chemical_formula_structural   CaDy3Tm2(Si3Ru)8
_chemical_formula_sum   'Ca1 Dy3 Tm2 Si24 Ru8'
_cell_volume   615.27175340
_cell_formula_units_Z   1
loop_
 _symmetry_equiv_pos_site_id
 _symmetry_equiv_pos_as_xyz
  1  'x, y, z'
loop_
 _atom_site_type_symbol
 _atom_site_label
 _atom_site_symmetry_multiplicity
 _atom_site_fract_x
 _atom_site_fract_y
 _atom_site_fract_z
 _atom_site_occupancy
  Ca  Ca0  1  0.501746  0.001746  0.750000  1
  Dy  Dy1  1  0.998785  0.498785  0.250000  1
  Dy  Dy2  1  0.496835  0.996835  0.250000  1
  Dy  Dy3  1  0.002770  0.502770  0.750000  1
  Tm  Tm4  1  0.500209  0.500442  0.500705  1
  Tm  Tm5  1  0.000442  0.000209  0.999295  1
  Si  Si6  1  0.793736  0.204279  0.500161  1
  Si  Si7  1  0.295145  0.706106  0.998655  1
  Si  Si8  1  0.206106  0.795145  0.501345  1
  Si  Si9  1  0.704279  0.293736  0.999839  1
  Si  Si10  1  0.332215  0.333828  0.832915  1
  Si  Si11  1  0.667178  0.669025  0.167127  1
  Si  Si12  1  0.169025  0.167178  0.332873  1
  Si  Si13  1  0.833828  0.832215  0.667085  1
  Si  Si14  1  0.119464  0.885142  0.728387  1
  Si  Si15  1  0.111608  0.878182  0.272471  1
  Si  Si16  1  0.611639  0.378537  0.228570  1
  Si  Si17  1  0.624516  0.390958  0.771526  1
  Si  Si18  1  0.878537  0.111639  0.271430  1
  Si  Si19  1  0.890958  0.124516  0.728474  1
  Si  Si20  1  0.385142  0.619464  0.771613  1
  Si  Si21  1  0.378182  0.611608  0.227529  1
  Si  Si22  1  0.344710  0.111574  0.501511  1
  Si  Si23  1  0.888228  0.655257  0.495340  1
  Si  Si24  1  0.387775  0.154487  0.006869  1
  Si  Si25  1  0.844226  0.611864  0.995123  1
  Si  Si26  1  0.654487  0.887775  0.493131  1
  Si  Si27  1  0.111864  0.344226  0.504877  1
  Si  Si28  1  0.611574  0.844710  0.998489  1
  Si  Si29  1  0.155257  0.388228  0.004660  1
  Ru  Ru30  1  0.670074  0.331624  0.499211  1
  Ru  Ru31  1  0.166959  0.829357  0.002182  1
  Ru  Ru32  1  0.329357  0.666959  0.497818  1
  Ru  Ru33  1  0.831624  0.170074  0.000789  1
  Ru  Ru34  1  0.127182  0.126493  0.627230  1
  Ru  Ru35  1  0.873754  0.874093  0.373053  1
  Ru  Ru36  1  0.374093  0.373754  0.126947  1
  Ru  Ru37  1  0.626493  0.627182  0.872770  1
