# generated using pymatgen
data_HoTh6Co2Tc
_symmetry_space_group_name_H-M   'P 1'
_cell_length_a   9.82872339
_cell_length_b   9.82315277
_cell_length_c   6.19571893
_cell_angle_alpha   90.38094833
_cell_angle_beta   89.23851824
_cell_angle_gamma   120.01875088
_symmetry_Int_Tables_number   1
_chemical_formula_structural   HoTh6Co2Tc
_chemical_formula_sum   'Ho2 Th12 Co4 Tc2'
_cell_volume   517.90476198
_cell_formula_units_Z   2
loop_
 _symmetry_equiv_pos_site_id
 _symmetry_equiv_pos_as_xyz
  1  'x, y, z'
loop_
 _atom_site_type_symbol
 _atom_site_label
 _atom_site_symmetry_multiplicity
 _atom_site_fract_x
 _atom_site_fract_y
 _atom_site_fract_z
 _atom_site_occupancy
  Ho  Ho0  1  0.328261  0.663697  0.046520  1
  Ho  Ho1  1  0.664565  0.336303  0.546520  1
  Th  Th2  1  0.129170  0.871204  0.239334  1
  Th  Th3  1  0.257966  0.128796  0.739334  1
  Th  Th4  1  0.878317  0.748151  0.742777  1
  Th  Th5  1  0.130166  0.251849  0.242777  1
  Th  Th6  1  0.751643  0.871750  0.250391  1
  Th  Th7  1  0.879892  0.128250  0.750391  1
  Th  Th8  1  0.543050  0.461342  0.061911  1
  Th  Th9  1  0.081707  0.538658  0.561911  1
  Th  Th10  1  0.455125  0.916525  0.559316  1
  Th  Th11  1  0.538601  0.083475  0.059316  1
  Th  Th12  1  0.913291  0.462072  0.061344  1
  Th  Th13  1  0.451217  0.537928  0.561344  1
  Co  Co14  1  0.181927  0.364181  0.785976  1
  Co  Co15  1  0.817745  0.635819  0.285976  1
  Co  Co16  1  0.365813  0.185903  0.286201  1
  Co  Co17  1  0.179911  0.814097  0.786201  1
  Tc  Tc18  1  0.819605  0.187577  0.296227  1
  Tc  Tc19  1  0.632029  0.812423  0.796227  1
