# generated using pymatgen
data_HfMgSc(Co3B2)3
_symmetry_space_group_name_H-M   'P 1'
_cell_length_a   5.67454830
_cell_length_b   5.67454896
_cell_length_c   5.67454744
_cell_angle_alpha   95.28340198
_cell_angle_beta   95.28341081
_cell_angle_gamma   95.28341105
_symmetry_Int_Tables_number   1
_chemical_formula_structural   HfMgSc(Co3B2)3
_chemical_formula_sum   'Hf1 Mg1 Sc1 Co9 B6'
_cell_volume   180.23972896
_cell_formula_units_Z   1
loop_
 _symmetry_equiv_pos_site_id
 _symmetry_equiv_pos_as_xyz
  1  'x, y, z'
loop_
 _atom_site_type_symbol
 _atom_site_label
 _atom_site_symmetry_multiplicity
 _atom_site_fract_x
 _atom_site_fract_y
 _atom_site_fract_z
 _atom_site_occupancy
  Hf  Hf0  1  0.325382  0.325382  0.325382  1
  Mg  Mg1  1  0.998172  0.998172  0.998172  1
  Sc  Sc2  1  0.675336  0.675336  0.675336  1
  Co  Co3  1  0.497931  0.000269  0.000269  1
  Co  Co4  1  0.000269  0.497931  0.000269  1
  Co  Co5  1  0.000269  0.000269  0.497931  1
  Co  Co6  1  0.700629  0.201491  0.700629  1
  Co  Co7  1  0.700629  0.700629  0.201491  1
  Co  Co8  1  0.201491  0.700629  0.700629  1
  Co  Co9  1  0.299135  0.799930  0.299135  1
  Co  Co10  1  0.299135  0.299135  0.799930  1
  Co  Co11  1  0.799930  0.299135  0.299135  1
  B  B12  1  0.383818  0.000151  0.616877  1
  B  B13  1  0.616877  0.383818  0.000151  1
  B  B14  1  0.000151  0.616877  0.383818  1
  B  B15  1  0.616877  0.000151  0.383818  1
  B  B16  1  0.383818  0.616877  0.000151  1
  B  B17  1  0.000151  0.383818  0.616877  1
