# generated using pymatgen
data_Sc12In2Fe2Ir
_symmetry_space_group_name_H-M   'P 1'
_cell_length_a   7.82641483
_cell_length_b   7.82641503
_cell_length_c   7.82641553
_cell_angle_alpha   108.60135638
_cell_angle_beta   108.60135349
_cell_angle_gamma   111.22531987
_symmetry_Int_Tables_number   1
_chemical_formula_structural   Sc12In2Fe2Ir
_chemical_formula_sum   'Sc12 In2 Fe2 Ir1'
_cell_volume   368.77401139
_cell_formula_units_Z   1
loop_
 _symmetry_equiv_pos_site_id
 _symmetry_equiv_pos_as_xyz
  1  'x, y, z'
loop_
 _atom_site_type_symbol
 _atom_site_label
 _atom_site_symmetry_multiplicity
 _atom_site_fract_x
 _atom_site_fract_y
 _atom_site_fract_z
 _atom_site_occupancy
  Sc  Sc0  1  0.196912  0.434974  0.238062  1
  Sc  Sc1  1  0.803088  0.565026  0.761938  1
  Sc  Sc2  1  0.196912  0.958851  0.761938  1
  Sc  Sc3  1  0.958851  0.196912  0.761938  1
  Sc  Sc4  1  0.803088  0.041149  0.238062  1
  Sc  Sc5  1  0.041149  0.803088  0.238062  1
  Sc  Sc6  1  0.434974  0.196912  0.238062  1
  Sc  Sc7  1  0.565026  0.803088  0.761938  1
  Sc  Sc8  1  0.305514  0.305514  0.611030  1
  Sc  Sc9  1  0.694486  0.694486  0.388970  1
  Sc  Sc10  1  0.694486  0.305514  0.000000  1
  Sc  Sc11  1  0.305514  0.694486  0.000000  1
  In  In12  1  0.000000  0.500000  0.500000  1
  In  In13  1  0.500000  0.000000  0.500000  1
  Fe  Fe14  1  0.379710  0.379710  0.000000  1
  Fe  Fe15  1  0.620290  0.620290  0.000000  1
  Ir  Ir16  1  0.000000  0.000000  0.000000  1
