# generated using pymatgen
data_Dy4Sn10IrRh5
_symmetry_space_group_name_H-M   'P 1'
_cell_length_a   4.40748914
_cell_length_b   7.34656803
_cell_length_c   13.44245020
_cell_angle_alpha   89.98950363
_cell_angle_beta   80.56438904
_cell_angle_gamma   90.00000125
_symmetry_Int_Tables_number   1
_chemical_formula_structural   Dy4Sn10IrRh5
_chemical_formula_sum   'Dy4 Sn10 Ir1 Rh5'
_cell_volume   429.37649701
_cell_formula_units_Z   1
loop_
 _symmetry_equiv_pos_site_id
 _symmetry_equiv_pos_as_xyz
  1  'x, y, z'
loop_
 _atom_site_type_symbol
 _atom_site_label
 _atom_site_symmetry_multiplicity
 _atom_site_fract_x
 _atom_site_fract_y
 _atom_site_fract_z
 _atom_site_occupancy
  Dy  Dy0  1  0.475390  0.740279  0.049220  1
  Dy  Dy1  1  0.826964  0.256294  0.346073  1
  Dy  Dy2  1  0.173575  0.756383  0.652849  1
  Dy  Dy3  1  0.523365  0.233205  0.953270  1
  Sn  Sn4  1  0.952374  0.397727  0.095251  1
  Sn  Sn5  1  0.403079  0.115206  0.193841  1
  Sn  Sn6  1  0.880806  0.730179  0.238388  1
  Sn  Sn7  1  0.295090  0.549921  0.409820  1
  Sn  Sn8  1  0.290898  0.978378  0.418204  1
  Sn  Sn9  1  0.708935  0.477918  0.582129  1
  Sn  Sn10  1  0.704959  0.050433  0.590081  1
  Sn  Sn11  1  0.119262  0.230014  0.761476  1
  Sn  Sn12  1  0.596252  0.614077  0.807496  1
  Sn  Sn13  1  0.048007  0.895048  0.903987  1
  Ir  Ir14  1  0.950486  0.018903  0.099028  1
  Rh  Rh15  1  0.393922  0.482073  0.212156  1
  Rh  Rh16  1  0.776716  0.765007  0.446568  1
  Rh  Rh17  1  0.223305  0.265285  0.553390  1
  Rh  Rh18  1  0.605938  0.981601  0.788125  1
  Rh  Rh19  1  0.050676  0.518066  0.898649  1
