# generated using pymatgen
data_Zr6BeZn22Au
_symmetry_space_group_name_H-M   'P 1'
_cell_length_a   8.75979601
_cell_length_b   8.75987999
_cell_length_c   8.75988900
_cell_angle_alpha   120.00068732
_cell_angle_beta   89.99749489
_cell_angle_gamma   120.00079685
_symmetry_Int_Tables_number   1
_chemical_formula_structural   Zr6BeZn22Au
_chemical_formula_sum   'Zr6 Be1 Zn22 Au1'
_cell_volume   475.30841754
_cell_formula_units_Z   1
loop_
 _symmetry_equiv_pos_site_id
 _symmetry_equiv_pos_as_xyz
  1  'x, y, z'
loop_
 _atom_site_type_symbol
 _atom_site_label
 _atom_site_symmetry_multiplicity
 _atom_site_fract_x
 _atom_site_fract_y
 _atom_site_fract_z
 _atom_site_occupancy
  Zr  Zr0  1  0.295887  0.999997  0.295889  1
  Zr  Zr1  1  0.704128  0.999990  0.295865  1
  Zr  Zr2  1  0.295879  0.591752  0.295871  1
  Zr  Zr3  1  0.295872  0.000010  0.704135  1
  Zr  Zr4  1  0.704113  0.000003  0.704111  1
  Zr  Zr5  1  0.704121  0.408248  0.704129  1
  Be  Be6  1  0.500000  0.000000  0.500000  1
  Zn  Zn7  1  0.499999  0.000000  0.000000  1
  Zn  Zn8  1  0.000000  0.499999  0.000000  1
  Zn  Zn9  1  0.499999  0.499999  0.000000  1
  Zn  Zn10  1  0.336939  0.673837  0.010754  1
  Zn  Zn11  1  0.373098  0.248731  0.124363  1
  Zn  Zn12  1  0.875636  0.248735  0.124367  1
  Zn  Zn13  1  0.875632  0.751264  0.124362  1
  Zn  Zn14  1  0.663099  0.326162  0.336920  1
  Zn  Zn15  1  0.010757  0.673842  0.336942  1
  Zn  Zn16  1  0.663083  0.673842  0.336904  1
  Zn  Zn17  1  0.124362  0.248729  0.373093  1
  Zn  Zn18  1  0.000000  0.000000  0.499999  1
  Zn  Zn19  1  0.000000  0.499999  0.499999  1
  Zn  Zn20  1  0.499999  0.499999  0.499999  1
  Zn  Zn21  1  0.875638  0.751271  0.626907  1
  Zn  Zn22  1  0.336901  0.673838  0.663080  1
  Zn  Zn23  1  0.336917  0.326158  0.663096  1
  Zn  Zn24  1  0.989243  0.326158  0.663058  1
  Zn  Zn25  1  0.124368  0.248736  0.875638  1
  Zn  Zn26  1  0.124364  0.751265  0.875633  1
  Zn  Zn27  1  0.626902  0.751269  0.875637  1
  Zn  Zn28  1  0.663061  0.326163  0.989246  1
  Au  Au29  1  0.000000  0.000000  0.000000  1
