# generated using pymatgen
data_PrNdTm2(Zn5Sn)2
_symmetry_space_group_name_H-M   'P 1'
_cell_length_a   8.44536436
_cell_length_b   8.44536477
_cell_length_c   9.02878739
_cell_angle_alpha   90.03242939
_cell_angle_beta   89.96757211
_cell_angle_gamma   149.78551619
_symmetry_Int_Tables_number   1
_chemical_formula_structural   PrNdTm2(Zn5Sn)2
_chemical_formula_sum   'Pr1 Nd1 Tm2 Zn10 Sn2'
_cell_volume   324.07082681
_cell_formula_units_Z   1
loop_
 _symmetry_equiv_pos_site_id
 _symmetry_equiv_pos_as_xyz
  1  'x, y, z'
loop_
 _atom_site_type_symbol
 _atom_site_label
 _atom_site_symmetry_multiplicity
 _atom_site_fract_x
 _atom_site_fract_y
 _atom_site_fract_z
 _atom_site_occupancy
  Pr  Pr0  1  0.000000  0.000000  0.000000  1
  Nd  Nd1  1  0.000000  0.000000  0.500000  1
  Tm  Tm2  1  0.204946  0.795054  0.250025  1
  Tm  Tm3  1  0.795054  0.204946  0.749975  1
  Zn  Zn4  1  0.811611  0.188389  0.390029  1
  Zn  Zn5  1  0.188389  0.811611  0.609971  1
  Zn  Zn6  1  0.811547  0.188453  0.109950  1
  Zn  Zn7  1  0.188453  0.811547  0.890050  1
  Zn  Zn8  1  0.658841  0.341159  0.482070  1
  Zn  Zn9  1  0.341159  0.658841  0.517930  1
  Zn  Zn10  1  0.658893  0.341107  0.017953  1
  Zn  Zn11  1  0.341107  0.658893  0.982047  1
  Zn  Zn12  1  0.393267  0.606733  0.250041  1
  Zn  Zn13  1  0.606733  0.393267  0.749959  1
  Sn  Sn14  1  0.557267  0.442733  0.250273  1
  Sn  Sn15  1  0.442733  0.557267  0.749727  1
