# generated using pymatgen
data_Yb3SmTm4(B6Ru)4
_symmetry_space_group_name_H-M   'P 1'
_cell_length_a   3.63987600
_cell_length_b   9.11023651
_cell_length_c   11.50723000
_cell_angle_alpha   89.94345649
_cell_angle_beta   90.00000000
_cell_angle_gamma   90.00000000
_symmetry_Int_Tables_number   1
_chemical_formula_structural   Yb3SmTm4(B6Ru)4
_chemical_formula_sum   'Yb3 Sm1 Tm4 B24 Ru4'
_cell_volume   381.58107123
_cell_formula_units_Z   1
loop_
 _symmetry_equiv_pos_site_id
 _symmetry_equiv_pos_as_xyz
  1  'x, y, z'
loop_
 _atom_site_type_symbol
 _atom_site_label
 _atom_site_symmetry_multiplicity
 _atom_site_fract_x
 _atom_site_fract_y
 _atom_site_fract_z
 _atom_site_occupancy
  Yb  Yb0  1  0.000000  0.324969  0.414679  1
  Yb  Yb1  1  0.000000  0.675103  0.584482  1
  Yb  Yb2  1  0.000000  0.823332  0.086165  1
  Sm  Sm3  1  0.000000  0.176011  0.915124  1
  Tm  Tm4  1  0.000000  0.940723  0.366723  1
  Tm  Tm5  1  0.000000  0.057980  0.631200  1
  Tm  Tm6  1  0.000000  0.443337  0.133731  1
  Tm  Tm7  1  0.000000  0.558969  0.867505  1
  B  B8  1  0.500000  0.553702  0.432609  1
  B  B9  1  0.500000  0.446188  0.567716  1
  B  B10  1  0.500000  0.053569  0.068562  1
  B  B11  1  0.500000  0.944327  0.932631  1
  B  B12  1  0.500000  0.748807  0.417241  1
  B  B13  1  0.500000  0.251081  0.582281  1
  B  B14  1  0.500000  0.249664  0.083947  1
  B  B15  1  0.500000  0.750742  0.917561  1
  B  B16  1  0.500000  0.790884  0.264395  1
  B  B17  1  0.500000  0.209221  0.734637  1
  B  B18  1  0.500000  0.291359  0.235979  1
  B  B19  1  0.500000  0.709403  0.764401  1
  B  B20  1  0.500000  0.630676  0.185780  1
  B  B21  1  0.500000  0.370482  0.814264  1
  B  B22  1  0.500000  0.130534  0.314355  1
  B  B23  1  0.500000  0.869154  0.684582  1
  B  B24  1  0.500000  0.982778  0.211409  1
  B  B25  1  0.500000  0.015480  0.787632  1
  B  B26  1  0.500000  0.483737  0.289254  1
  B  B27  1  0.500000  0.516826  0.711269  1
  B  B28  1  0.500000  0.598191  0.027125  1
  B  B29  1  0.500000  0.403429  0.973658  1
  B  B30  1  0.500000  0.096267  0.472903  1
  B  B31  1  0.500000  0.903157  0.525895  1
  Ru  Ru32  1  0.000000  0.639492  0.319758  1
  Ru  Ru33  1  0.000000  0.360056  0.680831  1
  Ru  Ru34  1  0.000000  0.139136  0.180710  1
  Ru  Ru35  1  0.000000  0.861237  0.819003  1
