# generated using pymatgen
data_RbNiPdF5
_symmetry_space_group_name_H-M   'P 1'
_cell_length_a   7.27741661
_cell_length_b   7.27751927
_cell_length_c   7.27725865
_cell_angle_alpha   127.90208142
_cell_angle_beta   118.05968060
_cell_angle_gamma   85.14209307
_symmetry_Int_Tables_number   1
_chemical_formula_structural   RbNiPdF5
_chemical_formula_sum   'Rb2 Ni2 Pd2 F10'
_cell_volume   256.56056345
_cell_formula_units_Z   2
loop_
 _symmetry_equiv_pos_site_id
 _symmetry_equiv_pos_as_xyz
  1  'x, y, z'
loop_
 _atom_site_type_symbol
 _atom_site_label
 _atom_site_symmetry_multiplicity
 _atom_site_fract_x
 _atom_site_fract_y
 _atom_site_fract_z
 _atom_site_occupancy
  Rb  Rb0  1  0.867027  0.617012  0.249985  1
  Rb  Rb1  1  0.132973  0.382988  0.750015  1
  Ni  Ni2  1  0.000000  0.000000  0.000000  1
  Ni  Ni3  1  0.500000  0.000000  0.500000  1
  Pd  Pd4  1  0.500000  0.000000  0.000000  1
  Pd  Pd5  1  0.500000  0.500000  0.500000  1
  F  F6  1  0.438718  0.641161  0.319531  1
  F  F7  1  0.561274  0.880715  0.202367  1
  F  F8  1  0.178359  0.358858  0.297609  1
  F  F9  1  0.821649  0.119223  0.180526  1
  F  F10  1  0.561282  0.358839  0.680469  1
  F  F11  1  0.438726  0.119285  0.797633  1
  F  F12  1  0.821847  0.071892  0.750047  1
  F  F13  1  0.178153  0.928108  0.249953  1
  F  F14  1  0.178351  0.880777  0.819474  1
  F  F15  1  0.821641  0.641142  0.702391  1
