# generated using pymatgen
data_Tm3CdNi(SnPt)2
_symmetry_space_group_name_H-M   'P 1'
_cell_length_a   7.55091447
_cell_length_b   7.56514323
_cell_length_c   3.77586900
_cell_angle_alpha   90.00000000
_cell_angle_beta   90.00000000
_cell_angle_gamma   120.06236095
_symmetry_Int_Tables_number   1
_chemical_formula_structural   Tm3CdNi(SnPt)2
_chemical_formula_sum   'Tm3 Cd1 Ni1 Sn2 Pt2'
_cell_volume   186.67708330
_cell_formula_units_Z   1
loop_
 _symmetry_equiv_pos_site_id
 _symmetry_equiv_pos_as_xyz
  1  'x, y, z'
loop_
 _atom_site_type_symbol
 _atom_site_label
 _atom_site_symmetry_multiplicity
 _atom_site_fract_x
 _atom_site_fract_y
 _atom_site_fract_z
 _atom_site_occupancy
  Tm  Tm0  1  0.000000  0.413232  0.000000  1
  Tm  Tm1  1  0.597803  0.591780  0.000000  1
  Tm  Tm2  1  0.402197  0.993977  0.000000  1
  Cd  Cd3  1  0.000000  0.750136  0.500000  1
  Ni  Ni4  1  0.000000  0.013954  0.000000  1
  Sn  Sn5  1  0.248167  0.246433  0.500000  1
  Sn  Sn6  1  0.751833  0.998266  0.500000  1
  Pt  Pt7  1  0.336602  0.664412  0.500000  1
  Pt  Pt8  1  0.663398  0.327808  0.500000  1
