# generated using pymatgen
data_Lu5Hf3(Ta3Si4)4
_symmetry_space_group_name_H-M   'P 1'
_cell_length_a   6.73460993
_cell_length_b   6.91611989
_cell_length_c   13.20354766
_cell_angle_alpha   89.89880356
_cell_angle_beta   89.93186883
_cell_angle_gamma   89.95418199
_symmetry_Int_Tables_number   1
_chemical_formula_structural   Lu5Hf3(Ta3Si4)4
_chemical_formula_sum   'Lu5 Hf3 Ta12 Si16'
_cell_volume   614.98493096
_cell_formula_units_Z   1
loop_
 _symmetry_equiv_pos_site_id
 _symmetry_equiv_pos_as_xyz
  1  'x, y, z'
loop_
 _atom_site_type_symbol
 _atom_site_label
 _atom_site_symmetry_multiplicity
 _atom_site_fract_x
 _atom_site_fract_y
 _atom_site_fract_z
 _atom_site_occupancy
  Lu  Lu0  1  0.000341  0.172388  0.405309  1
  Lu  Lu1  1  0.500561  0.328989  0.406616  1
  Lu  Lu2  1  0.001600  0.171724  0.093284  1
  Lu  Lu3  1  0.497523  0.672216  0.906876  1
  Lu  Lu4  1  0.998504  0.827046  0.594070  1
  Hf  Hf5  1  0.498463  0.674778  0.597550  1
  Hf  Hf6  1  0.997930  0.825595  0.903324  1
  Hf  Hf7  1  0.501452  0.326276  0.096215  1
  Ta  Ta8  1  0.662732  0.172420  0.624915  1
  Ta  Ta9  1  0.162789  0.327803  0.875451  1
  Ta  Ta10  1  0.337696  0.826516  0.123761  1
  Ta  Ta11  1  0.836394  0.672145  0.374625  1
  Ta  Ta12  1  0.339008  0.824985  0.375212  1
  Ta  Ta13  1  0.837080  0.672674  0.122931  1
  Ta  Ta14  1  0.663148  0.172827  0.875941  1
  Ta  Ta15  1  0.164885  0.329490  0.625241  1
  Ta  Ta16  1  0.837465  0.494739  0.751361  1
  Ta  Ta17  1  0.337704  0.006003  0.749888  1
  Ta  Ta18  1  0.163816  0.506985  0.248879  1
  Ta  Ta19  1  0.662198  0.993486  0.247963  1
  Si  Si20  1  0.666151  0.961380  0.461329  1
  Si  Si21  1  0.170855  0.535628  0.038989  1
  Si  Si22  1  0.328664  0.036180  0.960687  1
  Si  Si23  1  0.828621  0.466173  0.540615  1
  Si  Si24  1  0.334767  0.033788  0.540624  1
  Si  Si25  1  0.832211  0.465242  0.960338  1
  Si  Si26  1  0.667700  0.965739  0.039236  1
  Si  Si27  1  0.167943  0.536567  0.461208  1
  Si  Si28  1  0.460181  0.385146  0.749840  1
  Si  Si29  1  0.959995  0.115746  0.750443  1
  Si  Si30  1  0.540844  0.615465  0.248605  1
  Si  Si31  1  0.040675  0.882747  0.249659  1
  Si  Si32  1  0.703469  0.863734  0.750059  1
  Si  Si33  1  0.203513  0.637077  0.750582  1
  Si  Si34  1  0.297464  0.136110  0.249210  1
  Si  Si35  1  0.795660  0.364190  0.249167  1
