# generated using pymatgen
data_TbEu2Ho3Ta2O14
_symmetry_space_group_name_H-M   'P 1'
_cell_length_a   6.48803012
_cell_length_b   6.48972366
_cell_length_c   7.55268506
_cell_angle_alpha   90.04568942
_cell_angle_beta   89.94758965
_cell_angle_gamma   108.81597603
_symmetry_Int_Tables_number   1
_chemical_formula_structural   TbEu2Ho3Ta2O14
_chemical_formula_sum   'Tb1 Eu2 Ho3 Ta2 O14'
_cell_volume   301.01493972
_cell_formula_units_Z   1
loop_
 _symmetry_equiv_pos_site_id
 _symmetry_equiv_pos_as_xyz
  1  'x, y, z'
loop_
 _atom_site_type_symbol
 _atom_site_label
 _atom_site_symmetry_multiplicity
 _atom_site_fract_x
 _atom_site_fract_y
 _atom_site_fract_z
 _atom_site_occupancy
  Tb  Tb0  1  0.000564  0.465191  0.748270  1
  Eu  Eu1  1  0.504692  0.504567  0.499683  1
  Eu  Eu2  1  0.495916  0.495728  0.000318  1
  Ho  Ho3  1  0.000166  0.533949  0.248275  1
  Ho  Ho4  1  0.533545  0.000148  0.751720  1
  Ho  Ho5  1  0.466319  0.999746  0.251663  1
  Ta  Ta6  1  0.999855  0.999833  0.499595  1
  Ta  Ta7  1  0.000130  0.000183  0.000418  1
  O  O8  1  0.638071  0.358718  0.749892  1
  O  O9  1  0.358966  0.641069  0.250132  1
  O  O10  1  0.933595  0.065330  0.750000  1
  O  O11  1  0.066623  0.933859  0.249996  1
  O  O12  1  0.929937  0.678520  0.529907  1
  O  O13  1  0.069445  0.321518  0.032716  1
  O  O14  1  0.321578  0.068904  0.968466  1
  O  O15  1  0.678155  0.931197  0.468445  1
  O  O16  1  0.368875  0.635664  0.750163  1
  O  O17  1  0.634331  0.365681  0.249878  1
  O  O18  1  0.935396  0.682433  0.966030  1
  O  O19  1  0.064061  0.317620  0.463186  1
  O  O20  1  0.317684  0.063569  0.535647  1
  O  O21  1  0.682098  0.936575  0.035601  1
