# generated using pymatgen
data_Tb2ReTcC3
_symmetry_space_group_name_H-M   'P 1'
_cell_length_a   6.10878990
_cell_length_b   6.10879054
_cell_length_c   5.71060869
_cell_angle_alpha   66.76688880
_cell_angle_beta   66.76688499
_cell_angle_gamma   31.69975758
_symmetry_Int_Tables_number   1
_chemical_formula_structural   Tb2ReTcC3
_chemical_formula_sum   'Tb2 Re1 Tc1 C3'
_cell_volume   102.13183355
_cell_formula_units_Z   1
loop_
 _symmetry_equiv_pos_site_id
 _symmetry_equiv_pos_as_xyz
  1  'x, y, z'
loop_
 _atom_site_type_symbol
 _atom_site_label
 _atom_site_symmetry_multiplicity
 _atom_site_fract_x
 _atom_site_fract_y
 _atom_site_fract_z
 _atom_site_occupancy
  Tb  Tb0  1  0.608312  0.608312  0.183343  1
  Tb  Tb1  1  0.391451  0.391451  0.821583  1
  Re  Re2  1  0.158514  0.158514  0.677770  1
  Tc  Tc3  1  0.842622  0.842622  0.318569  1
  C  C4  1  0.751209  0.751209  0.730170  1
  C  C5  1  0.247046  0.247046  0.271443  1
  C  C6  1  0.000846  0.000846  0.997123  1
