# generated using pymatgen
data_NpB4Ru
_symmetry_space_group_name_H-M   'P 1'
_cell_length_a   3.50521900
_cell_length_b   6.00124088
_cell_length_c   11.61948373
_cell_angle_alpha   89.94213439
_cell_angle_beta   90.00000000
_cell_angle_gamma   90.00000000
_symmetry_Int_Tables_number   1
_chemical_formula_structural   NpB4Ru
_chemical_formula_sum   'Np4 B16 Ru4'
_cell_volume   244.42342566
_cell_formula_units_Z   4
loop_
 _symmetry_equiv_pos_site_id
 _symmetry_equiv_pos_as_xyz
  1  'x, y, z'
loop_
 _atom_site_type_symbol
 _atom_site_label
 _atom_site_symmetry_multiplicity
 _atom_site_fract_x
 _atom_site_fract_y
 _atom_site_fract_z
 _atom_site_occupancy
  Np  Np0  1  0.500000  0.627272  0.349833  1
  Np  Np1  1  0.500000  0.372728  0.650167  1
  Np  Np2  1  0.500000  0.127449  0.150285  1
  Np  Np3  1  0.500000  0.872551  0.849715  1
  B  B4  1  0.000000  0.472388  0.192001  1
  B  B5  1  0.000000  0.527612  0.807999  1
  B  B6  1  0.000000  0.972181  0.308193  1
  B  B7  1  0.000000  0.027819  0.691807  1
  B  B8  1  0.000000  0.287988  0.312956  1
  B  B9  1  0.000000  0.712012  0.687044  1
  B  B10  1  0.000000  0.787820  0.187250  1
  B  B11  1  0.000000  0.212180  0.812750  1
  B  B12  1  0.000000  0.365972  0.468115  1
  B  B13  1  0.000000  0.634028  0.531885  1
  B  B14  1  0.000000  0.865945  0.031823  1
  B  B15  1  0.000000  0.134055  0.968177  1
  B  B16  1  0.000000  0.385664  0.046822  1
  B  B17  1  0.000000  0.614336  0.953178  1
  B  B18  1  0.000000  0.885506  0.453245  1
  B  B19  1  0.000000  0.114494  0.546755  1
  Ru  Ru20  1  0.500000  0.137520  0.407937  1
  Ru  Ru21  1  0.500000  0.862480  0.592063  1
  Ru  Ru22  1  0.500000  0.637612  0.092167  1
  Ru  Ru23  1  0.500000  0.362388  0.907833  1
