# generated using pymatgen
data_SrHfP7Ru12
_symmetry_space_group_name_H-M   'P 1'
_cell_length_a   9.45240200
_cell_length_b   9.45240114
_cell_length_c   3.93329900
_cell_angle_alpha   90.00000000
_cell_angle_beta   90.00000000
_cell_angle_gamma   119.99999413
_symmetry_Int_Tables_number   1
_chemical_formula_structural   SrHfP7Ru12
_chemical_formula_sum   'Sr1 Hf1 P7 Ru12'
_cell_volume   304.34904720
_cell_formula_units_Z   1
loop_
 _symmetry_equiv_pos_site_id
 _symmetry_equiv_pos_as_xyz
  1  'x, y, z'
loop_
 _atom_site_type_symbol
 _atom_site_label
 _atom_site_symmetry_multiplicity
 _atom_site_fract_x
 _atom_site_fract_y
 _atom_site_fract_z
 _atom_site_occupancy
  Sr  Sr0  1  0.333333  0.666667  0.000000  1
  Hf  Hf1  1  0.666667  0.333333  0.500000  1
  P  P2  1  0.606642  0.720816  0.500000  1
  P  P3  1  0.000000  0.000000  0.000000  1
  P  P4  1  0.279184  0.885827  0.500000  1
  P  P5  1  0.114173  0.393358  0.500000  1
  P  P6  1  0.887185  0.568880  0.000000  1
  P  P7  1  0.431120  0.318306  0.000000  1
  P  P8  1  0.681694  0.112815  0.000000  1
  Ru  Ru9  1  0.562493  0.965718  0.500000  1
  Ru  Ru10  1  0.403226  0.437507  0.500000  1
  Ru  Ru11  1  0.915410  0.118838  0.500000  1
  Ru  Ru12  1  0.203428  0.084590  0.500000  1
  Ru  Ru13  1  0.881162  0.796572  0.500000  1
  Ru  Ru14  1  0.728018  0.891076  0.000000  1
  Ru  Ru15  1  0.108924  0.836940  0.000000  1
  Ru  Ru16  1  0.163060  0.271982  0.000000  1
  Ru  Ru17  1  0.424120  0.077390  0.000000  1
  Ru  Ru18  1  0.922610  0.346731  0.000000  1
  Ru  Ru19  1  0.653269  0.575880  0.000000  1
  Ru  Ru20  1  0.034282  0.596774  0.500000  1
