# generated using pymatgen
data_TbNd3(TcB4)4
_symmetry_space_group_name_H-M   'P 1'
_cell_length_a   6.04739400
_cell_length_b   11.70832877
_cell_length_c   3.66074900
_cell_angle_alpha   90.00000000
_cell_angle_beta   90.00000000
_cell_angle_gamma   89.90158874
_symmetry_Int_Tables_number   1
_chemical_formula_structural   TbNd3(TcB4)4
_chemical_formula_sum   'Tb1 Nd3 Tc4 B16'
_cell_volume   259.19850088
_cell_formula_units_Z   1
loop_
 _symmetry_equiv_pos_site_id
 _symmetry_equiv_pos_as_xyz
  1  'x, y, z'
loop_
 _atom_site_type_symbol
 _atom_site_label
 _atom_site_symmetry_multiplicity
 _atom_site_fract_x
 _atom_site_fract_y
 _atom_site_fract_z
 _atom_site_occupancy
  Tb  Tb0  1  0.874543  0.850047  0.000000  1
  Nd  Nd1  1  0.625479  0.349431  0.000000  1
  Nd  Nd2  1  0.374528  0.651257  0.000000  1
  Nd  Nd3  1  0.125409  0.149899  0.000000  1
  Tc  Tc4  1  0.631775  0.084886  0.000000  1
  Tc  Tc5  1  0.368773  0.912628  0.000000  1
  Tc  Tc6  1  0.130075  0.414316  0.000000  1
  Tc  Tc7  1  0.869571  0.588117  0.000000  1
  B  B8  1  0.782231  0.182638  0.500000  1
  B  B9  1  0.214389  0.816511  0.500000  1
  B  B10  1  0.282315  0.316470  0.500000  1
  B  B11  1  0.717770  0.685636  0.500000  1
  B  B12  1  0.861605  0.030065  0.500000  1
  B  B13  1  0.138120  0.966631  0.500000  1
  B  B14  1  0.360241  0.468387  0.500000  1
  B  B15  1  0.639857  0.533133  0.500000  1
  B  B16  1  0.887858  0.454733  0.500000  1
  B  B17  1  0.111260  0.547037  0.500000  1
  B  B18  1  0.388734  0.044602  0.500000  1
  B  B19  1  0.614465  0.952295  0.500000  1
  B  B20  1  0.976291  0.310247  0.500000  1
  B  B21  1  0.022368  0.692299  0.500000  1
  B  B22  1  0.476454  0.189005  0.500000  1
  B  B23  1  0.525891  0.809732  0.500000  1
