# generated using pymatgen
data_Tb16Cd4Co3Os
_symmetry_space_group_name_H-M   'P 1'
_cell_length_a   9.61414662
_cell_length_b   9.61414769
_cell_length_c   9.61414660
_cell_angle_alpha   59.53109584
_cell_angle_beta   59.53109199
_cell_angle_gamma   59.53109692
_symmetry_Int_Tables_number   1
_chemical_formula_structural   Tb16Cd4Co3Os
_chemical_formula_sum   'Tb16 Cd4 Co3 Os1'
_cell_volume   621.67284676
_cell_formula_units_Z   1
loop_
 _symmetry_equiv_pos_site_id
 _symmetry_equiv_pos_as_xyz
  1  'x, y, z'
loop_
 _atom_site_type_symbol
 _atom_site_label
 _atom_site_symmetry_multiplicity
 _atom_site_fract_x
 _atom_site_fract_y
 _atom_site_fract_z
 _atom_site_occupancy
  Tb  Tb0  1  0.437993  0.437993  0.057154  1
  Tb  Tb1  1  0.595585  0.595585  0.595585  1
  Tb  Tb2  1  0.188095  0.812607  0.812607  1
  Tb  Tb3  1  0.060938  0.060938  0.436126  1
  Tb  Tb4  1  0.436126  0.060938  0.060938  1
  Tb  Tb5  1  0.812607  0.188095  0.812607  1
  Tb  Tb6  1  0.437993  0.057154  0.437993  1
  Tb  Tb7  1  0.599907  0.210923  0.599907  1
  Tb  Tb8  1  0.812607  0.812607  0.188095  1
  Tb  Tb9  1  0.210923  0.599907  0.599907  1
  Tb  Tb10  1  0.804998  0.191002  0.191002  1
  Tb  Tb11  1  0.057154  0.437993  0.437993  1
  Tb  Tb12  1  0.191002  0.804998  0.191002  1
  Tb  Tb13  1  0.599907  0.599907  0.210923  1
  Tb  Tb14  1  0.191002  0.191002  0.804998  1
  Tb  Tb15  1  0.060938  0.436126  0.060938  1
  Cd  Cd16  1  0.829816  0.829816  0.507364  1
  Cd  Cd17  1  0.829896  0.829896  0.829896  1
  Cd  Cd18  1  0.507364  0.829816  0.829816  1
  Cd  Cd19  1  0.829816  0.507364  0.829816  1
  Co  Co20  1  0.829578  0.392418  0.392418  1
  Co  Co21  1  0.392418  0.829578  0.392418  1
  Co  Co22  1  0.392418  0.392418  0.829578  1
  Os  Os23  1  0.390920  0.390920  0.390920  1
