# generated using pymatgen
data_Y5Th2Sn23Os6
_symmetry_space_group_name_H-M   'P 1'
_cell_length_a   9.89049821
_cell_length_b   9.89079325
_cell_length_c   10.19074823
_cell_angle_alpha   90.00000140
_cell_angle_beta   90.14747815
_cell_angle_gamma   120.00098883
_symmetry_Int_Tables_number   1
_chemical_formula_structural   Y5Th2Sn23Os6
_chemical_formula_sum   'Y5 Th2 Sn23 Os6'
_cell_volume   863.33580052
_cell_formula_units_Z   1
loop_
 _symmetry_equiv_pos_site_id
 _symmetry_equiv_pos_as_xyz
  1  'x, y, z'
loop_
 _atom_site_type_symbol
 _atom_site_label
 _atom_site_symmetry_multiplicity
 _atom_site_fract_x
 _atom_site_fract_y
 _atom_site_fract_z
 _atom_site_occupancy
  Y  Y0  1  0.483189  0.966767  0.303448  1
  Y  Y1  1  0.483189  0.516422  0.303448  1
  Y  Y2  1  0.967684  0.483842  0.696224  1
  Y  Y3  1  0.516222  0.031992  0.696969  1
  Y  Y4  1  0.516222  0.484230  0.696969  1
  Th  Th5  1  0.000000  0.000000  0.998337  1
  Th  Th6  1  0.032015  0.516007  0.302460  1
  Sn  Sn7  1  0.999009  0.999504  0.500472  1
  Sn  Sn8  1  0.119644  0.885725  0.278253  1
  Sn  Sn9  1  0.764126  0.882063  0.278031  1
  Sn  Sn10  1  0.119644  0.233921  0.278253  1
  Sn  Sn11  1  0.881449  0.117566  0.722147  1
  Sn  Sn12  1  0.236665  0.118332  0.722013  1
  Sn  Sn13  1  0.881449  0.763881  0.722147  1
  Sn  Sn14  1  0.351834  0.000527  0.999464  1
  Sn  Sn15  1  0.648433  0.648333  0.000302  1
  Sn  Sn16  1  0.999552  0.350703  0.997679  1
  Sn  Sn17  1  0.351834  0.351307  0.999464  1
  Sn  Sn18  1  0.999552  0.648849  0.997679  1
  Sn  Sn19  1  0.648433  0.000100  0.000302  1
  Sn  Sn20  1  0.776565  0.562099  0.462473  1
  Sn  Sn21  1  0.776565  0.214466  0.462473  1
  Sn  Sn22  1  0.438267  0.219134  0.459555  1
  Sn  Sn23  1  0.219381  0.437266  0.542568  1
  Sn  Sn24  1  0.219381  0.782114  0.542568  1
  Sn  Sn25  1  0.561588  0.780793  0.540651  1
  Sn  Sn26  1  0.663490  0.331744  0.173032  1
  Sn  Sn27  1  0.333609  0.666805  0.825362  1
  Sn  Sn28  1  0.666582  0.333291  0.874699  1
  Sn  Sn29  1  0.338941  0.669471  0.121790  1
  Os  Os30  1  0.168638  0.831513  0.800673  1
  Os  Os31  1  0.662480  0.831240  0.800652  1
  Os  Os32  1  0.168638  0.337125  0.800673  1
  Os  Os33  1  0.833265  0.172307  0.200117  1
  Os  Os34  1  0.339203  0.169601  0.198537  1
  Os  Os35  1  0.833265  0.660958  0.200117  1
