# generated using pymatgen
data_Na3La16ErPb16
_symmetry_space_group_name_H-M   'P 1'
_cell_length_a   8.34808900
_cell_length_b   8.58510661
_cell_length_c   16.38208000
_cell_angle_alpha   90.00000000
_cell_angle_beta   90.00000000
_cell_angle_gamma   89.91885921
_symmetry_Int_Tables_number   1
_chemical_formula_structural   Na3La16ErPb16
_chemical_formula_sum   'Na3 La16 Er1 Pb16'
_cell_volume   1174.08994833
_cell_formula_units_Z   1
loop_
 _symmetry_equiv_pos_site_id
 _symmetry_equiv_pos_as_xyz
  1  'x, y, z'
loop_
 _atom_site_type_symbol
 _atom_site_label
 _atom_site_symmetry_multiplicity
 _atom_site_fract_x
 _atom_site_fract_y
 _atom_site_fract_z
 _atom_site_occupancy
  Na  Na0  1  0.322040  0.994497  0.750000  1
  Na  Na1  1  0.177132  0.497583  0.250000  1
  Na  Na2  1  0.675447  0.002305  0.250000  1
  La  La3  1  0.649181  0.162918  0.625668  1
  La  La4  1  0.154412  0.331636  0.876339  1
  La  La5  1  0.350255  0.831090  0.127401  1
  La  La6  1  0.851614  0.662259  0.377717  1
  La  La7  1  0.350255  0.831090  0.372599  1
  La  La8  1  0.851614  0.662259  0.122283  1
  La  La9  1  0.649181  0.162918  0.874332  1
  La  La10  1  0.154412  0.331636  0.623661  1
  La  La11  1  0.491675  0.686431  0.597265  1
  La  La12  1  0.000714  0.819007  0.904953  1
  La  La13  1  0.501826  0.316397  0.096342  1
  La  La14  1  0.000632  0.187820  0.404986  1
  La  La15  1  0.501826  0.316397  0.403658  1
  La  La16  1  0.000632  0.187820  0.095014  1
  La  La17  1  0.491675  0.686431  0.902735  1
  La  La18  1  0.000714  0.819007  0.595047  1
  Er  Er19  1  0.822810  0.500360  0.750000  1
  Pb  Pb20  1  0.687189  0.959937  0.460851  1
  Pb  Pb21  1  0.195733  0.539760  0.038312  1
  Pb  Pb22  1  0.315242  0.039753  0.964602  1
  Pb  Pb23  1  0.807274  0.467904  0.547027  1
  Pb  Pb24  1  0.315242  0.039753  0.535398  1
  Pb  Pb25  1  0.807274  0.467904  0.952973  1
  Pb  Pb26  1  0.687189  0.959937  0.039149  1
  Pb  Pb27  1  0.195733  0.539760  0.461688  1
  Pb  Pb28  1  0.459608  0.399627  0.750000  1
  Pb  Pb29  1  0.959471  0.108120  0.750000  1
  Pb  Pb30  1  0.544640  0.597104  0.250000  1
  Pb  Pb31  1  0.037445  0.899521  0.250000  1
  Pb  Pb32  1  0.699056  0.844876  0.750000  1
  Pb  Pb33  1  0.182582  0.646931  0.750000  1
  Pb  Pb34  1  0.300536  0.148736  0.250000  1
  Pb  Pb35  1  0.807734  0.350517  0.250000  1
