# generated using pymatgen
data_Tb4Y4Zn3Si12Pd
_symmetry_space_group_name_H-M   'P 1'
_cell_length_a   8.12975022
_cell_length_b   8.12974923
_cell_length_c   8.12092000
_cell_angle_alpha   89.99695176
_cell_angle_beta   90.00304645
_cell_angle_gamma   120.02638889
_symmetry_Int_Tables_number   1
_chemical_formula_structural   Tb4Y4Zn3Si12Pd
_chemical_formula_sum   'Tb4 Y4 Zn3 Si12 Pd1'
_cell_volume   464.70213706
_cell_formula_units_Z   1
loop_
 _symmetry_equiv_pos_site_id
 _symmetry_equiv_pos_as_xyz
  1  'x, y, z'
loop_
 _atom_site_type_symbol
 _atom_site_label
 _atom_site_symmetry_multiplicity
 _atom_site_fract_x
 _atom_site_fract_y
 _atom_site_fract_z
 _atom_site_occupancy
  Tb  Tb0  1  0.501091  0.498909  0.249070  1
  Tb  Tb1  1  0.499744  0.500256  0.750753  1
  Tb  Tb2  1  0.999980  0.000020  0.250350  1
  Tb  Tb3  1  0.999981  0.000019  0.750132  1
  Y  Y4  1  0.501106  0.002179  0.249042  1
  Y  Y5  1  0.499764  0.999479  0.750766  1
  Y  Y6  1  0.997821  0.498894  0.249042  1
  Y  Y7  1  0.000521  0.500236  0.750766  1
  Zn  Zn8  1  0.333315  0.666685  0.005868  1
  Zn  Zn9  1  0.666756  0.333244  0.994613  1
  Zn  Zn10  1  0.666731  0.333269  0.500254  1
  Si  Si11  1  0.166422  0.332890  0.997435  1
  Si  Si12  1  0.833084  0.666153  0.002546  1
  Si  Si13  1  0.667110  0.833578  0.997435  1
  Si  Si14  1  0.835326  0.670666  0.502244  1
  Si  Si15  1  0.333847  0.166916  0.002546  1
  Si  Si16  1  0.167635  0.335342  0.497792  1
  Si  Si17  1  0.166440  0.833560  0.997426  1
  Si  Si18  1  0.329334  0.164674  0.502244  1
  Si  Si19  1  0.833045  0.166955  0.002544  1
  Si  Si20  1  0.664658  0.832365  0.497792  1
  Si  Si21  1  0.835304  0.164696  0.502259  1
  Si  Si22  1  0.167728  0.832272  0.497787  1
  Pd  Pd23  1  0.333258  0.666742  0.499292  1
