# generated using pymatgen
data_AlAu(SeBr7)2
_symmetry_space_group_name_H-M   'P 1'
_cell_length_a   7.13263123
_cell_length_b   7.19661685
_cell_length_c   16.15123496
_cell_angle_alpha   72.02546490
_cell_angle_beta   87.56869144
_cell_angle_gamma   94.23688831
_symmetry_Int_Tables_number   1
_chemical_formula_structural   AlAu(SeBr7)2
_chemical_formula_sum   'Al1 Au1 Se2 Br14'
_cell_volume   784.57675527
_cell_formula_units_Z   1
loop_
 _symmetry_equiv_pos_site_id
 _symmetry_equiv_pos_as_xyz
  1  'x, y, z'
loop_
 _atom_site_type_symbol
 _atom_site_label
 _atom_site_symmetry_multiplicity
 _atom_site_fract_x
 _atom_site_fract_y
 _atom_site_fract_z
 _atom_site_occupancy
  Al  Al0  1  0.002442  0.715496  0.166434  1
  Au  Au1  1  0.969360  0.662327  0.661928  1
  Se  Se2  1  0.599365  0.985071  0.494882  1
  Se  Se3  1  0.404990  0.026633  0.003553  1
  Br  Br4  1  0.441970  0.888962  0.385455  1
  Br  Br5  1  0.378164  0.187389  0.533706  1
  Br  Br6  1  0.225107  0.260376  0.906100  1
  Br  Br7  1  0.825512  0.236973  0.404465  1
  Br  Br8  1  0.125548  0.035493  0.153669  1
  Br  Br9  1  0.628930  0.253361  0.033520  1
  Br  Br10  1  0.125881  0.656914  0.040019  1
  Br  Br11  1  0.898440  0.705420  0.508559  1
  Br  Br12  1  0.679474  0.668662  0.176558  1
  Br  Br13  1  0.216358  0.450889  0.648219  1
  Br  Br14  1  0.131925  0.511750  0.289364  1
  Br  Br15  1  0.019309  0.597496  0.818436  1
  Br  Br16  1  0.584002  0.926312  0.900047  1
  Br  Br17  1  0.743224  0.901072  0.674882  1
