# generated using pymatgen
data_Li4Ca(NdSi2)3
_symmetry_space_group_name_H-M   'P 1'
_cell_length_a   9.52907382
_cell_length_b   9.52907368
_cell_length_c   6.86389900
_cell_angle_alpha   90.00000000
_cell_angle_beta   90.00000000
_cell_angle_gamma   153.52320545
_symmetry_Int_Tables_number   1
_chemical_formula_structural   Li4Ca(NdSi2)3
_chemical_formula_sum   'Li4 Ca1 Nd3 Si6'
_cell_volume   277.87324310
_cell_formula_units_Z   1
loop_
 _symmetry_equiv_pos_site_id
 _symmetry_equiv_pos_as_xyz
  1  'x, y, z'
loop_
 _atom_site_type_symbol
 _atom_site_label
 _atom_site_symmetry_multiplicity
 _atom_site_fract_x
 _atom_site_fract_y
 _atom_site_fract_z
 _atom_site_occupancy
  Li  Li0  1  0.189267  0.810733  0.061046  1
  Li  Li1  1  0.189267  0.810733  0.438954  1
  Li  Li2  1  0.811767  0.188233  0.944110  1
  Li  Li3  1  0.811767  0.188233  0.555890  1
  Ca  Ca4  1  0.341420  0.658580  0.250000  1
  Nd  Nd5  1  0.658198  0.341802  0.750000  1
  Nd  Nd6  1  0.551894  0.448106  0.250000  1
  Nd  Nd7  1  0.446863  0.553137  0.750000  1
  Si  Si8  1  0.718005  0.281995  0.250000  1
  Si  Si9  1  0.278200  0.721800  0.750000  1
  Si  Si10  1  0.058061  0.941939  0.923931  1
  Si  Si11  1  0.943615  0.056385  0.075970  1
  Si  Si12  1  0.943615  0.056385  0.424030  1
  Si  Si13  1  0.058061  0.941939  0.576069  1
