# generated using pymatgen
data_NdDyCuSi4Pt3
_symmetry_space_group_name_H-M   'P 1'
_cell_length_a   4.19805200
_cell_length_b   4.21120800
_cell_length_c   9.88407300
_cell_angle_alpha   90.00000000
_cell_angle_beta   90.00000000
_cell_angle_gamma   90.00000000
_symmetry_Int_Tables_number   1
_chemical_formula_structural   NdDyCuSi4Pt3
_chemical_formula_sum   'Nd1 Dy1 Cu1 Si4 Pt3'
_cell_volume   174.73924329
_cell_formula_units_Z   1
loop_
 _symmetry_equiv_pos_site_id
 _symmetry_equiv_pos_as_xyz
  1  'x, y, z'
loop_
 _atom_site_type_symbol
 _atom_site_label
 _atom_site_symmetry_multiplicity
 _atom_site_fract_x
 _atom_site_fract_y
 _atom_site_fract_z
 _atom_site_occupancy
  Nd  Nd0  1  0.500000  0.000000  0.751868  1
  Dy  Dy1  1  0.000000  0.500000  0.247439  1
  Cu  Cu2  1  0.000000  0.000000  0.001745  1
  Si  Si3  1  0.000000  0.000000  0.498248  1
  Si  Si4  1  0.500000  0.500000  0.497660  1
  Si  Si5  1  0.000000  0.500000  0.868978  1
  Si  Si6  1  0.500000  0.000000  0.133231  1
  Pt  Pt7  1  0.500000  0.500000  0.004228  1
  Pt  Pt8  1  0.000000  0.500000  0.620985  1
  Pt  Pt9  1  0.500000  0.000000  0.375617  1
