# generated using pymatgen
data_ErTm3(ZrPb)6
_symmetry_space_group_name_H-M   'P 1'
_cell_length_a   8.80353121
_cell_length_b   8.75651495
_cell_length_c   6.06879600
_cell_angle_alpha   90.00000000
_cell_angle_beta   90.00000000
_cell_angle_gamma   119.71221585
_symmetry_Int_Tables_number   1
_chemical_formula_structural   ErTm3(ZrPb)6
_chemical_formula_sum   'Er1 Tm3 Zr6 Pb6'
_cell_volume   406.32495351
_cell_formula_units_Z   1
loop_
 _symmetry_equiv_pos_site_id
 _symmetry_equiv_pos_as_xyz
  1  'x, y, z'
loop_
 _atom_site_type_symbol
 _atom_site_label
 _atom_site_symmetry_multiplicity
 _atom_site_fract_x
 _atom_site_fract_y
 _atom_site_fract_z
 _atom_site_occupancy
  Er  Er0  1  0.001384  0.763183  0.750000  1
  Tm  Tm1  1  0.757355  0.755356  0.250000  1
  Tm  Tm2  1  0.002617  0.237230  0.250000  1
  Tm  Tm3  1  0.758847  0.002731  0.750000  1
  Zr  Zr4  1  0.330596  0.665547  0.499990  1
  Zr  Zr5  1  0.248224  0.001725  0.250000  1
  Zr  Zr6  1  0.662608  0.331359  0.500363  1
  Zr  Zr7  1  0.330596  0.665547  0.000010  1
  Zr  Zr8  1  0.249501  0.248294  0.750000  1
  Zr  Zr9  1  0.662608  0.331359  0.999637  1
  Pb  Pb10  1  0.602111  0.603389  0.750000  1
  Pb  Pb11  1  0.394270  0.001010  0.750000  1
  Pb  Pb12  1  0.602136  0.999642  0.250000  1
  Pb  Pb13  1  0.001889  0.395393  0.750000  1
  Pb  Pb14  1  0.393361  0.392366  0.250000  1
  Pb  Pb15  1  0.001899  0.605870  0.250000  1
