# generated using pymatgen
data_Yb11In(AgGe)12
_symmetry_space_group_name_H-M   'P 1'
_cell_length_a   4.56780100
_cell_length_b   7.86452757
_cell_length_c   21.38176622
_cell_angle_alpha   89.51685049
_cell_angle_beta   90.00000000
_cell_angle_gamma   90.00000000
_symmetry_Int_Tables_number   1
_chemical_formula_structural   Yb11In(AgGe)12
_chemical_formula_sum   'Yb11 In1 Ag12 Ge12'
_cell_volume   768.08264116
_cell_formula_units_Z   1
loop_
 _symmetry_equiv_pos_site_id
 _symmetry_equiv_pos_as_xyz
  1  'x, y, z'
loop_
 _atom_site_type_symbol
 _atom_site_label
 _atom_site_symmetry_multiplicity
 _atom_site_fract_x
 _atom_site_fract_y
 _atom_site_fract_z
 _atom_site_occupancy
  Yb  Yb0  1  0.250000  0.219126  0.999530  1
  Yb  Yb1  1  0.250000  0.280068  0.500162  1
  Yb  Yb2  1  0.750000  0.782138  0.996862  1
  Yb  Yb3  1  0.750000  0.720272  0.500233  1
  Yb  Yb4  1  0.250000  0.210023  0.333629  1
  Yb  Yb5  1  0.250000  0.296421  0.833106  1
  Yb  Yb6  1  0.750000  0.791130  0.669575  1
  Yb  Yb7  1  0.750000  0.712285  0.166174  1
  Yb  Yb8  1  0.250000  0.206470  0.667581  1
  Yb  Yb9  1  0.250000  0.287033  0.167054  1
  Yb  Yb10  1  0.750000  0.788375  0.333057  1
  In  In11  1  0.750000  0.700619  0.835585  1
  Ag  Ag12  1  0.250000  0.907586  0.764712  1
  Ag  Ag13  1  0.250000  0.586227  0.261765  1
  Ag  Ag14  1  0.750000  0.087495  0.237776  1
  Ag  Ag15  1  0.750000  0.417717  0.738120  1
  Ag  Ag16  1  0.250000  0.919628  0.903936  1
  Ag  Ag17  1  0.250000  0.581372  0.405841  1
  Ag  Ag18  1  0.750000  0.082160  0.092955  1
  Ag  Ag19  1  0.750000  0.417652  0.595597  1
  Ag  Ag20  1  0.250000  0.917756  0.564482  1
  Ag  Ag21  1  0.250000  0.584419  0.068317  1
  Ag  Ag22  1  0.750000  0.081784  0.435090  1
  Ag  Ag23  1  0.750000  0.414734  0.935314  1
  Ge  Ge24  1  0.250000  0.579955  0.722568  1
  Ge  Ge25  1  0.250000  0.917005  0.228078  1
  Ge  Ge26  1  0.750000  0.416944  0.271210  1
  Ge  Ge27  1  0.750000  0.086107  0.772333  1
  Ge  Ge28  1  0.250000  0.912925  0.102699  1
  Ge  Ge29  1  0.250000  0.586909  0.599448  1
  Ge  Ge30  1  0.750000  0.093893  0.897751  1
  Ge  Ge31  1  0.750000  0.411558  0.396934  1
  Ge  Ge32  1  0.250000  0.589444  0.931185  1
  Ge  Ge33  1  0.250000  0.909190  0.426991  1
  Ge  Ge34  1  0.750000  0.413197  0.071192  1
  Ge  Ge35  1  0.750000  0.090382  0.573160  1
