# generated using pymatgen
data_YNp3(Co3Si5)2
_symmetry_space_group_name_H-M   'P 1'
_cell_length_a   7.83397839
_cell_length_b   7.84169570
_cell_length_c   7.84169605
_cell_angle_alpha   138.88261518
_cell_angle_beta   104.37213983
_cell_angle_gamma   89.92323018
_symmetry_Int_Tables_number   1
_chemical_formula_structural   YNp3(Co3Si5)2
_chemical_formula_sum   'Y1 Np3 Co6 Si10'
_cell_volume   293.55001923
_cell_formula_units_Z   1
loop_
 _symmetry_equiv_pos_site_id
 _symmetry_equiv_pos_as_xyz
  1  'x, y, z'
loop_
 _atom_site_type_symbol
 _atom_site_label
 _atom_site_symmetry_multiplicity
 _atom_site_fract_x
 _atom_site_fract_y
 _atom_site_fract_z
 _atom_site_occupancy
  Y  Y0  1  0.399107  0.131819  0.267287  1
  Np  Np1  1  0.869851  0.636542  0.233308  1
  Np  Np2  1  0.133334  0.366120  0.767214  1
  Np  Np3  1  0.595020  0.863514  0.731507  1
  Co  Co4  1  0.999778  0.250665  0.251211  1
  Co  Co5  1  0.754281  0.139510  0.614771  1
  Co  Co6  1  0.524563  0.639254  0.885309  1
  Co  Co7  1  0.475791  0.361348  0.114443  1
  Co  Co8  1  0.999778  0.748566  0.749112  1
  Co  Co9  1  0.248423  0.861646  0.386776  1
  Si  Si10  1  0.051040  0.896534  0.154506  1
  Si  Si11  1  0.942566  0.098239  0.844327  1
  Si  Si12  1  0.257290  0.602576  0.654715  1
  Si  Si13  1  0.745120  0.401800  0.343320  1
  Si  Si14  1  0.227069  0.977696  0.750274  1
  Si  Si15  1  0.771445  0.525070  0.751093  1
  Si  Si16  1  0.771445  0.020352  0.246375  1
  Si  Si17  1  0.503515  0.253327  0.754889  1
  Si  Si18  1  0.503515  0.748626  0.250189  1
  Si  Si19  1  0.227069  0.476795  0.249373  1
