# generated using pymatgen
data_Zn2Pt(AuO2)3
_symmetry_space_group_name_H-M   'P 1'
_cell_length_a   5.39592600
_cell_length_b   5.39592637
_cell_length_c   18.68136600
_cell_angle_alpha   90.00000000
_cell_angle_beta   90.00000000
_cell_angle_gamma   119.99998546
_symmetry_Int_Tables_number   1
_chemical_formula_structural   Zn2Pt(AuO2)3
_chemical_formula_sum   'Zn6 Pt3 Au9 O18'
_cell_volume   471.05468180
_cell_formula_units_Z   3
loop_
 _symmetry_equiv_pos_site_id
 _symmetry_equiv_pos_as_xyz
  1  'x, y, z'
loop_
 _atom_site_type_symbol
 _atom_site_label
 _atom_site_symmetry_multiplicity
 _atom_site_fract_x
 _atom_site_fract_y
 _atom_site_fract_z
 _atom_site_occupancy
  Zn  Zn0  1  0.107275  0.892725  0.333333  1
  Zn  Zn1  1  0.107275  0.214550  0.666667  1
  Zn  Zn2  1  0.785450  0.892725  0.000000  1
  Zn  Zn3  1  0.773863  0.226137  0.333333  1
  Zn  Zn4  1  0.773863  0.547724  0.666667  1
  Zn  Zn5  1  0.452276  0.226137  0.000000  1
  Pt  Pt6  1  0.440827  0.559173  0.333333  1
  Pt  Pt7  1  0.440827  0.881654  0.666667  1
  Pt  Pt8  1  0.118346  0.559173  0.000000  1
  Au  Au9  1  0.440046  0.220023  0.500000  1
  Au  Au10  1  0.779977  0.220023  0.833333  1
  Au  Au11  1  0.779977  0.559954  0.166667  1
  Au  Au12  1  0.125000  0.562500  0.500000  1
  Au  Au13  1  0.437500  0.562500  0.833333  1
  Au  Au14  1  0.437500  0.875000  0.166667  1
  Au  Au15  1  0.756712  0.878354  0.500000  1
  Au  Au16  1  0.121646  0.878354  0.833333  1
  Au  Au17  1  0.121646  0.243288  0.166667  1
  O  O18  1  0.764862  0.559574  0.277008  1
  O  O19  1  0.440426  0.205288  0.610341  1
  O  O20  1  0.794712  0.235138  0.943675  1
  O  O21  1  0.764862  0.205288  0.722992  1
  O  O22  1  0.440426  0.235138  0.389659  1
  O  O23  1  0.794712  0.559574  0.056325  1
  O  O24  1  0.440999  0.882569  0.276861  1
  O  O25  1  0.117431  0.558428  0.610194  1
  O  O26  1  0.441572  0.559001  0.943528  1
  O  O27  1  0.440999  0.558428  0.723139  1
  O  O28  1  0.117431  0.559001  0.389806  1
  O  O29  1  0.441572  0.882569  0.056472  1
  O  O30  1  0.117381  0.236106  0.276885  1
  O  O31  1  0.763894  0.881274  0.610218  1
  O  O32  1  0.118726  0.882619  0.943551  1
  O  O33  1  0.117381  0.881274  0.723115  1
  O  O34  1  0.763894  0.882619  0.389782  1
  O  O35  1  0.118726  0.236106  0.056449  1
