# generated using pymatgen
data_TbSm7(OsI4)2
_symmetry_space_group_name_H-M   'P 1'
_cell_length_a   11.43231565
_cell_length_b   11.40943461
_cell_length_c   6.31705607
_cell_angle_alpha   89.98662538
_cell_angle_beta   90.00584266
_cell_angle_gamma   89.85497265
_symmetry_Int_Tables_number   1
_chemical_formula_structural   TbSm7(OsI4)2
_chemical_formula_sum   'Tb1 Sm7 Os2 I8'
_cell_volume   823.97048831
_cell_formula_units_Z   1
loop_
 _symmetry_equiv_pos_site_id
 _symmetry_equiv_pos_as_xyz
  1  'x, y, z'
loop_
 _atom_site_type_symbol
 _atom_site_label
 _atom_site_symmetry_multiplicity
 _atom_site_fract_x
 _atom_site_fract_y
 _atom_site_fract_z
 _atom_site_occupancy
  Tb  Tb0  1  0.804284  0.919954  0.499755  1
  Sm  Sm1  1  0.797404  0.082128  0.000188  1
  Sm  Sm2  1  0.082365  0.798103  0.500268  1
  Sm  Sm3  1  0.081719  0.201546  0.000072  1
  Sm  Sm4  1  0.201286  0.082134  0.500116  1
  Sm  Sm5  1  0.916651  0.798090  0.999889  1
  Sm  Sm6  1  0.917103  0.201607  0.499721  1
  Sm  Sm7  1  0.201210  0.917066  0.999753  1
  Os  Os8  1  0.999935  0.999966  0.249761  1
  Os  Os9  1  0.999896  0.999982  0.750193  1
  I  I10  1  0.643371  0.146964  0.497429  1
  I  I11  1  0.848461  0.645563  0.502774  1
  I  I12  1  0.357080  0.149787  0.997168  1
  I  I13  1  0.149704  0.357219  0.497149  1
  I  I14  1  0.642665  0.850179  0.003115  1
  I  I15  1  0.357171  0.849762  0.502651  1
  I  I16  1  0.150115  0.642377  0.997363  1
  I  I17  1  0.849578  0.357575  0.002635  1
