# generated using pymatgen
data_La20ZnSi11
_symmetry_space_group_name_H-M   'P 1'
_cell_length_a   7.90664900
_cell_length_b   7.90664900
_cell_length_c   14.53578700
_cell_angle_alpha   90.00000000
_cell_angle_beta   90.00000000
_cell_angle_gamma   90.00000000
_symmetry_Int_Tables_number   1
_chemical_formula_structural   La20ZnSi11
_chemical_formula_sum   'La20 Zn1 Si11'
_cell_volume   908.70615476
_cell_formula_units_Z   1
loop_
 _symmetry_equiv_pos_site_id
 _symmetry_equiv_pos_as_xyz
  1  'x, y, z'
loop_
 _atom_site_type_symbol
 _atom_site_label
 _atom_site_symmetry_multiplicity
 _atom_site_fract_x
 _atom_site_fract_y
 _atom_site_fract_z
 _atom_site_occupancy
  La  La0  1  0.500000  0.000000  0.777357  1
  La  La1  1  0.329539  0.314298  0.104848  1
  La  La2  1  0.829420  0.814611  0.895088  1
  La  La3  1  0.000000  0.500000  0.224282  1
  La  La4  1  0.826794  0.181247  0.393346  1
  La  La5  1  0.170580  0.185389  0.895088  1
  La  La6  1  0.670461  0.685702  0.104848  1
  La  La7  1  0.000000  0.500000  0.720972  1
  La  La8  1  0.810736  0.835606  0.607313  1
  La  La9  1  0.318753  0.326794  0.393346  1
  La  La10  1  0.185702  0.829539  0.104848  1
  La  La11  1  0.189264  0.164394  0.607313  1
  La  La12  1  0.814298  0.170461  0.104848  1
  La  La13  1  0.335606  0.689264  0.607313  1
  La  La14  1  0.500000  0.000000  0.276133  1
  La  La15  1  0.685389  0.329420  0.895088  1
  La  La16  1  0.664394  0.310736  0.607313  1
  La  La17  1  0.314611  0.670580  0.895088  1
  La  La18  1  0.173206  0.818753  0.393346  1
  La  La19  1  0.681247  0.673206  0.393346  1
  Zn  Zn20  1  0.000000  0.500000  0.502699  1
  Si  Si21  1  0.613389  0.387639  0.249000  1
  Si  Si22  1  0.887550  0.113778  0.751425  1
  Si  Si23  1  0.500000  0.000000  0.494368  1
  Si  Si24  1  0.887639  0.886611  0.249000  1
  Si  Si25  1  0.000000  0.500000  0.005238  1
  Si  Si26  1  0.112450  0.886222  0.751425  1
  Si  Si27  1  0.386222  0.387550  0.751425  1
  Si  Si28  1  0.112361  0.113389  0.249000  1
  Si  Si29  1  0.386611  0.612361  0.249000  1
  Si  Si30  1  0.613778  0.612450  0.751425  1
  Si  Si31  1  0.500000  0.000000  0.994862  1
