# generated using pymatgen
data_Tb2Ho2Al17SiIr6
_symmetry_space_group_name_H-M   'P 1'
_cell_length_a   7.54801906
_cell_length_b   7.54801120
_cell_length_c   9.41325000
_cell_angle_alpha   90.00000000
_cell_angle_beta   90.00000000
_cell_angle_gamma   119.66291339
_symmetry_Int_Tables_number   1
_chemical_formula_structural   Tb2Ho2Al17SiIr6
_chemical_formula_sum   'Tb2 Ho2 Al17 Si1 Ir6'
_cell_volume   466.01610039
_cell_formula_units_Z   1
loop_
 _symmetry_equiv_pos_site_id
 _symmetry_equiv_pos_as_xyz
  1  'x, y, z'
loop_
 _atom_site_type_symbol
 _atom_site_label
 _atom_site_symmetry_multiplicity
 _atom_site_fract_x
 _atom_site_fract_y
 _atom_site_fract_z
 _atom_site_occupancy
  Tb  Tb0  1  0.003785  0.330542  0.750000  1
  Tb  Tb1  1  0.330542  0.003784  0.750000  1
  Ho  Ho2  1  0.994439  0.676014  0.250000  1
  Ho  Ho3  1  0.676014  0.994439  0.250000  1
  Al  Al4  1  0.874300  0.874300  0.750000  1
  Al  Al5  1  0.000702  0.337077  0.077714  1
  Al  Al6  1  0.998451  0.665683  0.925776  1
  Al  Al7  1  0.998451  0.665683  0.574224  1
  Al  Al8  1  0.337076  0.000702  0.422286  1
  Al  Al9  1  0.000702  0.337077  0.422286  1
  Al  Al10  1  0.665684  0.998452  0.574224  1
  Al  Al11  1  0.665684  0.998452  0.925776  1
  Al  Al12  1  0.337076  0.000702  0.077714  1
  Al  Al13  1  0.332497  0.332497  0.556327  1
  Al  Al14  1  0.663498  0.663498  0.447879  1
  Al  Al15  1  0.663498  0.663498  0.052121  1
  Al  Al16  1  0.332497  0.332497  0.943673  1
  Al  Al17  1  0.336635  0.549606  0.250000  1
  Al  Al18  1  0.661078  0.452496  0.750000  1
  Al  Al19  1  0.549607  0.336636  0.250000  1
  Al  Al20  1  0.452497  0.661078  0.750000  1
  Si  Si21  1  0.130830  0.130830  0.250000  1
  Ir  Ir22  1  0.670424  0.326848  0.000585  1
  Ir  Ir23  1  0.326848  0.670423  0.000584  1
  Ir  Ir24  1  0.326848  0.670423  0.499416  1
  Ir  Ir25  1  0.670424  0.326848  0.499415  1
  Ir  Ir26  1  0.999954  0.999954  0.007673  1
  Ir  Ir27  1  0.999954  0.999954  0.492327  1
