# generated using pymatgen
data_Pr2Ga12Ir
_symmetry_space_group_name_H-M   'P 1'
_cell_length_a   6.14365300
_cell_length_b   6.14365300
_cell_length_c   15.76004300
_cell_angle_alpha   90.00000000
_cell_angle_beta   90.00000000
_cell_angle_gamma   90.00000000
_symmetry_Int_Tables_number   1
_chemical_formula_structural   Pr2Ga12Ir
_chemical_formula_sum   'Pr4 Ga24 Ir2'
_cell_volume   594.85450464
_cell_formula_units_Z   2
loop_
 _symmetry_equiv_pos_site_id
 _symmetry_equiv_pos_as_xyz
  1  'x, y, z'
loop_
 _atom_site_type_symbol
 _atom_site_label
 _atom_site_symmetry_multiplicity
 _atom_site_fract_x
 _atom_site_fract_y
 _atom_site_fract_z
 _atom_site_occupancy
  Pr  Pr0  1  0.750000  0.250000  0.243245  1
  Pr  Pr1  1  0.250000  0.750000  0.243245  1
  Pr  Pr2  1  0.250000  0.750000  0.756755  1
  Pr  Pr3  1  0.750000  0.250000  0.756755  1
  Ga  Ga4  1  0.250000  0.250000  0.187757  1
  Ga  Ga5  1  0.750000  0.750000  0.187757  1
  Ga  Ga6  1  0.750000  0.750000  0.812243  1
  Ga  Ga7  1  0.250000  0.250000  0.812243  1
  Ga  Ga8  1  0.250000  0.250000  0.344966  1
  Ga  Ga9  1  0.750000  0.750000  0.344966  1
  Ga  Ga10  1  0.750000  0.750000  0.655034  1
  Ga  Ga11  1  0.250000  0.250000  0.655034  1
  Ga  Ga12  1  0.500088  0.000088  0.913422  1
  Ga  Ga13  1  0.000088  0.999912  0.913422  1
  Ga  Ga14  1  0.499912  0.500088  0.913422  1
  Ga  Ga15  1  0.999912  0.499912  0.913422  1
  Ga  Ga16  1  0.499912  0.999912  0.086578  1
  Ga  Ga17  1  0.999912  0.000088  0.086578  1
  Ga  Ga18  1  0.500088  0.499912  0.086578  1
  Ga  Ga19  1  0.000088  0.500088  0.086578  1
  Ga  Ga20  1  0.580198  0.080198  0.431347  1
  Ga  Ga21  1  0.080198  0.919802  0.431347  1
  Ga  Ga22  1  0.419802  0.580198  0.431347  1
  Ga  Ga23  1  0.919802  0.419802  0.431347  1
  Ga  Ga24  1  0.419802  0.919802  0.568653  1
  Ga  Ga25  1  0.919802  0.080198  0.568653  1
  Ga  Ga26  1  0.580198  0.419802  0.568653  1
  Ga  Ga27  1  0.080198  0.580198  0.568653  1
  Ir  Ir28  1  0.750000  0.250000  0.000000  1
  Ir  Ir29  1  0.250000  0.750000  0.000000  1
