# generated using pymatgen
data_LiNd3Cd3Pt2
_symmetry_space_group_name_H-M   'P 1'
_cell_length_a   7.94593300
_cell_length_b   7.94593326
_cell_length_c   3.85313700
_cell_angle_alpha   90.00000000
_cell_angle_beta   90.00000000
_cell_angle_gamma   119.99998643
_symmetry_Int_Tables_number   1
_chemical_formula_structural   LiNd3Cd3Pt2
_chemical_formula_sum   'Li1 Nd3 Cd3 Pt2'
_cell_volume   210.68564864
_cell_formula_units_Z   1
loop_
 _symmetry_equiv_pos_site_id
 _symmetry_equiv_pos_as_xyz
  1  'x, y, z'
loop_
 _atom_site_type_symbol
 _atom_site_label
 _atom_site_symmetry_multiplicity
 _atom_site_fract_x
 _atom_site_fract_y
 _atom_site_fract_z
 _atom_site_occupancy
  Li  Li0  1  0.000000  0.000000  0.000000  1
  Nd  Nd1  1  0.422604  0.422604  0.000000  1
  Nd  Nd2  1  0.577396  0.000000  0.000000  1
  Nd  Nd3  1  0.000000  0.577396  0.000000  1
  Cd  Cd4  1  0.755732  0.755732  0.500000  1
  Cd  Cd5  1  0.244268  0.000000  0.500000  1
  Cd  Cd6  1  0.000000  0.244268  0.500000  1
  Pt  Pt7  1  0.666667  0.333333  0.500000  1
  Pt  Pt8  1  0.333333  0.666667  0.500000  1
