# generated using pymatgen
data_DyTm19Rh12
_symmetry_space_group_name_H-M   'P 1'
_cell_length_a   10.68824813
_cell_length_b   10.69361014
_cell_length_c   6.27217500
_cell_angle_alpha   89.97707871
_cell_angle_beta   90.00893618
_cell_angle_gamma   90.01322163
_symmetry_Int_Tables_number   1
_chemical_formula_structural   DyTm19Rh12
_chemical_formula_sum   'Dy1 Tm19 Rh12'
_cell_volume   716.88416887
_cell_formula_units_Z   1
loop_
 _symmetry_equiv_pos_site_id
 _symmetry_equiv_pos_as_xyz
  1  'x, y, z'
loop_
 _atom_site_type_symbol
 _atom_site_label
 _atom_site_symmetry_multiplicity
 _atom_site_fract_x
 _atom_site_fract_y
 _atom_site_fract_z
 _atom_site_occupancy
  Dy  Dy0  1  0.088569  0.289663  0.123557  1
  Tm  Tm1  1  0.291644  0.087111  0.378028  1
  Tm  Tm2  1  0.290923  0.912021  0.877925  1
  Tm  Tm3  1  0.709060  0.087984  0.877192  1
  Tm  Tm4  1  0.709034  0.911940  0.377577  1
  Tm  Tm5  1  0.587991  0.791000  0.877722  1
  Tm  Tm6  1  0.588050  0.209073  0.377610  1
  Tm  Tm7  1  0.412069  0.790791  0.377554  1
  Tm  Tm8  1  0.412107  0.209084  0.877290  1
  Tm  Tm9  1  0.209247  0.412567  0.622426  1
  Tm  Tm10  1  0.209107  0.588765  0.122375  1
  Tm  Tm11  1  0.790477  0.412305  0.122526  1
  Tm  Tm12  1  0.790635  0.588282  0.622648  1
  Tm  Tm13  1  0.911761  0.709135  0.122700  1
  Tm  Tm14  1  0.911389  0.291217  0.622448  1
  Tm  Tm15  1  0.088158  0.709374  0.622597  1
  Tm  Tm16  1  0.999824  0.999946  0.499844  1
  Tm  Tm17  1  0.999578  0.999118  0.999628  1
  Tm  Tm18  1  0.499951  0.500175  0.999540  1
  Tm  Tm19  1  0.500260  0.500157  0.499841  1
  Rh  Rh20  1  0.844645  0.153232  0.250701  1
  Rh  Rh21  1  0.845859  0.845620  0.750012  1
  Rh  Rh22  1  0.154571  0.153175  0.747430  1
  Rh  Rh23  1  0.154032  0.845906  0.249941  1
  Rh  Rh24  1  0.654105  0.345975  0.750053  1
  Rh  Rh25  1  0.654070  0.654140  0.249896  1
  Rh  Rh26  1  0.347535  0.346095  0.250941  1
  Rh  Rh27  1  0.346055  0.654206  0.749958  1
  Rh  Rh28  1  0.500235  0.999794  0.124102  1
  Rh  Rh29  1  0.500024  0.999715  0.624354  1
  Rh  Rh30  1  0.999572  0.501208  0.875104  1
  Rh  Rh31  1  0.999464  0.501227  0.376480  1
