# generated using pymatgen
data_ZrSc3Co20Si5P7
_symmetry_space_group_name_H-M   'P 1'
_cell_length_a   3.59970600
_cell_length_b   10.22972053
_cell_length_c   11.65290971
_cell_angle_alpha   90.05827466
_cell_angle_beta   90.00000000
_cell_angle_gamma   90.00000000
_symmetry_Int_Tables_number   1
_chemical_formula_structural   ZrSc3Co20Si5P7
_chemical_formula_sum   'Zr1 Sc3 Co20 Si5 P7'
_cell_volume   429.10636639
_cell_formula_units_Z   1
loop_
 _symmetry_equiv_pos_site_id
 _symmetry_equiv_pos_as_xyz
  1  'x, y, z'
loop_
 _atom_site_type_symbol
 _atom_site_label
 _atom_site_symmetry_multiplicity
 _atom_site_fract_x
 _atom_site_fract_y
 _atom_site_fract_z
 _atom_site_occupancy
  Zr  Zr0  1  0.250000  0.582011  0.704345  1
  Sc  Sc1  1  0.250000  0.920558  0.201459  1
  Sc  Sc2  1  0.750000  0.416425  0.298588  1
  Sc  Sc3  1  0.750000  0.084006  0.796246  1
  Co  Co4  1  0.250000  0.719785  0.989441  1
  Co  Co5  1  0.250000  0.782081  0.489288  1
  Co  Co6  1  0.750000  0.277466  0.005672  1
  Co  Co7  1  0.750000  0.217519  0.501382  1
  Co  Co8  1  0.250000  0.407634  0.483077  1
  Co  Co9  1  0.250000  0.092793  0.985035  1
  Co  Co10  1  0.750000  0.591170  0.509349  1
  Co  Co11  1  0.750000  0.913366  0.010229  1
  Co  Co12  1  0.250000  0.219451  0.175620  1
  Co  Co13  1  0.250000  0.277942  0.677038  1
  Co  Co14  1  0.750000  0.786733  0.824858  1
  Co  Co15  1  0.750000  0.713044  0.324084  1
  Co  Co16  1  0.250000  0.886768  0.700686  1
  Co  Co17  1  0.250000  0.613871  0.200957  1
  Co  Co18  1  0.750000  0.117687  0.298891  1
  Co  Co19  1  0.750000  0.380934  0.804479  1
  Co  Co20  1  0.250000  0.461809  0.935150  1
  Co  Co21  1  0.250000  0.037370  0.432315  1
  Co  Co22  1  0.750000  0.524098  0.075270  1
  Co  Co23  1  0.750000  0.975218  0.572801  1
  Si  Si24  1  0.750000  0.586218  0.892283  1
  Si  Si25  1  0.750000  0.913692  0.388805  1
  Si  Si26  1  0.750000  0.732819  0.127363  1
  Si  Si27  1  0.750000  0.769237  0.627454  1
  Si  Si28  1  0.750000  0.399952  0.610325  1
  P  P29  1  0.250000  0.417281  0.117658  1
  P  P30  1  0.250000  0.082305  0.615082  1
  P  P31  1  0.250000  0.266189  0.868455  1
  P  P32  1  0.250000  0.233077  0.367683  1
  P  P33  1  0.250000  0.598314  0.389014  1
  P  P34  1  0.250000  0.902655  0.889005  1
  P  P35  1  0.750000  0.098524  0.110612  1
