# generated using pymatgen
data_U4Si5Tc7As
_symmetry_space_group_name_H-M   'P 1'
_cell_length_a   7.13606007
_cell_length_b   7.13606121
_cell_length_c   7.13606053
_cell_angle_alpha   109.60193526
_cell_angle_beta   109.21009543
_cell_angle_gamma   109.60194639
_symmetry_Int_Tables_number   1
_chemical_formula_structural   U4Si5Tc7As
_chemical_formula_sum   'U4 Si5 Tc7 As1'
_cell_volume   279.73508246
_cell_formula_units_Z   1
loop_
 _symmetry_equiv_pos_site_id
 _symmetry_equiv_pos_as_xyz
  1  'x, y, z'
loop_
 _atom_site_type_symbol
 _atom_site_label
 _atom_site_symmetry_multiplicity
 _atom_site_fract_x
 _atom_site_fract_y
 _atom_site_fract_z
 _atom_site_occupancy
  U  U0  1  0.498834  0.496211  0.498834  1
  U  U1  1  0.002622  0.503789  0.002622  1
  U  U2  1  0.498834  0.000000  0.002622  1
  U  U3  1  0.002622  0.000000  0.498834  1
  Si  Si4  1  0.689285  0.688707  0.000578  1
  Si  Si5  1  0.311871  0.311293  0.000578  1
  Si  Si6  1  0.000578  0.688707  0.689285  1
  Si  Si7  1  0.000578  0.311293  0.311871  1
  Si  Si8  1  0.309072  0.000000  0.309072  1
  Tc  Tc9  1  0.497151  0.749013  0.246165  1
  Tc  Tc10  1  0.748138  0.250987  0.497151  1
  Tc  Tc11  1  0.246165  0.749013  0.497151  1
  Tc  Tc12  1  0.249230  0.500000  0.749230  1
  Tc  Tc13  1  0.004486  0.000000  0.004486  1
  Tc  Tc14  1  0.497151  0.250987  0.748138  1
  Tc  Tc15  1  0.749230  0.500000  0.249230  1
  As  As16  1  0.694150  0.000000  0.694150  1
