# generated using pymatgen
data_Ca4Al6PdRh
_symmetry_space_group_name_H-M   'P 1'
_cell_length_a   5.61055300
_cell_length_b   5.61055425
_cell_length_c   8.86936300
_cell_angle_alpha   90.00000000
_cell_angle_beta   90.00000000
_cell_angle_gamma   120.00001034
_symmetry_Int_Tables_number   1
_chemical_formula_structural   Ca4Al6PdRh
_chemical_formula_sum   'Ca4 Al6 Pd1 Rh1'
_cell_volume   241.78783762
_cell_formula_units_Z   1
loop_
 _symmetry_equiv_pos_site_id
 _symmetry_equiv_pos_as_xyz
  1  'x, y, z'
loop_
 _atom_site_type_symbol
 _atom_site_label
 _atom_site_symmetry_multiplicity
 _atom_site_fract_x
 _atom_site_fract_y
 _atom_site_fract_z
 _atom_site_occupancy
  Ca  Ca0  1  0.666667  0.333334  0.055034  1
  Ca  Ca1  1  0.666667  0.333334  0.442484  1
  Ca  Ca2  1  0.333333  0.666667  0.557515  1
  Ca  Ca3  1  0.333333  0.666667  0.944966  1
  Al  Al4  1  0.162163  0.324326  0.253396  1
  Al  Al5  1  0.162164  0.837838  0.253396  1
  Al  Al6  1  0.675674  0.837838  0.253396  1
  Al  Al7  1  0.324327  0.162163  0.746604  1
  Al  Al8  1  0.837837  0.162163  0.746604  1
  Al  Al9  1  0.837838  0.675675  0.746604  1
  Pd  Pd10  1  0.000000  0.000000  0.000000  1
  Rh  Rh11  1  0.000000  0.000000  0.500000  1
