# generated using pymatgen
data_PaTaB6Os
_symmetry_space_group_name_H-M   'P 1'
_cell_length_a   3.50202200
_cell_length_b   9.04353700
_cell_length_c   11.40522100
_cell_angle_alpha   90.00000000
_cell_angle_beta   90.00000000
_cell_angle_gamma   90.00000000
_symmetry_Int_Tables_number   1
_chemical_formula_structural   PaTaB6Os
_chemical_formula_sum   'Pa4 Ta4 B24 Os4'
_cell_volume   361.21093961
_cell_formula_units_Z   4
loop_
 _symmetry_equiv_pos_site_id
 _symmetry_equiv_pos_as_xyz
  1  'x, y, z'
loop_
 _atom_site_type_symbol
 _atom_site_label
 _atom_site_symmetry_multiplicity
 _atom_site_fract_x
 _atom_site_fract_y
 _atom_site_fract_z
 _atom_site_occupancy
  Pa  Pa0  1  0.000000  0.322515  0.412267  1
  Pa  Pa1  1  0.000000  0.677485  0.587733  1
  Pa  Pa2  1  0.000000  0.822515  0.087733  1
  Pa  Pa3  1  0.000000  0.177485  0.912267  1
  Ta  Ta4  1  0.000000  0.947751  0.375671  1
  Ta  Ta5  1  0.000000  0.052249  0.624329  1
  Ta  Ta6  1  0.000000  0.447751  0.124329  1
  Ta  Ta7  1  0.000000  0.552249  0.875671  1
  B  B8  1  0.500000  0.552839  0.435203  1
  B  B9  1  0.500000  0.447161  0.564797  1
  B  B10  1  0.500000  0.052839  0.064797  1
  B  B11  1  0.500000  0.947161  0.935203  1
  B  B12  1  0.500000  0.755606  0.421113  1
  B  B13  1  0.500000  0.244394  0.578887  1
  B  B14  1  0.500000  0.255606  0.078887  1
  B  B15  1  0.500000  0.744394  0.921113  1
  B  B16  1  0.500000  0.799024  0.265441  1
  B  B17  1  0.500000  0.200976  0.734558  1
  B  B18  1  0.500000  0.299024  0.234559  1
  B  B19  1  0.500000  0.700976  0.765442  1
  B  B20  1  0.500000  0.630615  0.180367  1
  B  B21  1  0.500000  0.369385  0.819633  1
  B  B22  1  0.500000  0.130615  0.319633  1
  B  B23  1  0.500000  0.869385  0.680367  1
  B  B24  1  0.500000  0.979823  0.216143  1
  B  B25  1  0.500000  0.020177  0.783857  1
  B  B26  1  0.500000  0.479823  0.283857  1
  B  B27  1  0.500000  0.520177  0.716143  1
  B  B28  1  0.500000  0.600224  0.026578  1
  B  B29  1  0.500000  0.399776  0.973422  1
  B  B30  1  0.500000  0.100224  0.473422  1
  B  B31  1  0.500000  0.899776  0.526578  1
  Os  Os32  1  0.000000  0.641816  0.321008  1
  Os  Os33  1  0.000000  0.358184  0.678992  1
  Os  Os34  1  0.000000  0.141816  0.178992  1
  Os  Os35  1  0.000000  0.858184  0.821008  1
