# generated using pymatgen
data_Ba4FeCo3(RhN3)2
_symmetry_space_group_name_H-M   'P 1'
_cell_length_a   6.79517244
_cell_length_b   6.76868946
_cell_length_c   6.74332383
_cell_angle_alpha   88.69876681
_cell_angle_beta   89.08625842
_cell_angle_gamma   117.31490402
_symmetry_Int_Tables_number   1
_chemical_formula_structural   Ba4FeCo3(RhN3)2
_chemical_formula_sum   'Ba4 Fe1 Co3 Rh2 N6'
_cell_volume   275.37978379
_cell_formula_units_Z   1
loop_
 _symmetry_equiv_pos_site_id
 _symmetry_equiv_pos_as_xyz
  1  'x, y, z'
loop_
 _atom_site_type_symbol
 _atom_site_label
 _atom_site_symmetry_multiplicity
 _atom_site_fract_x
 _atom_site_fract_y
 _atom_site_fract_z
 _atom_site_occupancy
  Ba  Ba0  1  0.837068  0.675205  0.902247  1
  Ba  Ba1  1  0.328642  0.162853  0.599260  1
  Ba  Ba2  1  0.164963  0.327865  0.100372  1
  Ba  Ba3  1  0.676802  0.838218  0.400355  1
  Fe  Fe4  1  0.150267  0.553117  0.603675  1
  Co  Co5  1  0.555599  0.152824  0.105460  1
  Co  Co6  1  0.443361  0.848059  0.895784  1
  Co  Co7  1  0.845002  0.442468  0.390169  1
  Rh  Rh8  1  0.806780  0.196214  0.750122  1
  Rh  Rh9  1  0.193882  0.804729  0.251928  1
  N  N10  1  0.381920  0.613071  0.745997  1
  N  N11  1  0.610008  0.387677  0.248779  1
  N  N12  1  0.016786  0.716042  0.507556  1
  N  N13  1  0.718380  0.015278  0.000891  1
  N  N14  1  0.989978  0.282825  0.498316  1
  N  N15  1  0.280562  0.983555  0.999089  1
