# generated using pymatgen
data_Dy4Ho8Co2Ni3Bi
_symmetry_space_group_name_H-M   'P 1'
_cell_length_a   8.31743693
_cell_length_b   8.31741594
_cell_length_c   8.31743805
_cell_angle_alpha   111.10695357
_cell_angle_beta   109.39596313
_cell_angle_gamma   107.92651547
_symmetry_Int_Tables_number   1
_chemical_formula_structural   Dy4Ho8Co2Ni3Bi
_chemical_formula_sum   'Dy4 Ho8 Co2 Ni3 Bi1'
_cell_volume   442.59791386
_cell_formula_units_Z   1
loop_
 _symmetry_equiv_pos_site_id
 _symmetry_equiv_pos_as_xyz
  1  'x, y, z'
loop_
 _atom_site_type_symbol
 _atom_site_label
 _atom_site_symmetry_multiplicity
 _atom_site_fract_x
 _atom_site_fract_y
 _atom_site_fract_z
 _atom_site_occupancy
  Dy  Dy0  1  0.819116  0.709910  0.529030  1
  Dy  Dy1  1  0.180884  0.290090  0.470970  1
  Dy  Dy2  1  0.180882  0.709910  0.890795  1
  Dy  Dy3  1  0.819118  0.290090  0.109205  1
  Ho  Ho4  1  0.684666  0.374366  0.689702  1
  Ho  Ho5  1  0.315334  0.625634  0.310298  1
  Ho  Ho6  1  0.684665  0.994963  0.310298  1
  Ho  Ho7  1  0.315335  0.005037  0.689702  1
  Ho  Ho8  1  0.597373  0.790867  0.806509  1
  Ho  Ho9  1  0.402627  0.209133  0.193491  1
  Ho  Ho10  1  0.984358  0.790867  0.193494  1
  Ho  Ho11  1  0.015642  0.209133  0.806506  1
  Co  Co12  1  0.114201  0.614202  0.500000  1
  Co  Co13  1  0.885799  0.385798  0.500000  1
  Ni  Ni14  1  0.633046  0.000000  0.633046  1
  Ni  Ni15  1  0.366954  0.000000  0.366954  1
  Ni  Ni16  1  0.000000  0.000000  0.000000  1
  Bi  Bi17  1  0.500000  0.500000  0.000000  1
