# generated using pymatgen
data_Ta8Ga6Mo2C
_symmetry_space_group_name_H-M   'P 1'
_cell_length_a   7.72466500
_cell_length_b   7.72466378
_cell_length_c   5.21964300
_cell_angle_alpha   90.00000000
_cell_angle_beta   90.00000000
_cell_angle_gamma   120.00000096
_symmetry_Int_Tables_number   1
_chemical_formula_structural   Ta8Ga6Mo2C
_chemical_formula_sum   'Ta8 Ga6 Mo2 C1'
_cell_volume   269.73087875
_cell_formula_units_Z   1
loop_
 _symmetry_equiv_pos_site_id
 _symmetry_equiv_pos_as_xyz
  1  'x, y, z'
loop_
 _atom_site_type_symbol
 _atom_site_label
 _atom_site_symmetry_multiplicity
 _atom_site_fract_x
 _atom_site_fract_y
 _atom_site_fract_z
 _atom_site_occupancy
  Ta  Ta0  1  0.666667  0.333333  0.000000  1
  Ta  Ta1  1  0.333333  0.666667  0.000000  1
  Ta  Ta2  1  0.000000  0.767047  0.244533  1
  Ta  Ta3  1  0.232953  0.232953  0.244533  1
  Ta  Ta4  1  0.767047  0.000000  0.244533  1
  Ta  Ta5  1  0.000000  0.232953  0.755467  1
  Ta  Ta6  1  0.767047  0.767047  0.755467  1
  Ta  Ta7  1  0.232953  0.000000  0.755467  1
  Ga  Ga8  1  0.000000  0.404202  0.258188  1
  Ga  Ga9  1  0.595798  0.595798  0.258188  1
  Ga  Ga10  1  0.404202  0.000000  0.258188  1
  Ga  Ga11  1  0.000000  0.595798  0.741812  1
  Ga  Ga12  1  0.404202  0.404202  0.741812  1
  Ga  Ga13  1  0.595798  0.000000  0.741812  1
  Mo  Mo14  1  0.333333  0.666667  0.500000  1
  Mo  Mo15  1  0.666667  0.333333  0.500000  1
  C  C16  1  0.000000  0.000000  0.500000  1
