# generated using pymatgen
data_BaIrCl6
_symmetry_space_group_name_H-M   'P 1'
_cell_length_a   6.54404498
_cell_length_b   6.54404606
_cell_length_c   11.77356402
_cell_angle_alpha   79.41383326
_cell_angle_beta   79.41383058
_cell_angle_gamma   56.57537009
_symmetry_Int_Tables_number   1
_chemical_formula_structural   BaIrCl6
_chemical_formula_sum   'Ba2 Ir2 Cl12'
_cell_volume   411.54881852
_cell_formula_units_Z   2
loop_
 _symmetry_equiv_pos_site_id
 _symmetry_equiv_pos_as_xyz
  1  'x, y, z'
loop_
 _atom_site_type_symbol
 _atom_site_label
 _atom_site_symmetry_multiplicity
 _atom_site_fract_x
 _atom_site_fract_y
 _atom_site_fract_z
 _atom_site_occupancy
  Ba  Ba0  1  0.911136  0.088864  0.750000  1
  Ba  Ba1  1  0.088864  0.911136  0.250000  1
  Ir  Ir2  1  0.500000  0.000000  0.500000  1
  Ir  Ir3  1  0.000000  0.500000  0.000000  1
  Cl  Cl4  1  0.459396  0.687629  0.611538  1
  Cl  Cl5  1  0.540604  0.312371  0.388462  1
  Cl  Cl6  1  0.312371  0.540604  0.888462  1
  Cl  Cl7  1  0.687629  0.459396  0.111538  1
  Cl  Cl8  1  0.376781  0.200741  0.668039  1
  Cl  Cl9  1  0.623219  0.799259  0.331961  1
  Cl  Cl10  1  0.799259  0.623219  0.831961  1
  Cl  Cl11  1  0.200741  0.376781  0.168039  1
  Cl  Cl12  1  0.795861  0.912725  0.033758  1
  Cl  Cl13  1  0.204139  0.087275  0.966242  1
  Cl  Cl14  1  0.087275  0.204139  0.466242  1
  Cl  Cl15  1  0.912725  0.795861  0.533758  1
