# generated using pymatgen
data_Dy2Er8Si5P
_symmetry_space_group_name_H-M   'P 1'
_cell_length_a   8.34223083
_cell_length_b   8.34963100
_cell_length_c   6.24809200
_cell_angle_alpha   90.00000000
_cell_angle_beta   90.00000000
_cell_angle_gamma   119.91963270
_symmetry_Int_Tables_number   1
_chemical_formula_structural   Dy2Er8Si5P
_chemical_formula_sum   'Dy2 Er8 Si5 P1'
_cell_volume   377.20606745
_cell_formula_units_Z   1
loop_
 _symmetry_equiv_pos_site_id
 _symmetry_equiv_pos_as_xyz
  1  'x, y, z'
loop_
 _atom_site_type_symbol
 _atom_site_label
 _atom_site_symmetry_multiplicity
 _atom_site_fract_x
 _atom_site_fract_y
 _atom_site_fract_z
 _atom_site_occupancy
  Dy  Dy0  1  0.001104  0.757402  0.750000  1
  Dy  Dy1  1  0.755658  0.000039  0.750000  1
  Er  Er2  1  0.000916  0.243727  0.250000  1
  Er  Er3  1  0.756811  0.756050  0.250000  1
  Er  Er4  1  0.243944  0.242875  0.750000  1
  Er  Er5  1  0.243198  0.000153  0.250000  1
  Er  Er6  1  0.333670  0.667279  0.500347  1
  Er  Er7  1  0.666164  0.332587  0.999635  1
  Er  Er8  1  0.666164  0.332587  0.500365  1
  Er  Er9  1  0.333670  0.667279  0.999653  1
  Si  Si10  1  0.394571  0.394022  0.250000  1
  Si  Si11  1  0.000550  0.606067  0.250000  1
  Si  Si12  1  0.000477  0.394219  0.750000  1
  Si  Si13  1  0.605289  0.605187  0.750000  1
  Si  Si14  1  0.606654  0.000022  0.250000  1
  P  P15  1  0.391162  0.000505  0.750000  1
