# generated using pymatgen
data_Ac4CdPbAu4
_symmetry_space_group_name_H-M   'P 1'
_cell_length_a   4.06898400
_cell_length_b   8.59131700
_cell_length_c   8.59131700
_cell_angle_alpha   90.00000000
_cell_angle_beta   90.00000000
_cell_angle_gamma   90.00000000
_symmetry_Int_Tables_number   1
_chemical_formula_structural   Ac4CdPbAu4
_chemical_formula_sum   'Ac4 Cd1 Pb1 Au4'
_cell_volume   300.33467042
_cell_formula_units_Z   1
loop_
 _symmetry_equiv_pos_site_id
 _symmetry_equiv_pos_as_xyz
  1  'x, y, z'
loop_
 _atom_site_type_symbol
 _atom_site_label
 _atom_site_symmetry_multiplicity
 _atom_site_fract_x
 _atom_site_fract_y
 _atom_site_fract_z
 _atom_site_occupancy
  Ac  Ac0  1  0.500000  0.179547  0.672426  1
  Ac  Ac1  1  0.500000  0.820453  0.327574  1
  Ac  Ac2  1  0.500000  0.327574  0.179547  1
  Ac  Ac3  1  0.500000  0.672426  0.820453  1
  Cd  Cd4  1  0.000000  0.500000  0.500000  1
  Pb  Pb5  1  0.000000  0.000000  0.000000  1
  Au  Au6  1  0.000000  0.616188  0.130985  1
  Au  Au7  1  0.000000  0.383812  0.869015  1
  Au  Au8  1  0.000000  0.869015  0.616188  1
  Au  Au9  1  0.000000  0.130985  0.383812  1
