# generated using pymatgen
data_Zr10Sn3HgBi4
_symmetry_space_group_name_H-M   'P 1'
_cell_length_a   8.93597436
_cell_length_b   8.94701845
_cell_length_c   6.00274423
_cell_angle_alpha   90.03190906
_cell_angle_beta   89.98402799
_cell_angle_gamma   120.04089510
_symmetry_Int_Tables_number   1
_chemical_formula_structural   Zr10Sn3HgBi4
_chemical_formula_sum   'Zr10 Sn3 Hg1 Bi4'
_cell_volume   415.45265285
_cell_formula_units_Z   1
loop_
 _symmetry_equiv_pos_site_id
 _symmetry_equiv_pos_as_xyz
  1  'x, y, z'
loop_
 _atom_site_type_symbol
 _atom_site_label
 _atom_site_symmetry_multiplicity
 _atom_site_fract_x
 _atom_site_fract_y
 _atom_site_fract_z
 _atom_site_occupancy
  Zr  Zr0  1  0.334585  0.667293  0.000000  1
  Zr  Zr1  1  0.659842  0.329920  0.500000  1
  Zr  Zr2  1  0.661037  0.330518  0.000000  1
  Zr  Zr3  1  0.334989  0.667495  0.500000  1
  Zr  Zr4  1  0.283031  0.004984  0.251042  1
  Zr  Zr5  1  0.283031  0.278047  0.748958  1
  Zr  Zr6  1  0.004946  0.723123  0.748795  1
  Zr  Zr7  1  0.004946  0.281823  0.251205  1
  Zr  Zr8  1  0.717220  0.717118  0.252395  1
  Zr  Zr9  1  0.717220  0.000101  0.747605  1
  Sn  Sn10  1  0.999491  0.999746  0.500000  1
  Sn  Sn11  1  0.383090  0.383715  0.248569  1
  Sn  Sn12  1  0.383090  0.999375  0.751431  1
  Hg  Hg13  1  0.000651  0.000326  0.000000  1
  Bi  Bi14  1  0.616637  0.000363  0.247459  1
  Bi  Bi15  1  0.616637  0.616274  0.752541  1
  Bi  Bi16  1  0.999778  0.383516  0.751791  1
  Bi  Bi17  1  0.999778  0.616262  0.248209  1
