# generated using pymatgen
data_ThSiSnIr2
_symmetry_space_group_name_H-M   'P 1'
_cell_length_a   4.17324700
_cell_length_b   4.17264800
_cell_length_c   11.19620400
_cell_angle_alpha   90.00000000
_cell_angle_beta   90.00000000
_cell_angle_gamma   90.00000000
_symmetry_Int_Tables_number   1
_chemical_formula_structural   ThSiSnIr2
_chemical_formula_sum   'Th2 Si2 Sn2 Ir4'
_cell_volume   194.96499477
_cell_formula_units_Z   2
loop_
 _symmetry_equiv_pos_site_id
 _symmetry_equiv_pos_as_xyz
  1  'x, y, z'
loop_
 _atom_site_type_symbol
 _atom_site_label
 _atom_site_symmetry_multiplicity
 _atom_site_fract_x
 _atom_site_fract_y
 _atom_site_fract_z
 _atom_site_occupancy
  Th  Th0  1  0.000000  0.500000  0.233287  1
  Th  Th1  1  0.500000  0.000000  0.766713  1
  Si  Si2  1  0.000000  0.500000  0.884027  1
  Si  Si3  1  0.500000  0.000000  0.115973  1
  Sn  Sn4  1  0.000000  0.000000  0.500003  1
  Sn  Sn5  1  0.500000  0.500000  0.499997  1
  Ir  Ir6  1  0.000000  0.000000  0.999998  1
  Ir  Ir7  1  0.500000  0.500000  0.000002  1
  Ir  Ir8  1  0.000000  0.500000  0.675041  1
  Ir  Ir9  1  0.500000  0.000000  0.324959  1
