# generated using pymatgen
data_Rb6Na4ZrSnP6
_symmetry_space_group_name_H-M   'P 1'
_cell_length_a   10.68084550
_cell_length_b   10.68084710
_cell_length_c   15.75181400
_cell_angle_alpha   90.00000000
_cell_angle_beta   90.00000000
_cell_angle_gamma   142.55660333
_symmetry_Int_Tables_number   1
_chemical_formula_structural   Rb6Na4ZrSnP6
_chemical_formula_sum   'Rb12 Na8 Zr2 Sn2 P12'
_cell_volume   1092.51980438
_cell_formula_units_Z   2
loop_
 _symmetry_equiv_pos_site_id
 _symmetry_equiv_pos_as_xyz
  1  'x, y, z'
loop_
 _atom_site_type_symbol
 _atom_site_label
 _atom_site_symmetry_multiplicity
 _atom_site_fract_x
 _atom_site_fract_y
 _atom_site_fract_z
 _atom_site_occupancy
  Rb  Rb0  1  0.939465  0.603688  0.824391  1
  Rb  Rb1  1  0.560535  0.896312  0.324391  1
  Rb  Rb2  1  0.396312  0.060535  0.175609  1
  Rb  Rb3  1  0.050984  0.390725  0.175406  1
  Rb  Rb4  1  0.890725  0.550984  0.324594  1
  Rb  Rb5  1  0.449016  0.109275  0.675406  1
  Rb  Rb6  1  0.609275  0.949016  0.824594  1
  Rb  Rb7  1  0.275524  0.278120  0.316514  1
  Rb  Rb8  1  0.778120  0.775524  0.183486  1
  Rb  Rb9  1  0.224476  0.221880  0.816514  1
  Rb  Rb10  1  0.721880  0.724476  0.683486  1
  Rb  Rb11  1  0.103688  0.439465  0.675609  1
  Na  Na12  1  0.918963  0.081037  0.000000  1
  Na  Na13  1  0.581037  0.418963  0.500000  1
  Na  Na14  1  0.080975  0.919025  0.000000  1
  Na  Na15  1  0.419025  0.580975  0.500000  1
  Na  Na16  1  0.754343  0.245657  0.000000  1
  Na  Na17  1  0.745657  0.254343  0.500000  1
  Na  Na18  1  0.245140  0.754860  0.000000  1
  Na  Na19  1  0.254860  0.745140  0.500000  1
  Zr  Zr20  1  0.417074  0.582926  0.000000  1
  Zr  Zr21  1  0.082926  0.917074  0.500000  1
  Sn  Sn22  1  0.584913  0.415087  0.000000  1
  Sn  Sn23  1  0.915087  0.084913  0.500000  1
  P  P24  1  0.872680  0.560416  0.097863  1
  P  P25  1  0.439584  0.127320  0.902137  1
  P  P26  1  0.627320  0.939584  0.597863  1
  P  P27  1  0.943439  0.633183  0.595362  1
  P  P28  1  0.133183  0.443439  0.904638  1
  P  P29  1  0.556561  0.866817  0.095362  1
  P  P30  1  0.366817  0.056561  0.404638  1
  P  P31  1  0.206527  0.205553  0.590237  1
  P  P32  1  0.705553  0.706527  0.909763  1
  P  P33  1  0.293473  0.294447  0.090237  1
  P  P34  1  0.060416  0.372680  0.402137  1
  P  P35  1  0.794447  0.793473  0.409763  1
