# generated using pymatgen
data_CeNd4Ho3AlPd24
_symmetry_space_group_name_H-M   'P 1'
_cell_length_a   8.41426236
_cell_length_b   8.41825461
_cell_length_c   8.42113636
_cell_angle_alpha   89.78689712
_cell_angle_beta   90.09968341
_cell_angle_gamma   89.97832659
_symmetry_Int_Tables_number   1
_chemical_formula_structural   CeNd4Ho3AlPd24
_chemical_formula_sum   'Ce1 Nd4 Ho3 Al1 Pd24'
_cell_volume   596.49267151
_cell_formula_units_Z   1
loop_
 _symmetry_equiv_pos_site_id
 _symmetry_equiv_pos_as_xyz
  1  'x, y, z'
loop_
 _atom_site_type_symbol
 _atom_site_label
 _atom_site_symmetry_multiplicity
 _atom_site_fract_x
 _atom_site_fract_y
 _atom_site_fract_z
 _atom_site_occupancy
  Ce  Ce0  1  0.745786  0.254312  0.254335  1
  Nd  Nd1  1  0.747763  0.252117  0.749498  1
  Nd  Nd2  1  0.252184  0.251744  0.748010  1
  Nd  Nd3  1  0.252189  0.747933  0.251742  1
  Nd  Nd4  1  0.252464  0.747377  0.747504  1
  Ho  Ho5  1  0.250655  0.252133  0.252034  1
  Ho  Ho6  1  0.748264  0.747969  0.747947  1
  Ho  Ho7  1  0.747716  0.749214  0.252155  1
  Al  Al8  1  0.001435  0.998354  0.998406  1
  Pd  Pd9  1  0.259845  0.497627  0.002389  1
  Pd  Pd10  1  0.739906  0.501029  0.004905  1
  Pd  Pd11  1  0.997439  0.259820  0.495659  1
  Pd  Pd12  1  0.501100  0.259892  0.007128  1
  Pd  Pd13  1  0.995260  0.740096  0.498775  1
  Pd  Pd14  1  0.504653  0.739994  0.000071  1
  Pd  Pd15  1  0.502671  0.004458  0.259948  1
  Pd  Pd16  1  0.259799  0.002073  0.497089  1
  Pd  Pd17  1  0.502890  0.997259  0.740126  1
  Pd  Pd18  1  0.740055  0.000058  0.497275  1
  Pd  Pd19  1  0.995174  0.497993  0.259948  1
  Pd  Pd20  1  0.997666  0.501230  0.740095  1
  Pd  Pd21  1  0.252931  0.497356  0.497010  1
  Pd  Pd22  1  0.746426  0.501659  0.497004  1
  Pd  Pd23  1  0.500823  0.253557  0.494817  1
  Pd  Pd24  1  0.505294  0.747047  0.499335  1
  Pd  Pd25  1  0.502971  0.497450  0.253422  1
  Pd  Pd26  1  0.503029  0.502127  0.747132  1
  Pd  Pd27  1  0.291237  0.001736  0.001934  1
  Pd  Pd28  1  0.711890  0.998357  0.002897  1
  Pd  Pd29  1  0.999398  0.288596  0.004940  1
  Pd  Pd30  1  0.995877  0.709417  0.999857  1
  Pd  Pd31  1  0.997214  0.002514  0.287873  1
  Pd  Pd32  1  0.997995  0.997504  0.708741  1
