# generated using pymatgen
data_Dy5Ho2Er(ReB6)4
_symmetry_space_group_name_H-M   'P 1'
_cell_length_a   3.67824300
_cell_length_b   9.16737900
_cell_length_c   11.55514800
_cell_angle_alpha   89.99879196
_cell_angle_beta   90.00000000
_cell_angle_gamma   90.00000000
_symmetry_Int_Tables_number   1
_chemical_formula_structural   Dy5Ho2Er(ReB6)4
_chemical_formula_sum   'Dy5 Ho2 Er1 Re4 B24'
_cell_volume   389.63783003
_cell_formula_units_Z   1
loop_
 _symmetry_equiv_pos_site_id
 _symmetry_equiv_pos_as_xyz
  1  'x, y, z'
loop_
 _atom_site_type_symbol
 _atom_site_label
 _atom_site_symmetry_multiplicity
 _atom_site_fract_x
 _atom_site_fract_y
 _atom_site_fract_z
 _atom_site_occupancy
  Dy  Dy0  1  0.000000  0.323198  0.414049  1
  Dy  Dy1  1  0.000000  0.676664  0.586069  1
  Dy  Dy2  1  0.000000  0.823280  0.085905  1
  Dy  Dy3  1  0.000000  0.176786  0.913911  1
  Dy  Dy4  1  0.000000  0.942706  0.370261  1
  Ho  Ho5  1  0.000000  0.442650  0.129878  1
  Ho  Ho6  1  0.000000  0.557438  0.869960  1
  Er  Er7  1  0.000000  0.057463  0.630292  1
  Re  Re8  1  0.000000  0.637818  0.320689  1
  Re  Re9  1  0.000000  0.361574  0.679425  1
  Re  Re10  1  0.000000  0.138374  0.179071  1
  Re  Re11  1  0.000000  0.862024  0.820649  1
  B  B12  1  0.500000  0.552788  0.432833  1
  B  B13  1  0.500000  0.446764  0.567266  1
  B  B14  1  0.500000  0.053210  0.067006  1
  B  B15  1  0.500000  0.946942  0.932782  1
  B  B16  1  0.500000  0.748481  0.418363  1
  B  B17  1  0.500000  0.250732  0.581720  1
  B  B18  1  0.500000  0.249130  0.081489  1
  B  B19  1  0.500000  0.751029  0.918368  1
  B  B20  1  0.500000  0.791247  0.265281  1
  B  B21  1  0.500000  0.208186  0.734603  1
  B  B22  1  0.500000  0.291751  0.234461  1
  B  B23  1  0.500000  0.708487  0.765428  1
  B  B24  1  0.500000  0.630123  0.185468  1
  B  B25  1  0.500000  0.369737  0.814422  1
  B  B26  1  0.500000  0.130621  0.314220  1
  B  B27  1  0.500000  0.869931  0.685557  1
  B  B28  1  0.500000  0.982019  0.211732  1
  B  B29  1  0.500000  0.018339  0.787886  1
  B  B30  1  0.500000  0.481651  0.287903  1
  B  B31  1  0.500000  0.518195  0.711998  1
  B  B32  1  0.500000  0.599369  0.027780  1
  B  B33  1  0.500000  0.400726  0.972110  1
  B  B34  1  0.500000  0.099905  0.472688  1
  B  B35  1  0.500000  0.900659  0.528476  1
