# generated using pymatgen
data_Pr10Al4Ru5Rh
_symmetry_space_group_name_H-M   'P 1'
_cell_length_a   8.62100824
_cell_length_b   8.63383006
_cell_length_c   8.63383001
_cell_angle_alpha   109.47502927
_cell_angle_beta   109.50146956
_cell_angle_gamma   109.49742075
_symmetry_Int_Tables_number   1
_chemical_formula_structural   Pr10Al4Ru5Rh
_chemical_formula_sum   'Pr10 Al4 Ru5 Rh1'
_cell_volume   494.33316755
_cell_formula_units_Z   1
loop_
 _symmetry_equiv_pos_site_id
 _symmetry_equiv_pos_as_xyz
  1  'x, y, z'
loop_
 _atom_site_type_symbol
 _atom_site_label
 _atom_site_symmetry_multiplicity
 _atom_site_fract_x
 _atom_site_fract_y
 _atom_site_fract_z
 _atom_site_occupancy
  Pr  Pr0  1  0.250000  0.684225  0.434225  1
  Pr  Pr1  1  0.750000  0.814986  0.064986  1
  Pr  Pr2  1  0.436705  0.250989  0.683881  1
  Pr  Pr3  1  0.685935  0.435565  0.251093  1
  Pr  Pr4  1  0.063295  0.747176  0.814284  1
  Pr  Pr5  1  0.814065  0.065158  0.749630  1
  Pr  Pr6  1  0.213629  0.214718  0.215867  1
  Pr  Pr7  1  0.500334  0.000192  0.286604  1
  Pr  Pr8  1  0.286371  0.502238  0.001088  1
  Pr  Pr9  1  0.999666  0.286271  0.499858  1
  Al  Al10  1  0.590927  0.590680  0.590540  1
  Al  Al11  1  0.500943  0.999345  0.909089  1
  Al  Al12  1  0.909073  0.499613  0.999753  1
  Al  Al13  1  0.999057  0.908146  0.498402  1
  Ru  Ru14  1  0.750000  0.382099  0.632099  1
  Ru  Ru15  1  0.867556  0.250098  0.117888  1
  Ru  Ru16  1  0.118592  0.869154  0.250375  1
  Ru  Ru17  1  0.632443  0.750331  0.382541  1
  Ru  Ru18  1  0.381408  0.631783  0.750563  1
  Rh  Rh19  1  0.250000  0.117234  0.867234  1
