# generated using pymatgen
data_CeHo3(Si3Rh)2
_symmetry_space_group_name_H-M   'P 1'
_cell_length_a   8.17136100
_cell_length_b   8.17136107
_cell_length_c   7.95667300
_cell_angle_alpha   90.00000000
_cell_angle_beta   90.00000000
_cell_angle_gamma   120.00000377
_symmetry_Int_Tables_number   1
_chemical_formula_structural   CeHo3(Si3Rh)2
_chemical_formula_sum   'Ce2 Ho6 Si12 Rh4'
_cell_volume   460.09861271
_cell_formula_units_Z   2
loop_
 _symmetry_equiv_pos_site_id
 _symmetry_equiv_pos_as_xyz
  1  'x, y, z'
loop_
 _atom_site_type_symbol
 _atom_site_label
 _atom_site_symmetry_multiplicity
 _atom_site_fract_x
 _atom_site_fract_y
 _atom_site_fract_z
 _atom_site_occupancy
  Ce  Ce0  1  0.000000  0.000000  0.250000  1
  Ce  Ce1  1  0.000000  0.000000  0.750000  1
  Ho  Ho2  1  0.508919  0.491081  0.250000  1
  Ho  Ho3  1  0.508919  0.017838  0.250000  1
  Ho  Ho4  1  0.982162  0.491081  0.250000  1
  Ho  Ho5  1  0.491081  0.508919  0.750000  1
  Ho  Ho6  1  0.491081  0.982162  0.750000  1
  Ho  Ho7  1  0.017838  0.508919  0.750000  1
  Si  Si8  1  0.167310  0.832690  0.499866  1
  Si  Si9  1  0.167310  0.334618  0.499866  1
  Si  Si10  1  0.665382  0.832690  0.499866  1
  Si  Si11  1  0.832690  0.167310  0.500134  1
  Si  Si12  1  0.832690  0.665382  0.500134  1
  Si  Si13  1  0.334618  0.167310  0.500134  1
  Si  Si14  1  0.832690  0.167310  0.999866  1
  Si  Si15  1  0.832690  0.665382  0.999866  1
  Si  Si16  1  0.334618  0.167310  0.999866  1
  Si  Si17  1  0.167310  0.832690  0.000134  1
  Si  Si18  1  0.167310  0.334618  0.000134  1
  Si  Si19  1  0.665382  0.832690  0.000134  1
  Rh  Rh20  1  0.333333  0.666667  0.466683  1
  Rh  Rh21  1  0.666667  0.333333  0.533317  1
  Rh  Rh22  1  0.666667  0.333333  0.966683  1
  Rh  Rh23  1  0.333333  0.666667  0.033317  1
