# generated using pymatgen
data_SmTh(SiRh2)2
_symmetry_space_group_name_H-M   'P 1'
_cell_length_a   9.24083147
_cell_length_b   9.24083131
_cell_length_c   4.09629700
_cell_angle_alpha   90.00000000
_cell_angle_beta   90.00000000
_cell_angle_gamma   154.85447957
_symmetry_Int_Tables_number   1
_chemical_formula_structural   SmTh(SiRh2)2
_chemical_formula_sum   'Sm1 Th1 Si2 Rh4'
_cell_volume   148.63442965
_cell_formula_units_Z   1
loop_
 _symmetry_equiv_pos_site_id
 _symmetry_equiv_pos_as_xyz
  1  'x, y, z'
loop_
 _atom_site_type_symbol
 _atom_site_label
 _atom_site_symmetry_multiplicity
 _atom_site_fract_x
 _atom_site_fract_y
 _atom_site_fract_z
 _atom_site_occupancy
  Sm  Sm0  1  0.101977  0.898023  0.750000  1
  Th  Th1  1  0.902170  0.097830  0.250000  1
  Si  Si2  1  0.320374  0.679626  0.750000  1
  Si  Si3  1  0.677722  0.322278  0.250000  1
  Rh  Rh4  1  0.546835  0.453165  0.250000  1
  Rh  Rh5  1  0.451612  0.548388  0.750000  1
  Rh  Rh6  1  0.249436  0.750564  0.250000  1
  Rh  Rh7  1  0.749874  0.250126  0.750000  1
