# generated using pymatgen
data_Y12Ga2TcNi3
_symmetry_space_group_name_H-M   'P 1'
_cell_length_a   8.37322089
_cell_length_b   8.37322230
_cell_length_c   8.37322120
_cell_angle_alpha   112.55528898
_cell_angle_beta   109.75145141
_cell_angle_gamma   106.16978445
_symmetry_Int_Tables_number   1
_chemical_formula_structural   Y12Ga2TcNi3
_chemical_formula_sum   'Y12 Ga2 Tc1 Ni3'
_cell_volume   450.50976963
_cell_formula_units_Z   1
loop_
 _symmetry_equiv_pos_site_id
 _symmetry_equiv_pos_as_xyz
  1  'x, y, z'
loop_
 _atom_site_type_symbol
 _atom_site_label
 _atom_site_symmetry_multiplicity
 _atom_site_fract_x
 _atom_site_fract_y
 _atom_site_fract_z
 _atom_site_occupancy
  Y  Y0  1  0.056059  0.748545  0.307514  1
  Y  Y1  1  0.959704  0.266486  0.693218  1
  Y  Y2  1  0.558968  0.251455  0.307514  1
  Y  Y3  1  0.426733  0.733514  0.693218  1
  Y  Y4  1  0.674806  0.861526  0.191992  1
  Y  Y5  1  0.330467  0.517187  0.191992  1
  Y  Y6  1  0.330467  0.138474  0.813280  1
  Y  Y7  1  0.674806  0.482813  0.813280  1
  Y  Y8  1  0.174879  0.222385  0.397264  1
  Y  Y9  1  0.814644  0.220499  0.035143  1
  Y  Y10  1  0.174879  0.777615  0.952495  1
  Y  Y11  1  0.814644  0.779501  0.594145  1
  Ga  Ga12  1  0.982708  0.500000  0.482708  1
  Ga  Ga13  1  0.507527  0.000000  0.507527  1
  Tc  Tc14  1  0.675086  0.500000  0.175086  1
  Ni  Ni15  1  0.342795  0.500000  0.842795  1
  Ni  Ni16  1  0.883363  0.882950  0.000413  1
  Ni  Ni17  1  0.117463  0.117050  0.000413  1
