# generated using pymatgen
data_Tb3Tm7Cd3Fe
_symmetry_space_group_name_H-M   'P 1'
_cell_length_a   9.46079100
_cell_length_b   9.46079045
_cell_length_c   9.68727500
_cell_angle_alpha   90.00000000
_cell_angle_beta   90.00000000
_cell_angle_gamma   119.99999843
_symmetry_Int_Tables_number   1
_chemical_formula_structural   Tb3Tm7Cd3Fe
_chemical_formula_sum   'Tb6 Tm14 Cd6 Fe2'
_cell_volume   750.90870496
_cell_formula_units_Z   2
loop_
 _symmetry_equiv_pos_site_id
 _symmetry_equiv_pos_as_xyz
  1  'x, y, z'
loop_
 _atom_site_type_symbol
 _atom_site_label
 _atom_site_symmetry_multiplicity
 _atom_site_fract_x
 _atom_site_fract_y
 _atom_site_fract_z
 _atom_site_occupancy
  Tb  Tb0  1  0.540305  0.459695  0.250000  1
  Tb  Tb1  1  0.540305  0.080610  0.250000  1
  Tb  Tb2  1  0.919390  0.459695  0.250000  1
  Tb  Tb3  1  0.459695  0.540305  0.750000  1
  Tb  Tb4  1  0.459695  0.919390  0.750000  1
  Tb  Tb5  1  0.080610  0.540305  0.750000  1
  Tm  Tm6  1  0.000000  0.000000  0.500000  1
  Tm  Tm7  1  0.000000  0.000000  0.000000  1
  Tm  Tm8  1  0.212044  0.787956  0.436570  1
  Tm  Tm9  1  0.212044  0.424089  0.436570  1
  Tm  Tm10  1  0.575911  0.787956  0.436570  1
  Tm  Tm11  1  0.787956  0.212044  0.563430  1
  Tm  Tm12  1  0.787956  0.575911  0.563430  1
  Tm  Tm13  1  0.424089  0.212044  0.563430  1
  Tm  Tm14  1  0.787956  0.212044  0.936570  1
  Tm  Tm15  1  0.787956  0.575911  0.936570  1
  Tm  Tm16  1  0.424089  0.212044  0.936570  1
  Tm  Tm17  1  0.212044  0.787956  0.063430  1
  Tm  Tm18  1  0.212044  0.424089  0.063430  1
  Tm  Tm19  1  0.575911  0.787956  0.063430  1
  Cd  Cd20  1  0.886349  0.113651  0.250000  1
  Cd  Cd21  1  0.886349  0.772699  0.250000  1
  Cd  Cd22  1  0.227301  0.113651  0.250000  1
  Cd  Cd23  1  0.113651  0.886349  0.750000  1
  Cd  Cd24  1  0.113651  0.227301  0.750000  1
  Cd  Cd25  1  0.772699  0.886349  0.750000  1
  Fe  Fe26  1  0.333333  0.666667  0.250000  1
  Fe  Fe27  1  0.666667  0.333333  0.750000  1
