# generated using pymatgen
data_ErTm12Th3(CdIr)4
_symmetry_space_group_name_H-M   'P 1'
_cell_length_a   9.62666849
_cell_length_b   9.62022384
_cell_length_c   9.62022400
_cell_angle_alpha   59.99999944
_cell_angle_beta   60.02214248
_cell_angle_gamma   60.02214351
_symmetry_Int_Tables_number   1
_chemical_formula_structural   ErTm12Th3(CdIr)4
_chemical_formula_sum   'Er1 Tm12 Th3 Cd4 Ir4'
_cell_volume   630.19746491
_cell_formula_units_Z   1
loop_
 _symmetry_equiv_pos_site_id
 _symmetry_equiv_pos_as_xyz
  1  'x, y, z'
loop_
 _atom_site_type_symbol
 _atom_site_label
 _atom_site_symmetry_multiplicity
 _atom_site_fract_x
 _atom_site_fract_y
 _atom_site_fract_z
 _atom_site_occupancy
  Er  Er0  1  0.196748  0.601084  0.601084  1
  Tm  Tm1  1  0.061974  0.439208  0.439208  1
  Tm  Tm2  1  0.437044  0.062836  0.062836  1
  Tm  Tm3  1  0.437044  0.062836  0.437284  1
  Tm  Tm4  1  0.061974  0.439208  0.059610  1
  Tm  Tm5  1  0.437044  0.437284  0.062836  1
  Tm  Tm6  1  0.061974  0.059610  0.439208  1
  Tm  Tm7  1  0.185571  0.814213  0.814213  1
  Tm  Tm8  1  0.816009  0.184065  0.184065  1
  Tm  Tm9  1  0.816009  0.184065  0.815860  1
  Tm  Tm10  1  0.185571  0.814213  0.186002  1
  Tm  Tm11  1  0.816009  0.815860  0.184065  1
  Tm  Tm12  1  0.185571  0.186002  0.814213  1
  Th  Th13  1  0.598483  0.600924  0.600924  1
  Th  Th14  1  0.598483  0.600924  0.199668  1
  Th  Th15  1  0.598483  0.199668  0.600924  1
  Cd  Cd16  1  0.835754  0.831481  0.831481  1
  Cd  Cd17  1  0.835754  0.831481  0.501285  1
  Cd  Cd18  1  0.835754  0.501285  0.831481  1
  Cd  Cd19  1  0.498532  0.833823  0.833823  1
  Ir  Ir20  1  0.392194  0.391859  0.391859  1
  Ir  Ir21  1  0.392194  0.391859  0.824089  1
  Ir  Ir22  1  0.392194  0.824089  0.391859  1
  Ir  Ir23  1  0.823634  0.392122  0.392122  1
