# generated using pymatgen
data_YHo4Pa(Al3Ru)8
_symmetry_space_group_name_H-M   'P 1'
_cell_length_a   8.79741500
_cell_length_b   8.83694891
_cell_length_c   9.56180900
_cell_angle_alpha   90.00000000
_cell_angle_beta   90.00000000
_cell_angle_gamma   119.85211730
_symmetry_Int_Tables_number   1
_chemical_formula_structural   YHo4Pa(Al3Ru)8
_chemical_formula_sum   'Y1 Ho4 Pa1 Al24 Ru8'
_cell_volume   644.72329534
_cell_formula_units_Z   1
loop_
 _symmetry_equiv_pos_site_id
 _symmetry_equiv_pos_as_xyz
  1  'x, y, z'
loop_
 _atom_site_type_symbol
 _atom_site_label
 _atom_site_symmetry_multiplicity
 _atom_site_fract_x
 _atom_site_fract_y
 _atom_site_fract_z
 _atom_site_occupancy
  Y  Y0  1  0.808592  0.617184  0.750000  1
  Ho  Ho1  1  0.611278  0.802954  0.250000  1
  Ho  Ho2  1  0.387587  0.191469  0.750000  1
  Ho  Ho3  1  0.191676  0.802954  0.250000  1
  Ho  Ho4  1  0.803881  0.191469  0.750000  1
  Pa  Pa5  1  0.196557  0.393112  0.250000  1
  Al  Al6  1  0.336276  0.672552  0.017748  1
  Al  Al7  1  0.667673  0.335342  0.981520  1
  Al  Al8  1  0.667673  0.335342  0.518480  1
  Al  Al9  1  0.336276  0.672552  0.482252  1
  Al  Al10  1  0.162496  0.324992  0.578151  1
  Al  Al11  1  0.837123  0.674246  0.423556  1
  Al  Al12  1  0.673716  0.836109  0.576642  1
  Al  Al13  1  0.837123  0.674246  0.076444  1
  Al  Al14  1  0.325329  0.161829  0.422428  1
  Al  Al15  1  0.162496  0.324992  0.921849  1
  Al  Al16  1  0.162391  0.836109  0.576642  1
  Al  Al17  1  0.325329  0.161829  0.077572  1
  Al  Al18  1  0.836499  0.161829  0.422428  1
  Al  Al19  1  0.673716  0.836109  0.923358  1
  Al  Al20  1  0.836499  0.161829  0.077572  1
  Al  Al21  1  0.162391  0.836109  0.923358  1
  Al  Al22  1  0.559671  0.119342  0.250000  1
  Al  Al23  1  0.437815  0.875629  0.750000  1
  Al  Al24  1  0.873474  0.437317  0.250000  1
  Al  Al25  1  0.120081  0.559419  0.750000  1
  Al  Al26  1  0.563843  0.437317  0.250000  1
  Al  Al27  1  0.439339  0.559419  0.750000  1
  Al  Al28  1  0.001458  0.002916  0.250000  1
  Al  Al29  1  0.001022  0.002045  0.750000  1
  Ru  Ru30  1  0.501580  0.003159  0.998115  1
  Ru  Ru31  1  0.003534  0.499423  0.005081  1
  Ru  Ru32  1  0.501580  0.003159  0.501885  1
  Ru  Ru33  1  0.495889  0.499423  0.005081  1
  Ru  Ru34  1  0.003534  0.499423  0.494919  1
  Ru  Ru35  1  0.495889  0.499423  0.494919  1
  Ru  Ru36  1  0.999356  0.998714  0.999574  1
  Ru  Ru37  1  0.999356  0.998714  0.500426  1
