# generated using pymatgen
data_Mn3Al11Fe
_symmetry_space_group_name_H-M   'P 1'
_cell_length_a   5.03294731
_cell_length_b   5.02374779
_cell_length_c   8.75400638
_cell_angle_alpha   105.21819353
_cell_angle_beta   90.05408813
_cell_angle_gamma   100.74308926
_symmetry_Int_Tables_number   1
_chemical_formula_structural   Mn3Al11Fe
_chemical_formula_sum   'Mn3 Al11 Fe1'
_cell_volume   209.54294905
_cell_formula_units_Z   1
loop_
 _symmetry_equiv_pos_site_id
 _symmetry_equiv_pos_as_xyz
  1  'x, y, z'
loop_
 _atom_site_type_symbol
 _atom_site_label
 _atom_site_symmetry_multiplicity
 _atom_site_fract_x
 _atom_site_fract_y
 _atom_site_fract_z
 _atom_site_occupancy
  Mn  Mn0  1  0.719391  0.848606  0.402271  1
  Mn  Mn1  1  0.664056  0.609172  0.865168  1
  Mn  Mn2  1  0.335826  0.386464  0.132959  1
  Al  Al3  1  0.999002  0.999103  0.000097  1
  Al  Al4  1  0.948401  0.818527  0.673141  1
  Al  Al5  1  0.049439  0.183775  0.324171  1
  Al  Al6  1  0.795114  0.263515  0.630823  1
  Al  Al7  1  0.846207  0.532250  0.129700  1
  Al  Al8  1  0.154185  0.467964  0.871503  1
  Al  Al9  1  0.492391  0.889493  0.124986  1
  Al  Al10  1  0.507451  0.108077  0.876480  1
  Al  Al11  1  0.567303  0.325930  0.372861  1
  Al  Al12  1  0.434400  0.672655  0.625835  1
  Al  Al13  1  0.204744  0.739757  0.369054  1
  Fe  Fe14  1  0.282089  0.154711  0.600950  1
