# generated using pymatgen
data_ErCu3PtAu
_symmetry_space_group_name_H-M   'P 1'
_cell_length_a   5.07111129
_cell_length_b   5.07111152
_cell_length_c   5.15592799
_cell_angle_alpha   60.54269260
_cell_angle_beta   60.54268995
_cell_angle_gamma   59.99999464
_symmetry_Int_Tables_number   1
_chemical_formula_structural   ErCu3PtAu
_chemical_formula_sum   'Er1 Cu3 Pt1 Au1'
_cell_volume   94.51750910
_cell_formula_units_Z   1
loop_
 _symmetry_equiv_pos_site_id
 _symmetry_equiv_pos_as_xyz
  1  'x, y, z'
loop_
 _atom_site_type_symbol
 _atom_site_label
 _atom_site_symmetry_multiplicity
 _atom_site_fract_x
 _atom_site_fract_y
 _atom_site_fract_z
 _atom_site_occupancy
  Er  Er0  1  0.997741  0.997741  0.006777  1
  Cu  Cu1  1  0.626357  0.129546  0.617740  1
  Cu  Cu2  1  0.129546  0.626357  0.617740  1
  Cu  Cu3  1  0.626357  0.626357  0.617740  1
  Pt  Pt4  1  0.627832  0.627832  0.116504  1
  Au  Au5  1  0.242167  0.242167  0.273499  1
