# generated using pymatgen
data_Ce3SmHf4O14
_symmetry_space_group_name_H-M   'P 1'
_cell_length_a   7.56988100
_cell_length_b   7.58892714
_cell_length_c   7.58892700
_cell_angle_alpha   59.99999626
_cell_angle_beta   59.91673127
_cell_angle_gamma   59.91673224
_symmetry_Int_Tables_number   1
_chemical_formula_structural   Ce3SmHf4O14
_chemical_formula_sum   'Ce3 Sm1 Hf4 O14'
_cell_volume   307.88395019
_cell_formula_units_Z   1
loop_
 _symmetry_equiv_pos_site_id
 _symmetry_equiv_pos_as_xyz
  1  'x, y, z'
loop_
 _atom_site_type_symbol
 _atom_site_label
 _atom_site_symmetry_multiplicity
 _atom_site_fract_x
 _atom_site_fract_y
 _atom_site_fract_z
 _atom_site_occupancy
  Ce  Ce0  1  0.125000  0.625000  0.125000  1
  Ce  Ce1  1  0.125000  0.125000  0.625000  1
  Ce  Ce2  1  0.125000  0.125000  0.125000  1
  Sm  Sm3  1  0.625000  0.125000  0.125000  1
  Hf  Hf4  1  0.125000  0.625000  0.625000  1
  Hf  Hf5  1  0.625000  0.125000  0.625000  1
  Hf  Hf6  1  0.625000  0.625000  0.125000  1
  Hf  Hf7  1  0.625000  0.625000  0.625000  1
  O  O8  1  0.706538  0.709057  0.292202  1
  O  O9  1  0.292934  0.293126  0.706970  1
  O  O10  1  0.706538  0.292202  0.709057  1
  O  O11  1  0.292934  0.706970  0.293126  1
  O  O12  1  0.292934  0.706970  0.706970  1
  O  O13  1  0.706538  0.292202  0.292202  1
  O  O14  1  0.543462  0.540943  0.957798  1
  O  O15  1  0.957066  0.956874  0.543030  1
  O  O16  1  0.543462  0.957798  0.540943  1
  O  O17  1  0.957066  0.543030  0.956874  1
  O  O18  1  0.957066  0.543030  0.543030  1
  O  O19  1  0.543462  0.957798  0.957798  1
  O  O20  1  0.253017  0.248994  0.248994  1
  O  O21  1  0.996983  0.001006  0.001006  1
