# generated using pymatgen
data_Pr3Cd3NiRh2
_symmetry_space_group_name_H-M   'P 1'
_cell_length_a   7.53377500
_cell_length_b   7.53377479
_cell_length_c   4.10365200
_cell_angle_alpha   90.00000000
_cell_angle_beta   90.00000000
_cell_angle_gamma   120.00000533
_symmetry_Int_Tables_number   1
_chemical_formula_structural   Pr3Cd3NiRh2
_chemical_formula_sum   'Pr3 Cd3 Ni1 Rh2'
_cell_volume   201.70952732
_cell_formula_units_Z   1
loop_
 _symmetry_equiv_pos_site_id
 _symmetry_equiv_pos_as_xyz
  1  'x, y, z'
loop_
 _atom_site_type_symbol
 _atom_site_label
 _atom_site_symmetry_multiplicity
 _atom_site_fract_x
 _atom_site_fract_y
 _atom_site_fract_z
 _atom_site_occupancy
  Pr  Pr0  1  0.588631  0.000000  0.500000  1
  Pr  Pr1  1  0.411369  0.411369  0.500000  1
  Pr  Pr2  1  0.000000  0.588631  0.500000  1
  Cd  Cd3  1  0.241179  0.000000  0.000000  1
  Cd  Cd4  1  0.758821  0.758821  0.000000  1
  Cd  Cd5  1  0.000000  0.241179  0.000000  1
  Ni  Ni6  1  0.000000  0.000000  0.500000  1
  Rh  Rh7  1  0.333333  0.666667  0.000000  1
  Rh  Rh8  1  0.666667  0.333333  0.000000  1
