# generated using pymatgen
data_La3Ce2P12Ru19
_symmetry_space_group_name_H-M   'P 1'
_cell_length_a   12.64929300
_cell_length_b   12.64929318
_cell_length_c   4.03719200
_cell_angle_alpha   90.00000000
_cell_angle_beta   90.00000000
_cell_angle_gamma   120.00000214
_symmetry_Int_Tables_number   1
_chemical_formula_structural   La3Ce2P12Ru19
_chemical_formula_sum   'La3 Ce2 P12 Ru19'
_cell_volume   559.42585901
_cell_formula_units_Z   1
loop_
 _symmetry_equiv_pos_site_id
 _symmetry_equiv_pos_as_xyz
  1  'x, y, z'
loop_
 _atom_site_type_symbol
 _atom_site_label
 _atom_site_symmetry_multiplicity
 _atom_site_fract_x
 _atom_site_fract_y
 _atom_site_fract_z
 _atom_site_occupancy
  La  La0  1  0.184480  0.184480  0.500000  1
  La  La1  1  0.815520  0.000000  0.500000  1
  La  La2  1  0.000000  0.815520  0.500000  1
  Ce  Ce3  1  0.333333  0.666667  0.000000  1
  Ce  Ce4  1  0.666667  0.333333  0.000000  1
  P  P5  1  0.810388  0.810388  0.000000  1
  P  P6  1  0.189612  0.000000  0.000000  1
  P  P7  1  0.000000  0.189612  0.000000  1
  P  P8  1  0.173138  0.476739  0.500000  1
  P  P9  1  0.523261  0.696399  0.500000  1
  P  P10  1  0.303601  0.826862  0.500000  1
  P  P11  1  0.696399  0.523261  0.500000  1
  P  P12  1  0.826862  0.303601  0.500000  1
  P  P13  1  0.476739  0.173138  0.500000  1
  P  P14  1  0.374760  0.374760  0.000000  1
  P  P15  1  0.625240  0.000000  0.000000  1
  P  P16  1  0.000000  0.625240  0.000000  1
  Ru  Ru17  1  0.553599  0.553599  0.000000  1
  Ru  Ru18  1  0.446401  0.000000  0.000000  1
  Ru  Ru19  1  0.000000  0.446401  0.000000  1
  Ru  Ru20  1  0.712833  0.712833  0.500000  1
  Ru  Ru21  1  0.287167  0.000000  0.500000  1
  Ru  Ru22  1  0.000000  0.287167  0.500000  1
  Ru  Ru23  1  0.185240  0.381024  0.000000  1
  Ru  Ru24  1  0.618976  0.804216  0.000000  1
  Ru  Ru25  1  0.195784  0.814760  0.000000  1
  Ru  Ru26  1  0.804216  0.618976  0.000000  1
  Ru  Ru27  1  0.814760  0.195784  0.000000  1
  Ru  Ru28  1  0.381024  0.185240  0.000000  1
  Ru  Ru29  1  0.368344  0.494550  0.500000  1
  Ru  Ru30  1  0.505450  0.873794  0.500000  1
  Ru  Ru31  1  0.126206  0.631656  0.500000  1
  Ru  Ru32  1  0.873794  0.505450  0.500000  1
  Ru  Ru33  1  0.631656  0.126206  0.500000  1
  Ru  Ru34  1  0.494550  0.368344  0.500000  1
  Ru  Ru35  1  0.000000  0.000000  0.000000  1
