# generated using pymatgen
data_Ho2VReSi2C
_symmetry_space_group_name_H-M   'P 1'
_cell_length_a   3.80452814
_cell_length_b   5.72445173
_cell_length_c   6.17491039
_cell_angle_alpha   71.94253983
_cell_angle_beta   72.05744031
_cell_angle_gamma   70.59126663
_symmetry_Int_Tables_number   1
_chemical_formula_structural   Ho2VReSi2C
_chemical_formula_sum   'Ho2 V1 Re1 Si2 C1'
_cell_volume   117.39722564
_cell_formula_units_Z   1
loop_
 _symmetry_equiv_pos_site_id
 _symmetry_equiv_pos_as_xyz
  1  'x, y, z'
loop_
 _atom_site_type_symbol
 _atom_site_label
 _atom_site_symmetry_multiplicity
 _atom_site_fract_x
 _atom_site_fract_y
 _atom_site_fract_z
 _atom_site_occupancy
  Ho  Ho0  1  0.426553  0.851026  0.295866  1
  Ho  Ho1  1  0.573656  0.146983  0.705706  1
  V  V2  1  0.794296  0.332288  0.079121  1
  Re  Re3  1  0.208973  0.663584  0.918470  1
  Si  Si4  1  0.863691  0.605239  0.667379  1
  Si  Si5  1  0.134097  0.398385  0.333421  1
  C  C6  1  0.998735  0.002494  0.000036  1
