# generated using pymatgen
data_Dy12InNi4Rh
_symmetry_space_group_name_H-M   'P 1'
_cell_length_a   8.32890855
_cell_length_b   8.32890915
_cell_length_c   8.32890992
_cell_angle_alpha   111.59574334
_cell_angle_beta   109.63371472
_cell_angle_gamma   107.21383339
_symmetry_Int_Tables_number   1
_chemical_formula_structural   Dy12InNi4Rh
_chemical_formula_sum   'Dy12 In1 Ni4 Rh1'
_cell_volume   444.12603004
_cell_formula_units_Z   1
loop_
 _symmetry_equiv_pos_site_id
 _symmetry_equiv_pos_as_xyz
  1  'x, y, z'
loop_
 _atom_site_type_symbol
 _atom_site_label
 _atom_site_symmetry_multiplicity
 _atom_site_fract_x
 _atom_site_fract_y
 _atom_site_fract_z
 _atom_site_occupancy
  Dy  Dy0  1  0.403088  0.211379  0.191710  1
  Dy  Dy1  1  0.596912  0.788621  0.808290  1
  Dy  Dy2  1  0.019669  0.211379  0.808290  1
  Dy  Dy3  1  0.980331  0.788621  0.191710  1
  Dy  Dy4  1  0.184332  0.296696  0.481028  1
  Dy  Dy5  1  0.815668  0.703304  0.518972  1
  Dy  Dy6  1  0.184332  0.703304  0.887634  1
  Dy  Dy7  1  0.815668  0.296696  0.112366  1
  Dy  Dy8  1  0.319753  0.623828  0.304075  1
  Dy  Dy9  1  0.680247  0.376172  0.695925  1
  Dy  Dy10  1  0.319753  0.015678  0.695925  1
  Dy  Dy11  1  0.680247  0.984322  0.304075  1
  In  In12  1  0.500000  0.500000  0.000000  1
  Ni  Ni13  1  0.368974  0.000000  0.368974  1
  Ni  Ni14  1  0.631026  0.000000  0.631026  1
  Ni  Ni15  1  0.123709  0.623709  0.500000  1
  Ni  Ni16  1  0.876291  0.376291  0.500000  1
  Rh  Rh17  1  0.000000  0.000000  0.000000  1
