# generated using pymatgen
data_Lu3SiPd5
_symmetry_space_group_name_H-M   'P 1'
_cell_length_a   7.19137694
_cell_length_b   7.44864191
_cell_length_c   8.10095158
_cell_angle_alpha   117.37024693
_cell_angle_beta   116.35042432
_cell_angle_gamma   90.00000139
_symmetry_Int_Tables_number   1
_chemical_formula_structural   Lu3SiPd5
_chemical_formula_sum   'Lu6 Si2 Pd10'
_cell_volume   333.77190635
_cell_formula_units_Z   2
loop_
 _symmetry_equiv_pos_site_id
 _symmetry_equiv_pos_as_xyz
  1  'x, y, z'
loop_
 _atom_site_type_symbol
 _atom_site_label
 _atom_site_symmetry_multiplicity
 _atom_site_fract_x
 _atom_site_fract_y
 _atom_site_fract_z
 _atom_site_occupancy
  Lu  Lu0  1  0.750001  0.388315  0.000000  1
  Lu  Lu1  1  0.250000  0.611685  0.000000  1
  Lu  Lu2  1  0.449867  0.172322  0.399734  1
  Lu  Lu3  1  0.949868  0.227411  0.399734  1
  Lu  Lu4  1  0.050132  0.772588  0.600265  1
  Lu  Lu5  1  0.550132  0.827676  0.600265  1
  Si  Si6  1  0.250000  0.217622  0.000000  1
  Si  Si7  1  0.750001  0.782377  0.000000  1
  Pd  Pd8  1  0.000000  0.000000  0.000000  1
  Pd  Pd9  1  0.499999  0.000000  0.000000  1
  Pd  Pd10  1  0.186838  0.457079  0.287362  1
  Pd  Pd11  1  0.600523  0.457079  0.287362  1
  Pd  Pd12  1  0.100524  0.830284  0.287362  1
  Pd  Pd13  1  0.686839  0.830284  0.287362  1
  Pd  Pd14  1  0.313162  0.169716  0.712638  1
  Pd  Pd15  1  0.899477  0.169716  0.712638  1
  Pd  Pd16  1  0.399476  0.542921  0.712638  1
  Pd  Pd17  1  0.813161  0.542921  0.712638  1
