# generated using pymatgen
data_Er2FeCoI
_symmetry_space_group_name_H-M   'P 1'
_cell_length_a   3.94555400
_cell_length_b   3.94555350
_cell_length_c   16.93650600
_cell_angle_alpha   90.00000000
_cell_angle_beta   90.00000000
_cell_angle_gamma   119.99998739
_symmetry_Int_Tables_number   1
_chemical_formula_structural   Er2FeCoI
_chemical_formula_sum   'Er4 Fe2 Co2 I2'
_cell_volume   228.33392167
_cell_formula_units_Z   2
loop_
 _symmetry_equiv_pos_site_id
 _symmetry_equiv_pos_as_xyz
  1  'x, y, z'
loop_
 _atom_site_type_symbol
 _atom_site_label
 _atom_site_symmetry_multiplicity
 _atom_site_fract_x
 _atom_site_fract_y
 _atom_site_fract_z
 _atom_site_occupancy
  Er  Er0  1  0.000000  0.000000  0.102166  1
  Er  Er1  1  0.000000  0.000000  0.897834  1
  Er  Er2  1  0.000000  0.000000  0.603331  1
  Er  Er3  1  0.000000  0.000000  0.396669  1
  Fe  Fe4  1  0.333333  0.666667  0.505529  1
  Fe  Fe5  1  0.666667  0.333333  0.494471  1
  Co  Co6  1  0.666667  0.333333  0.002028  1
  Co  Co7  1  0.333333  0.666667  0.997972  1
  I  I8  1  0.333333  0.666667  0.247566  1
  I  I9  1  0.666667  0.333333  0.752434  1
