# generated using pymatgen
data_MgSc5B4RuRh9
_symmetry_space_group_name_H-M   'P 1'
_cell_length_a   9.51527929
_cell_length_b   9.52569225
_cell_length_c   3.07088400
_cell_angle_alpha   90.00000000
_cell_angle_beta   90.00000000
_cell_angle_gamma   90.33739652
_symmetry_Int_Tables_number   1
_chemical_formula_structural   MgSc5B4RuRh9
_chemical_formula_sum   'Mg1 Sc5 B4 Ru1 Rh9'
_cell_volume   278.33893939
_cell_formula_units_Z   1
loop_
 _symmetry_equiv_pos_site_id
 _symmetry_equiv_pos_as_xyz
  1  'x, y, z'
loop_
 _atom_site_type_symbol
 _atom_site_label
 _atom_site_symmetry_multiplicity
 _atom_site_fract_x
 _atom_site_fract_y
 _atom_site_fract_z
 _atom_site_occupancy
  Mg  Mg0  1  0.500000  0.500000  0.000000  1
  Sc  Sc1  1  0.671291  0.174511  0.000000  1
  Sc  Sc2  1  0.328709  0.825489  0.000000  1
  Sc  Sc3  1  0.179356  0.325092  0.000000  1
  Sc  Sc4  1  0.820644  0.674908  0.000000  1
  Sc  Sc5  1  0.000000  0.000000  0.000000  1
  B  B6  1  0.128243  0.622063  0.000000  1
  B  B7  1  0.871757  0.377937  0.000000  1
  B  B8  1  0.617764  0.875945  0.000000  1
  B  B9  1  0.382236  0.124055  0.000000  1
  Ru  Ru10  1  0.500000  0.000000  0.500000  1
  Rh  Rh11  1  0.000000  0.500000  0.500000  1
  Rh  Rh12  1  0.221572  0.073452  0.500000  1
  Rh  Rh13  1  0.778428  0.926548  0.500000  1
  Rh  Rh14  1  0.071964  0.776838  0.500000  1
  Rh  Rh15  1  0.720723  0.428977  0.500000  1
  Rh  Rh16  1  0.928036  0.223162  0.500000  1
  Rh  Rh17  1  0.279277  0.571023  0.500000  1
  Rh  Rh18  1  0.571740  0.719347  0.500000  1
  Rh  Rh19  1  0.428260  0.280653  0.500000  1
