# generated using pymatgen
data_Sr4USi12Ir19
_symmetry_space_group_name_H-M   'P 1'
_cell_length_a   12.92971000
_cell_length_b   12.92970972
_cell_length_c   4.05423800
_cell_angle_alpha   90.00000000
_cell_angle_beta   90.00000000
_cell_angle_gamma   120.00000072
_symmetry_Int_Tables_number   1
_chemical_formula_structural   Sr4USi12Ir19
_chemical_formula_sum   'Sr4 U1 Si12 Ir19'
_cell_volume   586.97205767
_cell_formula_units_Z   1
loop_
 _symmetry_equiv_pos_site_id
 _symmetry_equiv_pos_as_xyz
  1  'x, y, z'
loop_
 _atom_site_type_symbol
 _atom_site_label
 _atom_site_symmetry_multiplicity
 _atom_site_fract_x
 _atom_site_fract_y
 _atom_site_fract_z
 _atom_site_occupancy
  Sr  Sr0  1  0.333333  0.666667  0.500000  1
  Sr  Sr1  1  0.999623  0.816304  0.000000  1
  Sr  Sr2  1  0.183696  0.183319  0.000000  1
  Sr  Sr3  1  0.816681  0.000377  0.000000  1
  U  U4  1  0.666667  0.333333  0.500000  1
  Si  Si5  1  0.002218  0.631338  0.500000  1
  Si  Si6  1  0.368662  0.370881  0.500000  1
  Si  Si7  1  0.629119  0.997782  0.500000  1
  Si  Si8  1  0.520449  0.688154  0.000000  1
  Si  Si9  1  0.311846  0.832295  0.000000  1
  Si  Si10  1  0.167705  0.479551  0.000000  1
  Si  Si11  1  0.479230  0.170063  0.000000  1
  Si  Si12  1  0.690833  0.520770  0.000000  1
  Si  Si13  1  0.829937  0.309167  0.000000  1
  Si  Si14  1  0.999264  0.185650  0.500000  1
  Si  Si15  1  0.814350  0.813613  0.500000  1
  Si  Si16  1  0.186387  0.000736  0.500000  1
  Ir  Ir17  1  0.516565  0.879140  0.000000  1
  Ir  Ir18  1  0.120860  0.637425  0.000000  1
  Ir  Ir19  1  0.362575  0.483435  0.000000  1
  Ir  Ir20  1  0.495176  0.364530  0.000000  1
  Ir  Ir21  1  0.869354  0.504824  0.000000  1
  Ir  Ir22  1  0.635470  0.130646  0.000000  1
  Ir  Ir23  1  0.996868  0.446837  0.500000  1
  Ir  Ir24  1  0.553163  0.550030  0.500000  1
  Ir  Ir25  1  0.449970  0.003132  0.500000  1
  Ir  Ir26  1  0.998257  0.285983  0.000000  1
  Ir  Ir27  1  0.714017  0.712275  0.000000  1
  Ir  Ir28  1  0.287725  0.001743  0.000000  1
  Ir  Ir29  1  0.619982  0.801601  0.500000  1
  Ir  Ir30  1  0.198399  0.818380  0.500000  1
  Ir  Ir31  1  0.181620  0.380018  0.500000  1
  Ir  Ir32  1  0.386172  0.187400  0.500000  1
  Ir  Ir33  1  0.801227  0.613828  0.500000  1
  Ir  Ir34  1  0.812600  0.198773  0.500000  1
  Ir  Ir35  1  0.000000  0.000000  0.500000  1
