# generated using pymatgen
data_Sc12ZnCo4Sb
_symmetry_space_group_name_H-M   'P 1'
_cell_length_a   7.75609802
_cell_length_b   7.75609734
_cell_length_c   7.75609853
_cell_angle_alpha   111.40362167
_cell_angle_beta   109.79190790
_cell_angle_gamma   107.24507463
_symmetry_Int_Tables_number   1
_chemical_formula_structural   Sc12ZnCo4Sb
_chemical_formula_sum   'Sc12 Zn1 Co4 Sb1'
_cell_volume   358.69781306
_cell_formula_units_Z   1
loop_
 _symmetry_equiv_pos_site_id
 _symmetry_equiv_pos_as_xyz
  1  'x, y, z'
loop_
 _atom_site_type_symbol
 _atom_site_label
 _atom_site_symmetry_multiplicity
 _atom_site_fract_x
 _atom_site_fract_y
 _atom_site_fract_z
 _atom_site_occupancy
  Sc  Sc0  1  0.437230  0.230122  0.207108  1
  Sc  Sc1  1  0.562770  0.769878  0.792892  1
  Sc  Sc2  1  0.023015  0.230122  0.792892  1
  Sc  Sc3  1  0.976985  0.769878  0.207108  1
  Sc  Sc4  1  0.320150  0.626251  0.306100  1
  Sc  Sc5  1  0.679850  0.373749  0.693900  1
  Sc  Sc6  1  0.320150  0.014048  0.693900  1
  Sc  Sc7  1  0.679850  0.985952  0.306100  1
  Sc  Sc8  1  0.183023  0.278104  0.461128  1
  Sc  Sc9  1  0.816977  0.721895  0.538872  1
  Sc  Sc10  1  0.183023  0.721895  0.904919  1
  Sc  Sc11  1  0.816977  0.278104  0.095081  1
  Zn  Zn12  1  0.000000  0.000000  0.000000  1
  Co  Co13  1  0.349814  0.000000  0.349814  1
  Co  Co14  1  0.650186  0.000000  0.650186  1
  Co  Co15  1  0.120285  0.620285  0.500000  1
  Co  Co16  1  0.879715  0.379715  0.500000  1
  Sb  Sb17  1  0.500000  0.500000  0.000000  1
