# generated using pymatgen
data_Tb9Dy(Bi2Ir)2
_symmetry_space_group_name_H-M   'P 1'
_cell_length_a   8.04955810
_cell_length_b   9.04641604
_cell_length_c   12.56259513
_cell_angle_alpha   90.00654392
_cell_angle_beta   89.98473052
_cell_angle_gamma   89.99064984
_symmetry_Int_Tables_number   1
_chemical_formula_structural   Tb9Dy(Bi2Ir)2
_chemical_formula_sum   'Tb18 Dy2 Bi8 Ir4'
_cell_volume   914.80374924
_cell_formula_units_Z   2
loop_
 _symmetry_equiv_pos_site_id
 _symmetry_equiv_pos_as_xyz
  1  'x, y, z'
loop_
 _atom_site_type_symbol
 _atom_site_label
 _atom_site_symmetry_multiplicity
 _atom_site_fract_x
 _atom_site_fract_y
 _atom_site_fract_z
 _atom_site_occupancy
  Tb  Tb0  1  0.840940  0.749980  0.793034  1
  Tb  Tb1  1  0.159060  0.250020  0.206966  1
  Tb  Tb2  1  0.340880  0.250012  0.707015  1
  Tb  Tb3  1  0.659120  0.749988  0.292985  1
  Tb  Tb4  1  0.376418  0.749996  0.693312  1
  Tb  Tb5  1  0.623582  0.250004  0.306688  1
  Tb  Tb6  1  0.876458  0.250041  0.806746  1
  Tb  Tb7  1  0.123542  0.749959  0.193254  1
  Tb  Tb8  1  0.946174  0.750003  0.501302  1
  Tb  Tb9  1  0.053826  0.249997  0.498698  1
  Tb  Tb10  1  0.446135  0.250045  0.998695  1
  Tb  Tb11  1  0.553865  0.749955  0.001305  1
  Tb  Tb12  1  0.676596  0.041790  0.566217  1
  Tb  Tb13  1  0.323404  0.958210  0.433783  1
  Tb  Tb14  1  0.176573  0.958205  0.933788  1
  Tb  Tb15  1  0.323403  0.541789  0.433782  1
  Tb  Tb16  1  0.823427  0.041795  0.066212  1
  Tb  Tb17  1  0.676597  0.458211  0.566218  1
  Dy  Dy18  1  0.823729  0.458234  0.066142  1
  Dy  Dy19  1  0.176271  0.541766  0.933858  1
  Bi  Bi20  1  0.569237  0.491289  0.827442  1
  Bi  Bi21  1  0.430763  0.508711  0.172558  1
  Bi  Bi22  1  0.069327  0.508720  0.672604  1
  Bi  Bi23  1  0.430689  0.991280  0.172583  1
  Bi  Bi24  1  0.930673  0.491280  0.327396  1
  Bi  Bi25  1  0.569311  0.008720  0.827417  1
  Bi  Bi26  1  0.930693  0.008720  0.327418  1
  Bi  Bi27  1  0.069307  0.991280  0.672582  1
  Ir  Ir28  1  0.570308  0.750002  0.509081  1
  Ir  Ir29  1  0.429692  0.249998  0.490919  1
  Ir  Ir30  1  0.070253  0.250213  0.990948  1
  Ir  Ir31  1  0.929747  0.749787  0.009052  1
