# generated using pymatgen
data_Y5In2PbCl
_symmetry_space_group_name_H-M   'P 1'
_cell_length_a   9.12575141
_cell_length_b   9.12575138
_cell_length_c   6.75096500
_cell_angle_alpha   90.00002614
_cell_angle_beta   90.00002955
_cell_angle_gamma   119.91758901
_symmetry_Int_Tables_number   1
_chemical_formula_structural   Y5In2PbCl
_chemical_formula_sum   'Y10 In4 Pb2 Cl2'
_cell_volume   487.29707716
_cell_formula_units_Z   2
loop_
 _symmetry_equiv_pos_site_id
 _symmetry_equiv_pos_as_xyz
  1  'x, y, z'
loop_
 _atom_site_type_symbol
 _atom_site_label
 _atom_site_symmetry_multiplicity
 _atom_site_fract_x
 _atom_site_fract_y
 _atom_site_fract_z
 _atom_site_occupancy
  Y  Y0  1  0.665125  0.333477  0.996962  1
  Y  Y1  1  0.333477  0.665126  0.996962  1
  Y  Y2  1  0.741176  0.741176  0.249997  1
  Y  Y3  1  0.257492  0.002774  0.250000  1
  Y  Y4  1  0.002773  0.257492  0.250000  1
  Y  Y5  1  0.665131  0.333480  0.503038  1
  Y  Y6  1  0.333481  0.665132  0.503038  1
  Y  Y7  1  0.258400  0.258400  0.749997  1
  Y  Y8  1  0.743022  0.000641  0.750003  1
  Y  Y9  1  0.000640  0.743021  0.750003  1
  In  In10  1  0.395360  0.395360  0.250001  1
  In  In11  1  0.393309  0.999825  0.749999  1
  In  In12  1  0.999825  0.393308  0.749999  1
  In  In13  1  0.605665  0.605665  0.750000  1
  Pb  Pb14  1  0.606544  0.000085  0.249999  1
  Pb  Pb15  1  0.000086  0.606545  0.249999  1
  Cl  Cl16  1  0.999247  0.999247  0.001489  1
  Cl  Cl17  1  0.999247  0.999246  0.498512  1
