# generated using pymatgen
data_Zr3Zn2AgC
_symmetry_space_group_name_H-M   'P 1'
_cell_length_a   8.76161820
_cell_length_b   8.76161781
_cell_length_c   8.76161900
_cell_angle_alpha   59.99999929
_cell_angle_beta   60.00000076
_cell_angle_gamma   60.00000121
_symmetry_Int_Tables_number   1
_chemical_formula_structural   Zr3Zn2AgC
_chemical_formula_sum   'Zr12 Zn8 Ag4 C4'
_cell_volume   475.59578786
_cell_formula_units_Z   4
loop_
 _symmetry_equiv_pos_site_id
 _symmetry_equiv_pos_as_xyz
  1  'x, y, z'
loop_
 _atom_site_type_symbol
 _atom_site_label
 _atom_site_symmetry_multiplicity
 _atom_site_fract_x
 _atom_site_fract_y
 _atom_site_fract_z
 _atom_site_occupancy
  Zr  Zr0  1  0.436028  0.436028  0.063972  1
  Zr  Zr1  1  0.063972  0.436028  0.063972  1
  Zr  Zr2  1  0.436028  0.063972  0.063972  1
  Zr  Zr3  1  0.063972  0.063972  0.436028  1
  Zr  Zr4  1  0.436028  0.063972  0.436028  1
  Zr  Zr5  1  0.063972  0.436028  0.436028  1
  Zr  Zr6  1  0.813972  0.813972  0.186028  1
  Zr  Zr7  1  0.186028  0.813972  0.186028  1
  Zr  Zr8  1  0.813972  0.186028  0.186028  1
  Zr  Zr9  1  0.186028  0.186028  0.813972  1
  Zr  Zr10  1  0.813972  0.186028  0.813972  1
  Zr  Zr11  1  0.186028  0.813972  0.813972  1
  Zn  Zn12  1  0.832497  0.832497  0.502508  1
  Zn  Zn13  1  0.832497  0.502508  0.832497  1
  Zn  Zn14  1  0.502508  0.832497  0.832497  1
  Zn  Zn15  1  0.832497  0.832497  0.832497  1
  Zn  Zn16  1  0.417503  0.417503  0.747492  1
  Zn  Zn17  1  0.417503  0.747492  0.417503  1
  Zn  Zn18  1  0.747492  0.417503  0.417503  1
  Zn  Zn19  1  0.417503  0.417503  0.417503  1
  Ag  Ag20  1  0.625000  0.625000  0.125000  1
  Ag  Ag21  1  0.625000  0.125000  0.625000  1
  Ag  Ag22  1  0.125000  0.625000  0.625000  1
  Ag  Ag23  1  0.625000  0.625000  0.625000  1
  C  C24  1  0.125000  0.125000  0.625000  1
  C  C25  1  0.125000  0.625000  0.125000  1
  C  C26  1  0.625000  0.125000  0.125000  1
  C  C27  1  0.125000  0.125000  0.125000  1
