# generated using pymatgen
data_Pm2Ir3Rh
_symmetry_space_group_name_H-M   'P 1'
_cell_length_a   5.41682212
_cell_length_b   5.41717372
_cell_length_c   5.42484151
_cell_angle_alpha   60.04459585
_cell_angle_beta   60.04328501
_cell_angle_gamma   59.99899012
_symmetry_Int_Tables_number   1
_chemical_formula_structural   Pm2Ir3Rh
_chemical_formula_sum   'Pm2 Ir3 Rh1'
_cell_volume   112.63521611
_cell_formula_units_Z   1
loop_
 _symmetry_equiv_pos_site_id
 _symmetry_equiv_pos_as_xyz
  1  'x, y, z'
loop_
 _atom_site_type_symbol
 _atom_site_label
 _atom_site_symmetry_multiplicity
 _atom_site_fract_x
 _atom_site_fract_y
 _atom_site_fract_z
 _atom_site_occupancy
  Pm  Pm0  1  0.750344  0.750308  0.749008  1
  Pm  Pm1  1  0.999656  0.999692  0.000992  1
  Ir  Ir2  1  0.875000  0.375000  0.375000  1
  Ir  Ir3  1  0.375000  0.875000  0.375000  1
  Ir  Ir4  1  0.375000  0.375000  0.375000  1
  Rh  Rh5  1  0.375000  0.375000  0.875000  1
