# generated using pymatgen
data_LiTb9(SiB4)4
_symmetry_space_group_name_H-M   'P 1'
_cell_length_a   7.21995300
_cell_length_b   7.21995300
_cell_length_c   8.05541200
_cell_angle_alpha   90.00000000
_cell_angle_beta   90.00000000
_cell_angle_gamma   90.00000000
_symmetry_Int_Tables_number   1
_chemical_formula_structural   LiTb9(SiB4)4
_chemical_formula_sum   'Li1 Tb9 Si4 B16'
_cell_volume   419.91027187
_cell_formula_units_Z   1
loop_
 _symmetry_equiv_pos_site_id
 _symmetry_equiv_pos_as_xyz
  1  'x, y, z'
loop_
 _atom_site_type_symbol
 _atom_site_label
 _atom_site_symmetry_multiplicity
 _atom_site_fract_x
 _atom_site_fract_y
 _atom_site_fract_z
 _atom_site_occupancy
  Li  Li0  1  0.000000  0.000000  0.500000  1
  Tb  Tb1  1  0.683333  0.179947  0.230389  1
  Tb  Tb2  1  0.316667  0.820053  0.769611  1
  Tb  Tb3  1  0.316667  0.820053  0.230389  1
  Tb  Tb4  1  0.820053  0.683333  0.230389  1
  Tb  Tb5  1  0.820053  0.683333  0.769611  1
  Tb  Tb6  1  0.683333  0.179947  0.769611  1
  Tb  Tb7  1  0.179947  0.316667  0.769611  1
  Tb  Tb8  1  0.179947  0.316667  0.230389  1
  Tb  Tb9  1  0.500000  0.500000  0.500000  1
  Si  Si10  1  0.113945  0.615917  0.500000  1
  Si  Si11  1  0.886055  0.384083  0.500000  1
  Si  Si12  1  0.384083  0.113945  0.500000  1
  Si  Si13  1  0.615917  0.886055  0.500000  1
  B  B14  1  0.174568  0.038542  0.000000  1
  B  B15  1  0.825432  0.961458  0.000000  1
  B  B16  1  0.961458  0.174568  0.000000  1
  B  B17  1  0.327547  0.540150  0.000000  1
  B  B18  1  0.038542  0.825432  0.000000  1
  B  B19  1  0.672453  0.459850  0.000000  1
  B  B20  1  0.540150  0.672453  0.000000  1
  B  B21  1  0.459850  0.327547  0.000000  1
  B  B22  1  0.089659  0.588933  0.000000  1
  B  B23  1  0.910341  0.411067  0.000000  1
  B  B24  1  0.411067  0.089659  0.000000  1
  B  B25  1  0.588933  0.910341  0.000000  1
  B  B26  1  0.000000  0.000000  0.155126  1
  B  B27  1  0.000000  0.000000  0.844874  1
  B  B28  1  0.500000  0.500000  0.838548  1
  B  B29  1  0.500000  0.500000  0.161452  1
