# generated using pymatgen
data_SrTb5ErCoI12
_symmetry_space_group_name_H-M   'P 1'
_cell_length_a   9.73423321
_cell_length_b   9.85339754
_cell_length_c   9.81529772
_cell_angle_alpha   106.23522049
_cell_angle_beta   106.42837145
_cell_angle_gamma   106.25139884
_symmetry_Int_Tables_number   1
_chemical_formula_structural   SrTb5ErCoI12
_chemical_formula_sum   'Sr1 Tb5 Er1 Co1 I12'
_cell_volume   798.43384057
_cell_formula_units_Z   1
loop_
 _symmetry_equiv_pos_site_id
 _symmetry_equiv_pos_as_xyz
  1  'x, y, z'
loop_
 _atom_site_type_symbol
 _atom_site_label
 _atom_site_symmetry_multiplicity
 _atom_site_fract_x
 _atom_site_fract_y
 _atom_site_fract_z
 _atom_site_occupancy
  Sr  Sr0  1  0.499938  0.499986  0.500075  1
  Tb  Tb1  1  0.092184  0.291788  0.019996  1
  Tb  Tb2  1  0.279136  0.018863  0.088856  1
  Tb  Tb3  1  0.980627  0.907247  0.707103  1
  Tb  Tb4  1  0.907824  0.708447  0.980584  1
  Tb  Tb5  1  0.721012  0.981527  0.912453  1
  Er  Er6  1  0.019485  0.091700  0.288843  1
  Co  Co7  1  0.000161  0.000026  0.999986  1
  I  I8  1  0.133779  0.445224  0.367655  1
  I  I9  1  0.448098  0.366471  0.136030  1
  I  I10  1  0.365402  0.135060  0.446192  1
  I  I11  1  0.864965  0.552039  0.632681  1
  I  I12  1  0.551931  0.633491  0.864066  1
  I  I13  1  0.631964  0.864815  0.553879  1
  I  I14  1  0.680686  0.073063  0.223151  1
  I  I15  1  0.073081  0.222510  0.676471  1
  I  I16  1  0.224883  0.679433  0.074115  1
  I  I17  1  0.322254  0.927554  0.778899  1
  I  I18  1  0.927508  0.780246  0.322965  1
  I  I19  1  0.775082  0.320509  0.926001  1
