# generated using pymatgen
data_TiV(As4W)2
_symmetry_space_group_name_H-M   'P 1'
_cell_length_a   4.92326451
_cell_length_b   4.92326536
_cell_length_c   13.38361471
_cell_angle_alpha   83.36094289
_cell_angle_beta   83.36094028
_cell_angle_gamma   39.80832582
_symmetry_Int_Tables_number   1
_chemical_formula_structural   TiV(As4W)2
_chemical_formula_sum   'Ti1 V1 As8 W2'
_cell_volume   206.11132447
_cell_formula_units_Z   1
loop_
 _symmetry_equiv_pos_site_id
 _symmetry_equiv_pos_as_xyz
  1  'x, y, z'
loop_
 _atom_site_type_symbol
 _atom_site_label
 _atom_site_symmetry_multiplicity
 _atom_site_fract_x
 _atom_site_fract_y
 _atom_site_fract_z
 _atom_site_occupancy
  Ti  Ti0  1  0.057918  0.057918  0.097363  1
  V  V1  1  0.559051  0.559051  0.598711  1
  As  As2  1  0.850928  0.850928  0.556195  1
  As  As3  1  0.350654  0.350654  0.050282  1
  As  As4  1  0.649297  0.649297  0.944996  1
  As  As5  1  0.148646  0.148646  0.451295  1
  As  As6  1  0.121049  0.121049  0.729525  1
  As  As7  1  0.620793  0.620793  0.237427  1
  As  As8  1  0.380480  0.380480  0.761879  1
  As  As9  1  0.877752  0.877752  0.268070  1
  W  W10  1  0.942227  0.942227  0.898993  1
  W  W11  1  0.441207  0.441207  0.405262  1
