# generated using pymatgen
data_Pr9Nd(Si5Br3)2
_symmetry_space_group_name_H-M   'P 1'
_cell_length_a   11.81570318
_cell_length_b   11.81570177
_cell_length_c   15.33208857
_cell_angle_alpha   71.08355341
_cell_angle_beta   71.08355582
_cell_angle_gamma   20.16804646
_symmetry_Int_Tables_number   1
_chemical_formula_structural   Pr9Nd(Si5Br3)2
_chemical_formula_sum   'Pr9 Nd1 Si10 Br6'
_cell_volume   696.84379889
_cell_formula_units_Z   1
loop_
 _symmetry_equiv_pos_site_id
 _symmetry_equiv_pos_as_xyz
  1  'x, y, z'
loop_
 _atom_site_type_symbol
 _atom_site_label
 _atom_site_symmetry_multiplicity
 _atom_site_fract_x
 _atom_site_fract_y
 _atom_site_fract_z
 _atom_site_occupancy
  Pr  Pr0  1  0.342781  0.342781  0.057497  1
  Pr  Pr1  1  0.912630  0.912630  0.561887  1
  Pr  Pr2  1  0.087486  0.087486  0.438056  1
  Pr  Pr3  1  0.019158  0.019158  0.716505  1
  Pr  Pr4  1  0.980829  0.980829  0.283533  1
  Pr  Pr5  1  0.835021  0.835021  0.833342  1
  Pr  Pr6  1  0.733344  0.733344  0.665118  1
  Pr  Pr7  1  0.657219  0.657219  0.942705  1
  Pr  Pr8  1  0.165054  0.165054  0.166961  1
  Nd  Nd9  1  0.266592  0.266592  0.333810  1
  Si  Si10  1  0.509634  0.509634  0.574589  1
  Si  Si11  1  0.423980  0.423980  0.709004  1
  Si  Si12  1  0.490416  0.490416  0.425397  1
  Si  Si13  1  0.750273  0.750273  0.040499  1
  Si  Si14  1  0.673871  0.673871  0.321489  1
  Si  Si15  1  0.236769  0.236769  0.807514  1
  Si  Si16  1  0.763463  0.763463  0.192863  1
  Si  Si17  1  0.326440  0.326440  0.678910  1
  Si  Si18  1  0.576104  0.576104  0.291087  1
  Si  Si19  1  0.249729  0.249729  0.959807  1
  Br  Br20  1  0.591604  0.591604  0.791715  1
  Br  Br21  1  0.063244  0.063244  0.068135  1
  Br  Br22  1  0.936734  0.936734  0.931961  1
  Br  Br23  1  0.825623  0.825623  0.435271  1
  Br  Br24  1  0.408062  0.408062  0.208696  1
  Br  Br25  1  0.173941  0.173941  0.563648  1
