# generated using pymatgen
data_Tm15Lu5(SiSb3)3
_symmetry_space_group_name_H-M   'P 1'
_cell_length_a   7.89057246
_cell_length_b   9.00333903
_cell_length_c   11.69645150
_cell_angle_alpha   89.99140835
_cell_angle_beta   89.88612855
_cell_angle_gamma   89.99986369
_symmetry_Int_Tables_number   1
_chemical_formula_structural   Tm15Lu5(SiSb3)3
_chemical_formula_sum   'Tm15 Lu5 Si3 Sb9'
_cell_volume   830.93179694
_cell_formula_units_Z   1
loop_
 _symmetry_equiv_pos_site_id
 _symmetry_equiv_pos_as_xyz
  1  'x, y, z'
loop_
 _atom_site_type_symbol
 _atom_site_label
 _atom_site_symmetry_multiplicity
 _atom_site_fract_x
 _atom_site_fract_y
 _atom_site_fract_z
 _atom_site_occupancy
  Tm  Tm0  1  0.310417  0.043861  0.431331  1
  Tm  Tm1  1  0.180997  0.447388  0.938667  1
  Tm  Tm2  1  0.687321  0.565003  0.565623  1
  Tm  Tm3  1  0.181079  0.052636  0.938721  1
  Tm  Tm4  1  0.687386  0.935061  0.565632  1
  Tm  Tm5  1  0.815356  0.553731  0.063722  1
  Tm  Tm6  1  0.310429  0.456203  0.431379  1
  Tm  Tm7  1  0.165791  0.750117  0.213656  1
  Tm  Tm8  1  0.677098  0.249929  0.271849  1
  Tm  Tm9  1  0.835568  0.250027  0.786029  1
  Tm  Tm10  1  0.334715  0.750025  0.716332  1
  Tm  Tm11  1  0.640817  0.750166  0.293266  1
  Tm  Tm12  1  0.141338  0.250052  0.207291  1
  Tm  Tm13  1  0.344196  0.250043  0.714012  1
  Tm  Tm14  1  0.858339  0.750094  0.795006  1
  Lu  Lu15  1  0.815641  0.945794  0.063773  1
  Lu  Lu16  1  0.536080  0.249903  0.996184  1
  Lu  Lu17  1  0.041245  0.750067  0.502085  1
  Lu  Lu18  1  0.461172  0.750048  0.001592  1
  Lu  Lu19  1  0.974676  0.249963  0.497456  1
  Si  Si20  1  0.908268  0.249039  0.025015  1
  Si  Si21  1  0.416200  0.749981  0.480593  1
  Si  Si22  1  0.087746  0.750416  0.978236  1
  Sb  Sb23  1  0.932235  0.988390  0.327030  1
  Sb  Sb24  1  0.432774  0.010767  0.172121  1
  Sb  Sb25  1  0.066837  0.491338  0.673687  1
  Sb  Sb26  1  0.566964  0.509995  0.826646  1
  Sb  Sb27  1  0.066805  0.008675  0.673712  1
  Sb  Sb28  1  0.566815  0.990120  0.826622  1
  Sb  Sb29  1  0.932405  0.511764  0.327114  1
  Sb  Sb30  1  0.432713  0.489348  0.172171  1
  Sb  Sb31  1  0.590574  0.250054  0.523442  1
