# generated using pymatgen
data_AcTb(BIr)8
_symmetry_space_group_name_H-M   'P 1'
_cell_length_a   7.74531100
_cell_length_b   7.74531100
_cell_length_c   3.99683900
_cell_angle_alpha   90.00000000
_cell_angle_beta   90.00000000
_cell_angle_gamma   90.00000000
_symmetry_Int_Tables_number   1
_chemical_formula_structural   AcTb(BIr)8
_chemical_formula_sum   'Ac1 Tb1 B8 Ir8'
_cell_volume   239.76974205
_cell_formula_units_Z   1
loop_
 _symmetry_equiv_pos_site_id
 _symmetry_equiv_pos_as_xyz
  1  'x, y, z'
loop_
 _atom_site_type_symbol
 _atom_site_label
 _atom_site_symmetry_multiplicity
 _atom_site_fract_x
 _atom_site_fract_y
 _atom_site_fract_z
 _atom_site_occupancy
  Ac  Ac0  1  0.500000  0.500000  0.000000  1
  Tb  Tb1  1  0.000000  0.000000  0.500000  1
  B  B2  1  0.843641  0.274718  0.888503  1
  B  B3  1  0.156359  0.725282  0.888503  1
  B  B4  1  0.274718  0.156359  0.111497  1
  B  B5  1  0.725282  0.843641  0.111497  1
  B  B6  1  0.784289  0.660039  0.396231  1
  B  B7  1  0.215711  0.339961  0.396231  1
  B  B8  1  0.339961  0.784289  0.603769  1
  B  B9  1  0.660039  0.215711  0.603769  1
  Ir  Ir10  1  0.892317  0.664731  0.891743  1
  Ir  Ir11  1  0.107683  0.335269  0.891743  1
  Ir  Ir12  1  0.335269  0.892317  0.108257  1
  Ir  Ir13  1  0.664731  0.107683  0.108257  1
  Ir  Ir14  1  0.845882  0.389169  0.391915  1
  Ir  Ir15  1  0.154118  0.610831  0.391915  1
  Ir  Ir16  1  0.389169  0.154118  0.608085  1
  Ir  Ir17  1  0.610831  0.845882  0.608085  1
