# generated using pymatgen
data_Yb4MnCo33
_symmetry_space_group_name_H-M   'P 1'
_cell_length_a   8.30309000
_cell_length_b   8.30309011
_cell_length_c   8.09884200
_cell_angle_alpha   90.00000000
_cell_angle_beta   90.00000000
_cell_angle_gamma   119.99999955
_symmetry_Int_Tables_number   1
_chemical_formula_structural   Yb4MnCo33
_chemical_formula_sum   'Yb4 Mn1 Co33'
_cell_volume   483.54072442
_cell_formula_units_Z   1
loop_
 _symmetry_equiv_pos_site_id
 _symmetry_equiv_pos_as_xyz
  1  'x, y, z'
loop_
 _atom_site_type_symbol
 _atom_site_label
 _atom_site_symmetry_multiplicity
 _atom_site_fract_x
 _atom_site_fract_y
 _atom_site_fract_z
 _atom_site_occupancy
  Yb  Yb0  1  0.000000  0.000000  0.249522  1
  Yb  Yb1  1  0.666667  0.333333  0.749864  1
  Yb  Yb2  1  0.333333  0.666667  0.750588  1
  Yb  Yb3  1  0.333333  0.666667  0.248631  1
  Mn  Mn4  1  0.000000  0.000000  0.605757  1
  Co  Co5  1  0.168775  0.337549  0.477857  1
  Co  Co6  1  0.168775  0.831225  0.477857  1
  Co  Co7  1  0.662451  0.831225  0.477857  1
  Co  Co8  1  0.499236  0.998473  0.520111  1
  Co  Co9  1  0.499236  0.500764  0.520111  1
  Co  Co10  1  0.001527  0.500764  0.520111  1
  Co  Co11  1  0.500409  0.000818  0.978050  1
  Co  Co12  1  0.500409  0.499591  0.978050  1
  Co  Co13  1  0.999182  0.499591  0.978050  1
  Co  Co14  1  0.166533  0.333066  0.021542  1
  Co  Co15  1  0.166533  0.833467  0.021542  1
  Co  Co16  1  0.666934  0.833467  0.021542  1
  Co  Co17  1  0.830415  0.660830  0.500612  1
  Co  Co18  1  0.830415  0.169585  0.500612  1
  Co  Co19  1  0.339170  0.169585  0.500612  1
  Co  Co20  1  0.832849  0.665699  0.999396  1
  Co  Co21  1  0.832849  0.167151  0.999396  1
  Co  Co22  1  0.334301  0.167151  0.999396  1
  Co  Co23  1  0.005240  0.711974  0.750174  1
  Co  Co24  1  0.706733  0.994760  0.750174  1
  Co  Co25  1  0.288026  0.293267  0.750174  1
  Co  Co26  1  0.706733  0.711974  0.750174  1
  Co  Co27  1  0.288026  0.994760  0.750174  1
  Co  Co28  1  0.005240  0.293267  0.750174  1
  Co  Co29  1  0.661605  0.621008  0.249936  1
  Co  Co30  1  0.959404  0.338395  0.249936  1
  Co  Co31  1  0.378992  0.040596  0.249936  1
  Co  Co32  1  0.959404  0.621008  0.249936  1
  Co  Co33  1  0.378992  0.338395  0.249936  1
  Co  Co34  1  0.661605  0.040596  0.249936  1
  Co  Co35  1  0.666667  0.333333  0.393675  1
  Co  Co36  1  0.666667  0.333333  0.106499  1
  Co  Co37  1  0.000000  0.000000  0.902202  1
