# generated using pymatgen
data_Sc9Tc4S
_symmetry_space_group_name_H-M   'P 1'
_cell_length_a   8.61492700
_cell_length_b   8.61492620
_cell_length_c   8.52172800
_cell_angle_alpha   90.00000000
_cell_angle_beta   90.00000000
_cell_angle_gamma   119.99999923
_symmetry_Int_Tables_number   1
_chemical_formula_structural   Sc9Tc4S
_chemical_formula_sum   'Sc18 Tc8 S2'
_cell_volume   547.72361565
_cell_formula_units_Z   2
loop_
 _symmetry_equiv_pos_site_id
 _symmetry_equiv_pos_as_xyz
  1  'x, y, z'
loop_
 _atom_site_type_symbol
 _atom_site_label
 _atom_site_symmetry_multiplicity
 _atom_site_fract_x
 _atom_site_fract_y
 _atom_site_fract_z
 _atom_site_occupancy
  Sc  Sc0  1  0.196846  0.803154  0.452312  1
  Sc  Sc1  1  0.196846  0.393692  0.452312  1
  Sc  Sc2  1  0.606308  0.803154  0.452312  1
  Sc  Sc3  1  0.803154  0.196846  0.547688  1
  Sc  Sc4  1  0.803154  0.606308  0.547688  1
  Sc  Sc5  1  0.393692  0.196846  0.547688  1
  Sc  Sc6  1  0.803154  0.196846  0.952312  1
  Sc  Sc7  1  0.803154  0.606308  0.952312  1
  Sc  Sc8  1  0.393692  0.196846  0.952312  1
  Sc  Sc9  1  0.196846  0.803154  0.047688  1
  Sc  Sc10  1  0.196846  0.393692  0.047688  1
  Sc  Sc11  1  0.606308  0.803154  0.047688  1
  Sc  Sc12  1  0.542477  0.457523  0.250000  1
  Sc  Sc13  1  0.542477  0.084955  0.250000  1
  Sc  Sc14  1  0.915045  0.457523  0.250000  1
  Sc  Sc15  1  0.457523  0.542477  0.750000  1
  Sc  Sc16  1  0.457523  0.915045  0.750000  1
  Sc  Sc17  1  0.084955  0.542477  0.750000  1
  Tc  Tc18  1  0.891952  0.108048  0.250000  1
  Tc  Tc19  1  0.891952  0.783904  0.250000  1
  Tc  Tc20  1  0.216096  0.108048  0.250000  1
  Tc  Tc21  1  0.108048  0.891952  0.750000  1
  Tc  Tc22  1  0.108048  0.216096  0.750000  1
  Tc  Tc23  1  0.783904  0.891952  0.750000  1
  Tc  Tc24  1  0.000000  0.000000  0.500000  1
  Tc  Tc25  1  0.000000  0.000000  0.000000  1
  S  S26  1  0.333333  0.666667  0.250000  1
  S  S27  1  0.666667  0.333333  0.750000  1
