# generated using pymatgen
data_Zr10In3Ga2Te3
_symmetry_space_group_name_H-M   'P 1'
_cell_length_a   8.72178400
_cell_length_b   8.72178529
_cell_length_c   5.88906300
_cell_angle_alpha   90.00000000
_cell_angle_beta   90.00000000
_cell_angle_gamma   119.99999511
_symmetry_Int_Tables_number   1
_chemical_formula_structural   Zr10In3Ga2Te3
_chemical_formula_sum   'Zr10 In3 Ga2 Te3'
_cell_volume   387.96055462
_cell_formula_units_Z   1
loop_
 _symmetry_equiv_pos_site_id
 _symmetry_equiv_pos_as_xyz
  1  'x, y, z'
loop_
 _atom_site_type_symbol
 _atom_site_label
 _atom_site_symmetry_multiplicity
 _atom_site_fract_x
 _atom_site_fract_y
 _atom_site_fract_z
 _atom_site_occupancy
  Zr  Zr0  1  0.739790  0.739790  0.250000  1
  Zr  Zr1  1  0.260210  0.000000  0.250000  1
  Zr  Zr2  1  0.000000  0.260210  0.250000  1
  Zr  Zr3  1  0.275763  0.275763  0.750000  1
  Zr  Zr4  1  0.724237  0.000000  0.750000  1
  Zr  Zr5  1  0.000000  0.724237  0.750000  1
  Zr  Zr6  1  0.666667  0.333333  0.505366  1
  Zr  Zr7  1  0.333333  0.666667  0.505366  1
  Zr  Zr8  1  0.333333  0.666667  0.994634  1
  Zr  Zr9  1  0.666667  0.333333  0.994634  1
  In  In10  1  0.620021  0.620021  0.750000  1
  In  In11  1  0.379979  0.000000  0.750000  1
  In  In12  1  0.000000  0.379979  0.750000  1
  Ga  Ga13  1  0.000000  0.000000  0.517555  1
  Ga  Ga14  1  0.000000  0.000000  0.982445  1
  Te  Te15  1  0.396045  0.396045  0.250000  1
  Te  Te16  1  0.603955  0.000000  0.250000  1
  Te  Te17  1  0.000000  0.603955  0.250000  1
