# generated using pymatgen
data_Sm3Y(AuO3)4
_symmetry_space_group_name_H-M   'P 1'
_cell_length_a   3.91907635
_cell_length_b   5.64824000
_cell_length_c   13.01431195
_cell_angle_alpha   90.00000000
_cell_angle_beta   90.05785198
_cell_angle_gamma   90.00000000
_symmetry_Int_Tables_number   1
_chemical_formula_structural   Sm3Y(AuO3)4
_chemical_formula_sum   'Sm3 Y1 Au4 O12'
_cell_volume   288.08315025
_cell_formula_units_Z   1
loop_
 _symmetry_equiv_pos_site_id
 _symmetry_equiv_pos_as_xyz
  1  'x, y, z'
loop_
 _atom_site_type_symbol
 _atom_site_label
 _atom_site_symmetry_multiplicity
 _atom_site_fract_x
 _atom_site_fract_y
 _atom_site_fract_z
 _atom_site_occupancy
  Sm  Sm0  1  0.260715  0.750000  0.077738  1
  Sm  Sm1  1  0.259738  0.250000  0.423496  1
  Sm  Sm2  1  0.739652  0.250000  0.922028  1
  Y  Y3  1  0.737024  0.750000  0.576629  1
  Au  Au4  1  0.067181  0.750000  0.829191  1
  Au  Au5  1  0.067615  0.250000  0.668703  1
  Au  Au6  1  0.934478  0.250000  0.170164  1
  Au  Au7  1  0.934136  0.750000  0.331417  1
  O  O8  1  0.192290  0.500122  0.250898  1
  O  O9  1  0.808298  0.998265  0.747888  1
  O  O10  1  0.808298  0.501735  0.747888  1
  O  O11  1  0.192290  0.999878  0.250898  1
  O  O12  1  0.743311  0.498300  0.075683  1
  O  O13  1  0.741779  0.502879  0.426335  1
  O  O14  1  0.257802  0.998851  0.923809  1
  O  O15  1  0.256251  0.996313  0.575704  1
  O  O16  1  0.741779  0.997121  0.426335  1
  O  O17  1  0.743311  0.001700  0.075683  1
  O  O18  1  0.256251  0.503687  0.575704  1
  O  O19  1  0.257802  0.501149  0.923809  1
