# generated using pymatgen
data_Ba4Co(RuO4)3
_symmetry_space_group_name_H-M   'P 1'
_cell_length_a   10.20575408
_cell_length_b   10.20575398
_cell_length_c   10.20575418
_cell_angle_alpha   33.22083817
_cell_angle_beta   33.22083860
_cell_angle_gamma   33.22083567
_symmetry_Int_Tables_number   1
_chemical_formula_structural   Ba4Co(RuO4)3
_chemical_formula_sum   'Ba4 Co1 Ru3 O12'
_cell_volume   284.04693565
_cell_formula_units_Z   1
loop_
 _symmetry_equiv_pos_site_id
 _symmetry_equiv_pos_as_xyz
  1  'x, y, z'
loop_
 _atom_site_type_symbol
 _atom_site_label
 _atom_site_symmetry_multiplicity
 _atom_site_fract_x
 _atom_site_fract_y
 _atom_site_fract_z
 _atom_site_occupancy
  Ba  Ba0  1  0.709488  0.709488  0.709488  1
  Ba  Ba1  1  0.290512  0.290512  0.290512  1
  Ba  Ba2  1  0.876355  0.876355  0.876355  1
  Ba  Ba3  1  0.123645  0.123645  0.123645  1
  Co  Co4  1  0.000000  0.000000  0.000000  1
  Ru  Ru5  1  0.409666  0.409666  0.409666  1
  Ru  Ru6  1  0.500000  0.500000  0.500000  1
  Ru  Ru7  1  0.590334  0.590334  0.590334  1
  O  O8  1  0.211211  0.211211  0.698768  1
  O  O9  1  0.698768  0.211211  0.211211  1
  O  O10  1  0.211211  0.698768  0.211211  1
  O  O11  1  0.788789  0.301232  0.788789  1
  O  O12  1  0.788789  0.788789  0.301232  1
  O  O13  1  0.301232  0.788789  0.788789  1
  O  O14  1  0.388358  0.388358  0.852894  1
  O  O15  1  0.852894  0.388358  0.388358  1
  O  O16  1  0.147106  0.611642  0.611642  1
  O  O17  1  0.611642  0.611642  0.147106  1
  O  O18  1  0.611642  0.147106  0.611642  1
  O  O19  1  0.388358  0.852894  0.388358  1
