# generated using pymatgen
data_Tb3Dy9(CoNi)2
_symmetry_space_group_name_H-M   'P 1'
_cell_length_a   6.27503948
_cell_length_b   6.90323557
_cell_length_c   9.54707200
_cell_angle_alpha   90.00000000
_cell_angle_beta   90.00000000
_cell_angle_gamma   89.95433700
_symmetry_Int_Tables_number   1
_chemical_formula_structural   Tb3Dy9(CoNi)2
_chemical_formula_sum   'Tb3 Dy9 Co2 Ni2'
_cell_volume   413.56065659
_cell_formula_units_Z   1
loop_
 _symmetry_equiv_pos_site_id
 _symmetry_equiv_pos_as_xyz
  1  'x, y, z'
loop_
 _atom_site_type_symbol
 _atom_site_label
 _atom_site_symmetry_multiplicity
 _atom_site_fract_x
 _atom_site_fract_y
 _atom_site_fract_z
 _atom_site_occupancy
  Tb  Tb0  1  0.642145  0.034993  0.250000  1
  Tb  Tb1  1  0.134506  0.458329  0.750000  1
  Tb  Tb2  1  0.358525  0.964904  0.750000  1
  Dy  Dy3  1  0.322425  0.679419  0.067310  1
  Dy  Dy4  1  0.175304  0.174770  0.432890  1
  Dy  Dy5  1  0.677195  0.320805  0.566940  1
  Dy  Dy6  1  0.824597  0.824955  0.933167  1
  Dy  Dy7  1  0.677195  0.320805  0.933060  1
  Dy  Dy8  1  0.824597  0.824955  0.566833  1
  Dy  Dy9  1  0.322425  0.679419  0.432690  1
  Dy  Dy10  1  0.175304  0.174770  0.067110  1
  Dy  Dy11  1  0.865276  0.541977  0.250000  1
  Co  Co12  1  0.054549  0.888120  0.250000  1
  Co  Co13  1  0.944907  0.111518  0.750000  1
  Ni  Ni14  1  0.445951  0.389913  0.250000  1
  Ni  Ni15  1  0.555102  0.610347  0.750000  1
