# generated using pymatgen
data_SmEr3Re4F28
_symmetry_space_group_name_H-M   'P 1'
_cell_length_a   5.66707905
_cell_length_b   8.98159825
_cell_length_c   12.06034200
_cell_angle_alpha   62.42237898
_cell_angle_beta   89.97118276
_cell_angle_gamma   90.01997212
_symmetry_Int_Tables_number   1
_chemical_formula_structural   SmEr3Re4F28
_chemical_formula_sum   'Sm1 Er3 Re4 F28'
_cell_volume   544.11977396
_cell_formula_units_Z   1
loop_
 _symmetry_equiv_pos_site_id
 _symmetry_equiv_pos_as_xyz
  1  'x, y, z'
loop_
 _atom_site_type_symbol
 _atom_site_label
 _atom_site_symmetry_multiplicity
 _atom_site_fract_x
 _atom_site_fract_y
 _atom_site_fract_z
 _atom_site_occupancy
  Sm  Sm0  1  0.757080  0.815207  0.766716  1
  Er  Er1  1  0.742888  0.816084  0.266309  1
  Er  Er2  1  0.242844  0.185339  0.233787  1
  Er  Er3  1  0.257937  0.188996  0.733176  1
  Re  Re4  1  0.742742  0.275990  0.453337  1
  Re  Re5  1  0.243449  0.726212  0.048498  1
  Re  Re6  1  0.255631  0.726124  0.541396  1
  Re  Re7  1  0.756429  0.270029  0.956711  1
  F  F8  1  0.458325  0.707520  0.926371  1
  F  F9  1  0.962366  0.291327  0.575618  1
  F  F10  1  0.536360  0.289225  0.077144  1
  F  F11  1  0.036201  0.708610  0.420350  1
  F  F12  1  0.458134  0.283065  0.547670  1
  F  F13  1  0.958579  0.715448  0.957236  1
  F  F14  1  0.543753  0.718031  0.449826  1
  F  F15  1  0.041431  0.279834  0.049836  1
  F  F16  1  0.768046  0.517306  0.859917  1
  F  F17  1  0.266254  0.477732  0.639750  1
  F  F18  1  0.235580  0.477236  0.143729  1
  F  F19  1  0.733965  0.524078  0.356919  1
  F  F20  1  0.758615  0.022720  0.056059  1
  F  F21  1  0.258349  0.973802  0.443537  1
  F  F22  1  0.240609  0.973255  0.946394  1
  F  F23  1  0.740043  0.028767  0.551462  1
  F  F24  1  0.985822  0.730666  0.643304  1
  F  F25  1  0.486618  0.267109  0.853081  1
  F  F26  1  0.010366  0.266974  0.350444  1
  F  F27  1  0.512664  0.733764  0.150600  1
  F  F28  1  0.034995  0.746098  0.173683  1
  F  F29  1  0.532817  0.255457  0.328492  1
  F  F30  1  0.965530  0.252151  0.830340  1
  F  F31  1  0.458784  0.742871  0.668977  1
  F  F32  1  0.431756  0.975537  0.235249  1
  F  F33  1  0.932169  0.025699  0.264901  1
  F  F34  1  0.570315  0.034830  0.765979  1
  F  F35  1  0.082555  0.976904  0.733203  1
