# generated using pymatgen
data_Th(Fe2Tc)4
_symmetry_space_group_name_H-M   'P 1'
_cell_length_a   4.71669460
_cell_length_b   6.57592968
_cell_length_c   6.57592830
_cell_angle_alpha   82.62767876
_cell_angle_beta   68.98334799
_cell_angle_gamma   68.98334860
_symmetry_Int_Tables_number   1
_chemical_formula_structural   Th(Fe2Tc)4
_chemical_formula_sum   'Th1 Fe8 Tc4'
_cell_volume   177.72907970
_cell_formula_units_Z   1
loop_
 _symmetry_equiv_pos_site_id
 _symmetry_equiv_pos_as_xyz
  1  'x, y, z'
loop_
 _atom_site_type_symbol
 _atom_site_label
 _atom_site_symmetry_multiplicity
 _atom_site_fract_x
 _atom_site_fract_y
 _atom_site_fract_z
 _atom_site_occupancy
  Th  Th0  1  0.000000  0.000000  0.000000  1
  Fe  Fe1  1  0.000000  0.000000  0.500000  1
  Fe  Fe2  1  0.500000  0.000000  0.500000  1
  Fe  Fe3  1  0.500000  0.500000  0.000000  1
  Fe  Fe4  1  0.000000  0.500000  0.000000  1
  Fe  Fe5  1  0.500000  0.776766  0.223234  1
  Fe  Fe6  1  0.500000  0.223234  0.776766  1
  Fe  Fe7  1  0.723125  0.776822  0.776822  1
  Fe  Fe8  1  0.276875  0.223178  0.223178  1
  Tc  Tc9  1  0.000000  0.359099  0.640901  1
  Tc  Tc10  1  0.000000  0.640901  0.359099  1
  Tc  Tc11  1  0.640981  0.358988  0.358988  1
  Tc  Tc12  1  0.359019  0.641012  0.641012  1
