# generated using pymatgen
data_Sm2Er6Cu3Si12Rh
_symmetry_space_group_name_H-M   'P 1'
_cell_length_a   8.05453000
_cell_length_b   8.05453072
_cell_length_c   8.19004000
_cell_angle_alpha   90.00000000
_cell_angle_beta   90.00000000
_cell_angle_gamma   119.99998884
_symmetry_Int_Tables_number   1
_chemical_formula_structural   Sm2Er6Cu3Si12Rh
_chemical_formula_sum   'Sm2 Er6 Cu3 Si12 Rh1'
_cell_volume   460.14758691
_cell_formula_units_Z   1
loop_
 _symmetry_equiv_pos_site_id
 _symmetry_equiv_pos_as_xyz
  1  'x, y, z'
loop_
 _atom_site_type_symbol
 _atom_site_label
 _atom_site_symmetry_multiplicity
 _atom_site_fract_x
 _atom_site_fract_y
 _atom_site_fract_z
 _atom_site_occupancy
  Sm  Sm0  1  0.000000  0.000000  0.249668  1
  Sm  Sm1  1  0.000000  0.000000  0.750333  1
  Er  Er2  1  0.999024  0.499511  0.252023  1
  Er  Er3  1  0.500489  0.499511  0.252023  1
  Er  Er4  1  0.501046  0.002091  0.747996  1
  Er  Er5  1  0.500489  0.000976  0.252023  1
  Er  Er6  1  0.501046  0.498954  0.747996  1
  Er  Er7  1  0.997909  0.498954  0.747996  1
  Cu  Cu8  1  0.333333  0.666667  0.999577  1
  Cu  Cu9  1  0.333333  0.666667  0.499965  1
  Cu  Cu10  1  0.666667  0.333333  0.000248  1
  Si  Si11  1  0.169871  0.339740  0.000095  1
  Si  Si12  1  0.660260  0.830129  0.000095  1
  Si  Si13  1  0.168760  0.337517  0.500375  1
  Si  Si14  1  0.339583  0.169792  0.999987  1
  Si  Si15  1  0.169871  0.830129  0.000095  1
  Si  Si16  1  0.662483  0.831240  0.500375  1
  Si  Si17  1  0.830208  0.660417  0.999987  1
  Si  Si18  1  0.337192  0.168596  0.499620  1
  Si  Si19  1  0.168760  0.831240  0.500375  1
  Si  Si20  1  0.831404  0.662808  0.499620  1
  Si  Si21  1  0.830208  0.169792  0.999987  1
  Si  Si22  1  0.831404  0.168596  0.499620  1
  Rh  Rh23  1  0.666667  0.333333  0.499915  1
