# generated using pymatgen
data_EuPPd2Pt
_symmetry_space_group_name_H-M   'P 1'
_cell_length_a   6.20615855
_cell_length_b   6.20615828
_cell_length_c   4.14025807
_cell_angle_alpha   70.37355597
_cell_angle_beta   70.37355460
_cell_angle_gamma   38.95300228
_symmetry_Int_Tables_number   1
_chemical_formula_structural   EuPPd2Pt
_chemical_formula_sum   'Eu1 P1 Pd2 Pt1'
_cell_volume   93.67616200
_cell_formula_units_Z   1
loop_
 _symmetry_equiv_pos_site_id
 _symmetry_equiv_pos_as_xyz
  1  'x, y, z'
loop_
 _atom_site_type_symbol
 _atom_site_label
 _atom_site_symmetry_multiplicity
 _atom_site_fract_x
 _atom_site_fract_y
 _atom_site_fract_z
 _atom_site_occupancy
  Eu  Eu0  1  0.005636  0.005636  0.991020  1
  P  P1  1  0.376895  0.376895  0.619413  1
  Pd  Pd2  1  0.262545  0.262545  0.233993  1
  Pd  Pd3  1  0.763850  0.763850  0.733766  1
  Pt  Pt4  1  0.586151  0.586151  0.410819  1
