# generated using pymatgen
data_Ca6Cu13Pd3N
_symmetry_space_group_name_H-M   'P 1'
_cell_length_a   7.86280864
_cell_length_b   7.89527275
_cell_length_c   7.89527244
_cell_angle_alpha   109.40321013
_cell_angle_beta   109.16295938
_cell_angle_gamma   110.01626635
_symmetry_Int_Tables_number   1
_chemical_formula_structural   Ca6Cu13Pd3N
_chemical_formula_sum   'Ca6 Cu13 Pd3 N1'
_cell_volume   376.49823987
_cell_formula_units_Z   1
loop_
 _symmetry_equiv_pos_site_id
 _symmetry_equiv_pos_as_xyz
  1  'x, y, z'
loop_
 _atom_site_type_symbol
 _atom_site_label
 _atom_site_symmetry_multiplicity
 _atom_site_fract_x
 _atom_site_fract_y
 _atom_site_fract_z
 _atom_site_occupancy
  Ca  Ca0  1  0.003125  0.269555  0.266265  1
  Ca  Ca1  1  0.269843  0.001875  0.267968  1
  Ca  Ca2  1  0.732536  0.999840  0.732697  1
  Ca  Ca3  1  0.735581  0.734838  0.000743  1
  Ca  Ca4  1  0.269669  0.267052  0.002617  1
  Ca  Ca5  1  0.003125  0.736860  0.733570  1
  Cu  Cu6  1  0.504185  0.503441  0.509091  1
  Cu  Cu7  1  0.504185  0.995094  0.000744  1
  Cu  Cu8  1  0.995790  0.498944  0.993791  1
  Cu  Cu9  1  0.995790  0.001999  0.496846  1
  Cu  Cu10  1  0.334710  0.342126  0.677700  1
  Cu  Cu11  1  0.334710  0.657009  0.992584  1
  Cu  Cu12  1  0.995939  0.335820  0.660119  1
  Cu  Cu13  1  0.988417  0.658498  0.329919  1
  Cu  Cu14  1  0.664511  0.664534  0.324071  1
  Cu  Cu15  1  0.661300  0.991309  0.332603  1
  Cu  Cu16  1  0.664511  0.340442  0.999978  1
  Cu  Cu17  1  0.661300  0.328698  0.669991  1
  Cu  Cu18  1  0.326902  0.657545  0.669356  1
  Pd  Pd19  1  0.680779  0.339283  0.341498  1
  Pd  Pd20  1  0.336480  0.000791  0.662091  1
  Pd  Pd21  1  0.336480  0.674388  0.335689  1
  N  N22  1  0.000130  0.000058  0.000072  1
