# generated using pymatgen
data_TbHo14Th(TlIr)4
_symmetry_space_group_name_H-M   'P 1'
_cell_length_a   9.69137559
_cell_length_b   9.67757452
_cell_length_c   9.68740046
_cell_angle_alpha   59.99816449
_cell_angle_beta   59.98520809
_cell_angle_gamma   59.95230932
_symmetry_Int_Tables_number   1
_chemical_formula_structural   TbHo14Th(TlIr)4
_chemical_formula_sum   'Tb1 Ho14 Th1 Tl4 Ir4'
_cell_volume   642.14465638
_cell_formula_units_Z   1
loop_
 _symmetry_equiv_pos_site_id
 _symmetry_equiv_pos_as_xyz
  1  'x, y, z'
loop_
 _atom_site_type_symbol
 _atom_site_label
 _atom_site_symmetry_multiplicity
 _atom_site_fract_x
 _atom_site_fract_y
 _atom_site_fract_z
 _atom_site_occupancy
  Tb  Tb0  1  0.560315  0.939053  0.940321  1
  Ho  Ho1  1  0.941149  0.938541  0.559833  1
  Ho  Ho2  1  0.938754  0.559506  0.937726  1
  Ho  Ho3  1  0.310754  0.688456  0.312125  1
  Ho  Ho4  1  0.938182  0.560230  0.563406  1
  Ho  Ho5  1  0.309070  0.308976  0.690950  1
  Ho  Ho6  1  0.098714  0.100293  0.099678  1
  Ho  Ho7  1  0.564014  0.559496  0.937736  1
  Ho  Ho8  1  0.099421  0.101400  0.699757  1
  Ho  Ho9  1  0.691003  0.308970  0.690954  1
  Ho  Ho10  1  0.688673  0.688453  0.312113  1
  Ho  Ho11  1  0.690692  0.308476  0.310147  1
  Ho  Ho12  1  0.310568  0.689455  0.689403  1
  Ho  Ho13  1  0.560486  0.938546  0.559827  1
  Ho  Ho14  1  0.701303  0.100299  0.099675  1
  Th  Th15  1  0.096176  0.710641  0.097022  1
  Tl  Tl16  1  0.336565  0.335011  0.336183  1
  Tl  Tl17  1  0.992256  0.334999  0.336171  1
  Tl  Tl18  1  0.335721  0.992567  0.335976  1
  Tl  Tl19  1  0.336288  0.334950  0.992477  1
  Ir  Ir20  1  0.892388  0.892741  0.890956  1
  Ir  Ir21  1  0.891377  0.892620  0.324624  1
  Ir  Ir22  1  0.323919  0.892733  0.890959  1
  Ir  Ir23  1  0.892215  0.323589  0.891984  1
