# generated using pymatgen
data_Nd7SmSc12Si15Ni
_symmetry_space_group_name_H-M   'P 1'
_cell_length_a   7.20204336
_cell_length_b   7.56061422
_cell_length_c   14.13327725
_cell_angle_alpha   89.95206050
_cell_angle_beta   90.00263912
_cell_angle_gamma   89.95981024
_symmetry_Int_Tables_number   1
_chemical_formula_structural   Nd7SmSc12Si15Ni
_chemical_formula_sum   'Nd7 Sm1 Sc12 Si15 Ni1'
_cell_volume   769.58293628
_cell_formula_units_Z   1
loop_
 _symmetry_equiv_pos_site_id
 _symmetry_equiv_pos_as_xyz
  1  'x, y, z'
loop_
 _atom_site_type_symbol
 _atom_site_label
 _atom_site_symmetry_multiplicity
 _atom_site_fract_x
 _atom_site_fract_y
 _atom_site_fract_z
 _atom_site_occupancy
  Nd  Nd0  1  0.011709  0.175871  0.096789  1
  Nd  Nd1  1  0.989975  0.826427  0.902945  1
  Nd  Nd2  1  0.488489  0.674945  0.903003  1
  Nd  Nd3  1  0.990026  0.826144  0.596559  1
  Nd  Nd4  1  0.511421  0.325417  0.096266  1
  Nd  Nd5  1  0.012078  0.175838  0.403600  1
  Nd  Nd6  1  0.511435  0.325231  0.404279  1
  Sm  Sm7  1  0.488323  0.676341  0.597671  1
  Sc  Sc8  1  0.160554  0.501124  0.749663  1
  Sc  Sc9  1  0.839691  0.500529  0.250072  1
  Sc  Sc10  1  0.339411  0.000797  0.250142  1
  Sc  Sc11  1  0.668766  0.003039  0.749686  1
  Sc  Sc12  1  0.317737  0.172696  0.627775  1
  Sc  Sc13  1  0.671261  0.825864  0.374599  1
  Sc  Sc14  1  0.171461  0.676032  0.374490  1
  Sc  Sc15  1  0.671530  0.826416  0.125714  1
  Sc  Sc16  1  0.834455  0.320036  0.628012  1
  Sc  Sc17  1  0.317663  0.172439  0.871764  1
  Sc  Sc18  1  0.834270  0.320206  0.871466  1
  Sc  Sc19  1  0.171136  0.676235  0.125749  1
  Si  Si20  1  0.967994  0.876902  0.250189  1
  Si  Si21  1  0.468307  0.621634  0.250126  1
  Si  Si22  1  0.532075  0.380453  0.749326  1
  Si  Si23  1  0.284868  0.881466  0.749385  1
  Si  Si24  1  0.711031  0.121219  0.250190  1
  Si  Si25  1  0.211417  0.379475  0.250164  1
  Si  Si26  1  0.783578  0.618934  0.749188  1
  Si  Si27  1  0.155372  0.465763  0.539522  1
  Si  Si28  1  0.847080  0.537077  0.462296  1
  Si  Si29  1  0.348901  0.962025  0.461489  1
  Si  Si30  1  0.847509  0.537203  0.037993  1
  Si  Si31  1  0.652399  0.035258  0.540679  1
  Si  Si32  1  0.153500  0.464732  0.960825  1
  Si  Si33  1  0.652745  0.036767  0.959664  1
  Si  Si34  1  0.348689  0.963479  0.039019  1
  Ni  Ni35  1  0.033145  0.115987  0.749705  1
