# generated using pymatgen
data_Cs5RbCa2Fe2(P2O7)4
_symmetry_space_group_name_H-M   'P 1'
_cell_length_a   9.45464700
_cell_length_b   11.42138700
_cell_length_c   15.32278500
_cell_angle_alpha   90.00000000
_cell_angle_beta   90.00000000
_cell_angle_gamma   90.00000000
_symmetry_Int_Tables_number   1
_chemical_formula_structural   Cs5RbCa2Fe2(P2O7)4
_chemical_formula_sum   'Cs10 Rb2 Ca4 Fe4 P16 O56'
_cell_volume   1654.63373211
_cell_formula_units_Z   2
loop_
 _symmetry_equiv_pos_site_id
 _symmetry_equiv_pos_as_xyz
  1  'x, y, z'
loop_
 _atom_site_type_symbol
 _atom_site_label
 _atom_site_symmetry_multiplicity
 _atom_site_fract_x
 _atom_site_fract_y
 _atom_site_fract_z
 _atom_site_occupancy
  Cs  Cs0  1  0.872775  0.130984  0.628748  1
  Cs  Cs1  1  0.627225  0.869016  0.128748  1
  Cs  Cs2  1  0.279244  0.712377  0.304694  1
  Cs  Cs3  1  0.220756  0.287623  0.804694  1
  Cs  Cs4  1  0.778842  0.786510  0.695308  1
  Cs  Cs5  1  0.721158  0.213490  0.195308  1
  Cs  Cs6  1  0.821390  0.488188  0.410640  1
  Cs  Cs7  1  0.678610  0.511812  0.910640  1
  Cs  Cs8  1  0.321746  0.011794  0.589147  1
  Cs  Cs9  1  0.178254  0.988206  0.089147  1
  Rb  Rb10  1  0.377115  0.366192  0.372654  1
  Rb  Rb11  1  0.122885  0.633808  0.872654  1
  Ca  Ca12  1  0.543968  0.364930  0.616901  1
  Ca  Ca13  1  0.956032  0.635070  0.116901  1
  Ca  Ca14  1  0.044416  0.135461  0.382870  1
  Ca  Ca15  1  0.455584  0.864539  0.882870  1
  Fe  Fe16  1  0.649645  0.876563  0.427159  1
  Fe  Fe17  1  0.850355  0.123437  0.927159  1
  Fe  Fe18  1  0.150235  0.623598  0.573237  1
  Fe  Fe19  1  0.349765  0.376402  0.073237  1
  P  P20  1  0.478752  0.644423  0.522007  1
  P  P21  1  0.021248  0.355577  0.022007  1
  P  P22  1  0.979628  0.855122  0.477829  1
  P  P23  1  0.520372  0.144878  0.977829  1
  P  P24  1  0.414780  0.627731  0.708607  1
  P  P25  1  0.085220  0.372269  0.208607  1
  P  P26  1  0.915967  0.871616  0.291988  1
  P  P27  1  0.584033  0.128384  0.791988  1
  P  P28  1  0.419198  0.039449  0.328460  1
  P  P29  1  0.080802  0.960551  0.828460  1
  P  P30  1  0.920988  0.462331  0.671784  1
  P  P31  1  0.579012  0.537669  0.171784  1
  P  P32  1  0.650538  0.151312  0.437222  1
  P  P33  1  0.849462  0.848688  0.937222  1
  P  P34  1  0.152256  0.349841  0.561843  1
  P  P35  1  0.347744  0.650159  0.061843  1
  O  O36  1  0.570959  0.729960  0.470146  1
  O  O37  1  0.929041  0.270040  0.970146  1
  O  O38  1  0.071024  0.769739  0.530196  1
  O  O39  1  0.428976  0.230261  0.030196  1
  O  O40  1  0.470631  0.504308  0.721269  1
  O  O41  1  0.029369  0.495692  0.221269  1
  O  O42  1  0.971419  0.995103  0.278920  1
  O  O43  1  0.528581  0.004897  0.778920  1
  O  O44  1  0.418801  0.030784  0.230066  1
  O  O45  1  0.081199  0.969216  0.730066  1
  O  O46  1  0.923673  0.471977  0.770205  1
  O  O47  1  0.576327  0.528023  0.270205  1
  O  O48  1  0.287466  0.088659  0.372207  1
  O  O49  1  0.212534  0.911341  0.872207  1
  O  O50  1  0.787682  0.413345  0.629695  1
  O  O51  1  0.712318  0.586655  0.129695  1
  O  O52  1  0.498645  0.686102  0.623787  1
  O  O53  1  0.001355  0.313898  0.123787  1
  O  O54  1  0.999769  0.812540  0.376277  1
  O  O55  1  0.500231  0.187460  0.876277  1
  O  O56  1  0.444292  0.710986  0.783182  1
  O  O57  1  0.055708  0.289014  0.283182  1
  O  O58  1  0.944837  0.788558  0.217146  1
  O  O59  1  0.555163  0.211442  0.717146  1
  O  O60  1  0.548435  0.135096  0.351322  1
  O  O61  1  0.951565  0.864904  0.851322  1
  O  O62  1  0.049880  0.367029  0.647677  1
  O  O63  1  0.450120  0.632971  0.147677  1
  O  O64  1  0.526190  0.518374  0.512572  1
  O  O65  1  0.973810  0.481626  0.012572  1
  O  O66  1  0.028472  0.980823  0.486039  1
  O  O67  1  0.471528  0.019177  0.986039  1
  O  O68  1  0.468364  0.922021  0.372066  1
  O  O69  1  0.031636  0.077979  0.872066  1
  O  O70  1  0.968541  0.579343  0.627221  1
  O  O71  1  0.531459  0.420657  0.127221  1
  O  O72  1  0.756494  0.870556  0.319037  1
  O  O73  1  0.743506  0.129444  0.819037  1
  O  O74  1  0.254884  0.629087  0.682478  1
  O  O75  1  0.245116  0.370913  0.182478  1
  O  O76  1  0.321453  0.664607  0.501150  1
  O  O77  1  0.178547  0.335393  0.001150  1
  O  O78  1  0.822077  0.836371  0.499017  1
  O  O79  1  0.677923  0.163629  0.999017  1
  O  O80  1  0.795060  0.182501  0.400502  1
  O  O81  1  0.704940  0.817499  0.900502  1
  O  O82  1  0.296120  0.317971  0.599154  1
  O  O83  1  0.203880  0.682029  0.099154  1
  O  O84  1  0.584527  0.245584  0.494167  1
  O  O85  1  0.915473  0.754416  0.994167  1
  O  O86  1  0.086598  0.256079  0.504395  1
  O  O87  1  0.413402  0.743921  0.004395  1
  O  O88  1  0.648607  0.030336  0.485154  1
  O  O89  1  0.851393  0.969664  0.985154  1
  O  O90  1  0.151374  0.470676  0.513856  1
  O  O91  1  0.348626  0.529324  0.013856  1
