# generated using pymatgen
data_Tm6Al24Fe5Au3
_symmetry_space_group_name_H-M   'P 1'
_cell_length_a   8.78849198
_cell_length_b   8.74086294
_cell_length_c   9.34687010
_cell_angle_alpha   90.01885012
_cell_angle_beta   90.00199524
_cell_angle_gamma   119.81034600
_symmetry_Int_Tables_number   1
_chemical_formula_structural   Tm6Al24Fe5Au3
_chemical_formula_sum   'Tm6 Al24 Fe5 Au3'
_cell_volume   623.00606950
_cell_formula_units_Z   1
loop_
 _symmetry_equiv_pos_site_id
 _symmetry_equiv_pos_as_xyz
  1  'x, y, z'
loop_
 _atom_site_type_symbol
 _atom_site_label
 _atom_site_symmetry_multiplicity
 _atom_site_fract_x
 _atom_site_fract_y
 _atom_site_fract_z
 _atom_site_occupancy
  Tm  Tm0  1  0.807039  0.194890  0.749392  1
  Tm  Tm1  1  0.192961  0.805110  0.250608  1
  Tm  Tm2  1  0.386844  0.191934  0.750273  1
  Tm  Tm3  1  0.613156  0.808066  0.249727  1
  Tm  Tm4  1  0.809067  0.612546  0.744307  1
  Tm  Tm5  1  0.190933  0.387454  0.255693  1
  Al  Al6  1  0.686323  0.343458  0.971816  1
  Al  Al7  1  0.313677  0.656542  0.028184  1
  Al  Al8  1  0.325220  0.674992  0.474721  1
  Al  Al9  1  0.674780  0.325008  0.525279  1
  Al  Al10  1  0.839759  0.162307  0.423886  1
  Al  Al11  1  0.160241  0.837693  0.576114  1
  Al  Al12  1  0.317118  0.145471  0.426518  1
  Al  Al13  1  0.147703  0.828555  0.918960  1
  Al  Al14  1  0.682882  0.854529  0.573482  1
  Al  Al15  1  0.852297  0.171445  0.081040  1
  Al  Al16  1  0.853555  0.680938  0.423295  1
  Al  Al17  1  0.690387  0.844893  0.917692  1
  Al  Al18  1  0.146445  0.319062  0.576705  1
  Al  Al19  1  0.309613  0.155107  0.082308  1
  Al  Al20  1  0.146061  0.317358  0.921216  1
  Al  Al21  1  0.853939  0.682642  0.078784  1
  Al  Al22  1  0.431088  0.567100  0.749677  1
  Al  Al23  1  0.568912  0.432900  0.250323  1
  Al  Al24  1  0.114101  0.557359  0.749447  1
  Al  Al25  1  0.885899  0.442641  0.250553  1
  Al  Al26  1  0.437067  0.876623  0.737110  1
  Al  Al27  1  0.562933  0.123377  0.262890  1
  Al  Al28  1  0.003144  0.000646  0.748776  1
  Al  Al29  1  0.996856  0.999354  0.251224  1
  Fe  Fe30  1  0.000000  0.500000  0.000000  1
  Fe  Fe31  1  0.000000  0.500000  0.500000  1
  Fe  Fe32  1  0.500000  0.000000  0.500000  1
  Fe  Fe33  1  0.000000  0.000000  0.000000  1
  Fe  Fe34  1  0.000000  0.000000  0.500000  1
  Au  Au35  1  0.500000  0.500000  0.000000  1
  Au  Au36  1  0.500000  0.500000  0.500000  1
  Au  Au37  1  0.500000  0.000000  0.000000  1
