# generated using pymatgen
data_U4Si4Tc7AsP
_symmetry_space_group_name_H-M   'P 1'
_cell_length_a   7.12492930
_cell_length_b   7.12441863
_cell_length_c   7.12441882
_cell_angle_alpha   109.64971912
_cell_angle_beta   109.45220958
_cell_angle_gamma   109.30903457
_symmetry_Int_Tables_number   1
_chemical_formula_structural   U4Si4Tc7AsP
_chemical_formula_sum   'U4 Si4 Tc7 As1 P1'
_cell_volume   278.39991629
_cell_formula_units_Z   1
loop_
 _symmetry_equiv_pos_site_id
 _symmetry_equiv_pos_as_xyz
  1  'x, y, z'
loop_
 _atom_site_type_symbol
 _atom_site_label
 _atom_site_symmetry_multiplicity
 _atom_site_fract_x
 _atom_site_fract_y
 _atom_site_fract_z
 _atom_site_occupancy
  U  U0  1  0.503143  0.503752  0.500578  1
  U  U1  1  0.001624  0.493926  0.999311  1
  U  U2  1  0.503143  0.002565  0.999392  1
  U  U3  1  0.001624  0.002313  0.507698  1
  Si  Si4  1  0.312799  0.310404  0.002396  1
  Si  Si5  1  0.002979  0.687547  0.689512  1
  Si  Si6  1  0.002979  0.313467  0.315430  1
  Si  Si7  1  0.304825  0.000667  0.304158  1
  Tc  Tc8  1  0.496930  0.749590  0.252037  1
  Tc  Tc9  1  0.747614  0.247873  0.499741  1
  Tc  Tc10  1  0.250152  0.750466  0.499686  1
  Tc  Tc11  1  0.248234  0.497469  0.750765  1
  Tc  Tc12  1  0.996425  0.004427  0.991998  1
  Tc  Tc13  1  0.496930  0.244893  0.747340  1
  Tc  Tc14  1  0.749699  0.497361  0.252338  1
  As  As15  1  0.695305  0.692773  0.002531  1
  P  P16  1  0.685595  0.000505  0.685090  1
