# generated using pymatgen
data_Ho3Tm5Re(B8Ir)3
_symmetry_space_group_name_H-M   'P 1'
_cell_length_a   3.63389800
_cell_length_b   9.12708133
_cell_length_c   11.46430302
_cell_angle_alpha   90.13168537
_cell_angle_beta   90.00000000
_cell_angle_gamma   90.00000000
_symmetry_Int_Tables_number   1
_chemical_formula_structural   Ho3Tm5Re(B8Ir)3
_chemical_formula_sum   'Ho3 Tm5 Re1 B24 Ir3'
_cell_volume   380.23418775
_cell_formula_units_Z   1
loop_
 _symmetry_equiv_pos_site_id
 _symmetry_equiv_pos_as_xyz
  1  'x, y, z'
loop_
 _atom_site_type_symbol
 _atom_site_label
 _atom_site_symmetry_multiplicity
 _atom_site_fract_x
 _atom_site_fract_y
 _atom_site_fract_z
 _atom_site_occupancy
  Ho  Ho0  1  0.000000  0.320528  0.413380  1
  Ho  Ho1  1  0.000000  0.683172  0.590376  1
  Ho  Ho2  1  0.000000  0.820398  0.083086  1
  Tm  Tm3  1  0.000000  0.176171  0.912178  1
  Tm  Tm4  1  0.000000  0.943849  0.373245  1
  Tm  Tm5  1  0.000000  0.053737  0.626128  1
  Tm  Tm6  1  0.000000  0.443441  0.125951  1
  Tm  Tm7  1  0.000000  0.557142  0.875206  1
  Re  Re8  1  0.000000  0.862727  0.821268  1
  B  B9  1  0.500000  0.553586  0.434132  1
  B  B10  1  0.500000  0.447506  0.566653  1
  B  B11  1  0.500000  0.053671  0.066123  1
  B  B12  1  0.500000  0.947200  0.933313  1
  B  B13  1  0.500000  0.750771  0.420564  1
  B  B14  1  0.500000  0.250156  0.579038  1
  B  B15  1  0.500000  0.249169  0.078592  1
  B  B16  1  0.500000  0.751602  0.920079  1
  B  B17  1  0.500000  0.792372  0.265248  1
  B  B18  1  0.500000  0.207439  0.733629  1
  B  B19  1  0.500000  0.293131  0.234812  1
  B  B20  1  0.500000  0.707803  0.766282  1
  B  B21  1  0.500000  0.630644  0.184411  1
  B  B22  1  0.500000  0.368211  0.816049  1
  B  B23  1  0.500000  0.131769  0.315582  1
  B  B24  1  0.500000  0.869351  0.685367  1
  B  B25  1  0.500000  0.981524  0.213158  1
  B  B26  1  0.500000  0.018215  0.786456  1
  B  B27  1  0.500000  0.480939  0.287068  1
  B  B28  1  0.500000  0.518183  0.714479  1
  B  B29  1  0.500000  0.607428  0.031061  1
  B  B30  1  0.500000  0.389426  0.970278  1
  B  B31  1  0.500000  0.108503  0.469450  1
  B  B32  1  0.500000  0.892548  0.528377  1
  Ir  Ir33  1  0.000000  0.637613  0.322225  1
  Ir  Ir34  1  0.000000  0.362219  0.678478  1
  Ir  Ir35  1  0.000000  0.137856  0.178278  1
