# generated using pymatgen
data_Ho3Tm9AlCo4Rh
_symmetry_space_group_name_H-M   'P 1'
_cell_length_a   8.19051744
_cell_length_b   8.19046909
_cell_length_c   8.18822014
_cell_angle_alpha   110.95527503
_cell_angle_beta   110.84912753
_cell_angle_gamma   106.65732072
_symmetry_Int_Tables_number   1
_chemical_formula_structural   Ho3Tm9AlCo4Rh
_chemical_formula_sum   'Ho3 Tm9 Al1 Co4 Rh1'
_cell_volume   422.02700411
_cell_formula_units_Z   1
loop_
 _symmetry_equiv_pos_site_id
 _symmetry_equiv_pos_as_xyz
  1  'x, y, z'
loop_
 _atom_site_type_symbol
 _atom_site_label
 _atom_site_symmetry_multiplicity
 _atom_site_fract_x
 _atom_site_fract_y
 _atom_site_fract_z
 _atom_site_occupancy
  Ho  Ho0  1  0.291202  0.188957  0.480147  1
  Ho  Ho1  1  0.709471  0.811730  0.521190  1
  Ho  Ho2  1  0.290999  0.810999  0.101993  1
  Tm  Tm3  1  0.709738  0.188410  0.898136  1
  Tm  Tm4  1  0.619197  0.314805  0.303718  1
  Tm  Tm5  1  0.381050  0.685347  0.695944  1
  Tm  Tm6  1  0.010481  0.314835  0.695870  1
  Tm  Tm7  1  0.988795  0.684474  0.303659  1
  Tm  Tm8  1  0.215665  0.409273  0.192805  1
  Tm  Tm9  1  0.783551  0.589310  0.806563  1
  Tm  Tm10  1  0.217263  0.023022  0.806570  1
  Tm  Tm11  1  0.783539  0.977147  0.192800  1
  Al  Al12  1  0.499994  0.500016  0.000022  1
  Co  Co13  1  0.999259  0.377593  0.376830  1
  Co  Co14  1  0.000043  0.622431  0.622461  1
  Co  Co15  1  0.387576  0.888088  0.501450  1
  Co  Co16  1  0.613422  0.113920  0.501438  1
  Rh  Rh17  1  0.998753  0.999643  0.998406  1
