# generated using pymatgen
data_Tb3Mg2TlCdAgSn
_symmetry_space_group_name_H-M   'P 1'
_cell_length_a   7.50212800
_cell_length_b   7.48785956
_cell_length_c   4.57206900
_cell_angle_alpha   90.00000000
_cell_angle_beta   90.00000000
_cell_angle_gamma   120.06304606
_symmetry_Int_Tables_number   1
_chemical_formula_structural   Tb3Mg2TlCdAgSn
_chemical_formula_sum   'Tb3 Mg2 Tl1 Cd1 Ag1 Sn1'
_cell_volume   222.28456771
_cell_formula_units_Z   1
loop_
 _symmetry_equiv_pos_site_id
 _symmetry_equiv_pos_as_xyz
  1  'x, y, z'
loop_
 _atom_site_type_symbol
 _atom_site_label
 _atom_site_symmetry_multiplicity
 _atom_site_fract_x
 _atom_site_fract_y
 _atom_site_fract_z
 _atom_site_occupancy
  Tb  Tb0  1  0.579447  0.998780  0.000000  1
  Tb  Tb1  1  0.003090  0.586341  0.000000  1
  Tb  Tb2  1  0.415122  0.415467  0.000000  1
  Mg  Mg3  1  0.001492  0.234938  0.500000  1
  Mg  Mg4  1  0.766662  0.765363  0.500000  1
  Tl  Tl5  1  0.334954  0.663319  0.500000  1
  Cd  Cd6  1  0.236498  0.999536  0.500000  1
  Ag  Ag7  1  0.992623  0.000413  0.000000  1
  Sn  Sn8  1  0.670114  0.335844  0.500000  1
