# generated using pymatgen
data_Ba2Mg3Cd14
_symmetry_space_group_name_H-M   'P 1'
_cell_length_a   7.86626499
_cell_length_b   7.86626495
_cell_length_c   7.86626475
_cell_angle_alpha   82.74091098
_cell_angle_beta   82.74091548
_cell_angle_gamma   82.74090030
_symmetry_Int_Tables_number   1
_chemical_formula_structural   Ba2Mg3Cd14
_chemical_formula_sum   'Ba2 Mg3 Cd14'
_cell_volume   475.95485773
_cell_formula_units_Z   1
loop_
 _symmetry_equiv_pos_site_id
 _symmetry_equiv_pos_as_xyz
  1  'x, y, z'
loop_
 _atom_site_type_symbol
 _atom_site_label
 _atom_site_symmetry_multiplicity
 _atom_site_fract_x
 _atom_site_fract_y
 _atom_site_fract_z
 _atom_site_occupancy
  Ba  Ba0  1  0.337412  0.337412  0.337412  1
  Ba  Ba1  1  0.662588  0.662588  0.662588  1
  Mg  Mg2  1  0.000000  0.000000  0.500000  1
  Mg  Mg3  1  0.500000  0.000000  0.000000  1
  Mg  Mg4  1  0.000000  0.500000  0.000000  1
  Cd  Cd5  1  0.294228  0.705772  0.000000  1
  Cd  Cd6  1  0.843529  0.346601  0.346601  1
  Cd  Cd7  1  0.653399  0.156471  0.653399  1
  Cd  Cd8  1  0.105481  0.105481  0.105481  1
  Cd  Cd9  1  0.294228  0.000000  0.705772  1
  Cd  Cd10  1  0.705772  0.294228  0.000000  1
  Cd  Cd11  1  0.346601  0.346601  0.843529  1
  Cd  Cd12  1  0.894519  0.894519  0.894519  1
  Cd  Cd13  1  0.000000  0.705772  0.294228  1
  Cd  Cd14  1  0.705772  0.000000  0.294228  1
  Cd  Cd15  1  0.346601  0.843529  0.346601  1
  Cd  Cd16  1  0.156471  0.653399  0.653399  1
  Cd  Cd17  1  0.653399  0.653399  0.156471  1
  Cd  Cd18  1  0.000000  0.294228  0.705772  1
