# generated using pymatgen
data_Pr3Dy2Tc5(P6Ir7)2
_symmetry_space_group_name_H-M   'P 1'
_cell_length_a   12.70424886
_cell_length_b   12.78692791
_cell_length_c   4.00850200
_cell_angle_alpha   90.00000000
_cell_angle_beta   90.00000000
_cell_angle_gamma   120.11929681
_symmetry_Int_Tables_number   1
_chemical_formula_structural   Pr3Dy2Tc5(P6Ir7)2
_chemical_formula_sum   'Pr3 Dy2 Tc5 P12 Ir14'
_cell_volume   563.25443248
_cell_formula_units_Z   1
loop_
 _symmetry_equiv_pos_site_id
 _symmetry_equiv_pos_as_xyz
  1  'x, y, z'
loop_
 _atom_site_type_symbol
 _atom_site_label
 _atom_site_symmetry_multiplicity
 _atom_site_fract_x
 _atom_site_fract_y
 _atom_site_fract_z
 _atom_site_occupancy
  Pr  Pr0  1  0.999775  0.810774  0.000000  1
  Pr  Pr1  1  0.187036  0.186060  0.000000  1
  Pr  Pr2  1  0.810166  0.998097  0.000000  1
  Dy  Dy3  1  0.334131  0.667680  0.500000  1
  Dy  Dy4  1  0.666780  0.333487  0.500000  1
  Tc  Tc5  1  0.996558  0.449866  0.500000  1
  Tc  Tc6  1  0.548695  0.545079  0.500000  1
  Tc  Tc7  1  0.456581  0.009190  0.500000  1
  Tc  Tc8  1  0.617266  0.796469  0.500000  1
  Tc  Tc9  1  0.203974  0.821675  0.500000  1
  P  P10  1  0.006893  0.636883  0.500000  1
  P  P11  1  0.366198  0.367501  0.500000  1
  P  P12  1  0.629610  0.993110  0.500000  1
  P  P13  1  0.519062  0.694441  0.000000  1
  P  P14  1  0.307485  0.828337  0.000000  1
  P  P15  1  0.171613  0.483746  0.000000  1
  P  P16  1  0.483999  0.171037  0.000000  1
  P  P17  1  0.687058  0.515981  0.000000  1
  P  P18  1  0.830753  0.313725  0.000000  1
  P  P19  1  0.998642  0.178923  0.500000  1
  P  P20  1  0.814172  0.816827  0.500000  1
  P  P21  1  0.180848  0.994876  0.500000  1
  Ir  Ir22  1  0.506984  0.875136  0.000000  1
  Ir  Ir23  1  0.127601  0.634518  0.000000  1
  Ir  Ir24  1  0.363154  0.494687  0.000000  1
  Ir  Ir25  1  0.492513  0.360482  0.000000  1
  Ir  Ir26  1  0.866233  0.505213  0.000000  1
  Ir  Ir27  1  0.641963  0.136491  0.000000  1
  Ir  Ir28  1  0.000206  0.288326  0.000000  1
  Ir  Ir29  1  0.712571  0.707955  0.000000  1
  Ir  Ir30  1  0.290482  0.005070  0.000000  1
  Ir  Ir31  1  0.180019  0.379758  0.500000  1
  Ir  Ir32  1  0.379023  0.184357  0.500000  1
  Ir  Ir33  1  0.802995  0.618112  0.500000  1
  Ir  Ir34  1  0.819391  0.197069  0.500000  1
  Ir  Ir35  1  0.999568  0.999059  0.500000  1
