# generated using pymatgen
data_Tb4Y5Tm11Bi12
_symmetry_space_group_name_H-M   'P 1'
_cell_length_a   8.23186015
_cell_length_b   9.45757637
_cell_length_c   12.04157417
_cell_angle_alpha   89.99207637
_cell_angle_beta   90.07090693
_cell_angle_gamma   89.98221266
_symmetry_Int_Tables_number   1
_chemical_formula_structural   Tb4Y5Tm11Bi12
_chemical_formula_sum   'Tb4 Y5 Tm11 Bi12'
_cell_volume   937.47727328
_cell_formula_units_Z   1
loop_
 _symmetry_equiv_pos_site_id
 _symmetry_equiv_pos_as_xyz
  1  'x, y, z'
loop_
 _atom_site_type_symbol
 _atom_site_label
 _atom_site_symmetry_multiplicity
 _atom_site_fract_x
 _atom_site_fract_y
 _atom_site_fract_z
 _atom_site_occupancy
  Tb  Tb0  1  0.186202  0.750042  0.718610  1
  Tb  Tb1  1  0.686387  0.750062  0.781571  1
  Tb  Tb2  1  0.813700  0.249365  0.281022  1
  Tb  Tb3  1  0.313574  0.249805  0.218277  1
  Y  Y4  1  0.807780  0.437262  0.559291  1
  Y  Y5  1  0.353853  0.749856  0.216159  1
  Y  Y6  1  0.853398  0.749445  0.283743  1
  Y  Y7  1  0.645093  0.248800  0.784300  1
  Y  Y8  1  0.146976  0.249095  0.716502  1
  Tm  Tm9  1  0.024852  0.749805  0.989019  1
  Tm  Tm10  1  0.524526  0.749947  0.511179  1
  Tm  Tm11  1  0.975211  0.249841  0.011119  1
  Tm  Tm12  1  0.474371  0.249417  0.488804  1
  Tm  Tm13  1  0.307440  0.433984  0.940779  1
  Tm  Tm14  1  0.807334  0.066264  0.559567  1
  Tm  Tm15  1  0.692567  0.933975  0.059227  1
  Tm  Tm16  1  0.192416  0.566204  0.440604  1
  Tm  Tm17  1  0.692415  0.566117  0.059251  1
  Tm  Tm18  1  0.193292  0.934264  0.440277  1
  Tm  Tm19  1  0.307418  0.065877  0.940959  1
  Bi  Bi20  1  0.433878  0.003570  0.672374  1
  Bi  Bi21  1  0.934215  0.495611  0.828049  1
  Bi  Bi22  1  0.566034  0.503660  0.327538  1
  Bi  Bi23  1  0.066124  0.995599  0.172140  1
  Bi  Bi24  1  0.566008  0.995757  0.327764  1
  Bi  Bi25  1  0.066349  0.503981  0.171983  1
  Bi  Bi26  1  0.433382  0.495662  0.672427  1
  Bi  Bi27  1  0.933978  0.003931  0.827992  1
  Bi  Bi28  1  0.405638  0.749987  0.957699  1
  Bi  Bi29  1  0.906900  0.753140  0.541676  1
  Bi  Bi30  1  0.594414  0.250146  0.042559  1
  Bi  Bi31  1  0.094278  0.249527  0.457539  1
