# generated using pymatgen
data_Tb8Ta(Pd3Pt5)3
_symmetry_space_group_name_H-M   'P 1'
_cell_length_a   8.43005245
_cell_length_b   8.43767185
_cell_length_c   8.42028300
_cell_angle_alpha   90.00748310
_cell_angle_beta   90.03361604
_cell_angle_gamma   89.91732838
_symmetry_Int_Tables_number   1
_chemical_formula_structural   Tb8Ta(Pd3Pt5)3
_chemical_formula_sum   'Tb8 Ta1 Pd9 Pt15'
_cell_volume   598.93413541
_cell_formula_units_Z   1
loop_
 _symmetry_equiv_pos_site_id
 _symmetry_equiv_pos_as_xyz
  1  'x, y, z'
loop_
 _atom_site_type_symbol
 _atom_site_label
 _atom_site_symmetry_multiplicity
 _atom_site_fract_x
 _atom_site_fract_y
 _atom_site_fract_z
 _atom_site_occupancy
  Tb  Tb0  1  0.746761  0.746115  0.252756  1
  Tb  Tb1  1  0.746553  0.253426  0.746698  1
  Tb  Tb2  1  0.253062  0.747204  0.747496  1
  Tb  Tb3  1  0.746181  0.746746  0.747322  1
  Tb  Tb4  1  0.747158  0.253941  0.253351  1
  Tb  Tb5  1  0.252864  0.252960  0.746815  1
  Tb  Tb6  1  0.252422  0.746863  0.252384  1
  Tb  Tb7  1  0.252215  0.253115  0.253041  1
  Ta  Ta8  1  0.008935  0.000118  0.000024  1
  Pd  Pd9  1  0.499308  0.745236  0.500059  1
  Pd  Pd10  1  0.745578  0.499987  0.500086  1
  Pd  Pd11  1  0.998638  0.303761  0.999828  1
  Pd  Pd12  1  0.998301  0.696652  0.999719  1
  Pd  Pd13  1  0.701744  0.999941  0.000092  1
  Pd  Pd14  1  0.262207  0.499761  0.000033  1
  Pd  Pd15  1  0.262322  0.000018  0.499704  1
  Pd  Pd16  1  0.999896  0.500230  0.736429  1
  Pd  Pd17  1  0.500275  0.263931  0.000022  1
  Pt  Pt18  1  0.997366  0.999979  0.302497  1
  Pt  Pt19  1  0.733352  0.000194  0.499892  1
  Pt  Pt20  1  0.735056  0.499624  0.999986  1
  Pt  Pt21  1  0.500138  0.000226  0.735605  1
  Pt  Pt22  1  0.000498  0.735543  0.500393  1
  Pt  Pt23  1  0.499811  0.000296  0.264521  1
  Pt  Pt24  1  0.000574  0.263941  0.500102  1
  Pt  Pt25  1  0.500121  0.735087  0.000045  1
  Pt  Pt26  1  0.254207  0.500130  0.499857  1
  Pt  Pt27  1  0.499460  0.500113  0.745973  1
  Pt  Pt28  1  0.499300  0.499932  0.253975  1
  Pt  Pt29  1  0.499319  0.254978  0.499837  1
  Pt  Pt30  1  0.308829  0.000255  0.000080  1
  Pt  Pt31  1  0.997511  0.999746  0.697426  1
  Pt  Pt32  1  0.000037  0.499954  0.263952  1
