# generated using pymatgen
data_Pr3ThAl3(Ga5Ir2)3
_symmetry_space_group_name_H-M   'P 1'
_cell_length_a   7.66890544
_cell_length_b   7.67059739
_cell_length_c   9.62401918
_cell_angle_alpha   89.96081872
_cell_angle_beta   89.96158045
_cell_angle_gamma   119.60300431
_symmetry_Int_Tables_number   1
_chemical_formula_structural   Pr3ThAl3(Ga5Ir2)3
_chemical_formula_sum   'Pr3 Th1 Al3 Ga15 Ir6'
_cell_volume   492.23532112
_cell_formula_units_Z   1
loop_
 _symmetry_equiv_pos_site_id
 _symmetry_equiv_pos_as_xyz
  1  'x, y, z'
loop_
 _atom_site_type_symbol
 _atom_site_label
 _atom_site_symmetry_multiplicity
 _atom_site_fract_x
 _atom_site_fract_y
 _atom_site_fract_z
 _atom_site_occupancy
  Pr  Pr0  1  0.000738  0.330176  0.749025  1
  Pr  Pr1  1  0.671462  0.998893  0.249898  1
  Pr  Pr2  1  0.330229  0.001035  0.749007  1
  Th  Th3  1  0.999256  0.671022  0.250273  1
  Al  Al4  1  0.661587  0.663653  0.452766  1
  Al  Al5  1  0.664979  0.666919  0.047573  1
  Al  Al6  1  0.332450  0.332400  0.951531  1
  Ga  Ga7  1  0.131216  0.131576  0.249618  1
  Ga  Ga8  1  0.871904  0.873036  0.749549  1
  Ga  Ga9  1  0.002167  0.332887  0.077790  1
  Ga  Ga10  1  0.997720  0.664634  0.919216  1
  Ga  Ga11  1  0.997126  0.664527  0.580670  1
  Ga  Ga12  1  0.339220  0.005853  0.420530  1
  Ga  Ga13  1  0.003239  0.333084  0.420499  1
  Ga  Ga14  1  0.664804  0.997802  0.577880  1
  Ga  Ga15  1  0.664832  0.998432  0.921702  1
  Ga  Ga16  1  0.338574  0.004514  0.077750  1
  Ga  Ga17  1  0.330068  0.330043  0.559516  1
  Ga  Ga18  1  0.349257  0.549350  0.249846  1
  Ga  Ga19  1  0.654828  0.451954  0.750231  1
  Ga  Ga20  1  0.547206  0.347587  0.249858  1
  Ga  Ga21  1  0.451847  0.656288  0.750234  1
  Ir  Ir22  1  0.669850  0.333529  0.001213  1
  Ir  Ir23  1  0.328869  0.667355  0.001208  1
  Ir  Ir24  1  0.328639  0.670577  0.497653  1
  Ir  Ir25  1  0.673015  0.333469  0.497620  1
  Ir  Ir26  1  0.999800  0.997154  0.001790  1
  Ir  Ir27  1  0.995122  0.992253  0.495555  1
