# generated using pymatgen
data_Y5Er11Cd3AgIr4
_symmetry_space_group_name_H-M   'P 1'
_cell_length_a   9.59319939
_cell_length_b   9.59050416
_cell_length_c   9.59050435
_cell_angle_alpha   59.78031823
_cell_angle_beta   59.76156880
_cell_angle_gamma   59.76157324
_symmetry_Int_Tables_number   1
_chemical_formula_structural   Y5Er11Cd3AgIr4
_chemical_formula_sum   'Y5 Er11 Cd3 Ag1 Ir4'
_cell_volume   620.63431648
_cell_formula_units_Z   1
loop_
 _symmetry_equiv_pos_site_id
 _symmetry_equiv_pos_as_xyz
  1  'x, y, z'
loop_
 _atom_site_type_symbol
 _atom_site_label
 _atom_site_symmetry_multiplicity
 _atom_site_fract_x
 _atom_site_fract_y
 _atom_site_fract_z
 _atom_site_occupancy
  Y  Y0  1  0.561064  0.937277  0.937277  1
  Y  Y1  1  0.561320  0.936592  0.560791  1
  Y  Y2  1  0.937173  0.561117  0.936771  1
  Y  Y3  1  0.561320  0.560791  0.936592  1
  Y  Y4  1  0.937173  0.936771  0.561117  1
  Er  Er5  1  0.348851  0.349220  0.349220  1
  Er  Er6  1  0.349224  0.349454  0.954023  1
  Er  Er7  1  0.349224  0.954023  0.349454  1
  Er  Er8  1  0.953969  0.349498  0.349498  1
  Er  Er9  1  0.810539  0.189265  0.189265  1
  Er  Er10  1  0.187263  0.810091  0.810091  1
  Er  Er11  1  0.189021  0.810386  0.189571  1
  Er  Er12  1  0.810133  0.187655  0.809893  1
  Er  Er13  1  0.189021  0.189571  0.810386  1
  Er  Er14  1  0.810133  0.809893  0.187655  1
  Er  Er15  1  0.937045  0.560594  0.560594  1
  Cd  Cd16  1  0.581033  0.581020  0.259681  1
  Cd  Cd17  1  0.581033  0.259681  0.581020  1
  Cd  Cd18  1  0.259391  0.581018  0.581018  1
  Ag  Ag19  1  0.583177  0.582497  0.582497  1
  Ir  Ir20  1  0.141947  0.141895  0.141895  1
  Ir  Ir21  1  0.142524  0.143151  0.575836  1
  Ir  Ir22  1  0.142524  0.575836  0.143151  1
  Ir  Ir23  1  0.575901  0.142705  0.142705  1
