# generated using pymatgen
data_Dy8CdHgPt2
_symmetry_space_group_name_H-M   'P 1'
_cell_length_a   9.65457360
_cell_length_b   9.65457378
_cell_length_c   9.65115500
_cell_angle_alpha   60.01170974
_cell_angle_beta   60.01170914
_cell_angle_gamma   60.09154853
_symmetry_Int_Tables_number   1
_chemical_formula_structural   Dy8CdHgPt2
_chemical_formula_sum   'Dy16 Cd2 Hg2 Pt4'
_cell_volume   636.65920576
_cell_formula_units_Z   2
loop_
 _symmetry_equiv_pos_site_id
 _symmetry_equiv_pos_as_xyz
  1  'x, y, z'
loop_
 _atom_site_type_symbol
 _atom_site_label
 _atom_site_symmetry_multiplicity
 _atom_site_fract_x
 _atom_site_fract_y
 _atom_site_fract_z
 _atom_site_occupancy
  Dy  Dy0  1  0.352923  0.352923  0.350075  1
  Dy  Dy1  1  0.352923  0.352923  0.944080  1
  Dy  Dy2  1  0.356614  0.935963  0.353712  1
  Dy  Dy3  1  0.935963  0.356614  0.353712  1
  Dy  Dy4  1  0.810807  0.188963  0.191010  1
  Dy  Dy5  1  0.188963  0.810807  0.809219  1
  Dy  Dy6  1  0.188963  0.810807  0.191010  1
  Dy  Dy7  1  0.810807  0.188963  0.809219  1
  Dy  Dy8  1  0.190399  0.190399  0.809601  1
  Dy  Dy9  1  0.809785  0.809785  0.190215  1
  Dy  Dy10  1  0.935754  0.563231  0.564979  1
  Dy  Dy11  1  0.563231  0.935754  0.936037  1
  Dy  Dy12  1  0.563231  0.935754  0.564979  1
  Dy  Dy13  1  0.935754  0.563230  0.936037  1
  Dy  Dy14  1  0.564346  0.564346  0.935654  1
  Dy  Dy15  1  0.936381  0.936381  0.563618  1
  Cd  Cd16  1  0.580141  0.255040  0.582409  1
  Cd  Cd17  1  0.255040  0.580141  0.582409  1
  Hg  Hg18  1  0.584786  0.584786  0.587953  1
  Hg  Hg19  1  0.584786  0.584786  0.242474  1
  Pt  Pt20  1  0.143388  0.143388  0.146347  1
  Pt  Pt21  1  0.143388  0.143388  0.566877  1
  Pt  Pt22  1  0.141638  0.569988  0.144187  1
  Pt  Pt23  1  0.569988  0.141638  0.144187  1
