# generated using pymatgen
data_Gd2CrSiO8
_symmetry_space_group_name_H-M   'P 1'
_cell_length_a   5.97606472
_cell_length_b   5.97606574
_cell_length_c   5.97606505
_cell_angle_alpha   105.91287171
_cell_angle_beta   105.91287796
_cell_angle_gamma   116.84954693
_symmetry_Int_Tables_number   1
_chemical_formula_structural   Gd2CrSiO8
_chemical_formula_sum   'Gd2 Cr1 Si1 O8'
_cell_volume   162.22654785
_cell_formula_units_Z   1
loop_
 _symmetry_equiv_pos_site_id
 _symmetry_equiv_pos_as_xyz
  1  'x, y, z'
loop_
 _atom_site_type_symbol
 _atom_site_label
 _atom_site_symmetry_multiplicity
 _atom_site_fract_x
 _atom_site_fract_y
 _atom_site_fract_z
 _atom_site_occupancy
  Gd  Gd0  1  0.500000  0.500000  0.000000  1
  Gd  Gd1  1  0.750000  0.250000  0.500000  1
  Cr  Cr2  1  0.000000  0.000000  0.000000  1
  Si  Si3  1  0.250000  0.750000  0.500000  1
  O  O4  1  0.835476  0.015815  0.180338  1
  O  O5  1  0.901827  0.580332  0.321495  1
  O  O6  1  0.258838  0.580332  0.678505  1
  O  O7  1  0.835476  0.655138  0.819662  1
  O  O8  1  0.344862  0.164524  0.180338  1
  O  O9  1  0.419668  0.741162  0.321495  1
  O  O10  1  0.419668  0.098173  0.678505  1
  O  O11  1  0.984185  0.164524  0.819662  1
