# generated using pymatgen
data_K3Tb(IO3)6
_symmetry_space_group_name_H-M   'P 1'
_cell_length_a   7.17142791
_cell_length_b   7.24217043
_cell_length_c   10.94032240
_cell_angle_alpha   98.77559446
_cell_angle_beta   108.14000338
_cell_angle_gamma   103.18797502
_symmetry_Int_Tables_number   1
_chemical_formula_structural   K3Tb(IO3)6
_chemical_formula_sum   'K3 Tb1 I6 O18'
_cell_volume   510.14075181
_cell_formula_units_Z   1
loop_
 _symmetry_equiv_pos_site_id
 _symmetry_equiv_pos_as_xyz
  1  'x, y, z'
loop_
 _atom_site_type_symbol
 _atom_site_label
 _atom_site_symmetry_multiplicity
 _atom_site_fract_x
 _atom_site_fract_y
 _atom_site_fract_z
 _atom_site_occupancy
  K  K0  1  0.377372  0.540299  0.293735  1
  K  K1  1  0.622628  0.459701  0.706265  1
  K  K2  1  0.000000  0.500000  0.500000  1
  Tb  Tb3  1  0.000000  0.000000  0.000000  1
  I  I4  1  0.560451  0.033539  0.195514  1
  I  I5  1  0.439549  0.966461  0.804486  1
  I  I6  1  0.777253  0.532458  0.104693  1
  I  I7  1  0.222747  0.467542  0.895307  1
  I  I8  1  0.134377  0.061164  0.383982  1
  I  I9  1  0.865623  0.938836  0.616018  1
  O  O10  1  0.588733  0.654055  0.127448  1
  O  O11  1  0.411267  0.345945  0.872552  1
  O  O12  1  0.010112  0.358739  0.737029  1
  O  O13  1  0.989888  0.641261  0.262971  1
  O  O14  1  0.612398  0.300305  0.236831  1
  O  O15  1  0.387602  0.699695  0.763169  1
  O  O16  1  0.056499  0.106428  0.215533  1
  O  O17  1  0.943501  0.893572  0.784467  1
  O  O18  1  0.320108  0.963399  0.045089  1
  O  O19  1  0.679892  0.036601  0.954911  1
  O  O20  1  0.292746  0.308385  0.472601  1
  O  O21  1  0.707254  0.691615  0.527399  1
  O  O22  1  0.890762  0.079285  0.404283  1
  O  O23  1  0.109238  0.920715  0.595717  1
  O  O24  1  0.558084  0.036784  0.686800  1
  O  O25  1  0.441916  0.963216  0.313200  1
  O  O26  1  0.123594  0.324635  0.001503  1
  O  O27  1  0.876406  0.675365  0.998497  1
