# generated using pymatgen
data_Tb2NdEr(Ir2O7)2
_symmetry_space_group_name_H-M   'P 1'
_cell_length_a   7.32383132
_cell_length_b   7.26197268
_cell_length_c   7.27373600
_cell_angle_alpha   59.94640124
_cell_angle_beta   60.22601003
_cell_angle_gamma   60.17369922
_symmetry_Int_Tables_number   1
_chemical_formula_structural   Tb2NdEr(Ir2O7)2
_chemical_formula_sum   'Tb2 Nd1 Er1 Ir4 O14'
_cell_volume   274.26055460
_cell_formula_units_Z   1
loop_
 _symmetry_equiv_pos_site_id
 _symmetry_equiv_pos_as_xyz
  1  'x, y, z'
loop_
 _atom_site_type_symbol
 _atom_site_label
 _atom_site_symmetry_multiplicity
 _atom_site_fract_x
 _atom_site_fract_y
 _atom_site_fract_z
 _atom_site_occupancy
  Tb  Tb0  1  0.125000  0.125000  0.625000  1
  Tb  Tb1  1  0.125000  0.125000  0.125000  1
  Nd  Nd2  1  0.625000  0.125000  0.125000  1
  Er  Er3  1  0.125000  0.625000  0.125000  1
  Ir  Ir4  1  0.125000  0.625000  0.625000  1
  Ir  Ir5  1  0.625000  0.125000  0.625000  1
  Ir  Ir6  1  0.625000  0.625000  0.125000  1
  Ir  Ir7  1  0.625000  0.625000  0.625000  1
  O  O8  1  0.722041  0.700830  0.288564  1
  O  O9  1  0.288674  0.289191  0.711068  1
  O  O10  1  0.719344  0.288801  0.703445  1
  O  O11  1  0.288815  0.708557  0.289079  1
  O  O12  1  0.288815  0.708557  0.713550  1
  O  O13  1  0.719344  0.288801  0.288410  1
  O  O14  1  0.527959  0.549170  0.961436  1
  O  O15  1  0.961326  0.960809  0.538932  1
  O  O16  1  0.530656  0.961199  0.546555  1
  O  O17  1  0.961185  0.541443  0.960921  1
  O  O18  1  0.961185  0.541443  0.536450  1
  O  O19  1  0.530656  0.961199  0.961590  1
  O  O20  1  0.241130  0.256593  0.251139  1
  O  O21  1  0.008870  0.993407  0.998861  1
