# generated using pymatgen
data_Ta6Cr2FeCo3N2
_symmetry_space_group_name_H-M   'P 1'
_cell_length_a   7.99620803
_cell_length_b   7.99620735
_cell_length_c   7.98575600
_cell_angle_alpha   60.04323536
_cell_angle_beta   60.04323814
_cell_angle_gamma   60.06345896
_symmetry_Int_Tables_number   1
_chemical_formula_structural   Ta6Cr2FeCo3N2
_chemical_formula_sum   'Ta12 Cr4 Fe2 Co6 N4'
_cell_volume   361.46046744
_cell_formula_units_Z   2
loop_
 _symmetry_equiv_pos_site_id
 _symmetry_equiv_pos_as_xyz
  1  'x, y, z'
loop_
 _atom_site_type_symbol
 _atom_site_label
 _atom_site_symmetry_multiplicity
 _atom_site_fract_x
 _atom_site_fract_y
 _atom_site_fract_z
 _atom_site_occupancy
  Ta  Ta0  1  0.802839  0.802839  0.197161  1
  Ta  Ta1  1  0.196745  0.196745  0.803255  1
  Ta  Ta2  1  0.803588  0.196944  0.802738  1
  Ta  Ta3  1  0.196944  0.803588  0.196730  1
  Ta  Ta4  1  0.196944  0.803588  0.802738  1
  Ta  Ta5  1  0.803588  0.196944  0.196730  1
  Ta  Ta6  1  0.446312  0.446312  0.053688  1
  Ta  Ta7  1  0.054466  0.054466  0.445534  1
  Ta  Ta8  1  0.446331  0.053842  0.445800  1
  Ta  Ta9  1  0.053842  0.446331  0.054027  1
  Ta  Ta10  1  0.053842  0.446331  0.445800  1
  Ta  Ta11  1  0.446331  0.053842  0.054027  1
  Cr  Cr12  1  0.124380  0.626243  0.624688  1
  Cr  Cr13  1  0.626243  0.124380  0.624688  1
  Cr  Cr14  1  0.625497  0.625497  0.125671  1
  Cr  Cr15  1  0.625497  0.625497  0.623334  1
  Fe  Fe16  1  0.726130  0.423908  0.424981  1
  Fe  Fe17  1  0.423908  0.726130  0.424981  1
  Co  Co18  1  0.422671  0.422671  0.730740  1
  Co  Co19  1  0.422671  0.422671  0.423917  1
  Co  Co20  1  0.520420  0.826836  0.826372  1
  Co  Co21  1  0.826836  0.520420  0.826372  1
  Co  Co22  1  0.826706  0.826706  0.520648  1
  Co  Co23  1  0.826706  0.826706  0.825942  1
  N  N24  1  0.624761  0.125359  0.124940  1
  N  N25  1  0.125359  0.624761  0.124940  1
  N  N26  1  0.125220  0.125220  0.624797  1
  N  N27  1  0.125220  0.125220  0.124763  1
