# generated using pymatgen
data_PuSc7(B6Rh)4
_symmetry_space_group_name_H-M   'P 1'
_cell_length_a   8.94850600
_cell_length_b   11.24438000
_cell_length_c   3.46475800
_cell_angle_alpha   90.00000000
_cell_angle_beta   90.00000000
_cell_angle_gamma   89.99758367
_symmetry_Int_Tables_number   1
_chemical_formula_structural   PuSc7(B6Rh)4
_chemical_formula_sum   'Pu1 Sc7 B24 Rh4'
_cell_volume   348.62534228
_cell_formula_units_Z   1
loop_
 _symmetry_equiv_pos_site_id
 _symmetry_equiv_pos_as_xyz
  1  'x, y, z'
loop_
 _atom_site_type_symbol
 _atom_site_label
 _atom_site_symmetry_multiplicity
 _atom_site_fract_x
 _atom_site_fract_y
 _atom_site_fract_z
 _atom_site_occupancy
  Pu  Pu0  1  0.676097  0.586358  0.000000  1
  Sc  Sc1  1  0.320459  0.413864  0.000000  1
  Sc  Sc2  1  0.180940  0.915130  0.000000  1
  Sc  Sc3  1  0.818562  0.085369  0.000000  1
  Sc  Sc4  1  0.055826  0.626084  0.000000  1
  Sc  Sc5  1  0.946393  0.372687  0.000000  1
  Sc  Sc6  1  0.555365  0.874736  0.000000  1
  Sc  Sc7  1  0.444035  0.125467  0.000000  1
  B  B8  1  0.247214  0.577537  0.499999  1
  B  B9  1  0.753342  0.420718  0.499999  1
  B  B10  1  0.747287  0.922659  0.499999  1
  B  B11  1  0.252524  0.078268  0.499999  1
  B  B12  1  0.020969  0.787476  0.499999  1
  B  B13  1  0.980320  0.212845  0.499999  1
  B  B14  1  0.519102  0.714183  0.499999  1
  B  B15  1  0.479243  0.286052  0.499999  1
  B  B16  1  0.203196  0.738496  0.499999  1
  B  B17  1  0.796600  0.261097  0.499999  1
  B  B18  1  0.704197  0.764788  0.499999  1
  B  B19  1  0.296256  0.237303  0.499999  1
  B  B20  1  0.444691  0.563565  0.499999  1
  B  B21  1  0.551832  0.434132  0.499999  1
  B  B22  1  0.946562  0.937375  0.499999  1
  B  B23  1  0.054289  0.063660  0.499999  1
  B  B24  1  0.396352  0.972395  0.499999  1
  B  B25  1  0.603313  0.028154  0.499999  1
  B  B26  1  0.899671  0.526799  0.499999  1
  B  B27  1  0.868875  0.681107  0.499999  1
  B  B28  1  0.132376  0.318726  0.499999  1
  B  B29  1  0.103211  0.472011  0.499999  1
  B  B30  1  0.368475  0.819915  0.499999  1
  B  B31  1  0.631439  0.180197  0.499999  1
  Rh  Rh32  1  0.356106  0.682089  0.000000  1
  Rh  Rh33  1  0.642083  0.317054  0.000000  1
  Rh  Rh34  1  0.862477  0.821779  0.000000  1
  Rh  Rh35  1  0.140318  0.179924  0.000000  1
