# generated using pymatgen
data_Zr6Sc8Al8Ir3Pt4
_symmetry_space_group_name_H-M   'P 1'
_cell_length_a   9.11100408
_cell_length_b   9.13030679
_cell_length_c   9.10373548
_cell_angle_alpha   59.95613057
_cell_angle_beta   60.16667256
_cell_angle_gamma   60.06349735
_symmetry_Int_Tables_number   1
_chemical_formula_structural   Zr6Sc8Al8Ir3Pt4
_chemical_formula_sum   'Zr6 Sc8 Al8 Ir3 Pt4'
_cell_volume   536.24606642
_cell_formula_units_Z   1
loop_
 _symmetry_equiv_pos_site_id
 _symmetry_equiv_pos_as_xyz
  1  'x, y, z'
loop_
 _atom_site_type_symbol
 _atom_site_label
 _atom_site_symmetry_multiplicity
 _atom_site_fract_x
 _atom_site_fract_y
 _atom_site_fract_z
 _atom_site_occupancy
  Zr  Zr0  1  0.681378  0.681378  0.318622  1
  Zr  Zr1  1  0.320776  0.679224  0.322830  1
  Zr  Zr2  1  0.684596  0.315404  0.317839  1
  Zr  Zr3  1  0.318622  0.318622  0.681378  1
  Zr  Zr4  1  0.679224  0.320776  0.677170  1
  Zr  Zr5  1  0.315404  0.684596  0.682161  1
  Sc  Sc6  1  0.881618  0.876062  0.368016  1
  Sc  Sc7  1  0.881518  0.364425  0.874003  1
  Sc  Sc8  1  0.364425  0.881518  0.880055  1
  Sc  Sc9  1  0.876062  0.881618  0.874305  1
  Sc  Sc10  1  0.118382  0.123938  0.631984  1
  Sc  Sc11  1  0.118482  0.635575  0.125997  1
  Sc  Sc12  1  0.635575  0.118482  0.119945  1
  Sc  Sc13  1  0.123938  0.118382  0.125695  1
  Al  Al14  1  0.660443  0.660998  0.018029  1
  Al  Al15  1  0.660400  0.018062  0.660962  1
  Al  Al16  1  0.018062  0.660400  0.660575  1
  Al  Al17  1  0.660998  0.660443  0.660529  1
  Al  Al18  1  0.339557  0.339002  0.981971  1
  Al  Al19  1  0.339600  0.981938  0.339038  1
  Al  Al20  1  0.981938  0.339600  0.339425  1
  Al  Al21  1  0.339002  0.339557  0.339471  1
  Ir  Ir22  1  0.000000  0.000000  0.500000  1
  Ir  Ir23  1  0.000000  0.500000  0.500000  1
  Ir  Ir24  1  0.500000  0.000000  0.000000  1
  Pt  Pt25  1  0.000000  0.000000  0.000000  1
  Pt  Pt26  1  0.500000  0.000000  0.500000  1
  Pt  Pt27  1  0.500000  0.500000  0.000000  1
  Pt  Pt28  1  0.000000  0.500000  0.000000  1
