# generated using pymatgen
data_La3Tm3(BiO7)2
_symmetry_space_group_name_H-M   'P 1'
_cell_length_a   6.67054463
_cell_length_b   6.69872000
_cell_length_c   7.84688800
_cell_angle_alpha   106.98575100
_cell_angle_beta   89.88849272
_cell_angle_gamma   99.11296670
_symmetry_Int_Tables_number   1
_chemical_formula_structural   La3Tm3(BiO7)2
_chemical_formula_sum   'La3 Tm3 Bi2 O14'
_cell_volume   330.73825066
_cell_formula_units_Z   1
loop_
 _symmetry_equiv_pos_site_id
 _symmetry_equiv_pos_as_xyz
  1  'x, y, z'
loop_
 _atom_site_type_symbol
 _atom_site_label
 _atom_site_symmetry_multiplicity
 _atom_site_fract_x
 _atom_site_fract_y
 _atom_site_fract_z
 _atom_site_occupancy
  La  La0  1  0.729618  0.464303  0.113074  1
  La  La1  1  0.737163  0.481530  0.622396  1
  La  La2  1  0.257611  0.518450  0.381379  1
  Tm  Tm3  1  0.464005  0.004383  0.251576  1
  Tm  Tm4  1  0.531164  0.992395  0.747731  1
  Tm  Tm5  1  0.271219  0.539457  0.884219  1
  Bi  Bi6  1  0.002210  0.004820  0.503735  1
  Bi  Bi7  1  0.005901  0.000598  0.997306  1
  O  O8  1  0.437198  0.658535  0.157583  1
  O  O9  1  0.535712  0.339132  0.832202  1
  O  O10  1  0.306925  0.930110  0.953994  1
  O  O11  1  0.701261  0.060079  0.049907  1
  O  O12  1  0.303312  0.938408  0.516584  1
  O  O13  1  0.699198  0.060644  0.481403  1
  O  O14  1  0.540224  0.353073  0.341029  1
  O  O15  1  0.450511  0.646233  0.668766  1
  O  O16  1  0.942237  0.664156  0.942061  1
  O  O17  1  0.084387  0.331505  0.038140  1
  O  O18  1  0.077416  0.342620  0.626792  1
  O  O19  1  0.927792  0.663018  0.388091  1
  O  O20  1  0.869735  0.924233  0.730637  1
  O  O21  1  0.125201  0.082318  0.271395  1
