# generated using pymatgen
data_Th4GaGe3Pd4
_symmetry_space_group_name_H-M   'P 1'
_cell_length_a   4.41931300
_cell_length_b   7.80177015
_cell_length_c   7.67192505
_cell_angle_alpha   90.13366150
_cell_angle_beta   90.00000000
_cell_angle_gamma   90.00000000
_symmetry_Int_Tables_number   1
_chemical_formula_structural   Th4GaGe3Pd4
_chemical_formula_sum   'Th4 Ga1 Ge3 Pd4'
_cell_volume   264.51547387
_cell_formula_units_Z   1
loop_
 _symmetry_equiv_pos_site_id
 _symmetry_equiv_pos_as_xyz
  1  'x, y, z'
loop_
 _atom_site_type_symbol
 _atom_site_label
 _atom_site_symmetry_multiplicity
 _atom_site_fract_x
 _atom_site_fract_y
 _atom_site_fract_z
 _atom_site_occupancy
  Th  Th0  1  0.750000  0.000861  0.747900  1
  Th  Th1  1  0.750000  0.497851  0.755858  1
  Th  Th2  1  0.250000  0.997875  0.251826  1
  Th  Th3  1  0.250000  0.497851  0.243152  1
  Ga  Ga4  1  0.750000  0.723384  0.418280  1
  Ge  Ge5  1  0.250000  0.736121  0.916170  1
  Ge  Ge6  1  0.250000  0.228969  0.580501  1
  Ge  Ge7  1  0.750000  0.225859  0.085124  1
  Pd  Pd8  1  0.750000  0.769011  0.085242  1
  Pd  Pd9  1  0.250000  0.769887  0.583386  1
  Pd  Pd10  1  0.250000  0.266509  0.915531  1
  Pd  Pd11  1  0.750000  0.285820  0.417029  1
