# generated using pymatgen
data_Zr10ZnSn2GeBi4
_symmetry_space_group_name_H-M   'P 1'
_cell_length_a   8.81737701
_cell_length_b   8.81737682
_cell_length_c   5.94337101
_cell_angle_alpha   90.00379055
_cell_angle_beta   90.00378678
_cell_angle_gamma   119.86852991
_symmetry_Int_Tables_number   1
_chemical_formula_structural   Zr10ZnSn2GeBi4
_chemical_formula_sum   'Zr10 Zn1 Sn2 Ge1 Bi4'
_cell_volume   400.69701146
_cell_formula_units_Z   1
loop_
 _symmetry_equiv_pos_site_id
 _symmetry_equiv_pos_as_xyz
  1  'x, y, z'
loop_
 _atom_site_type_symbol
 _atom_site_label
 _atom_site_symmetry_multiplicity
 _atom_site_fract_x
 _atom_site_fract_y
 _atom_site_fract_z
 _atom_site_occupancy
  Zr  Zr0  1  0.667551  0.329168  0.004528  1
  Zr  Zr1  1  0.329168  0.667551  0.004528  1
  Zr  Zr2  1  0.330132  0.667783  0.496210  1
  Zr  Zr3  1  0.667783  0.330132  0.496210  1
  Zr  Zr4  1  0.741026  0.741026  0.752017  1
  Zr  Zr5  1  0.260808  0.999855  0.752281  1
  Zr  Zr6  1  0.999855  0.260808  0.752281  1
  Zr  Zr7  1  0.264293  0.264293  0.247944  1
  Zr  Zr8  1  0.734378  0.005958  0.247775  1
  Zr  Zr9  1  0.005958  0.734378  0.247775  1
  Zn  Zn10  1  0.999930  0.999930  0.492896  1
  Sn  Sn11  1  0.386504  0.999863  0.251315  1
  Sn  Sn12  1  0.999863  0.386504  0.251315  1
  Ge  Ge13  1  0.999712  0.999712  0.006014  1
  Bi  Bi14  1  0.392060  0.392060  0.748913  1
  Bi  Bi15  1  0.607694  0.999550  0.748219  1
  Bi  Bi16  1  0.999550  0.607694  0.748219  1
  Bi  Bi17  1  0.613736  0.613736  0.251558  1
