# generated using pymatgen
data_Tb2Mg(PRh2)6
_symmetry_space_group_name_H-M   'P 1'
_cell_length_a   3.89985709
_cell_length_b   9.70871004
_cell_length_c   9.70847932
_cell_angle_alpha   120.00654412
_cell_angle_beta   89.99283330
_cell_angle_gamma   89.99647640
_symmetry_Int_Tables_number   1
_chemical_formula_structural   Tb2Mg(PRh2)6
_chemical_formula_sum   'Tb2 Mg1 P6 Rh12'
_cell_volume   318.31962463
_cell_formula_units_Z   1
loop_
 _symmetry_equiv_pos_site_id
 _symmetry_equiv_pos_as_xyz
  1  'x, y, z'
loop_
 _atom_site_type_symbol
 _atom_site_label
 _atom_site_symmetry_multiplicity
 _atom_site_fract_x
 _atom_site_fract_y
 _atom_site_fract_z
 _atom_site_occupancy
  Tb  Tb0  1  0.247901  0.666796  0.333520  1
  Tb  Tb1  1  0.752099  0.333204  0.666480  1
  Mg  Mg2  1  0.500000  0.000000  0.000000  1
  P  P3  1  0.746621  0.883481  0.598338  1
  P  P4  1  0.746830  0.401973  0.285234  1
  P  P5  1  0.746850  0.714863  0.116748  1
  P  P6  1  0.253379  0.116519  0.401662  1
  P  P7  1  0.253170  0.598027  0.714766  1
  P  P8  1  0.253150  0.285137  0.883252  1
  Rh  Rh9  1  0.754281  0.128117  0.838822  1
  Rh  Rh10  1  0.754623  0.161216  0.289050  1
  Rh  Rh11  1  0.754323  0.710778  0.872098  1
  Rh  Rh12  1  0.245719  0.871883  0.161178  1
  Rh  Rh13  1  0.245377  0.838784  0.710950  1
  Rh  Rh14  1  0.245677  0.289222  0.127902  1
  Rh  Rh15  1  0.748490  0.613025  0.547346  1
  Rh  Rh16  1  0.748566  0.452920  0.065874  1
  Rh  Rh17  1  0.748622  0.934382  0.387068  1
  Rh  Rh18  1  0.251510  0.386975  0.452654  1
  Rh  Rh19  1  0.251434  0.547080  0.934126  1
  Rh  Rh20  1  0.251378  0.065618  0.612932  1
