# generated using pymatgen
data_Al(InI4)3
_symmetry_space_group_name_H-M   'P 1'
_cell_length_a   6.83479349
_cell_length_b   10.34710223
_cell_length_c   13.09523549
_cell_angle_alpha   72.03144941
_cell_angle_beta   90.13819695
_cell_angle_gamma   90.15987626
_symmetry_Int_Tables_number   1
_chemical_formula_structural   Al(InI4)3
_chemical_formula_sum   'Al1 In3 I12'
_cell_volume   880.92490816
_cell_formula_units_Z   1
loop_
 _symmetry_equiv_pos_site_id
 _symmetry_equiv_pos_as_xyz
  1  'x, y, z'
loop_
 _atom_site_type_symbol
 _atom_site_label
 _atom_site_symmetry_multiplicity
 _atom_site_fract_x
 _atom_site_fract_y
 _atom_site_fract_z
 _atom_site_occupancy
  Al  Al0  1  0.999326  0.186984  0.953985  1
  In  In1  1  0.000308  0.802391  0.048099  1
  In  In2  1  0.501001  0.200824  0.450856  1
  In  In3  1  0.499205  0.800387  0.549343  1
  I  I4  1  0.739744  0.669370  0.711127  1
  I  I5  1  0.281422  0.001634  0.613827  1
  I  I6  1  0.744996  0.330259  0.548677  1
  I  I7  1  0.221493  0.315936  0.806294  1
  I  I8  1  0.755952  0.675931  0.207848  1
  I  I9  1  0.718829  0.999729  0.386120  1
  I  I10  1  0.246195  0.678258  0.949369  1
  I  I11  1  0.788302  0.010669  0.886898  1
  I  I12  1  0.777002  0.315005  0.039598  1
  I  I13  1  0.259710  0.330010  0.288819  1
  I  I14  1  0.255243  0.670718  0.451451  1
  I  I15  1  0.211274  0.011896  0.107689  1
