# generated using pymatgen
data_Dy8Ho2TcIr3
_symmetry_space_group_name_H-M   'P 1'
_cell_length_a   6.45182562
_cell_length_b   7.28354001
_cell_length_c   8.45218389
_cell_angle_alpha   96.60669776
_cell_angle_beta   111.90821266
_cell_angle_gamma   90.05695407
_symmetry_Int_Tables_number   1
_chemical_formula_structural   Dy8Ho2TcIr3
_chemical_formula_sum   'Dy8 Ho2 Tc1 Ir3'
_cell_volume   365.63939442
_cell_formula_units_Z   1
loop_
 _symmetry_equiv_pos_site_id
 _symmetry_equiv_pos_as_xyz
  1  'x, y, z'
loop_
 _atom_site_type_symbol
 _atom_site_label
 _atom_site_symmetry_multiplicity
 _atom_site_fract_x
 _atom_site_fract_y
 _atom_site_fract_z
 _atom_site_occupancy
  Dy  Dy0  1  0.972975  0.916908  0.184893  1
  Dy  Dy1  1  0.792604  0.582430  0.822223  1
  Dy  Dy2  1  0.025984  0.083487  0.817735  1
  Dy  Dy3  1  0.212766  0.418805  0.185430  1
  Dy  Dy4  1  0.653810  0.816564  0.438351  1
  Dy  Dy5  1  0.210227  0.683063  0.559649  1
  Dy  Dy6  1  0.347216  0.182705  0.560467  1
  Dy  Dy7  1  0.786881  0.317675  0.437942  1
  Ho  Ho8  1  0.424804  0.750682  0.999814  1
  Ho  Ho9  1  0.575472  0.250453  0.000488  1
  Tc  Tc10  1  0.824810  0.571772  0.214296  1
  Ir  Ir11  1  0.603445  0.926772  0.778078  1
  Ir  Ir12  1  0.175315  0.424241  0.780151  1
  Ir  Ir13  1  0.393692  0.074443  0.220482  1
