# generated using pymatgen
data_MnCdFe(P2O7)2
_symmetry_space_group_name_H-M   'P 1'
_cell_length_a   4.90701075
_cell_length_b   7.09365091
_cell_length_c   8.01344925
_cell_angle_alpha   87.09756975
_cell_angle_beta   85.11331700
_cell_angle_gamma   71.81758971
_symmetry_Int_Tables_number   1
_chemical_formula_structural   MnCdFe(P2O7)2
_chemical_formula_sum   'Mn1 Cd1 Fe1 P4 O14'
_cell_volume   263.96066658
_cell_formula_units_Z   1
loop_
 _symmetry_equiv_pos_site_id
 _symmetry_equiv_pos_as_xyz
  1  'x, y, z'
loop_
 _atom_site_type_symbol
 _atom_site_label
 _atom_site_symmetry_multiplicity
 _atom_site_fract_x
 _atom_site_fract_y
 _atom_site_fract_z
 _atom_site_occupancy
  Mn  Mn0  1  0.000333  0.999777  0.500051  1
  Cd  Cd1  1  0.000042  0.999946  0.000018  1
  Fe  Fe2  1  0.500367  0.499697  0.999946  1
  P  P3  1  0.980383  0.618740  0.752397  1
  P  P4  1  0.019598  0.381308  0.247774  1
  P  P5  1  0.399888  0.212537  0.725533  1
  P  P6  1  0.600139  0.787535  0.274238  1
  O  O7  1  0.214703  0.433311  0.666580  1
  O  O8  1  0.785207  0.566733  0.333399  1
  O  O9  1  0.115863  0.669930  0.905787  1
  O  O10  1  0.884130  0.330094  0.094276  1
  O  O11  1  0.519508  0.231399  0.895130  1
  O  O12  1  0.480268  0.768677  0.104797  1
  O  O13  1  0.709054  0.563201  0.799953  1
  O  O14  1  0.373867  0.838683  0.420391  1
  O  O15  1  0.626418  0.161225  0.579592  1
  O  O16  1  0.200795  0.081806  0.746385  1
  O  O17  1  0.290684  0.436972  0.200010  1
  O  O18  1  0.078893  0.215974  0.378970  1
  O  O19  1  0.920800  0.784059  0.621167  1
  O  O20  1  0.799061  0.918395  0.253605  1
