# generated using pymatgen
data_Th4Al18TcRh5
_symmetry_space_group_name_H-M   'P 1'
_cell_length_a   7.66217035
_cell_length_b   7.66217061
_cell_length_c   9.55028448
_cell_angle_alpha   89.79570847
_cell_angle_beta   89.79571227
_cell_angle_gamma   118.84587122
_symmetry_Int_Tables_number   1
_chemical_formula_structural   Th4Al18TcRh5
_chemical_formula_sum   'Th4 Al18 Tc1 Rh5'
_cell_volume   491.10465838
_cell_formula_units_Z   1
loop_
 _symmetry_equiv_pos_site_id
 _symmetry_equiv_pos_as_xyz
  1  'x, y, z'
loop_
 _atom_site_type_symbol
 _atom_site_label
 _atom_site_symmetry_multiplicity
 _atom_site_fract_x
 _atom_site_fract_y
 _atom_site_fract_z
 _atom_site_occupancy
  Th  Th0  1  0.995174  0.679578  0.248447  1
  Th  Th1  1  0.004826  0.320422  0.751553  1
  Th  Th2  1  0.679578  0.995174  0.248447  1
  Th  Th3  1  0.320422  0.004826  0.751553  1
  Al  Al4  1  0.139114  0.139114  0.250002  1
  Al  Al5  1  0.860886  0.860886  0.749998  1
  Al  Al6  1  0.007209  0.339133  0.076675  1
  Al  Al7  1  0.992791  0.660867  0.923325  1
  Al  Al8  1  0.995537  0.660844  0.575975  1
  Al  Al9  1  0.339156  0.004463  0.424025  1
  Al  Al10  1  0.004463  0.339156  0.424025  1
  Al  Al11  1  0.660844  0.995537  0.575975  1
  Al  Al12  1  0.660867  0.992791  0.923325  1
  Al  Al13  1  0.339133  0.007209  0.076675  1
  Al  Al14  1  0.335937  0.335937  0.543325  1
  Al  Al15  1  0.664063  0.664063  0.456675  1
  Al  Al16  1  0.664702  0.664702  0.042316  1
  Al  Al17  1  0.335298  0.335298  0.957684  1
  Al  Al18  1  0.343732  0.550917  0.250715  1
  Al  Al19  1  0.656268  0.449083  0.749285  1
  Al  Al20  1  0.550917  0.343732  0.250715  1
  Al  Al21  1  0.449083  0.656268  0.749285  1
  Tc  Tc22  1  0.000000  0.000000  0.000000  1
  Rh  Rh23  1  0.672712  0.327288  0.000000  1
  Rh  Rh24  1  0.327288  0.672712  0.000000  1
  Rh  Rh25  1  0.327616  0.672384  0.500000  1
  Rh  Rh26  1  0.672384  0.327616  0.500000  1
  Rh  Rh27  1  0.000000  0.000000  0.500000  1
