# generated using pymatgen
data_SrTbIn2Pt3
_symmetry_space_group_name_H-M   'P 1'
_cell_length_a   4.41719900
_cell_length_b   8.02137700
_cell_length_c   9.15632800
_cell_angle_alpha   90.00000000
_cell_angle_beta   90.00000000
_cell_angle_gamma   90.00000000
_symmetry_Int_Tables_number   1
_chemical_formula_structural   SrTbIn2Pt3
_chemical_formula_sum   'Sr2 Tb2 In4 Pt6'
_cell_volume   324.42718275
_cell_formula_units_Z   2
loop_
 _symmetry_equiv_pos_site_id
 _symmetry_equiv_pos_as_xyz
  1  'x, y, z'
loop_
 _atom_site_type_symbol
 _atom_site_label
 _atom_site_symmetry_multiplicity
 _atom_site_fract_x
 _atom_site_fract_y
 _atom_site_fract_z
 _atom_site_occupancy
  Sr  Sr0  1  0.000000  0.000000  0.279907  1
  Sr  Sr1  1  0.500001  0.500000  0.720094  1
  Tb  Tb2  1  0.000000  0.500000  0.352711  1
  Tb  Tb3  1  0.500001  0.000000  0.647290  1
  In  In4  1  0.500001  0.304869  0.113345  1
  In  In5  1  0.500001  0.695132  0.113345  1
  In  In6  1  0.000000  0.195131  0.886655  1
  In  In7  1  0.000000  0.804868  0.886655  1
  Pt  Pt8  1  0.000000  0.500000  0.026818  1
  Pt  Pt9  1  0.500001  0.265874  0.410192  1
  Pt  Pt10  1  0.500001  0.734126  0.410192  1
  Pt  Pt11  1  0.000000  0.234126  0.589809  1
  Pt  Pt12  1  0.000000  0.765874  0.589809  1
  Pt  Pt13  1  0.500001  0.000000  0.973183  1
