# generated using pymatgen
data_ScNi3MoIr3
_symmetry_space_group_name_H-M   'P 1'
_cell_length_a   5.48671600
_cell_length_b   5.48671439
_cell_length_c   4.29066300
_cell_angle_alpha   90.00000000
_cell_angle_beta   90.00000000
_cell_angle_gamma   120.00002178
_symmetry_Int_Tables_number   1
_chemical_formula_structural   ScNi3MoIr3
_chemical_formula_sum   'Sc1 Ni3 Mo1 Ir3'
_cell_volume   111.86127784
_cell_formula_units_Z   1
loop_
 _symmetry_equiv_pos_site_id
 _symmetry_equiv_pos_as_xyz
  1  'x, y, z'
loop_
 _atom_site_type_symbol
 _atom_site_label
 _atom_site_symmetry_multiplicity
 _atom_site_fract_x
 _atom_site_fract_y
 _atom_site_fract_z
 _atom_site_occupancy
  Sc  Sc0  1  0.333333  0.666667  0.250000  1
  Ni  Ni1  1  0.156068  0.843932  0.750000  1
  Ni  Ni2  1  0.687865  0.843932  0.750000  1
  Ni  Ni3  1  0.156068  0.312135  0.750000  1
  Mo  Mo4  1  0.666667  0.333333  0.750000  1
  Ir  Ir5  1  0.837318  0.674638  0.250000  1
  Ir  Ir6  1  0.325362  0.162682  0.250000  1
  Ir  Ir7  1  0.837318  0.162682  0.250000  1
