# generated using pymatgen
data_Tm5Lu7Rh4
_symmetry_space_group_name_H-M   'P 1'
_cell_length_a   6.22391500
_cell_length_b   7.06860814
_cell_length_c   9.16709621
_cell_angle_alpha   89.97305829
_cell_angle_beta   90.11623256
_cell_angle_gamma   89.97356348
_symmetry_Int_Tables_number   1
_chemical_formula_structural   Tm5Lu7Rh4
_chemical_formula_sum   'Tm5 Lu7 Rh4'
_cell_volume   403.30012839
_cell_formula_units_Z   1
loop_
 _symmetry_equiv_pos_site_id
 _symmetry_equiv_pos_as_xyz
  1  'x, y, z'
loop_
 _atom_site_type_symbol
 _atom_site_label
 _atom_site_symmetry_multiplicity
 _atom_site_fract_x
 _atom_site_fract_y
 _atom_site_fract_z
 _atom_site_occupancy
  Tm  Tm0  1  0.673496  0.178930  0.437989  1
  Tm  Tm1  1  0.871152  0.966515  0.750587  1
  Tm  Tm2  1  0.370202  0.533581  0.249693  1
  Tm  Tm3  1  0.628695  0.466986  0.750415  1
  Tm  Tm4  1  0.129752  0.033029  0.249448  1
  Lu  Lu5  1  0.673073  0.178508  0.062206  1
  Lu  Lu6  1  0.172814  0.321534  0.937285  1
  Lu  Lu7  1  0.827112  0.678647  0.437276  1
  Lu  Lu8  1  0.326624  0.820948  0.562962  1
  Lu  Lu9  1  0.326838  0.821369  0.937461  1
  Lu  Lu10  1  0.826814  0.678638  0.062589  1
  Lu  Lu11  1  0.172953  0.321589  0.563037  1
  Rh  Rh12  1  0.051389  0.614678  0.749863  1
  Rh  Rh13  1  0.551834  0.884804  0.249208  1
  Rh  Rh14  1  0.448179  0.114455  0.750665  1
  Rh  Rh15  1  0.949073  0.385790  0.249317  1
