# generated using pymatgen
data_YEr15(LuPb4)4
_symmetry_space_group_name_H-M   'P 1'
_cell_length_a   8.13336415
_cell_length_b   8.21234918
_cell_length_c   15.50348100
_cell_angle_alpha   90.00231629
_cell_angle_beta   89.96953942
_cell_angle_gamma   89.98812675
_symmetry_Int_Tables_number   1
_chemical_formula_structural   YEr15(LuPb4)4
_chemical_formula_sum   'Y1 Er15 Lu4 Pb16'
_cell_volume   1035.53975021
_cell_formula_units_Z   1
loop_
 _symmetry_equiv_pos_site_id
 _symmetry_equiv_pos_as_xyz
  1  'x, y, z'
loop_
 _atom_site_type_symbol
 _atom_site_label
 _atom_site_symmetry_multiplicity
 _atom_site_fract_x
 _atom_site_fract_y
 _atom_site_fract_z
 _atom_site_occupancy
  Y  Y0  1  0.036173  0.176420  0.900363  1
  Er  Er1  1  0.376748  0.842080  0.878639  1
  Er  Er2  1  0.876798  0.657803  0.621143  1
  Er  Er3  1  0.623073  0.157814  0.378747  1
  Er  Er4  1  0.123553  0.342405  0.121354  1
  Er  Er5  1  0.623586  0.157867  0.121336  1
  Er  Er6  1  0.123088  0.342309  0.378867  1
  Er  Er7  1  0.376997  0.842153  0.621234  1
  Er  Er8  1  0.876848  0.658051  0.878737  1
  Er  Er9  1  0.536912  0.323868  0.900390  1
  Er  Er10  1  0.037215  0.176073  0.599763  1
  Er  Er11  1  0.462968  0.676164  0.400471  1
  Er  Er12  1  0.962932  0.823880  0.099563  1
  Er  Er13  1  0.463137  0.676061  0.099637  1
  Er  Er14  1  0.962989  0.823881  0.400552  1
  Er  Er15  1  0.537031  0.323922  0.599586  1
  Lu  Lu16  1  0.208508  0.504761  0.749803  1
  Lu  Lu17  1  0.708305  0.995265  0.749783  1
  Lu  Lu18  1  0.791658  0.495365  0.250135  1
  Lu  Lu19  1  0.291575  0.004618  0.250207  1
  Pb  Pb20  1  0.281978  0.032257  0.044303  1
  Pb  Pb21  1  0.780299  0.466610  0.456800  1
  Pb  Pb22  1  0.719188  0.966935  0.542803  1
  Pb  Pb23  1  0.219904  0.534175  0.956954  1
  Pb  Pb24  1  0.717008  0.965835  0.956853  1
  Pb  Pb25  1  0.219209  0.533337  0.542755  1
  Pb  Pb26  1  0.280952  0.033528  0.456840  1
  Pb  Pb27  1  0.781379  0.466242  0.043094  1
  Pb  Pb28  1  0.570726  0.625824  0.749611  1
  Pb  Pb29  1  0.070555  0.873667  0.749516  1
  Pb  Pb30  1  0.429456  0.374241  0.250337  1
  Pb  Pb31  1  0.929503  0.125990  0.250376  1
  Pb  Pb32  1  0.349585  0.156177  0.749665  1
  Pb  Pb33  1  0.848552  0.344393  0.749238  1
  Pb  Pb34  1  0.650756  0.843704  0.250255  1
  Pb  Pb35  1  0.150858  0.656325  0.250289  1
