# generated using pymatgen
data_Hf2Zr8ZnPPb6
_symmetry_space_group_name_H-M   'P 1'
_cell_length_a   8.77334800
_cell_length_b   8.77334865
_cell_length_c   5.98554900
_cell_angle_alpha   90.00000000
_cell_angle_beta   90.00000000
_cell_angle_gamma   119.99999753
_symmetry_Int_Tables_number   1
_chemical_formula_structural   Hf2Zr8ZnPPb6
_chemical_formula_sum   'Hf2 Zr8 Zn1 P1 Pb6'
_cell_volume   398.99309318
_cell_formula_units_Z   1
loop_
 _symmetry_equiv_pos_site_id
 _symmetry_equiv_pos_as_xyz
  1  'x, y, z'
loop_
 _atom_site_type_symbol
 _atom_site_label
 _atom_site_symmetry_multiplicity
 _atom_site_fract_x
 _atom_site_fract_y
 _atom_site_fract_z
 _atom_site_occupancy
  Hf  Hf0  1  0.333333  0.666667  0.000000  1
  Hf  Hf1  1  0.666667  0.333333  0.500000  1
  Zr  Zr2  1  0.666667  0.333333  0.000000  1
  Zr  Zr3  1  0.333333  0.666667  0.500000  1
  Zr  Zr4  1  0.254841  0.999948  0.236822  1
  Zr  Zr5  1  0.254841  0.254893  0.763178  1
  Zr  Zr6  1  0.000052  0.745159  0.763178  1
  Zr  Zr7  1  0.000052  0.254893  0.236822  1
  Zr  Zr8  1  0.745107  0.745159  0.236822  1
  Zr  Zr9  1  0.745107  0.999948  0.763178  1
  Zn  Zn10  1  0.000000  0.000000  0.500000  1
  P  P11  1  0.000000  0.000000  0.000000  1
  Pb  Pb12  1  0.607846  0.000031  0.255101  1
  Pb  Pb13  1  0.607846  0.607815  0.744899  1
  Pb  Pb14  1  0.999969  0.392154  0.744899  1
  Pb  Pb15  1  0.999969  0.607815  0.255101  1
  Pb  Pb16  1  0.392185  0.392154  0.255101  1
  Pb  Pb17  1  0.392185  0.000031  0.744899  1
