# generated using pymatgen
data_Tl(Cu3O4)2
_symmetry_space_group_name_H-M   'P 1'
_cell_length_a   6.59352599
_cell_length_b   6.59352646
_cell_length_c   6.59352600
_cell_angle_alpha   60.00000231
_cell_angle_beta   59.99999993
_cell_angle_gamma   60.00000233
_symmetry_Int_Tables_number   1
_chemical_formula_structural   Tl(Cu3O4)2
_chemical_formula_sum   'Tl1 Cu6 O8'
_cell_volume   202.69275034
_cell_formula_units_Z   1
loop_
 _symmetry_equiv_pos_site_id
 _symmetry_equiv_pos_as_xyz
  1  'x, y, z'
loop_
 _atom_site_type_symbol
 _atom_site_label
 _atom_site_symmetry_multiplicity
 _atom_site_fract_x
 _atom_site_fract_y
 _atom_site_fract_z
 _atom_site_occupancy
  Tl  Tl0  1  0.000000  0.000000  0.000000  1
  Cu  Cu1  1  0.500000  0.500000  0.000000  1
  Cu  Cu2  1  0.000000  0.500000  0.500000  1
  Cu  Cu3  1  0.500000  0.000000  0.500000  1
  Cu  Cu4  1  0.000000  0.000000  0.500000  1
  Cu  Cu5  1  0.500000  0.000000  0.000000  1
  Cu  Cu6  1  0.000000  0.500000  0.000000  1
  O  O7  1  0.145508  0.145508  0.145508  1
  O  O8  1  0.854492  0.854492  0.436524  1
  O  O9  1  0.145508  0.145508  0.563476  1
  O  O10  1  0.854492  0.436524  0.854492  1
  O  O11  1  0.563476  0.145508  0.145508  1
  O  O12  1  0.145508  0.563476  0.145508  1
  O  O13  1  0.436524  0.854492  0.854492  1
  O  O14  1  0.854492  0.854492  0.854492  1
