# generated using pymatgen
data_LiMgTa(SbPt)3
_symmetry_space_group_name_H-M   'P 1'
_cell_length_a   7.71599518
_cell_length_b   7.71805976
_cell_length_c   7.73179814
_cell_angle_alpha   99.76352639
_cell_angle_beta   99.65423685
_cell_angle_gamma   119.91037657
_symmetry_Int_Tables_number   1
_chemical_formula_structural   LiMgTa(SbPt)3
_chemical_formula_sum   'Li2 Mg2 Ta2 Sb6 Pt6'
_cell_volume   375.79698826
_cell_formula_units_Z   2
loop_
 _symmetry_equiv_pos_site_id
 _symmetry_equiv_pos_as_xyz
  1  'x, y, z'
loop_
 _atom_site_type_symbol
 _atom_site_label
 _atom_site_symmetry_multiplicity
 _atom_site_fract_x
 _atom_site_fract_y
 _atom_site_fract_z
 _atom_site_occupancy
  Li  Li0  1  0.330438  0.164271  0.498851  1
  Li  Li1  1  0.998407  0.502638  0.499553  1
  Mg  Mg2  1  0.164738  0.330546  0.999382  1
  Mg  Mg3  1  0.503274  0.998053  0.000058  1
  Ta  Ta4  1  0.667942  0.831322  0.499325  1
  Ta  Ta5  1  0.831562  0.668608  0.000636  1
  Sb  Sb6  1  0.925974  0.102459  0.253079  1
  Sb  Sb7  1  0.253883  0.752529  0.254742  1
  Sb  Sb8  1  0.578098  0.404053  0.261253  1
  Sb  Sb9  1  0.099676  0.918507  0.740695  1
  Sb  Sb10  1  0.748178  0.259040  0.743065  1
  Sb  Sb11  1  0.398972  0.569420  0.749591  1
  Pt  Pt12  1  0.191439  0.024356  0.114529  1
  Pt  Pt13  1  0.871179  0.386773  0.115858  1
  Pt  Pt14  1  0.557729  0.709707  0.134131  1
  Pt  Pt15  1  0.022864  0.189927  0.622535  1
  Pt  Pt16  1  0.393777  0.874126  0.623845  1
  Pt  Pt17  1  0.711826  0.563626  0.638872  1
