# generated using pymatgen
data_Nd6Y7Ho3(CdPt)4
_symmetry_space_group_name_H-M   'P 1'
_cell_length_a   9.81936614
_cell_length_b   9.82781958
_cell_length_c   9.82781900
_cell_angle_alpha   59.99999857
_cell_angle_beta   59.97151631
_cell_angle_gamma   59.97151651
_symmetry_Int_Tables_number   1
_chemical_formula_structural   Nd6Y7Ho3(CdPt)4
_chemical_formula_sum   'Nd6 Y7 Ho3 Cd4 Pt4'
_cell_volume   670.34081792
_cell_formula_units_Z   1
loop_
 _symmetry_equiv_pos_site_id
 _symmetry_equiv_pos_as_xyz
  1  'x, y, z'
loop_
 _atom_site_type_symbol
 _atom_site_label
 _atom_site_symmetry_multiplicity
 _atom_site_fract_x
 _atom_site_fract_y
 _atom_site_fract_z
 _atom_site_occupancy
  Nd  Nd0  1  0.937249  0.562925  0.562925  1
  Nd  Nd1  1  0.562527  0.937400  0.937400  1
  Nd  Nd2  1  0.562527  0.937400  0.562674  1
  Nd  Nd3  1  0.937249  0.562925  0.936901  1
  Nd  Nd4  1  0.562527  0.562674  0.937400  1
  Nd  Nd5  1  0.937249  0.936901  0.562925  1
  Y  Y6  1  0.947617  0.350794  0.350794  1
  Y  Y7  1  0.811424  0.188488  0.188488  1
  Y  Y8  1  0.188692  0.811319  0.811319  1
  Y  Y9  1  0.188692  0.811319  0.188670  1
  Y  Y10  1  0.811424  0.188488  0.811601  1
  Y  Y11  1  0.188692  0.188670  0.811319  1
  Y  Y12  1  0.811424  0.811601  0.188488  1
  Ho  Ho13  1  0.349968  0.349953  0.349953  1
  Ho  Ho14  1  0.349968  0.349953  0.950126  1
  Ho  Ho15  1  0.349968  0.950126  0.349953  1
  Cd  Cd16  1  0.579751  0.580007  0.580007  1
  Cd  Cd17  1  0.579751  0.580007  0.260235  1
  Cd  Cd18  1  0.579751  0.260235  0.580007  1
  Cd  Cd19  1  0.260274  0.579909  0.579909  1
  Pt  Pt20  1  0.144661  0.142410  0.142410  1
  Pt  Pt21  1  0.144661  0.142410  0.570519  1
  Pt  Pt22  1  0.144661  0.570519  0.142410  1
  Pt  Pt23  1  0.569292  0.143570  0.143570  1
