# generated using pymatgen
data_Th3Sc13Cd4FeNi3
_symmetry_space_group_name_H-M   'P 1'
_cell_length_a   9.11405026
_cell_length_b   9.16872910
_cell_length_c   9.16872826
_cell_angle_alpha   59.62180466
_cell_angle_beta   59.66184520
_cell_angle_gamma   59.66184785
_symmetry_Int_Tables_number   1
_chemical_formula_structural   Th3Sc13Cd4FeNi3
_chemical_formula_sum   'Th3 Sc13 Cd4 Fe1 Ni3'
_cell_volume   537.44244014
_cell_formula_units_Z   1
loop_
 _symmetry_equiv_pos_site_id
 _symmetry_equiv_pos_as_xyz
  1  'x, y, z'
loop_
 _atom_site_type_symbol
 _atom_site_label
 _atom_site_symmetry_multiplicity
 _atom_site_fract_x
 _atom_site_fract_y
 _atom_site_fract_z
 _atom_site_occupancy
  Th  Th0  1  0.344507  0.352980  0.352980  1
  Th  Th1  1  0.340304  0.346828  0.956845  1
  Th  Th2  1  0.340304  0.956845  0.346828  1
  Sc  Sc3  1  0.947291  0.349749  0.349749  1
  Sc  Sc4  1  0.826029  0.185582  0.185582  1
  Sc  Sc5  1  0.186772  0.814404  0.814404  1
  Sc  Sc6  1  0.184678  0.818676  0.183376  1
  Sc  Sc7  1  0.813560  0.187464  0.811137  1
  Sc  Sc8  1  0.184678  0.183376  0.818676  1
  Sc  Sc9  1  0.813560  0.811137  0.187464  1
  Sc  Sc10  1  0.932536  0.566633  0.566633  1
  Sc  Sc11  1  0.560044  0.931885  0.931885  1
  Sc  Sc12  1  0.565732  0.931633  0.566756  1
  Sc  Sc13  1  0.931019  0.565583  0.933917  1
  Sc  Sc14  1  0.565732  0.566756  0.931633  1
  Sc  Sc15  1  0.931019  0.933917  0.565583  1
  Cd  Cd16  1  0.590372  0.581657  0.581657  1
  Cd  Cd17  1  0.593063  0.580734  0.244926  1
  Cd  Cd18  1  0.593063  0.244926  0.580734  1
  Cd  Cd19  1  0.241888  0.585953  0.585953  1
  Fe  Fe20  1  0.155759  0.136688  0.136688  1
  Ni  Ni21  1  0.137492  0.142029  0.582442  1
  Ni  Ni22  1  0.137492  0.582442  0.142029  1
  Ni  Ni23  1  0.583103  0.142129  0.142129  1
