# generated using pymatgen
data_DyMgZnCu3
_symmetry_space_group_name_H-M   'P 1'
_cell_length_a   5.18573367
_cell_length_b   5.14599465
_cell_length_c   5.18573300
_cell_angle_alpha   59.74421512
_cell_angle_beta   59.99999789
_cell_angle_gamma   59.74420839
_symmetry_Int_Tables_number   1
_chemical_formula_structural   DyMgZnCu3
_chemical_formula_sum   'Dy1 Mg1 Zn1 Cu3'
_cell_volume   97.47309058
_cell_formula_units_Z   1
loop_
 _symmetry_equiv_pos_site_id
 _symmetry_equiv_pos_as_xyz
  1  'x, y, z'
loop_
 _atom_site_type_symbol
 _atom_site_label
 _atom_site_symmetry_multiplicity
 _atom_site_fract_x
 _atom_site_fract_y
 _atom_site_fract_z
 _atom_site_occupancy
  Dy  Dy0  1  0.751530  0.745411  0.751530  1
  Mg  Mg1  1  0.000892  0.997322  0.000892  1
  Zn  Zn2  1  0.373107  0.880676  0.373107  1
  Cu  Cu3  1  0.373929  0.375529  0.373929  1
  Cu  Cu4  1  0.876612  0.375529  0.373929  1
  Cu  Cu5  1  0.373929  0.375529  0.876612  1
