# generated using pymatgen
data_Pr2NdHo(Mo2O7)2
_symmetry_space_group_name_H-M   'P 1'
_cell_length_a   7.49861442
_cell_length_b   7.49698267
_cell_length_c   7.48225071
_cell_angle_alpha   120.02861113
_cell_angle_beta   119.77832638
_cell_angle_gamma   90.13527488
_symmetry_Int_Tables_number   1
_chemical_formula_structural   Pr2NdHo(Mo2O7)2
_chemical_formula_sum   'Pr2 Nd1 Ho1 Mo4 O14'
_cell_volume   297.94451708
_cell_formula_units_Z   1
loop_
 _symmetry_equiv_pos_site_id
 _symmetry_equiv_pos_as_xyz
  1  'x, y, z'
loop_
 _atom_site_type_symbol
 _atom_site_label
 _atom_site_symmetry_multiplicity
 _atom_site_fract_x
 _atom_site_fract_y
 _atom_site_fract_z
 _atom_site_occupancy
  Pr  Pr0  1  0.375000  0.625000  0.750000  1
  Pr  Pr1  1  0.875000  0.625000  0.250000  1
  Nd  Nd2  1  0.375000  0.125000  0.750000  1
  Ho  Ho3  1  0.375000  0.625000  0.250000  1
  Mo  Mo4  1  0.875000  0.625000  0.750000  1
  Mo  Mo5  1  0.375000  0.125000  0.250000  1
  Mo  Mo6  1  0.875000  0.125000  0.250000  1
  Mo  Mo7  1  0.875000  0.125000  0.750000  1
  O  O8  1  0.781920  0.201336  0.996580  1
  O  O9  1  0.543820  0.466249  0.489655  1
  O  O10  1  0.209834  0.212761  0.003895  1
  O  O11  1  0.958982  0.459685  0.501128  1
  O  O12  1  0.794596  0.796536  0.582360  1
  O  O13  1  0.535364  0.033314  0.079928  1
  O  O14  1  0.255106  0.746781  0.490578  1
  O  O15  1  0.955404  0.453464  0.917640  1
  O  O16  1  0.968080  0.048664  0.503420  1
  O  O17  1  0.540166  0.037239  0.496105  1
  O  O18  1  0.214636  0.216686  0.420072  1
  O  O19  1  0.494894  0.503219  0.009422  1
  O  O20  1  0.791018  0.790315  0.998872  1
  O  O21  1  0.206180  0.783751  0.010345  1
