# generated using pymatgen
data_Nd2MnIrRh2
_symmetry_space_group_name_H-M   'P 1'
_cell_length_a   5.27155208
_cell_length_b   5.60083930
_cell_length_c   5.27155210
_cell_angle_alpha   122.33389109
_cell_angle_beta   115.69291631
_cell_angle_gamma   89.90242268
_symmetry_Int_Tables_number   1
_chemical_formula_structural   Nd2MnIrRh2
_chemical_formula_sum   'Nd2 Mn1 Ir1 Rh2'
_cell_volume   112.96269158
_cell_formula_units_Z   1
loop_
 _symmetry_equiv_pos_site_id
 _symmetry_equiv_pos_as_xyz
  1  'x, y, z'
loop_
 _atom_site_type_symbol
 _atom_site_label
 _atom_site_symmetry_multiplicity
 _atom_site_fract_x
 _atom_site_fract_y
 _atom_site_fract_z
 _atom_site_occupancy
  Nd  Nd0  1  0.372509  0.125377  0.252868  1
  Nd  Nd1  1  0.627491  0.874623  0.747132  1
  Mn  Mn2  1  0.000000  0.500000  0.000000  1
  Ir  Ir3  1  0.000000  0.000000  0.500000  1
  Rh  Rh4  1  0.500000  0.500000  0.000000  1
  Rh  Rh5  1  0.000000  0.500000  0.500000  1
