# generated using pymatgen
data_Tm12MgAlTc3
_symmetry_space_group_name_H-M   'P 1'
_cell_length_a   8.30739254
_cell_length_b   8.30739151
_cell_length_c   8.30739100
_cell_angle_alpha   108.73923181
_cell_angle_beta   109.59656736
_cell_angle_gamma   110.08070227
_symmetry_Int_Tables_number   1
_chemical_formula_structural   Tm12MgAlTc3
_chemical_formula_sum   'Tm12 Mg1 Al1 Tc3'
_cell_volume   441.27693470
_cell_formula_units_Z   1
loop_
 _symmetry_equiv_pos_site_id
 _symmetry_equiv_pos_as_xyz
  1  'x, y, z'
loop_
 _atom_site_type_symbol
 _atom_site_label
 _atom_site_symmetry_multiplicity
 _atom_site_fract_x
 _atom_site_fract_y
 _atom_site_fract_z
 _atom_site_occupancy
  Tm  Tm0  1  0.188007  0.430572  0.242565  1
  Tm  Tm1  1  0.811993  0.569428  0.757435  1
  Tm  Tm2  1  0.188049  0.945533  0.757483  1
  Tm  Tm3  1  0.939867  0.185826  0.754071  1
  Tm  Tm4  1  0.811951  0.054467  0.242517  1
  Tm  Tm5  1  0.060133  0.814174  0.245929  1
  Tm  Tm6  1  0.431754  0.185826  0.245960  1
  Tm  Tm7  1  0.568246  0.814174  0.754040  1
  Tm  Tm8  1  0.321005  0.315002  0.636001  1
  Tm  Tm9  1  0.678995  0.684998  0.363999  1
  Tm  Tm10  1  0.679003  0.315002  0.993997  1
  Tm  Tm11  1  0.320997  0.684998  0.006003  1
  Mg  Mg12  1  0.000000  0.500000  0.500000  1
  Al  Al13  1  0.500000  0.000000  0.500000  1
  Tc  Tc14  1  0.338605  0.338632  0.000028  1
  Tc  Tc15  1  0.661395  0.661368  0.999972  1
  Tc  Tc16  1  0.000000  0.000000  0.000000  1
