# generated using pymatgen
data_Tm20(Ir3Ru)3
_symmetry_space_group_name_H-M   'P 1'
_cell_length_a   10.69118500
_cell_length_b   10.69118500
_cell_length_c   6.35091500
_cell_angle_alpha   90.00000000
_cell_angle_beta   90.00000000
_cell_angle_gamma   90.00000000
_symmetry_Int_Tables_number   1
_chemical_formula_structural   Tm20(Ir3Ru)3
_chemical_formula_sum   'Tm20 Ir9 Ru3'
_cell_volume   725.91870889
_cell_formula_units_Z   1
loop_
 _symmetry_equiv_pos_site_id
 _symmetry_equiv_pos_as_xyz
  1  'x, y, z'
loop_
 _atom_site_type_symbol
 _atom_site_label
 _atom_site_symmetry_multiplicity
 _atom_site_fract_x
 _atom_site_fract_y
 _atom_site_fract_z
 _atom_site_occupancy
  Tm  Tm0  1  0.293618  0.086383  0.376574  1
  Tm  Tm1  1  0.293625  0.913685  0.876683  1
  Tm  Tm2  1  0.706375  0.086315  0.876683  1
  Tm  Tm3  1  0.706382  0.913617  0.376574  1
  Tm  Tm4  1  0.586315  0.793625  0.876683  1
  Tm  Tm5  1  0.586383  0.206382  0.376574  1
  Tm  Tm6  1  0.413617  0.793618  0.376574  1
  Tm  Tm7  1  0.413685  0.206375  0.876683  1
  Tm  Tm8  1  0.207834  0.413046  0.624308  1
  Tm  Tm9  1  0.207658  0.586894  0.122015  1
  Tm  Tm10  1  0.792342  0.413106  0.122015  1
  Tm  Tm11  1  0.792166  0.586954  0.624308  1
  Tm  Tm12  1  0.913106  0.707658  0.122015  1
  Tm  Tm13  1  0.913046  0.292166  0.624308  1
  Tm  Tm14  1  0.086954  0.707834  0.624308  1
  Tm  Tm15  1  0.086894  0.292342  0.122015  1
  Tm  Tm16  1  0.000000  0.000000  0.499968  1
  Tm  Tm17  1  0.000000  0.000000  0.999922  1
  Tm  Tm18  1  0.500000  0.500000  0.999922  1
  Tm  Tm19  1  0.500000  0.500000  0.499968  1
  Ir  Ir20  1  0.847463  0.153050  0.250229  1
  Ir  Ir21  1  0.847317  0.846913  0.749896  1
  Ir  Ir22  1  0.152683  0.153087  0.749896  1
  Ir  Ir23  1  0.152537  0.846950  0.250229  1
  Ir  Ir24  1  0.653087  0.347317  0.749896  1
  Ir  Ir25  1  0.653050  0.652537  0.250229  1
  Ir  Ir26  1  0.346950  0.347463  0.250229  1
  Ir  Ir27  1  0.346913  0.652683  0.749896  1
  Ir  Ir28  1  0.000000  0.500000  0.378139  1
  Ru  Ru29  1  0.500000  0.000000  0.122540  1
  Ru  Ru30  1  0.500000  0.000000  0.622528  1
  Ru  Ru31  1  0.000000  0.500000  0.878189  1
