# generated using pymatgen
data_SmY(Co3Si2)2
_symmetry_space_group_name_H-M   'P 1'
_cell_length_a   6.29241223
_cell_length_b   6.29241204
_cell_length_c   6.29241272
_cell_angle_alpha   130.47959859
_cell_angle_beta   113.60304041
_cell_angle_gamma   87.15840001
_symmetry_Int_Tables_number   1
_chemical_formula_structural   SmY(Co3Si2)2
_chemical_formula_sum   'Sm1 Y1 Co6 Si4'
_cell_volume   165.55747007
_cell_formula_units_Z   1
loop_
 _symmetry_equiv_pos_site_id
 _symmetry_equiv_pos_as_xyz
  1  'x, y, z'
loop_
 _atom_site_type_symbol
 _atom_site_label
 _atom_site_symmetry_multiplicity
 _atom_site_fract_x
 _atom_site_fract_y
 _atom_site_fract_z
 _atom_site_occupancy
  Sm  Sm0  1  0.250000  0.529596  0.279596  1
  Y  Y1  1  0.750000  0.467426  0.717426  1
  Co  Co2  1  0.002212  0.000377  0.502590  1
  Co  Co3  1  0.497788  0.000377  0.998165  1
  Co  Co4  1  0.723850  0.001050  0.723720  1
  Co  Co5  1  0.222670  0.499871  0.723720  1
  Co  Co6  1  0.277330  0.001050  0.277201  1
  Co  Co7  1  0.776150  0.499871  0.277201  1
  Si  Si8  1  0.078477  0.872454  0.793977  1
  Si  Si9  1  0.917588  0.123801  0.206214  1
  Si  Si10  1  0.582412  0.788628  0.206214  1
  Si  Si11  1  0.421523  0.215498  0.793977  1
