# generated using pymatgen
data_Dy3Pa(HgPt2)2
_symmetry_space_group_name_H-M   'P 1'
_cell_length_a   7.80979739
_cell_length_b   7.80979739
_cell_length_c   3.64998100
_cell_angle_alpha   90.00000000
_cell_angle_beta   90.00000000
_cell_angle_gamma   88.50526929
_symmetry_Int_Tables_number   1
_chemical_formula_structural   Dy3Pa(HgPt2)2
_chemical_formula_sum   'Dy3 Pa1 Hg2 Pt4'
_cell_volume   222.54730262
_cell_formula_units_Z   1
loop_
 _symmetry_equiv_pos_site_id
 _symmetry_equiv_pos_as_xyz
  1  'x, y, z'
loop_
 _atom_site_type_symbol
 _atom_site_label
 _atom_site_symmetry_multiplicity
 _atom_site_fract_x
 _atom_site_fract_y
 _atom_site_fract_z
 _atom_site_occupancy
  Dy  Dy0  1  0.325663  0.174337  0.500000  1
  Dy  Dy1  1  0.832148  0.327990  0.500000  1
  Dy  Dy2  1  0.172010  0.667852  0.500000  1
  Pa  Pa3  1  0.667917  0.832083  0.500000  1
  Hg  Hg4  1  0.006848  0.001214  0.000000  1
  Hg  Hg5  1  0.498786  0.493152  0.000000  1
  Pt  Pt6  1  0.634088  0.118049  0.000000  1
  Pt  Pt7  1  0.121069  0.378931  0.000000  1
  Pt  Pt8  1  0.859520  0.640480  0.000000  1
  Pt  Pt9  1  0.381951  0.865912  0.000000  1
