# generated using pymatgen
data_GdHoB10Ir
_symmetry_space_group_name_H-M   'P 1'
_cell_length_a   4.17984000
_cell_length_b   5.69061629
_cell_length_c   11.36302357
_cell_angle_alpha   90.03642159
_cell_angle_beta   90.00000000
_cell_angle_gamma   90.00000000
_symmetry_Int_Tables_number   1
_chemical_formula_structural   GdHoB10Ir
_chemical_formula_sum   'Gd2 Ho2 B20 Ir2'
_cell_volume   270.27929674
_cell_formula_units_Z   2
loop_
 _symmetry_equiv_pos_site_id
 _symmetry_equiv_pos_as_xyz
  1  'x, y, z'
loop_
 _atom_site_type_symbol
 _atom_site_label
 _atom_site_symmetry_multiplicity
 _atom_site_fract_x
 _atom_site_fract_y
 _atom_site_fract_z
 _atom_site_occupancy
  Gd  Gd0  1  0.500000  0.294391  0.865384  1
  Gd  Gd1  1  0.500000  0.705609  0.134616  1
  Ho  Ho2  1  0.500000  0.205617  0.366481  1
  Ho  Ho3  1  0.500000  0.794383  0.633519  1
  B  B4  1  0.000000  0.381162  0.042895  1
  B  B5  1  0.000000  0.618838  0.957105  1
  B  B6  1  0.000000  0.118721  0.542388  1
  B  B7  1  0.000000  0.881279  0.457612  1
  B  B8  1  0.000000  0.362844  0.197625  1
  B  B9  1  0.000000  0.637156  0.802375  1
  B  B10  1  0.000000  0.137092  0.696980  1
  B  B11  1  0.000000  0.862908  0.303020  1
  B  B12  1  0.000000  0.054834  0.193380  1
  B  B13  1  0.000000  0.945166  0.806620  1
  B  B14  1  0.000000  0.445076  0.692813  1
  B  B15  1  0.000000  0.554924  0.307187  1
  B  B16  1  0.301324  0.219111  0.119685  1
  B  B17  1  0.698676  0.780889  0.880315  1
  B  B18  1  0.301324  0.780889  0.880315  1
  B  B19  1  0.698448  0.279932  0.618805  1
  B  B20  1  0.698676  0.219111  0.119685  1
  B  B21  1  0.301552  0.720068  0.381195  1
  B  B22  1  0.698448  0.720068  0.381195  1
  B  B23  1  0.301552  0.279932  0.618805  1
  Ir  Ir24  1  0.000000  0.000000  0.000000  1
  Ir  Ir25  1  0.000000  0.500000  0.500000  1
