# generated using pymatgen
data_Tb19HoSn9Bi7
_symmetry_space_group_name_H-M   'P 1'
_cell_length_a   8.21179007
_cell_length_b   8.24286397
_cell_length_c   15.69490600
_cell_angle_alpha   90.06679175
_cell_angle_beta   89.60507010
_cell_angle_gamma   89.91408288
_symmetry_Int_Tables_number   1
_chemical_formula_structural   Tb19HoSn9Bi7
_chemical_formula_sum   'Tb19 Ho1 Sn9 Bi7'
_cell_volume   1062.34012360
_cell_formula_units_Z   1
loop_
 _symmetry_equiv_pos_site_id
 _symmetry_equiv_pos_as_xyz
  1  'x, y, z'
loop_
 _atom_site_type_symbol
 _atom_site_label
 _atom_site_symmetry_multiplicity
 _atom_site_fract_x
 _atom_site_fract_y
 _atom_site_fract_z
 _atom_site_occupancy
  Tb  Tb0  1  0.394645  0.837741  0.877852  1
  Tb  Tb1  1  0.897960  0.663998  0.621301  1
  Tb  Tb2  1  0.602117  0.162464  0.378154  1
  Tb  Tb3  1  0.101728  0.337987  0.121201  1
  Tb  Tb4  1  0.607150  0.167273  0.121248  1
  Tb  Tb5  1  0.102278  0.336310  0.378212  1
  Tb  Tb6  1  0.396793  0.838082  0.622458  1
  Tb  Tb7  1  0.892046  0.660698  0.880311  1
  Tb  Tb8  1  0.565004  0.333391  0.890155  1
  Tb  Tb9  1  0.065501  0.169414  0.613922  1
  Tb  Tb10  1  0.435032  0.668362  0.386525  1
  Tb  Tb11  1  0.937555  0.823530  0.111354  1
  Tb  Tb12  1  0.446107  0.665842  0.110107  1
  Tb  Tb13  1  0.934628  0.830515  0.385971  1
  Tb  Tb14  1  0.565754  0.331757  0.613465  1
  Tb  Tb15  1  0.056610  0.173972  0.889741  1
  Tb  Tb16  1  0.228547  0.500179  0.750754  1
  Tb  Tb17  1  0.728469  0.002142  0.750772  1
  Tb  Tb18  1  0.771742  0.499703  0.246149  1
  Ho  Ho19  1  0.271289  0.998098  0.248742  1
  Sn  Sn20  1  0.768068  0.480626  0.044529  1
  Sn  Sn21  1  0.594481  0.629436  0.749666  1
  Sn  Sn22  1  0.092984  0.872260  0.751120  1
  Sn  Sn23  1  0.404626  0.370249  0.250338  1
  Sn  Sn24  1  0.906509  0.126922  0.250153  1
  Sn  Sn25  1  0.366208  0.143016  0.751515  1
  Sn  Sn26  1  0.866305  0.360150  0.750108  1
  Sn  Sn27  1  0.633011  0.859089  0.249439  1
  Sn  Sn28  1  0.135951  0.640677  0.249651  1
  Bi  Bi29  1  0.265177  0.015732  0.044718  1
  Bi  Bi30  1  0.763372  0.486611  0.454108  1
  Bi  Bi31  1  0.736829  0.987423  0.545142  1
  Bi  Bi32  1  0.233487  0.518590  0.955627  1
  Bi  Bi33  1  0.731985  0.981980  0.955742  1
  Bi  Bi34  1  0.237453  0.513423  0.545210  1
  Bi  Bi35  1  0.262596  0.012358  0.454534  1
