# generated using pymatgen
data_Lu10Sn6PH
_symmetry_space_group_name_H-M   'P 1'
_cell_length_a   8.82326400
_cell_length_b   8.82326320
_cell_length_c   6.41781900
_cell_angle_alpha   90.00000000
_cell_angle_beta   90.00000000
_cell_angle_gamma   119.99998800
_symmetry_Int_Tables_number   1
_chemical_formula_structural   Lu10Sn6PH
_chemical_formula_sum   'Lu10 Sn6 P1 H1'
_cell_volume   432.68979982
_cell_formula_units_Z   1
loop_
 _symmetry_equiv_pos_site_id
 _symmetry_equiv_pos_as_xyz
  1  'x, y, z'
loop_
 _atom_site_type_symbol
 _atom_site_label
 _atom_site_symmetry_multiplicity
 _atom_site_fract_x
 _atom_site_fract_y
 _atom_site_fract_z
 _atom_site_occupancy
  Lu  Lu0  1  0.666667  0.333333  0.000000  1
  Lu  Lu1  1  0.333333  0.666667  0.000000  1
  Lu  Lu2  1  0.333333  0.666667  0.500000  1
  Lu  Lu3  1  0.666667  0.333333  0.500000  1
  Lu  Lu4  1  0.756960  0.756960  0.751738  1
  Lu  Lu5  1  0.243040  0.000000  0.751738  1
  Lu  Lu6  1  0.000000  0.243040  0.751738  1
  Lu  Lu7  1  0.243040  0.243040  0.248262  1
  Lu  Lu8  1  0.756960  0.000000  0.248262  1
  Lu  Lu9  1  0.000000  0.756960  0.248262  1
  Sn  Sn10  1  0.395750  0.395750  0.749934  1
  Sn  Sn11  1  0.604250  0.000000  0.749934  1
  Sn  Sn12  1  0.000000  0.604250  0.749934  1
  Sn  Sn13  1  0.604250  0.604250  0.250066  1
  Sn  Sn14  1  0.395750  0.000000  0.250066  1
  Sn  Sn15  1  0.000000  0.395750  0.250066  1
  P  P16  1  0.000000  0.000000  0.500000  1
  H  H17  1  0.000000  0.000000  0.000000  1
