# generated using pymatgen
data_Ho5Mg(Si3Pt2)4
_symmetry_space_group_name_H-M   'P 1'
_cell_length_a   4.25510800
_cell_length_b   8.47341054
_cell_length_c   12.86369907
_cell_angle_alpha   80.18851437
_cell_angle_beta   90.00000000
_cell_angle_gamma   90.00000000
_symmetry_Int_Tables_number   1
_chemical_formula_structural   Ho5Mg(Si3Pt2)4
_chemical_formula_sum   'Ho5 Mg1 Si12 Pt8'
_cell_volume   457.02052013
_cell_formula_units_Z   1
loop_
 _symmetry_equiv_pos_site_id
 _symmetry_equiv_pos_as_xyz
  1  'x, y, z'
loop_
 _atom_site_type_symbol
 _atom_site_label
 _atom_site_symmetry_multiplicity
 _atom_site_fract_x
 _atom_site_fract_y
 _atom_site_fract_z
 _atom_site_occupancy
  Ho  Ho0  1  0.250000  0.584573  0.186439  1
  Ho  Ho1  1  0.750000  0.233816  0.559665  1
  Ho  Ho2  1  0.750000  0.413978  0.812563  1
  Ho  Ho3  1  0.750000  0.929390  0.815964  1
  Ho  Ho4  1  0.250000  0.072664  0.186112  1
  Mg  Mg5  1  0.250000  0.768943  0.426238  1
  Si  Si6  1  0.750000  0.592205  0.568725  1
  Si  Si7  1  0.750000  0.127171  0.004221  1
  Si  Si8  1  0.750000  0.869038  0.572732  1
  Si  Si9  1  0.250000  0.696802  0.713748  1
  Si  Si10  1  0.750000  0.302568  0.289756  1
  Si  Si11  1  0.750000  0.805410  0.276908  1
  Si  Si12  1  0.250000  0.874118  0.995619  1
  Si  Si13  1  0.250000  0.194738  0.721795  1
  Si  Si14  1  0.250000  0.378820  0.004103  1
  Si  Si15  1  0.250000  0.126036  0.427131  1
  Si  Si16  1  0.750000  0.618983  0.999422  1
  Si  Si17  1  0.250000  0.414024  0.430302  1
  Pt  Pt18  1  0.750000  0.348955  0.103127  1
  Pt  Pt19  1  0.250000  0.969068  0.623282  1
  Pt  Pt20  1  0.750000  0.848485  0.088800  1
  Pt  Pt21  1  0.750000  0.022378  0.380236  1
  Pt  Pt22  1  0.250000  0.648065  0.900409  1
  Pt  Pt23  1  0.250000  0.152834  0.910786  1
  Pt  Pt24  1  0.750000  0.536533  0.379173  1
  Pt  Pt25  1  0.250000  0.470404  0.622744  1
