# generated using pymatgen
data_Dy5Y3(P7Ir8)2
_symmetry_space_group_name_H-M   'P 1'
_cell_length_a   3.94994700
_cell_length_b   12.69099225
_cell_length_c   13.12018121
_cell_angle_alpha   80.80081652
_cell_angle_beta   90.00000000
_cell_angle_gamma   90.00000000
_symmetry_Int_Tables_number   1
_chemical_formula_structural   Dy5Y3(P7Ir8)2
_chemical_formula_sum   'Dy5 Y3 P14 Ir16'
_cell_volume   649.23928446
_cell_formula_units_Z   1
loop_
 _symmetry_equiv_pos_site_id
 _symmetry_equiv_pos_as_xyz
  1  'x, y, z'
loop_
 _atom_site_type_symbol
 _atom_site_label
 _atom_site_symmetry_multiplicity
 _atom_site_fract_x
 _atom_site_fract_y
 _atom_site_fract_z
 _atom_site_occupancy
  Dy  Dy0  1  0.750000  0.720819  0.897730  1
  Dy  Dy1  1  0.250000  0.520540  0.293949  1
  Dy  Dy2  1  0.750000  0.479472  0.706052  1
  Dy  Dy3  1  0.250000  0.209130  0.438183  1
  Dy  Dy4  1  0.750000  0.790934  0.561847  1
  Y  Y5  1  0.250000  0.102941  0.789159  1
  Y  Y6  1  0.750000  0.897055  0.210808  1
  Y  Y7  1  0.250000  0.278885  0.101935  1
  P  P8  1  0.250000  0.051362  0.100601  1
  P  P9  1  0.750000  0.948282  0.899458  1
  P  P10  1  0.250000  0.312548  0.689010  1
  P  P11  1  0.750000  0.687491  0.310961  1
  P  P12  1  0.250000  0.607652  0.567111  1
  P  P13  1  0.750000  0.392401  0.432999  1
  P  P14  1  0.250000  0.843139  0.717834  1
  P  P15  1  0.750000  0.156941  0.282425  1
  P  P16  1  0.750000  0.257887  0.919985  1
  P  P17  1  0.250000  0.742022  0.079693  1
  P  P18  1  0.750000  0.093281  0.587899  1
  P  P19  1  0.250000  0.906724  0.412078  1
  P  P20  1  0.750000  0.472655  0.129357  1
  P  P21  1  0.250000  0.527414  0.870780  1
  Ir  Ir22  1  0.250000  0.990854  0.576218  1
  Ir  Ir23  1  0.750000  0.009110  0.423857  1
  Ir  Ir24  1  0.250000  0.662479  0.731398  1
  Ir  Ir25  1  0.750000  0.337642  0.268973  1
  Ir  Ir26  1  0.250000  0.555151  0.044751  1
  Ir  Ir27  1  0.750000  0.445206  0.955067  1
  Ir  Ir28  1  0.250000  0.060366  0.272773  1
  Ir  Ir29  1  0.750000  0.939580  0.727274  1
  Ir  Ir30  1  0.250000  0.421792  0.523384  1
  Ir  Ir31  1  0.750000  0.578265  0.476643  1
  Ir  Ir32  1  0.250000  0.914976  0.997447  1
  Ir  Ir33  1  0.750000  0.084910  0.002431  1
  Ir  Ir34  1  0.250000  0.729156  0.395158  1
  Ir  Ir35  1  0.750000  0.270847  0.604859  1
  Ir  Ir36  1  0.250000  0.341732  0.858020  1
  Ir  Ir37  1  0.750000  0.658360  0.141894  1
