# generated using pymatgen
data_Tm4Lu4B24OsW3
_symmetry_space_group_name_H-M   'P 1'
_cell_length_a   3.56488100
_cell_length_b   9.18704510
_cell_length_c   11.57443602
_cell_angle_alpha   89.92308844
_cell_angle_beta   90.00000000
_cell_angle_gamma   90.00000000
_symmetry_Int_Tables_number   1
_chemical_formula_structural   Tm4Lu4B24OsW3
_chemical_formula_sum   'Tm4 Lu4 B24 Os1 W3'
_cell_volume   379.07080103
_cell_formula_units_Z   1
loop_
 _symmetry_equiv_pos_site_id
 _symmetry_equiv_pos_as_xyz
  1  'x, y, z'
loop_
 _atom_site_type_symbol
 _atom_site_label
 _atom_site_symmetry_multiplicity
 _atom_site_fract_x
 _atom_site_fract_y
 _atom_site_fract_z
 _atom_site_occupancy
  Tm  Tm0  1  0.000000  0.320552  0.413320  1
  Tm  Tm1  1  0.000000  0.678876  0.585997  1
  Tm  Tm2  1  0.000000  0.820812  0.085521  1
  Tm  Tm3  1  0.000000  0.178497  0.913496  1
  Lu  Lu4  1  0.000000  0.944158  0.373174  1
  Lu  Lu5  1  0.000000  0.054544  0.629505  1
  Lu  Lu6  1  0.000000  0.445458  0.126582  1
  Lu  Lu7  1  0.000000  0.558511  0.871471  1
  B  B8  1  0.500000  0.550897  0.435197  1
  B  B9  1  0.500000  0.448155  0.565334  1
  B  B10  1  0.500000  0.050174  0.063182  1
  B  B11  1  0.500000  0.945133  0.932142  1
  B  B12  1  0.500000  0.752515  0.422570  1
  B  B13  1  0.500000  0.246836  0.578673  1
  B  B14  1  0.500000  0.253724  0.077214  1
  B  B15  1  0.500000  0.750759  0.918430  1
  B  B16  1  0.500000  0.795770  0.264378  1
  B  B17  1  0.500000  0.203404  0.737557  1
  B  B18  1  0.500000  0.295228  0.235720  1
  B  B19  1  0.500000  0.708816  0.765404  1
  B  B20  1  0.500000  0.631530  0.182084  1
  B  B21  1  0.500000  0.369793  0.818538  1
  B  B22  1  0.500000  0.130176  0.317175  1
  B  B23  1  0.500000  0.869283  0.685728  1
  B  B24  1  0.500000  0.977582  0.212728  1
  B  B25  1  0.500000  0.016587  0.787978  1
  B  B26  1  0.500000  0.477945  0.286539  1
  B  B27  1  0.500000  0.523292  0.713152  1
  B  B28  1  0.500000  0.602258  0.026723  1
  B  B29  1  0.500000  0.401491  0.971832  1
  B  B30  1  0.500000  0.099686  0.472904  1
  B  B31  1  0.500000  0.898819  0.529679  1
  Os  Os32  1  0.000000  0.860896  0.820439  1
  W  W33  1  0.000000  0.639126  0.320313  1
  W  W34  1  0.000000  0.360156  0.681044  1
  W  W35  1  0.000000  0.138562  0.178280  1
