# generated using pymatgen
data_Er4Co7Ni7P8
_symmetry_space_group_name_H-M   'P 1'
_cell_length_a   3.64535700
_cell_length_b   9.06344921
_cell_length_c   10.21464959
_cell_angle_alpha   90.09622119
_cell_angle_beta   90.00000000
_cell_angle_gamma   90.00000000
_symmetry_Int_Tables_number   1
_chemical_formula_structural   Er4Co7Ni7P8
_chemical_formula_sum   'Er4 Co7 Ni7 P8'
_cell_volume   337.48652098
_cell_formula_units_Z   1
loop_
 _symmetry_equiv_pos_site_id
 _symmetry_equiv_pos_as_xyz
  1  'x, y, z'
loop_
 _atom_site_type_symbol
 _atom_site_label
 _atom_site_symmetry_multiplicity
 _atom_site_fract_x
 _atom_site_fract_y
 _atom_site_fract_z
 _atom_site_occupancy
  Er  Er0  1  0.000000  0.057945  0.394989  1
  Er  Er1  1  0.500000  0.940802  0.895188  1
  Er  Er2  1  0.000000  0.440042  0.179090  1
  Er  Er3  1  0.500000  0.562599  0.677793  1
  Co  Co4  1  0.000000  0.062418  0.702222  1
  Co  Co5  1  0.500000  0.937834  0.201602  1
  Co  Co6  1  0.000000  0.727311  0.510069  1
  Co  Co7  1  0.500000  0.272433  0.009056  1
  Co  Co8  1  0.000000  0.097234  0.099570  1
  Co  Co9  1  0.500000  0.902987  0.597916  1
  Co  Co10  1  0.000000  0.751390  0.272551  1
  Ni  Ni11  1  0.500000  0.251095  0.771114  1
  Ni  Ni12  1  0.000000  0.309698  0.601193  1
  Ni  Ni13  1  0.500000  0.690540  0.102246  1
  Ni  Ni14  1  0.000000  0.686999  0.910109  1
  Ni  Ni15  1  0.500000  0.311852  0.409178  1
  Ni  Ni16  1  0.000000  0.415702  0.866870  1
  Ni  Ni17  1  0.500000  0.583319  0.367080  1
  P  P18  1  0.000000  0.178783  0.896782  1
  P  P19  1  0.500000  0.819699  0.393556  1
  P  P20  1  0.000000  0.850500  0.084960  1
  P  P21  1  0.500000  0.148870  0.583744  1
  P  P22  1  0.000000  0.815162  0.710734  1
  P  P23  1  0.500000  0.185350  0.210538  1
  P  P24  1  0.000000  0.483487  0.459655  1
  P  P25  1  0.500000  0.515948  0.960391  1
