# generated using pymatgen
data_Ho6Al24FeRuRh6
_symmetry_space_group_name_H-M   'P 1'
_cell_length_a   8.79782600
_cell_length_b   8.79782566
_cell_length_c   9.43084000
_cell_angle_alpha   90.00000000
_cell_angle_beta   90.00000000
_cell_angle_gamma   119.99999375
_symmetry_Int_Tables_number   1
_chemical_formula_structural   Ho6Al24FeRuRh6
_chemical_formula_sum   'Ho6 Al24 Fe1 Ru1 Rh6'
_cell_volume   632.16690488
_cell_formula_units_Z   1
loop_
 _symmetry_equiv_pos_site_id
 _symmetry_equiv_pos_as_xyz
  1  'x, y, z'
loop_
 _atom_site_type_symbol
 _atom_site_label
 _atom_site_symmetry_multiplicity
 _atom_site_fract_x
 _atom_site_fract_y
 _atom_site_fract_z
 _atom_site_occupancy
  Ho  Ho0  1  0.192226  0.384454  0.250260  1
  Ho  Ho1  1  0.807774  0.615546  0.749740  1
  Ho  Ho2  1  0.615546  0.807774  0.250260  1
  Ho  Ho3  1  0.384454  0.192226  0.749740  1
  Ho  Ho4  1  0.192226  0.807774  0.250260  1
  Ho  Ho5  1  0.807774  0.192226  0.749740  1
  Al  Al6  1  0.333333  0.666667  0.028034  1
  Al  Al7  1  0.666667  0.333333  0.971966  1
  Al  Al8  1  0.666667  0.333333  0.530124  1
  Al  Al9  1  0.333333  0.666667  0.469876  1
  Al  Al10  1  0.162636  0.325273  0.575539  1
  Al  Al11  1  0.837364  0.674727  0.424461  1
  Al  Al12  1  0.674727  0.837364  0.575539  1
  Al  Al13  1  0.840072  0.680143  0.074631  1
  Al  Al14  1  0.325273  0.162636  0.424461  1
  Al  Al15  1  0.159928  0.319857  0.925369  1
  Al  Al16  1  0.162636  0.837364  0.575539  1
  Al  Al17  1  0.319857  0.159928  0.074631  1
  Al  Al18  1  0.837364  0.162636  0.424461  1
  Al  Al19  1  0.680143  0.840072  0.925369  1
  Al  Al20  1  0.840072  0.159928  0.074631  1
  Al  Al21  1  0.159928  0.840072  0.925369  1
  Al  Al22  1  0.562044  0.124088  0.249872  1
  Al  Al23  1  0.437956  0.875912  0.750128  1
  Al  Al24  1  0.875912  0.437956  0.249872  1
  Al  Al25  1  0.124088  0.562044  0.750128  1
  Al  Al26  1  0.562044  0.437956  0.249872  1
  Al  Al27  1  0.437956  0.562044  0.750128  1
  Al  Al28  1  0.000000  0.000000  0.244396  1
  Al  Al29  1  0.000000  0.000000  0.755604  1
  Fe  Fe30  1  0.000000  0.000000  0.000000  1
  Ru  Ru31  1  0.000000  0.000000  0.500000  1
  Rh  Rh32  1  0.500000  0.000000  0.000000  1
  Rh  Rh33  1  0.000000  0.500000  0.000000  1
  Rh  Rh34  1  0.500000  0.000000  0.500000  1
  Rh  Rh35  1  0.500000  0.500000  0.000000  1
  Rh  Rh36  1  0.000000  0.500000  0.500000  1
  Rh  Rh37  1  0.500000  0.500000  0.500000  1
