# generated using pymatgen
data_Ho13Er6TmPb16
_symmetry_space_group_name_H-M   'P 1'
_cell_length_a   8.17121004
_cell_length_b   8.24153837
_cell_length_c   15.57479600
_cell_angle_alpha   90.00272359
_cell_angle_beta   90.00099802
_cell_angle_gamma   90.02291544
_symmetry_Int_Tables_number   1
_chemical_formula_structural   Ho13Er6TmPb16
_chemical_formula_sum   'Ho13 Er6 Tm1 Pb16'
_cell_volume   1048.85871433
_cell_formula_units_Z   1
loop_
 _symmetry_equiv_pos_site_id
 _symmetry_equiv_pos_as_xyz
  1  'x, y, z'
loop_
 _atom_site_type_symbol
 _atom_site_label
 _atom_site_symmetry_multiplicity
 _atom_site_fract_x
 _atom_site_fract_y
 _atom_site_fract_z
 _atom_site_occupancy
  Ho  Ho0  1  0.122867  0.341069  0.120982  1
  Ho  Ho1  1  0.622580  0.158829  0.121057  1
  Ho  Ho2  1  0.122812  0.341028  0.378986  1
  Ho  Ho3  1  0.377262  0.841095  0.620986  1
  Ho  Ho4  1  0.877306  0.658878  0.878986  1
  Ho  Ho5  1  0.536839  0.323457  0.900062  1
  Ho  Ho6  1  0.036862  0.176585  0.599904  1
  Ho  Ho7  1  0.463088  0.676704  0.400074  1
  Ho  Ho8  1  0.963216  0.823539  0.099943  1
  Ho  Ho9  1  0.463091  0.676661  0.099874  1
  Ho  Ho10  1  0.963178  0.823561  0.400122  1
  Ho  Ho11  1  0.536891  0.323488  0.599895  1
  Ho  Ho12  1  0.036854  0.176467  0.900076  1
  Er  Er13  1  0.377161  0.841164  0.878982  1
  Er  Er14  1  0.877177  0.658861  0.621004  1
  Er  Er15  1  0.622620  0.158718  0.378992  1
  Er  Er16  1  0.208768  0.504240  0.749998  1
  Er  Er17  1  0.708762  0.995820  0.749966  1
  Er  Er18  1  0.791218  0.495851  0.250093  1
  Tm  Tm19  1  0.291256  0.004231  0.250026  1
  Pb  Pb20  1  0.280761  0.032388  0.042650  1
  Pb  Pb21  1  0.780650  0.467299  0.457465  1
  Pb  Pb22  1  0.719374  0.967262  0.542466  1
  Pb  Pb23  1  0.219415  0.532834  0.957388  1
  Pb  Pb24  1  0.719076  0.967276  0.957389  1
  Pb  Pb25  1  0.219073  0.532639  0.542616  1
  Pb  Pb26  1  0.280949  0.032619  0.457188  1
  Pb  Pb27  1  0.780714  0.467395  0.042639  1
  Pb  Pb28  1  0.571786  0.626503  0.750024  1
  Pb  Pb29  1  0.071774  0.873500  0.749978  1
  Pb  Pb30  1  0.428265  0.373268  0.250084  1
  Pb  Pb31  1  0.928472  0.126215  0.250052  1
  Pb  Pb32  1  0.348342  0.153817  0.750045  1
  Pb  Pb33  1  0.848368  0.346061  0.749947  1
  Pb  Pb34  1  0.651482  0.846215  0.250056  1
  Pb  Pb35  1  0.151690  0.654468  0.250004  1
