# generated using pymatgen
data_Er7Sn22HgOs6
_symmetry_space_group_name_H-M   'P 1'
_cell_length_a   9.81017500
_cell_length_b   9.81017545
_cell_length_c   10.12006300
_cell_angle_alpha   90.00000000
_cell_angle_beta   90.00000000
_cell_angle_gamma   120.00000184
_symmetry_Int_Tables_number   1
_chemical_formula_structural   Er7Sn22HgOs6
_chemical_formula_sum   'Er7 Sn22 Hg1 Os6'
_cell_volume   843.46558863
_cell_formula_units_Z   1
loop_
 _symmetry_equiv_pos_site_id
 _symmetry_equiv_pos_as_xyz
  1  'x, y, z'
loop_
 _atom_site_type_symbol
 _atom_site_label
 _atom_site_symmetry_multiplicity
 _atom_site_fract_x
 _atom_site_fract_y
 _atom_site_fract_z
 _atom_site_occupancy
  Er  Er0  1  0.485711  0.514289  0.304153  1
  Er  Er1  1  0.514289  0.485711  0.695847  1
  Er  Er2  1  0.485711  0.971425  0.304153  1
  Er  Er3  1  0.514289  0.028575  0.695847  1
  Er  Er4  1  0.028575  0.514289  0.304153  1
  Er  Er5  1  0.971425  0.485711  0.695847  1
  Er  Er6  1  0.000000  0.000000  0.000000  1
  Sn  Sn7  1  0.122689  0.877311  0.269488  1
  Sn  Sn8  1  0.877311  0.122689  0.730512  1
  Sn  Sn9  1  0.122689  0.245377  0.269488  1
  Sn  Sn10  1  0.877311  0.754623  0.730512  1
  Sn  Sn11  1  0.754623  0.877311  0.269488  1
  Sn  Sn12  1  0.245377  0.122689  0.730512  1
  Sn  Sn13  1  0.778051  0.221949  0.464290  1
  Sn  Sn14  1  0.221949  0.778051  0.535710  1
  Sn  Sn15  1  0.778051  0.556102  0.464290  1
  Sn  Sn16  1  0.221949  0.443898  0.535710  1
  Sn  Sn17  1  0.443898  0.221949  0.464290  1
  Sn  Sn18  1  0.556102  0.778051  0.535710  1
  Sn  Sn19  1  0.349426  0.000000  0.000000  1
  Sn  Sn20  1  0.650574  0.000000  0.000000  1
  Sn  Sn21  1  0.000000  0.349426  0.000000  1
  Sn  Sn22  1  0.000000  0.650574  0.000000  1
  Sn  Sn23  1  0.650574  0.650574  0.000000  1
  Sn  Sn24  1  0.349426  0.349426  0.000000  1
  Sn  Sn25  1  0.333333  0.666667  0.131242  1
  Sn  Sn26  1  0.666667  0.333333  0.868758  1
  Sn  Sn27  1  0.333333  0.666667  0.830671  1
  Sn  Sn28  1  0.666667  0.333333  0.169329  1
  Hg  Hg29  1  0.000000  0.000000  0.500000  1
  Os  Os30  1  0.830538  0.169462  0.205267  1
  Os  Os31  1  0.169462  0.830538  0.794733  1
  Os  Os32  1  0.830538  0.661077  0.205267  1
  Os  Os33  1  0.169462  0.338923  0.794733  1
  Os  Os34  1  0.338923  0.169462  0.205267  1
  Os  Os35  1  0.661077  0.830538  0.794733  1
