# generated using pymatgen
data_CaPrNbFeO6
_symmetry_space_group_name_H-M   'P 1'
_cell_length_a   5.58773755
_cell_length_b   7.88934028
_cell_length_c   11.69113266
_cell_angle_alpha   89.97273481
_cell_angle_beta   90.01949828
_cell_angle_gamma   89.06339916
_symmetry_Int_Tables_number   1
_chemical_formula_structural   CaPrNbFeO6
_chemical_formula_sum   'Ca4 Pr4 Nb4 Fe4 O24'
_cell_volume   515.31783492
_cell_formula_units_Z   4
loop_
 _symmetry_equiv_pos_site_id
 _symmetry_equiv_pos_as_xyz
  1  'x, y, z'
loop_
 _atom_site_type_symbol
 _atom_site_label
 _atom_site_symmetry_multiplicity
 _atom_site_fract_x
 _atom_site_fract_y
 _atom_site_fract_z
 _atom_site_occupancy
  Ca  Ca0  1  0.515546  0.251868  0.278852  1
  Ca  Ca1  1  0.515560  0.251916  0.778886  1
  Ca  Ca2  1  0.015582  0.751793  0.471001  1
  Ca  Ca3  1  0.015858  0.751758  0.971163  1
  Pr  Pr4  1  0.983141  0.247336  0.032351  1
  Pr  Pr5  1  0.982891  0.247430  0.532128  1
  Pr  Pr6  1  0.483081  0.747327  0.217879  1
  Pr  Pr7  1  0.483258  0.747286  0.717889  1
  Nb  Nb8  1  0.000188  0.498877  0.253595  1
  Nb  Nb9  1  0.000371  0.498825  0.753617  1
  Nb  Nb10  1  0.500158  0.998927  0.496392  1
  Nb  Nb11  1  0.500339  0.998789  0.996358  1
  Fe  Fe12  1  0.999521  0.999705  0.751112  1
  Fe  Fe13  1  0.499573  0.499671  0.998922  1
  Fe  Fe14  1  0.999351  0.999835  0.251047  1
  Fe  Fe15  1  0.499326  0.499711  0.498864  1
  O  O16  1  0.605112  0.754367  0.016334  1
  O  O17  1  0.604664  0.754293  0.516262  1
  O  O18  1  0.105008  0.254670  0.233847  1
  O  O19  1  0.104614  0.254171  0.733783  1
  O  O20  1  0.209142  0.949690  0.093085  1
  O  O21  1  0.208959  0.949562  0.593073  1
  O  O22  1  0.708872  0.449706  0.156891  1
  O  O23  1  0.708898  0.449837  0.657010  1
  O  O24  1  0.185491  0.555374  0.107350  1
  O  O25  1  0.185220  0.555245  0.607405  1
  O  O26  1  0.685672  0.055144  0.142812  1
  O  O27  1  0.685098  0.055504  0.642479  1
  O  O28  1  0.894914  0.745477  0.268758  1
  O  O29  1  0.895570  0.745918  0.768768  1
  O  O30  1  0.395065  0.245832  0.481193  1
  O  O31  1  0.395255  0.245714  0.981111  1
  O  O32  1  0.292271  0.552210  0.344796  1
  O  O33  1  0.292638  0.551822  0.844664  1
  O  O34  1  0.792138  0.052126  0.405214  1
  O  O35  1  0.792425  0.052176  0.905250  1
  O  O36  1  0.314398  0.945214  0.354094  1
  O  O37  1  0.315109  0.944827  0.854314  1
  O  O38  1  0.814715  0.444883  0.395735  1
  O  O39  1  0.814995  0.445180  0.895719  1
