# generated using pymatgen
data_ScTiP7Ru12
_symmetry_space_group_name_H-M   'P 1'
_cell_length_a   9.34705700
_cell_length_b   9.34705641
_cell_length_c   3.89510000
_cell_angle_alpha   90.00000000
_cell_angle_beta   90.00000000
_cell_angle_gamma   119.99999759
_symmetry_Int_Tables_number   1
_chemical_formula_structural   ScTiP7Ru12
_chemical_formula_sum   'Sc1 Ti1 P7 Ru12'
_cell_volume   294.71280710
_cell_formula_units_Z   1
loop_
 _symmetry_equiv_pos_site_id
 _symmetry_equiv_pos_as_xyz
  1  'x, y, z'
loop_
 _atom_site_type_symbol
 _atom_site_label
 _atom_site_symmetry_multiplicity
 _atom_site_fract_x
 _atom_site_fract_y
 _atom_site_fract_z
 _atom_site_occupancy
  Sc  Sc0  1  0.333333  0.666667  0.000000  1
  Ti  Ti1  1  0.666667  0.333333  0.500000  1
  P  P2  1  0.596421  0.719047  0.500000  1
  P  P3  1  0.000000  0.000000  0.000000  1
  P  P4  1  0.280953  0.877374  0.500000  1
  P  P5  1  0.122626  0.403579  0.500000  1
  P  P6  1  0.883560  0.572498  0.000000  1
  P  P7  1  0.427502  0.311062  0.000000  1
  P  P8  1  0.688938  0.116440  0.000000  1
  Ru  Ru9  1  0.554241  0.950112  0.500000  1
  Ru  Ru10  1  0.395871  0.445759  0.500000  1
  Ru  Ru11  1  0.913243  0.123191  0.500000  1
  Ru  Ru12  1  0.209948  0.086757  0.500000  1
  Ru  Ru13  1  0.876809  0.790052  0.500000  1
  Ru  Ru14  1  0.724898  0.888915  0.000000  1
  Ru  Ru15  1  0.111085  0.835982  0.000000  1
  Ru  Ru16  1  0.164018  0.275102  0.000000  1
  Ru  Ru17  1  0.429977  0.074397  0.000000  1
  Ru  Ru18  1  0.925603  0.355581  0.000000  1
  Ru  Ru19  1  0.644419  0.570023  0.000000  1
  Ru  Ru20  1  0.049888  0.604129  0.500000  1
