# generated using pymatgen
data_K3Yb(SiP)12
_symmetry_space_group_name_H-M   'P 1'
_cell_length_a   3.53585100
_cell_length_b   9.92015071
_cell_length_c   18.90922600
_cell_angle_alpha   88.56004237
_cell_angle_beta   90.00000000
_cell_angle_gamma   90.00000000
_symmetry_Int_Tables_number   1
_chemical_formula_structural   K3Yb(SiP)12
_chemical_formula_sum   'K3 Yb1 Si12 P12'
_cell_volume   663.05386303
_cell_formula_units_Z   1
loop_
 _symmetry_equiv_pos_site_id
 _symmetry_equiv_pos_as_xyz
  1  'x, y, z'
loop_
 _atom_site_type_symbol
 _atom_site_label
 _atom_site_symmetry_multiplicity
 _atom_site_fract_x
 _atom_site_fract_y
 _atom_site_fract_z
 _atom_site_occupancy
  K  K0  1  0.000000  0.321011  0.300263  1
  K  K1  1  0.000000  0.683604  0.695455  1
  K  K2  1  0.000000  0.182467  0.807845  1
  Yb  Yb3  1  0.000000  0.828923  0.187094  1
  Si  Si4  1  0.500000  0.393261  0.047678  1
  Si  Si5  1  0.500000  0.590999  0.978174  1
  Si  Si6  1  0.500000  0.098804  0.530617  1
  Si  Si7  1  0.500000  0.912223  0.456633  1
  Si  Si8  1  0.000000  0.106650  0.019674  1
  Si  Si9  1  0.000000  0.878126  0.995617  1
  Si  Si10  1  0.000000  0.391484  0.507621  1
  Si  Si11  1  0.000000  0.620436  0.471600  1
  Si  Si12  1  0.000000  0.155597  0.139272  1
  Si  Si13  1  0.000000  0.814702  0.875595  1
  Si  Si14  1  0.000000  0.322498  0.628656  1
  Si  Si15  1  0.000000  0.705652  0.352081  1
  P  P16  1  0.500000  0.077165  0.202335  1
  P  P17  1  0.500000  0.882441  0.811306  1
  P  P18  1  0.500000  0.384980  0.692745  1
  P  P19  1  0.500000  0.651938  0.283227  1
  P  P20  1  0.500000  0.287055  0.455554  1
  P  P21  1  0.500000  0.718510  0.526359  1
  P  P22  1  0.500000  0.218047  0.969322  1
  P  P23  1  0.500000  0.774520  0.052218  1
  P  P24  1  0.000000  0.390248  0.123095  1
  P  P25  1  0.000000  0.586307  0.902515  1
  P  P26  1  0.000000  0.092702  0.606147  1
  P  P27  1  0.000000  0.929651  0.381299  1
