# generated using pymatgen
data_Ce4Al2SnGeRh4
_symmetry_space_group_name_H-M   'P 1'
_cell_length_a   4.17113100
_cell_length_b   7.29124629
_cell_length_c   16.10216009
_cell_angle_alpha   90.98378693
_cell_angle_beta   90.00000000
_cell_angle_gamma   90.00000000
_symmetry_Int_Tables_number   1
_chemical_formula_structural   Ce4Al2SnGeRh4
_chemical_formula_sum   'Ce8 Al4 Sn2 Ge2 Rh8'
_cell_volume   489.63867720
_cell_formula_units_Z   2
loop_
 _symmetry_equiv_pos_site_id
 _symmetry_equiv_pos_as_xyz
  1  'x, y, z'
loop_
 _atom_site_type_symbol
 _atom_site_label
 _atom_site_symmetry_multiplicity
 _atom_site_fract_x
 _atom_site_fract_y
 _atom_site_fract_z
 _atom_site_occupancy
  Ce  Ce0  1  0.250000  0.154516  0.557894  1
  Ce  Ce1  1  0.750000  0.845484  0.442106  1
  Ce  Ce2  1  0.250000  0.668172  0.940173  1
  Ce  Ce3  1  0.750000  0.331828  0.059827  1
  Ce  Ce4  1  0.250000  0.037243  0.776807  1
  Ce  Ce5  1  0.750000  0.962757  0.223193  1
  Ce  Ce6  1  0.250000  0.549585  0.713454  1
  Ce  Ce7  1  0.750000  0.450415  0.286546  1
  Al  Al8  1  0.250000  0.003565  0.063250  1
  Al  Al9  1  0.750000  0.996435  0.936750  1
  Al  Al10  1  0.250000  0.503054  0.440863  1
  Al  Al11  1  0.750000  0.496946  0.559137  1
  Sn  Sn12  1  0.250000  0.625840  0.152740  1
  Sn  Sn13  1  0.750000  0.374160  0.847260  1
  Ge  Ge14  1  0.250000  0.122928  0.351278  1
  Ge  Ge15  1  0.750000  0.877072  0.648722  1
  Rh  Rh16  1  0.750000  0.274508  0.426547  1
  Rh  Rh17  1  0.250000  0.725492  0.573453  1
  Rh  Rh18  1  0.750000  0.787674  0.068092  1
  Rh  Rh19  1  0.250000  0.212326  0.931908  1
  Rh  Rh20  1  0.750000  0.761260  0.813845  1
  Rh  Rh21  1  0.250000  0.238740  0.186155  1
  Rh  Rh22  1  0.750000  0.252103  0.675748  1
  Rh  Rh23  1  0.250000  0.747897  0.324252  1
