# generated using pymatgen
data_Be16Nb2Cu
_symmetry_space_group_name_H-M   'P 1'
_cell_length_a   5.61078015
_cell_length_b   5.61077938
_cell_length_c   5.61077913
_cell_angle_alpha   83.03116225
_cell_angle_beta   83.03116013
_cell_angle_gamma   83.03115050
_symmetry_Int_Tables_number   1
_chemical_formula_structural   Be16Nb2Cu
_chemical_formula_sum   'Be16 Nb2 Cu1'
_cell_volume   173.01017132
_cell_formula_units_Z   1
loop_
 _symmetry_equiv_pos_site_id
 _symmetry_equiv_pos_as_xyz
  1  'x, y, z'
loop_
 _atom_site_type_symbol
 _atom_site_label
 _atom_site_symmetry_multiplicity
 _atom_site_fract_x
 _atom_site_fract_y
 _atom_site_fract_z
 _atom_site_occupancy
  Be  Be0  1  0.604104  0.604104  0.604104  1
  Be  Be1  1  0.501567  0.501567  0.996802  1
  Be  Be2  1  0.501567  0.996802  0.501567  1
  Be  Be3  1  0.996802  0.501567  0.501567  1
  Be  Be4  1  0.499380  0.794626  0.204804  1
  Be  Be5  1  0.794626  0.204804  0.499380  1
  Be  Be6  1  0.204804  0.499380  0.794626  1
  Be  Be7  1  0.499380  0.204804  0.794626  1
  Be  Be8  1  0.204804  0.794626  0.499380  1
  Be  Be9  1  0.794626  0.499380  0.204804  1
  Be  Be10  1  0.662145  0.151862  0.151862  1
  Be  Be11  1  0.151862  0.151862  0.662145  1
  Be  Be12  1  0.151862  0.662145  0.151862  1
  Be  Be13  1  0.846729  0.339546  0.846729  1
  Be  Be14  1  0.339546  0.846729  0.846729  1
  Be  Be15  1  0.846729  0.846729  0.339546  1
  Nb  Nb16  1  0.155908  0.155908  0.155908  1
  Nb  Nb17  1  0.839161  0.839161  0.839161  1
  Cu  Cu18  1  0.404397  0.404397  0.404397  1
