# generated using pymatgen
data_Er12InCo3TcNi
_symmetry_space_group_name_H-M   'P 1'
_cell_length_a   8.23396079
_cell_length_b   8.23396128
_cell_length_c   8.23396147
_cell_angle_alpha   111.92964744
_cell_angle_beta   110.88322776
_cell_angle_gamma   105.66829388
_symmetry_Int_Tables_number   1
_chemical_formula_structural   Er12InCo3TcNi
_chemical_formula_sum   'Er12 In1 Co3 Tc1 Ni1'
_cell_volume   428.29270503
_cell_formula_units_Z   1
loop_
 _symmetry_equiv_pos_site_id
 _symmetry_equiv_pos_as_xyz
  1  'x, y, z'
loop_
 _atom_site_type_symbol
 _atom_site_label
 _atom_site_symmetry_multiplicity
 _atom_site_fract_x
 _atom_site_fract_y
 _atom_site_fract_z
 _atom_site_occupancy
  Er  Er0  1  0.182239  0.276877  0.461830  1
  Er  Er1  1  0.815047  0.720409  0.538170  1
  Er  Er2  1  0.182239  0.720409  0.905362  1
  Er  Er3  1  0.815047  0.276877  0.094638  1
  Er  Er4  1  0.316768  0.620397  0.303629  1
  Er  Er5  1  0.686112  0.381385  0.695273  1
  Er  Er6  1  0.316768  0.013139  0.696371  1
  Er  Er7  1  0.686112  0.990839  0.304727  1
  Er  Er8  1  0.418143  0.222383  0.195759  1
  Er  Er9  1  0.582834  0.778230  0.804603  1
  Er  Er10  1  0.026623  0.222383  0.804241  1
  Er  Er11  1  0.973628  0.778230  0.195397  1
  In  In12  1  0.499994  0.499994  0.000000  1
  Co  Co13  1  0.886328  0.386328  0.500000  1
  Co  Co14  1  0.375260  0.999342  0.375918  1
  Co  Co15  1  0.623423  0.999342  0.624082  1
  Tc  Tc16  1  0.999280  0.999280  0.000000  1
  Ni  Ni17  1  0.114155  0.614155  0.500000  1
