# generated using pymatgen
data_CaNdZn21Pt
_symmetry_space_group_name_H-M   'P 1'
_cell_length_a   8.28104089
_cell_length_b   8.31571896
_cell_length_c   8.31571200
_cell_angle_alpha   99.74873546
_cell_angle_beta   100.15030183
_cell_angle_gamma   131.14152015
_symmetry_Int_Tables_number   1
_chemical_formula_structural   CaNdZn21Pt
_chemical_formula_sum   'Ca1 Nd1 Zn21 Pt1'
_cell_volume   391.80884886
_cell_formula_units_Z   1
loop_
 _symmetry_equiv_pos_site_id
 _symmetry_equiv_pos_as_xyz
  1  'x, y, z'
loop_
 _atom_site_type_symbol
 _atom_site_label
 _atom_site_symmetry_multiplicity
 _atom_site_fract_x
 _atom_site_fract_y
 _atom_site_fract_z
 _atom_site_occupancy
  Ca  Ca0  1  0.747774  0.246230  0.501544  1
  Nd  Nd1  1  0.496086  0.501200  0.994886  1
  Zn  Zn2  1  0.923457  0.598071  0.916573  1
  Zn  Zn3  1  0.842630  0.429728  0.170196  1
  Zn  Zn4  1  0.256924  0.673267  0.826652  1
  Zn  Zn5  1  0.684314  0.011269  0.084113  1
  Zn  Zn6  1  0.405207  0.077701  0.086769  1
  Zn  Zn7  1  0.991204  0.317053  0.916148  1
  Zn  Zn8  1  0.568645  0.153373  0.829753  1
  Zn  Zn9  1  0.328521  0.742686  0.172455  1
  Zn  Zn10  1  0.328521  0.156066  0.585835  1
  Zn  Zn11  1  0.405207  0.318438  0.327506  1
  Zn  Zn12  1  0.991204  0.075057  0.674150  1
  Zn  Zn13  1  0.568645  0.738889  0.415270  1
  Zn  Zn14  1  0.842630  0.672435  0.412902  1
  Zn  Zn15  1  0.256924  0.430272  0.583655  1
  Zn  Zn16  1  0.684314  0.600201  0.673045  1
  Zn  Zn17  1  0.923457  0.006883  0.325386  1
  Zn  Zn18  1  0.126806  0.377247  0.250909  1
  Zn  Zn19  1  0.126806  0.875897  0.749559  1
  Zn  Zn20  1  0.621405  0.872906  0.748498  1
  Zn  Zn21  1  0.249901  0.754833  0.495068  1
  Zn  Zn22  1  0.001042  0.995359  0.005682  1
  Pt  Pt23  1  0.128380  0.874935  0.253447  1
