# generated using pymatgen
data_LuSc5Co16(P6Os)2
_symmetry_space_group_name_H-M   'P 1'
_cell_length_a   3.64695700
_cell_length_b   10.39868300
_cell_length_c   12.05388000
_cell_angle_alpha   90.00000000
_cell_angle_beta   90.00000000
_cell_angle_gamma   90.00000000
_symmetry_Int_Tables_number   1
_chemical_formula_structural   LuSc5Co16(P6Os)2
_chemical_formula_sum   'Lu1 Sc5 Co16 P12 Os2'
_cell_volume   457.12591795
_cell_formula_units_Z   1
loop_
 _symmetry_equiv_pos_site_id
 _symmetry_equiv_pos_as_xyz
  1  'x, y, z'
loop_
 _atom_site_type_symbol
 _atom_site_label
 _atom_site_symmetry_multiplicity
 _atom_site_fract_x
 _atom_site_fract_y
 _atom_site_fract_z
 _atom_site_occupancy
  Lu  Lu0  1  0.500000  0.000000  0.472105  1
  Sc  Sc1  1  0.000000  0.500000  0.527012  1
  Sc  Sc2  1  0.500000  0.818643  0.207599  1
  Sc  Sc3  1  0.500000  0.181357  0.207599  1
  Sc  Sc4  1  0.000000  0.680874  0.791935  1
  Sc  Sc5  1  0.000000  0.319126  0.791935  1
  Co  Co6  1  0.500000  0.500000  0.702421  1
  Co  Co7  1  0.000000  0.000000  0.296335  1
  Co  Co8  1  0.000000  0.500000  0.986748  1
  Co  Co9  1  0.500000  0.000000  0.013227  1
  Co  Co10  1  0.500000  0.332666  0.988735  1
  Co  Co11  1  0.500000  0.667334  0.988735  1
  Co  Co12  1  0.000000  0.167706  0.011277  1
  Co  Co13  1  0.000000  0.832294  0.011277  1
  Co  Co14  1  0.500000  0.298774  0.432138  1
  Co  Co15  1  0.500000  0.701226  0.432138  1
  Co  Co16  1  0.000000  0.203151  0.568289  1
  Co  Co17  1  0.000000  0.796849  0.568289  1
  Co  Co18  1  0.500000  0.876363  0.707571  1
  Co  Co19  1  0.500000  0.123637  0.707571  1
  Co  Co20  1  0.000000  0.622958  0.292865  1
  Co  Co21  1  0.000000  0.377042  0.292865  1
  P  P22  1  0.500000  0.500000  0.877364  1
  P  P23  1  0.000000  0.000000  0.121876  1
  P  P24  1  0.500000  0.500000  0.356556  1
  P  P25  1  0.000000  0.000000  0.645865  1
  P  P26  1  0.500000  0.316036  0.618022  1
  P  P27  1  0.500000  0.683964  0.618022  1
  P  P28  1  0.000000  0.185765  0.381119  1
  P  P29  1  0.000000  0.814235  0.381119  1
  P  P30  1  0.500000  0.843328  0.890313  1
  P  P31  1  0.500000  0.156672  0.890313  1
  P  P32  1  0.000000  0.656246  0.109918  1
  P  P33  1  0.000000  0.343754  0.109918  1
  Os  Os34  1  0.500000  0.500000  0.160584  1
  Os  Os35  1  0.000000  0.000000  0.840345  1
