# generated using pymatgen
data_Cs4K2HoInAs4
_symmetry_space_group_name_H-M   'P 1'
_cell_length_a   9.91878173
_cell_length_b   9.91878251
_cell_length_c   9.91878184
_cell_angle_alpha   133.08846721
_cell_angle_beta   64.79091310
_cell_angle_gamma   137.97013767
_symmetry_Int_Tables_number   1
_chemical_formula_structural   Cs4K2HoInAs4
_chemical_formula_sum   'Cs4 K2 Ho1 In1 As4'
_cell_volume   470.45672778
_cell_formula_units_Z   1
loop_
 _symmetry_equiv_pos_site_id
 _symmetry_equiv_pos_as_xyz
  1  'x, y, z'
loop_
 _atom_site_type_symbol
 _atom_site_label
 _atom_site_symmetry_multiplicity
 _atom_site_fract_x
 _atom_site_fract_y
 _atom_site_fract_z
 _atom_site_occupancy
  Cs  Cs0  1  0.805496  0.218088  0.049478  1
  Cs  Cs1  1  0.694505  0.743981  0.412592  1
  Cs  Cs2  1  0.331389  0.281912  0.587409  1
  Cs  Cs3  1  0.168612  0.756019  0.950522  1
  K  K4  1  0.750000  0.250000  0.500000  1
  K  K5  1  0.250000  0.750000  0.500001  1
  Ho  Ho6  1  0.250000  0.250000  0.000000  1
  In  In7  1  0.750000  0.750000  0.000000  1
  As  As8  1  0.411859  0.699540  0.102355  1
  As  As9  1  0.088142  0.190498  0.287682  1
  As  As10  1  0.902818  0.800462  0.712318  1
  As  As11  1  0.597182  0.309503  0.897646  1
