# generated using pymatgen
data_Sc7Co4Sn23Ru2
_symmetry_space_group_name_H-M   'P 1'
_cell_length_a   9.58769649
_cell_length_b   9.58769542
_cell_length_c   9.86166508
_cell_angle_alpha   90.16769922
_cell_angle_beta   89.83229996
_cell_angle_gamma   119.97570339
_symmetry_Int_Tables_number   1
_chemical_formula_structural   Sc7Co4Sn23Ru2
_chemical_formula_sum   'Sc7 Co4 Sn23 Ru2'
_cell_volume   785.25946813
_cell_formula_units_Z   1
loop_
 _symmetry_equiv_pos_site_id
 _symmetry_equiv_pos_as_xyz
  1  'x, y, z'
loop_
 _atom_site_type_symbol
 _atom_site_label
 _atom_site_symmetry_multiplicity
 _atom_site_fract_x
 _atom_site_fract_y
 _atom_site_fract_z
 _atom_site_occupancy
  Sc  Sc0  1  0.483818  0.516182  0.307446  1
  Sc  Sc1  1  0.516182  0.483818  0.692554  1
  Sc  Sc2  1  0.485507  0.968014  0.306508  1
  Sc  Sc3  1  0.514493  0.031986  0.693492  1
  Sc  Sc4  1  0.031986  0.514493  0.306508  1
  Sc  Sc5  1  0.968014  0.485507  0.693492  1
  Sc  Sc6  1  0.000000  0.000000  0.000000  1
  Co  Co7  1  0.828632  0.659034  0.200001  1
  Co  Co8  1  0.171368  0.340966  0.799999  1
  Co  Co9  1  0.340966  0.171368  0.200001  1
  Co  Co10  1  0.659034  0.828632  0.799999  1
  Sn  Sn11  1  0.119473  0.880527  0.272091  1
  Sn  Sn12  1  0.880527  0.119473  0.727909  1
  Sn  Sn13  1  0.127990  0.244134  0.275583  1
  Sn  Sn14  1  0.872010  0.755866  0.724417  1
  Sn  Sn15  1  0.755866  0.872010  0.275583  1
  Sn  Sn16  1  0.244134  0.127990  0.724417  1
  Sn  Sn17  1  0.777853  0.222147  0.462213  1
  Sn  Sn18  1  0.222147  0.777853  0.537787  1
  Sn  Sn19  1  0.779603  0.559390  0.454678  1
  Sn  Sn20  1  0.220397  0.440610  0.545322  1
  Sn  Sn21  1  0.440610  0.220397  0.454678  1
  Sn  Sn22  1  0.559390  0.779603  0.545322  1
  Sn  Sn23  1  0.349036  0.003104  0.004314  1
  Sn  Sn24  1  0.650964  0.996896  0.995686  1
  Sn  Sn25  1  0.003104  0.349036  0.995686  1
  Sn  Sn26  1  0.996896  0.650964  0.004314  1
  Sn  Sn27  1  0.653347  0.653347  0.000000  1
  Sn  Sn28  1  0.346653  0.346653  0.000000  1
  Sn  Sn29  1  0.333350  0.666650  0.136949  1
  Sn  Sn30  1  0.666650  0.333350  0.863051  1
  Sn  Sn31  1  0.334840  0.665160  0.822207  1
  Sn  Sn32  1  0.665160  0.334840  0.177793  1
  Sn  Sn33  1  0.000000  0.000000  0.500000  1
  Ru  Ru34  1  0.831310  0.168690  0.201427  1
  Ru  Ru35  1  0.168690  0.831310  0.798573  1
