# generated using pymatgen
data_Y3AgSn3Ru2
_symmetry_space_group_name_H-M   'P 1'
_cell_length_a   7.76964500
_cell_length_b   7.76964443
_cell_length_c   3.79639700
_cell_angle_alpha   90.00000000
_cell_angle_beta   90.00000000
_cell_angle_gamma   120.00000669
_symmetry_Int_Tables_number   1
_chemical_formula_structural   Y3AgSn3Ru2
_chemical_formula_sum   'Y3 Ag1 Sn3 Ru2'
_cell_volume   198.47442122
_cell_formula_units_Z   1
loop_
 _symmetry_equiv_pos_site_id
 _symmetry_equiv_pos_as_xyz
  1  'x, y, z'
loop_
 _atom_site_type_symbol
 _atom_site_label
 _atom_site_symmetry_multiplicity
 _atom_site_fract_x
 _atom_site_fract_y
 _atom_site_fract_z
 _atom_site_occupancy
  Y  Y0  1  0.974791  0.385717  0.500000  1
  Y  Y1  1  0.614283  0.589073  0.500000  1
  Y  Y2  1  0.410927  0.025209  0.500000  1
  Ag  Ag3  1  0.333333  0.666667  0.000000  1
  Sn  Sn4  1  0.999806  0.738485  0.000000  1
  Sn  Sn5  1  0.261515  0.261319  0.000000  1
  Sn  Sn6  1  0.738681  0.000194  0.000000  1
  Ru  Ru7  1  0.666667  0.333333  0.000000  1
  Ru  Ru8  1  0.000000  0.000000  0.500000  1
