# generated using pymatgen
data_ErLu7(CdPt)2
_symmetry_space_group_name_H-M   'P 1'
_cell_length_a   9.49232331
_cell_length_b   9.49232401
_cell_length_c   9.48609800
_cell_angle_alpha   60.02170159
_cell_angle_beta   60.02169912
_cell_angle_gamma   59.95661017
_symmetry_Int_Tables_number   1
_chemical_formula_structural   ErLu7(CdPt)2
_chemical_formula_sum   'Er2 Lu14 Cd4 Pt4'
_cell_volume   604.39010731
_cell_formula_units_Z   2
loop_
 _symmetry_equiv_pos_site_id
 _symmetry_equiv_pos_as_xyz
  1  'x, y, z'
loop_
 _atom_site_type_symbol
 _atom_site_label
 _atom_site_symmetry_multiplicity
 _atom_site_fract_x
 _atom_site_fract_y
 _atom_site_fract_z
 _atom_site_occupancy
  Er  Er0  1  0.815321  0.815321  0.184679  1
  Er  Er1  1  0.184679  0.184679  0.815321  1
  Lu  Lu2  1  0.602608  0.602608  0.602936  1
  Lu  Lu3  1  0.602608  0.602608  0.191848  1
  Lu  Lu4  1  0.602936  0.191848  0.602608  1
  Lu  Lu5  1  0.191848  0.602936  0.602608  1
  Lu  Lu6  1  0.060455  0.439545  0.439545  1
  Lu  Lu7  1  0.439545  0.060455  0.060455  1
  Lu  Lu8  1  0.439545  0.060455  0.439545  1
  Lu  Lu9  1  0.060455  0.439545  0.060455  1
  Lu  Lu10  1  0.439620  0.439620  0.060380  1
  Lu  Lu11  1  0.060380  0.060380  0.439620  1
  Lu  Lu12  1  0.185588  0.814412  0.814412  1
  Lu  Lu13  1  0.814412  0.185588  0.185588  1
  Lu  Lu14  1  0.814412  0.185588  0.814412  1
  Lu  Lu15  1  0.185588  0.814412  0.185588  1
  Cd  Cd16  1  0.832256  0.832256  0.831631  1
  Cd  Cd17  1  0.832256  0.832256  0.503858  1
  Cd  Cd18  1  0.831631  0.503858  0.832256  1
  Cd  Cd19  1  0.503858  0.831631  0.832256  1
  Pt  Pt20  1  0.393441  0.393441  0.392888  1
  Pt  Pt21  1  0.393441  0.393441  0.820230  1
  Pt  Pt22  1  0.392888  0.820230  0.393441  1
  Pt  Pt23  1  0.820230  0.392888  0.393441  1
