# generated using pymatgen
data_HoTh6NpH30
_symmetry_space_group_name_H-M   'P 1'
_cell_length_a   7.83518645
_cell_length_b   7.82426157
_cell_length_c   7.79089881
_cell_angle_alpha   109.39185769
_cell_angle_beta   109.45228547
_cell_angle_gamma   109.57966721
_symmetry_Int_Tables_number   1
_chemical_formula_structural   HoTh6NpH30
_chemical_formula_sum   'Ho1 Th6 Np1 H30'
_cell_volume   367.62331884
_cell_formula_units_Z   1
loop_
 _symmetry_equiv_pos_site_id
 _symmetry_equiv_pos_as_xyz
  1  'x, y, z'
loop_
 _atom_site_type_symbol
 _atom_site_label
 _atom_site_symmetry_multiplicity
 _atom_site_fract_x
 _atom_site_fract_y
 _atom_site_fract_z
 _atom_site_occupancy
  Ho  Ho0  1  0.498987  0.999490  0.084296  1
  Th  Th1  1  0.994042  0.079279  0.494719  1
  Th  Th2  1  0.085154  0.505390  0.001504  1
  Th  Th3  1  0.999265  0.584013  0.504372  1
  Th  Th4  1  0.583412  0.503118  0.999155  1
  Th  Th5  1  0.503576  0.998796  0.587283  1
  Th  Th6  1  0.416573  0.410723  0.412135  1
  Np  Np7  1  0.912968  0.913116  0.913401  1
  H  H8  1  0.650704  0.963804  0.368518  1
  H  H9  1  0.217981  0.317503  0.845350  1
  H  H10  1  0.186996  0.403333  0.534690  1
  H  H11  1  0.095486  0.280736  0.127561  1
  H  H12  1  0.282648  0.123736  0.091849  1
  H  H13  1  0.127461  0.092699  0.277763  1
  H  H14  1  0.471743  0.154831  0.875273  1
  H  H15  1  0.718608  0.349561  0.813519  1
  H  H16  1  0.627513  0.380286  0.251202  1
  H  H17  1  0.250704  0.624381  0.376979  1
  H  H18  1  0.751490  0.873642  0.123876  1
  H  H19  1  0.121586  0.749325  0.874374  1
  H  H20  1  0.374477  0.248046  0.623926  1
  H  H21  1  0.876578  0.126788  0.751257  1
  H  H22  1  0.781390  0.594977  0.632585  1
  H  H23  1  0.318874  0.848703  0.221482  1
  H  H24  1  0.373011  0.659634  0.967207  1
  H  H25  1  0.963402  0.368002  0.651380  1
  H  H26  1  0.537153  0.185685  0.405113  1
  H  H27  1  0.405533  0.537656  0.187070  1
  H  H28  1  0.839513  0.217015  0.312524  1
  H  H29  1  0.905084  0.689466  0.033543  1
  H  H30  1  0.813033  0.717312  0.347961  1
  H  H31  1  0.152069  0.868749  0.465600  1
  H  H32  1  0.686052  0.028739  0.906526  1
  H  H33  1  0.346790  0.817307  0.723313  1
  H  H34  1  0.871500  0.470644  0.153826  1
  H  H35  1  0.632778  0.779853  0.594290  1
  H  H36  1  0.596647  0.629738  0.778883  1
  H  H37  1  0.029217  0.903928  0.685695  1
