# generated using pymatgen
data_Dy17Y3Cd3Hg3Ru2
_symmetry_space_group_name_H-M   'P 1'
_cell_length_a   9.61328000
_cell_length_b   9.61327940
_cell_length_c   9.79665600
_cell_angle_alpha   90.00000000
_cell_angle_beta   90.00000000
_cell_angle_gamma   120.00000207
_symmetry_Int_Tables_number   1
_chemical_formula_structural   Dy17Y3Cd3Hg3Ru2
_chemical_formula_sum   'Dy17 Y3 Cd3 Hg3 Ru2'
_cell_volume   784.06422385
_cell_formula_units_Z   1
loop_
 _symmetry_equiv_pos_site_id
 _symmetry_equiv_pos_as_xyz
  1  'x, y, z'
loop_
 _atom_site_type_symbol
 _atom_site_label
 _atom_site_symmetry_multiplicity
 _atom_site_fract_x
 _atom_site_fract_y
 _atom_site_fract_z
 _atom_site_occupancy
  Dy  Dy0  1  0.000000  0.000000  0.491403  1
  Dy  Dy1  1  0.000000  0.000000  0.008597  1
  Dy  Dy2  1  0.209487  0.790513  0.439120  1
  Dy  Dy3  1  0.209487  0.418975  0.439120  1
  Dy  Dy4  1  0.581025  0.790513  0.439120  1
  Dy  Dy5  1  0.790241  0.209759  0.559765  1
  Dy  Dy6  1  0.790241  0.580482  0.559765  1
  Dy  Dy7  1  0.419518  0.209759  0.559765  1
  Dy  Dy8  1  0.790241  0.209759  0.940235  1
  Dy  Dy9  1  0.790241  0.580482  0.940235  1
  Dy  Dy10  1  0.419518  0.209759  0.940235  1
  Dy  Dy11  1  0.209487  0.790513  0.060880  1
  Dy  Dy12  1  0.209487  0.418975  0.060880  1
  Dy  Dy13  1  0.581025  0.790513  0.060880  1
  Dy  Dy14  1  0.541280  0.458720  0.250000  1
  Dy  Dy15  1  0.541280  0.082560  0.250000  1
  Dy  Dy16  1  0.917440  0.458720  0.250000  1
  Y  Y17  1  0.458814  0.541186  0.750000  1
  Y  Y18  1  0.458814  0.917629  0.750000  1
  Y  Y19  1  0.082371  0.541186  0.750000  1
  Cd  Cd20  1  0.113346  0.886654  0.750000  1
  Cd  Cd21  1  0.113346  0.226693  0.750000  1
  Cd  Cd22  1  0.773307  0.886654  0.750000  1
  Hg  Hg23  1  0.879787  0.120213  0.250000  1
  Hg  Hg24  1  0.879787  0.759574  0.250000  1
  Hg  Hg25  1  0.240426  0.120213  0.250000  1
  Ru  Ru26  1  0.333333  0.666667  0.250000  1
  Ru  Ru27  1  0.666667  0.333333  0.750000  1
