# generated using pymatgen
data_Zr10CuSn2Bi4Sb
_symmetry_space_group_name_H-M   'P 1'
_cell_length_a   8.86458960
_cell_length_b   8.86459099
_cell_length_c   5.96172672
_cell_angle_alpha   90.02833772
_cell_angle_beta   90.02834090
_cell_angle_gamma   119.86305648
_symmetry_Int_Tables_number   1
_chemical_formula_structural   Zr10CuSn2Bi4Sb
_chemical_formula_sum   'Zr10 Cu1 Sn2 Bi4 Sb1'
_cell_volume   406.27253726
_cell_formula_units_Z   1
loop_
 _symmetry_equiv_pos_site_id
 _symmetry_equiv_pos_as_xyz
  1  'x, y, z'
loop_
 _atom_site_type_symbol
 _atom_site_label
 _atom_site_symmetry_multiplicity
 _atom_site_fract_x
 _atom_site_fract_y
 _atom_site_fract_z
 _atom_site_occupancy
  Zr  Zr0  1  0.730351  0.005709  0.233920  1
  Zr  Zr1  1  0.005709  0.730351  0.233920  1
  Zr  Zr2  1  0.268420  0.268420  0.232201  1
  Zr  Zr3  1  0.269541  0.000015  0.767416  1
  Zr  Zr4  1  0.000015  0.269541  0.767416  1
  Zr  Zr5  1  0.731233  0.731233  0.767187  1
  Zr  Zr6  1  0.329557  0.667885  0.496880  1
  Zr  Zr7  1  0.667885  0.329557  0.496880  1
  Zr  Zr8  1  0.667658  0.330349  0.002864  1
  Zr  Zr9  1  0.330349  0.667658  0.002864  1
  Cu  Cu10  1  0.000256  0.000256  0.002316  1
  Sn  Sn11  1  0.386053  0.999775  0.252529  1
  Sn  Sn12  1  0.999775  0.386053  0.252529  1
  Bi  Bi13  1  0.613471  0.613471  0.253151  1
  Bi  Bi14  1  0.611446  0.999874  0.746270  1
  Bi  Bi15  1  0.999874  0.611446  0.746270  1
  Bi  Bi16  1  0.388711  0.388711  0.746345  1
  Sb  Sb17  1  0.999697  0.999697  0.499042  1
