# generated using pymatgen
data_K6LuFeF12
_symmetry_space_group_name_H-M   'P 1'
_cell_length_a   6.48618580
_cell_length_b   6.24350419
_cell_length_c   10.89404039
_cell_angle_alpha   55.30779079
_cell_angle_beta   89.71387598
_cell_angle_gamma   90.10285703
_symmetry_Int_Tables_number   1
_chemical_formula_structural   K6LuFeF12
_chemical_formula_sum   'K6 Lu1 Fe1 F12'
_cell_volume   362.72981024
_cell_formula_units_Z   1
loop_
 _symmetry_equiv_pos_site_id
 _symmetry_equiv_pos_as_xyz
  1  'x, y, z'
loop_
 _atom_site_type_symbol
 _atom_site_label
 _atom_site_symmetry_multiplicity
 _atom_site_fract_x
 _atom_site_fract_y
 _atom_site_fract_z
 _atom_site_occupancy
  K  K0  1  0.500000  0.500000  0.000000  1
  K  K1  1  0.000000  0.500000  0.500000  1
  K  K2  1  0.053498  0.740828  0.744848  1
  K  K3  1  0.946502  0.259172  0.255152  1
  K  K4  1  0.549192  0.276393  0.737578  1
  K  K5  1  0.450808  0.723607  0.262422  1
  Lu  Lu6  1  0.000000  0.000000  0.000000  1
  Fe  Fe7  1  0.500000  0.000000  0.500000  1
  F  F8  1  0.750115  0.780092  0.558892  1
  F  F9  1  0.249885  0.219908  0.441108  1
  F  F10  1  0.271951  0.233291  0.931609  1
  F  F11  1  0.728049  0.766709  0.068391  1
  F  F12  1  0.454909  0.889420  0.707510  1
  F  F13  1  0.545091  0.110580  0.292490  1
  F  F14  1  0.949477  0.116938  0.776946  1
  F  F15  1  0.050523  0.883062  0.223054  1
  F  F16  1  0.329543  0.702753  0.541261  1
  F  F17  1  0.670457  0.297247  0.458739  1
  F  F18  1  0.827662  0.327579  0.951181  1
  F  F19  1  0.172338  0.672421  0.048819  1
