# generated using pymatgen
data_Ho16Al4Ir3Ru
_symmetry_space_group_name_H-M   'P 1'
_cell_length_a   9.50292093
_cell_length_b   9.50365709
_cell_length_c   9.50365900
_cell_angle_alpha   60.00000380
_cell_angle_beta   59.99744119
_cell_angle_gamma   59.99743943
_symmetry_Int_Tables_number   1
_chemical_formula_structural   Ho16Al4Ir3Ru
_chemical_formula_sum   'Ho16 Al4 Ir3 Ru1'
_cell_volume   606.88573490
_cell_formula_units_Z   1
loop_
 _symmetry_equiv_pos_site_id
 _symmetry_equiv_pos_as_xyz
  1  'x, y, z'
loop_
 _atom_site_type_symbol
 _atom_site_label
 _atom_site_symmetry_multiplicity
 _atom_site_fract_x
 _atom_site_fract_y
 _atom_site_fract_z
 _atom_site_occupancy
  Ho  Ho0  1  0.437545  0.439273  0.061592  1
  Ho  Ho1  1  0.647693  0.648842  0.054622  1
  Ho  Ho2  1  0.195332  0.806206  0.192254  1
  Ho  Ho3  1  0.061470  0.438295  0.061940  1
  Ho  Ho4  1  0.195332  0.806206  0.806206  1
  Ho  Ho5  1  0.061470  0.438295  0.438295  1
  Ho  Ho6  1  0.805868  0.194211  0.194211  1
  Ho  Ho7  1  0.647693  0.648842  0.648842  1
  Ho  Ho8  1  0.805868  0.194211  0.805711  1
  Ho  Ho9  1  0.195332  0.192254  0.806206  1
  Ho  Ho10  1  0.056719  0.647761  0.647761  1
  Ho  Ho11  1  0.437545  0.061592  0.061592  1
  Ho  Ho12  1  0.061470  0.061940  0.438295  1
  Ho  Ho13  1  0.647693  0.054622  0.648842  1
  Ho  Ho14  1  0.805868  0.805711  0.194211  1
  Ho  Ho15  1  0.437545  0.061592  0.439273  1
  Al  Al16  1  0.421772  0.421835  0.421835  1
  Al  Al17  1  0.421772  0.421835  0.734561  1
  Al  Al18  1  0.421772  0.734561  0.421835  1
  Al  Al19  1  0.733820  0.422060  0.422060  1
  Ir  Ir20  1  0.859207  0.858292  0.858292  1
  Ir  Ir21  1  0.859207  0.424208  0.858292  1
  Ir  Ir22  1  0.859207  0.858292  0.424208  1
  Ru  Ru23  1  0.422802  0.859066  0.859066  1
