# generated using pymatgen
data_K10Rb2Al3FeSe12
_symmetry_space_group_name_H-M   'P 1'
_cell_length_a   13.45809197
_cell_length_b   8.24180916
_cell_length_c   10.58473185
_cell_angle_alpha   52.44401139
_cell_angle_beta   89.39107027
_cell_angle_gamma   89.32403445
_symmetry_Int_Tables_number   1
_chemical_formula_structural   K10Rb2Al3FeSe12
_chemical_formula_sum   'K10 Rb2 Al3 Fe1 Se12'
_cell_volume   930.66264312
_cell_formula_units_Z   1
loop_
 _symmetry_equiv_pos_site_id
 _symmetry_equiv_pos_as_xyz
  1  'x, y, z'
loop_
 _atom_site_type_symbol
 _atom_site_label
 _atom_site_symmetry_multiplicity
 _atom_site_fract_x
 _atom_site_fract_y
 _atom_site_fract_z
 _atom_site_occupancy
  K  K0  1  0.812173  0.847212  0.424619  1
  K  K1  1  0.898938  0.322740  0.399699  1
  K  K2  1  0.619007  0.375103  0.472086  1
  K  K3  1  0.117378  0.628192  0.029515  1
  K  K4  1  0.381630  0.622390  0.529196  1
  K  K5  1  0.883468  0.374123  0.971945  1
  K  K6  1  0.603234  0.319651  0.899810  1
  K  K7  1  0.101342  0.679392  0.599222  1
  K  K8  1  0.397644  0.678635  0.101162  1
  K  K9  1  0.188469  0.152795  0.574580  1
  Rb  Rb10  1  0.310252  0.154985  0.068996  1
  Rb  Rb11  1  0.687732  0.843679  0.931547  1
  Al  Al12  1  0.562354  0.051658  0.343838  1
  Al  Al13  1  0.437521  0.947135  0.656515  1
  Al  Al14  1  0.938068  0.058336  0.842297  1
  Fe  Fe15  1  0.061446  0.942167  0.157000  1
  Se  Se16  1  0.402040  0.178166  0.367397  1
  Se  Se17  1  0.899131  0.828718  0.131175  1
  Se  Se18  1  0.597803  0.820852  0.632803  1
  Se  Se19  1  0.098829  0.174244  0.865623  1
  Se  Se20  1  0.687156  0.311756  0.204391  1
  Se  Se21  1  0.183640  0.673111  0.302393  1
  Se  Se22  1  0.312908  0.686911  0.796519  1
  Se  Se23  1  0.816267  0.329012  0.698510  1
  Se  Se24  1  0.547651  0.866574  0.238653  1
  Se  Se25  1  0.047226  0.129871  0.259985  1
  Se  Se26  1  0.452258  0.131997  0.761971  1
  Se  Se27  1  0.954436  0.870596  0.738552  1
