# generated using pymatgen
data_EuYBO4
_symmetry_space_group_name_H-M   'P 1'
_cell_length_a   3.66931500
_cell_length_b   9.74452700
_cell_length_c   10.89460000
_cell_angle_alpha   90.00000000
_cell_angle_beta   90.00000000
_cell_angle_gamma   90.00000000
_symmetry_Int_Tables_number   1
_chemical_formula_structural   EuYBO4
_chemical_formula_sum   'Eu4 Y4 B4 O16'
_cell_volume   389.54447508
_cell_formula_units_Z   4
loop_
 _symmetry_equiv_pos_site_id
 _symmetry_equiv_pos_as_xyz
  1  'x, y, z'
loop_
 _atom_site_type_symbol
 _atom_site_label
 _atom_site_symmetry_multiplicity
 _atom_site_fract_x
 _atom_site_fract_y
 _atom_site_fract_z
 _atom_site_occupancy
  Eu  Eu0  1  0.250000  0.658403  0.080704  1
  Eu  Eu1  1  0.750000  0.341597  0.919296  1
  Eu  Eu2  1  0.750000  0.158403  0.419296  1
  Eu  Eu3  1  0.250000  0.841597  0.580704  1
  Y  Y4  1  0.250000  0.082938  0.112186  1
  Y  Y5  1  0.750000  0.917062  0.887814  1
  Y  Y6  1  0.750000  0.582938  0.387814  1
  Y  Y7  1  0.250000  0.417062  0.612186  1
  B  B8  1  0.250000  0.364612  0.205317  1
  B  B9  1  0.750000  0.635388  0.794683  1
  B  B10  1  0.750000  0.864612  0.294683  1
  B  B11  1  0.250000  0.135388  0.705317  1
  O  O12  1  0.250000  0.492652  0.261041  1
  O  O13  1  0.750000  0.507348  0.738959  1
  O  O14  1  0.750000  0.992652  0.238959  1
  O  O15  1  0.250000  0.007348  0.761041  1
  O  O16  1  0.250000  0.243422  0.273352  1
  O  O17  1  0.750000  0.756578  0.726648  1
  O  O18  1  0.750000  0.743422  0.226648  1
  O  O19  1  0.250000  0.256578  0.773352  1
  O  O20  1  0.250000  0.354747  0.076941  1
  O  O21  1  0.750000  0.645253  0.923059  1
  O  O22  1  0.750000  0.854747  0.423059  1
  O  O23  1  0.250000  0.145253  0.576941  1
  O  O24  1  0.250000  0.613559  0.502130  1
  O  O25  1  0.750000  0.386441  0.497870  1
  O  O26  1  0.750000  0.113559  0.997870  1
  O  O27  1  0.250000  0.886441  0.002130  1
