# generated using pymatgen
data_Dy3Pa(Co5P3)4
_symmetry_space_group_name_H-M   'P 1'
_cell_length_a   3.66439600
_cell_length_b   10.29518202
_cell_length_c   11.71231702
_cell_angle_alpha   89.99289695
_cell_angle_beta   90.00000000
_cell_angle_gamma   90.00000000
_symmetry_Int_Tables_number   1
_chemical_formula_structural   Dy3Pa(Co5P3)4
_chemical_formula_sum   'Dy3 Pa1 Co20 P12'
_cell_volume   441.85446257
_cell_formula_units_Z   1
loop_
 _symmetry_equiv_pos_site_id
 _symmetry_equiv_pos_as_xyz
  1  'x, y, z'
loop_
 _atom_site_type_symbol
 _atom_site_label
 _atom_site_symmetry_multiplicity
 _atom_site_fract_x
 _atom_site_fract_y
 _atom_site_fract_z
 _atom_site_occupancy
  Dy  Dy0  1  0.250000  0.916588  0.201692  1
  Dy  Dy1  1  0.750000  0.416904  0.298971  1
  Dy  Dy2  1  0.750000  0.083052  0.797648  1
  Pa  Pa3  1  0.250000  0.582703  0.702834  1
  Co  Co4  1  0.250000  0.716506  0.989549  1
  Co  Co5  1  0.250000  0.781944  0.491678  1
  Co  Co6  1  0.750000  0.282528  0.005476  1
  Co  Co7  1  0.750000  0.216436  0.505860  1
  Co  Co8  1  0.250000  0.408033  0.489062  1
  Co  Co9  1  0.250000  0.092700  0.988510  1
  Co  Co10  1  0.750000  0.593116  0.517261  1
  Co  Co11  1  0.750000  0.905891  0.010811  1
  Co  Co12  1  0.250000  0.221723  0.176277  1
  Co  Co13  1  0.250000  0.278282  0.677481  1
  Co  Co14  1  0.750000  0.776566  0.821789  1
  Co  Co15  1  0.750000  0.720728  0.324632  1
  Co  Co16  1  0.250000  0.882866  0.698322  1
  Co  Co17  1  0.250000  0.617427  0.198708  1
  Co  Co18  1  0.750000  0.116296  0.300288  1
  Co  Co19  1  0.750000  0.387863  0.800223  1
  Co  Co20  1  0.250000  0.467759  0.931770  1
  Co  Co21  1  0.250000  0.031739  0.431423  1
  Co  Co22  1  0.750000  0.530641  0.069951  1
  Co  Co23  1  0.750000  0.970462  0.567746  1
  P  P24  1  0.250000  0.418502  0.113661  1
  P  P25  1  0.250000  0.081827  0.612142  1
  P  P26  1  0.750000  0.583155  0.892043  1
  P  P27  1  0.750000  0.918600  0.387404  1
  P  P28  1  0.250000  0.270314  0.870996  1
  P  P29  1  0.250000  0.228267  0.369117  1
  P  P30  1  0.750000  0.728450  0.130013  1
  P  P31  1  0.750000  0.776225  0.628883  1
  P  P32  1  0.250000  0.602029  0.390619  1
  P  P33  1  0.250000  0.899026  0.891255  1
  P  P34  1  0.750000  0.393150  0.607878  1
  P  P35  1  0.750000  0.101703  0.108024  1
