# generated using pymatgen
data_Er6Al12Ga5Co2Si7Os6
_symmetry_space_group_name_H-M   'P 1'
_cell_length_a   8.63096175
_cell_length_b   8.63543723
_cell_length_c   9.39225617
_cell_angle_alpha   89.98094424
_cell_angle_beta   90.00094845
_cell_angle_gamma   120.11858845
_symmetry_Int_Tables_number   1
_chemical_formula_structural   Er6Al12Ga5Co2Si7Os6
_chemical_formula_sum   'Er6 Al12 Ga5 Co2 Si7 Os6'
_cell_volume   605.51351536
_cell_formula_units_Z   1
loop_
 _symmetry_equiv_pos_site_id
 _symmetry_equiv_pos_as_xyz
  1  'x, y, z'
loop_
 _atom_site_type_symbol
 _atom_site_label
 _atom_site_symmetry_multiplicity
 _atom_site_fract_x
 _atom_site_fract_y
 _atom_site_fract_z
 _atom_site_occupancy
  Er  Er0  1  0.196673  0.392238  0.251986  1
  Er  Er1  1  0.804917  0.611114  0.749914  1
  Er  Er2  1  0.608555  0.803853  0.249892  1
  Er  Er3  1  0.388961  0.195067  0.749312  1
  Er  Er4  1  0.196405  0.803911  0.249913  1
  Er  Er5  1  0.805500  0.194707  0.749301  1
  Al  Al6  1  0.838314  0.677999  0.420408  1
  Al  Al7  1  0.677018  0.838479  0.576082  1
  Al  Al8  1  0.838508  0.678225  0.079794  1
  Al  Al9  1  0.322695  0.161340  0.420101  1
  Al  Al10  1  0.161211  0.323168  0.925549  1
  Al  Al11  1  0.161002  0.838021  0.574915  1
  Al  Al12  1  0.322323  0.161560  0.078592  1
  Al  Al13  1  0.838704  0.160092  0.419868  1
  Al  Al14  1  0.676967  0.838636  0.923941  1
  Al  Al15  1  0.839139  0.160297  0.078844  1
  Al  Al16  1  0.161146  0.838119  0.925043  1
  Al  Al17  1  0.000509  0.999305  0.249608  1
  Ga  Ga18  1  0.158204  0.317489  0.580303  1
  Ga  Ga19  1  0.125433  0.567761  0.749877  1
  Ga  Ga20  1  0.563642  0.435818  0.249815  1
  Ga  Ga21  1  0.439920  0.569075  0.749954  1
  Ga  Ga22  1  0.998677  0.998425  0.750413  1
  Co  Co23  1  0.999790  0.000176  0.000514  1
  Co  Co24  1  0.998314  0.996980  0.498550  1
  Si  Si25  1  0.333400  0.665130  0.041131  1
  Si  Si26  1  0.666414  0.334658  0.959185  1
  Si  Si27  1  0.666806  0.335613  0.540451  1
  Si  Si28  1  0.334286  0.666971  0.459267  1
  Si  Si29  1  0.566871  0.126378  0.249546  1
  Si  Si30  1  0.437656  0.875224  0.749819  1
  Si  Si31  1  0.873188  0.432433  0.249767  1
  Os  Os32  1  0.500644  0.000900  0.000708  1
  Os  Os33  1  0.997922  0.498442  0.008225  1
  Os  Os34  1  0.501198  0.001935  0.498951  1
  Os  Os35  1  0.500105  0.499800  0.999797  1
  Os  Os36  1  0.997977  0.499692  0.490953  1
  Os  Os37  1  0.501003  0.500972  0.499712  1
