# generated using pymatgen
data_Tb19Er(CoBi2)4
_symmetry_space_group_name_H-M   'P 1'
_cell_length_a   8.06276063
_cell_length_b   8.88551551
_cell_length_c   12.46154198
_cell_angle_alpha   89.97234529
_cell_angle_beta   90.03618326
_cell_angle_gamma   89.97310264
_symmetry_Int_Tables_number   1
_chemical_formula_structural   Tb19Er(CoBi2)4
_chemical_formula_sum   'Tb19 Er1 Co4 Bi8'
_cell_volume   892.76672522
_cell_formula_units_Z   1
loop_
 _symmetry_equiv_pos_site_id
 _symmetry_equiv_pos_as_xyz
  1  'x, y, z'
loop_
 _atom_site_type_symbol
 _atom_site_label
 _atom_site_symmetry_multiplicity
 _atom_site_fract_x
 _atom_site_fract_y
 _atom_site_fract_z
 _atom_site_occupancy
  Tb  Tb0  1  0.848154  0.750040  0.801490  1
  Tb  Tb1  1  0.151836  0.249989  0.198381  1
  Tb  Tb2  1  0.348680  0.249690  0.698197  1
  Tb  Tb3  1  0.651601  0.750229  0.301989  1
  Tb  Tb4  1  0.380804  0.750434  0.689623  1
  Tb  Tb5  1  0.620573  0.249333  0.310276  1
  Tb  Tb6  1  0.880020  0.250184  0.809739  1
  Tb  Tb7  1  0.119990  0.749940  0.190104  1
  Tb  Tb8  1  0.952565  0.750542  0.502500  1
  Tb  Tb9  1  0.044951  0.249645  0.497619  1
  Tb  Tb10  1  0.454025  0.249952  0.997599  1
  Tb  Tb11  1  0.545899  0.750021  0.002337  1
  Tb  Tb12  1  0.323525  0.966126  0.437389  1
  Tb  Tb13  1  0.176895  0.965920  0.937081  1
  Tb  Tb14  1  0.323196  0.533633  0.437428  1
  Tb  Tb15  1  0.823160  0.034023  0.062831  1
  Tb  Tb16  1  0.676953  0.465811  0.562997  1
  Tb  Tb17  1  0.823140  0.465940  0.062781  1
  Tb  Tb18  1  0.176968  0.534049  0.937146  1
  Er  Er19  1  0.674051  0.034290  0.562759  1
  Co  Co20  1  0.560305  0.750643  0.508221  1
  Co  Co21  1  0.442323  0.249178  0.492233  1
  Co  Co22  1  0.059425  0.249995  0.991749  1
  Co  Co23  1  0.940591  0.750007  0.008163  1
  Bi  Bi24  1  0.571126  0.492117  0.825634  1
  Bi  Bi25  1  0.429078  0.507797  0.174589  1
  Bi  Bi26  1  0.071433  0.507998  0.674195  1
  Bi  Bi27  1  0.428893  0.992143  0.174390  1
  Bi  Bi28  1  0.928973  0.492181  0.325670  1
  Bi  Bi29  1  0.571503  0.008011  0.825329  1
  Bi  Bi30  1  0.929325  0.007815  0.325526  1
  Bi  Bi31  1  0.070039  0.992324  0.674036  1
