# generated using pymatgen
data_Li3Pr8Y9Sn16
_symmetry_space_group_name_H-M   'P 1'
_cell_length_a   8.08397800
_cell_length_b   8.31146327
_cell_length_c   15.66644300
_cell_angle_alpha   90.00000000
_cell_angle_beta   90.00000000
_cell_angle_gamma   89.98539249
_symmetry_Int_Tables_number   1
_chemical_formula_structural   Li3Pr8Y9Sn16
_chemical_formula_sum   'Li3 Pr8 Y9 Sn16'
_cell_volume   1052.62335520
_cell_formula_units_Z   1
loop_
 _symmetry_equiv_pos_site_id
 _symmetry_equiv_pos_as_xyz
  1  'x, y, z'
loop_
 _atom_site_type_symbol
 _atom_site_label
 _atom_site_symmetry_multiplicity
 _atom_site_fract_x
 _atom_site_fract_y
 _atom_site_fract_z
 _atom_site_occupancy
  Li  Li0  1  0.673218  0.009255  0.750000  1
  Li  Li1  1  0.829002  0.510537  0.250000  1
  Li  Li2  1  0.327878  0.990836  0.250000  1
  Pr  Pr3  1  0.497941  0.315947  0.904115  1
  Pr  Pr4  1  0.991917  0.173742  0.595021  1
  Pr  Pr5  1  0.507209  0.681990  0.402640  1
  Pr  Pr6  1  0.006586  0.817615  0.097054  1
  Pr  Pr7  1  0.507209  0.681990  0.097360  1
  Pr  Pr8  1  0.006586  0.817615  0.402946  1
  Pr  Pr9  1  0.497941  0.315947  0.595885  1
  Pr  Pr10  1  0.991917  0.173742  0.904979  1
  Y  Y11  1  0.340001  0.833769  0.873959  1
  Y  Y12  1  0.831826  0.674769  0.626139  1
  Y  Y13  1  0.662354  0.172485  0.371375  1
  Y  Y14  1  0.161710  0.330577  0.127621  1
  Y  Y15  1  0.662354  0.172485  0.128625  1
  Y  Y16  1  0.161710  0.330577  0.372379  1
  Y  Y17  1  0.340001  0.833769  0.626041  1
  Y  Y18  1  0.831826  0.674769  0.873861  1
  Y  Y19  1  0.166715  0.498222  0.750000  1
  Sn  Sn20  1  0.326565  0.039455  0.040479  1
  Sn  Sn21  1  0.826921  0.461583  0.460762  1
  Sn  Sn22  1  0.671871  0.960561  0.535549  1
  Sn  Sn23  1  0.171871  0.533991  0.958870  1
  Sn  Sn24  1  0.671871  0.960561  0.964451  1
  Sn  Sn25  1  0.171871  0.533991  0.541130  1
  Sn  Sn26  1  0.326565  0.039455  0.459521  1
  Sn  Sn27  1  0.826921  0.461583  0.039238  1
  Sn  Sn28  1  0.531770  0.608732  0.750000  1
  Sn  Sn29  1  0.031066  0.887744  0.750000  1
  Sn  Sn30  1  0.469947  0.397773  0.250000  1
  Sn  Sn31  1  0.970475  0.105599  0.250000  1
  Sn  Sn32  1  0.299480  0.138197  0.750000  1
  Sn  Sn33  1  0.801322  0.359326  0.750000  1
  Sn  Sn34  1  0.704006  0.862382  0.250000  1
  Sn  Sn35  1  0.201580  0.638429  0.250000  1
