# generated using pymatgen
data_Tm4Al15Ga2GeIr6
_symmetry_space_group_name_H-M   'P 1'
_cell_length_a   7.52610224
_cell_length_b   7.52580085
_cell_length_c   9.46620700
_cell_angle_alpha   90.00000000
_cell_angle_beta   90.00000000
_cell_angle_gamma   119.61846777
_symmetry_Int_Tables_number   1
_chemical_formula_structural   Tm4Al15Ga2GeIr6
_chemical_formula_sum   'Tm4 Al15 Ga2 Ge1 Ir6'
_cell_volume   466.10776147
_cell_formula_units_Z   1
loop_
 _symmetry_equiv_pos_site_id
 _symmetry_equiv_pos_as_xyz
  1  'x, y, z'
loop_
 _atom_site_type_symbol
 _atom_site_label
 _atom_site_symmetry_multiplicity
 _atom_site_fract_x
 _atom_site_fract_y
 _atom_site_fract_z
 _atom_site_occupancy
  Tm  Tm0  1  0.994933  0.677396  0.250000  1
  Tm  Tm1  1  0.000199  0.325572  0.750000  1
  Tm  Tm2  1  0.677834  0.997069  0.250000  1
  Tm  Tm3  1  0.330403  0.006698  0.750000  1
  Al  Al4  1  0.000055  0.338221  0.074880  1
  Al  Al5  1  0.998584  0.665075  0.925720  1
  Al  Al6  1  0.998584  0.665075  0.574280  1
  Al  Al7  1  0.337870  0.999185  0.425331  1
  Al  Al8  1  0.000055  0.338221  0.425120  1
  Al  Al9  1  0.664374  0.996522  0.574310  1
  Al  Al10  1  0.664374  0.996522  0.925690  1
  Al  Al11  1  0.337870  0.999185  0.074669  1
  Al  Al12  1  0.332318  0.332659  0.558103  1
  Al  Al13  1  0.663742  0.663704  0.441234  1
  Al  Al14  1  0.663742  0.663704  0.058766  1
  Al  Al15  1  0.332318  0.332659  0.941897  1
  Al  Al16  1  0.336949  0.555475  0.250000  1
  Al  Al17  1  0.554661  0.336796  0.250000  1
  Al  Al18  1  0.448412  0.660578  0.750000  1
  Ga  Ga19  1  0.871035  0.870716  0.750000  1
  Ga  Ga20  1  0.660911  0.452963  0.750000  1
  Ge  Ge21  1  0.137189  0.137353  0.250000  1
  Ir  Ir22  1  0.670159  0.325617  0.001950  1
  Ir  Ir23  1  0.326990  0.669414  0.999756  1
  Ir  Ir24  1  0.326990  0.669414  0.500244  1
  Ir  Ir25  1  0.670159  0.325617  0.498050  1
  Ir  Ir26  1  0.999645  0.999294  0.003997  1
  Ir  Ir27  1  0.999645  0.999294  0.496003  1
