# generated using pymatgen
data_Ce(AgCl3)2
_symmetry_space_group_name_H-M   'P 1'
_cell_length_a   7.79307958
_cell_length_b   7.79307882
_cell_length_c   7.79307861
_cell_angle_alpha   53.17853909
_cell_angle_beta   53.17854186
_cell_angle_gamma   53.17854025
_symmetry_Int_Tables_number   1
_chemical_formula_structural   Ce(AgCl3)2
_chemical_formula_sum   'Ce1 Ag2 Cl6'
_cell_volume   281.18936761
_cell_formula_units_Z   1
loop_
 _symmetry_equiv_pos_site_id
 _symmetry_equiv_pos_as_xyz
  1  'x, y, z'
loop_
 _atom_site_type_symbol
 _atom_site_label
 _atom_site_symmetry_multiplicity
 _atom_site_fract_x
 _atom_site_fract_y
 _atom_site_fract_z
 _atom_site_occupancy
  Ce  Ce0  1  0.500000  0.500000  0.500000  1
  Ag  Ag1  1  0.765262  0.765262  0.765262  1
  Ag  Ag2  1  0.234738  0.234738  0.234738  1
  Cl  Cl3  1  0.401907  0.124668  0.737272  1
  Cl  Cl4  1  0.124668  0.737272  0.401907  1
  Cl  Cl5  1  0.737272  0.401907  0.124668  1
  Cl  Cl6  1  0.262728  0.598093  0.875332  1
  Cl  Cl7  1  0.875332  0.262728  0.598093  1
  Cl  Cl8  1  0.598093  0.875332  0.262728  1
