# generated using pymatgen
data_Er16In2NiAg2Rh3
_symmetry_space_group_name_H-M   'P 1'
_cell_length_a   9.56871675
_cell_length_b   9.50103612
_cell_length_c   9.50676639
_cell_angle_alpha   59.67944801
_cell_angle_beta   59.78420346
_cell_angle_gamma   59.76408096
_symmetry_Int_Tables_number   1
_chemical_formula_structural   Er16In2NiAg2Rh3
_chemical_formula_sum   'Er16 In2 Ni1 Ag2 Rh3'
_cell_volume   607.56874528
_cell_formula_units_Z   1
loop_
 _symmetry_equiv_pos_site_id
 _symmetry_equiv_pos_as_xyz
  1  'x, y, z'
loop_
 _atom_site_type_symbol
 _atom_site_label
 _atom_site_symmetry_multiplicity
 _atom_site_fract_x
 _atom_site_fract_y
 _atom_site_fract_z
 _atom_site_occupancy
  Er  Er0  1  0.186128  0.191633  0.811680  1
  Er  Er1  1  0.438395  0.061120  0.062091  1
  Er  Er2  1  0.436791  0.058768  0.436412  1
  Er  Er3  1  0.069280  0.436068  0.060791  1
  Er  Er4  1  0.649086  0.054724  0.647106  1
  Er  Er5  1  0.188743  0.811552  0.810962  1
  Er  Er6  1  0.068030  0.058768  0.436412  1
  Er  Er7  1  0.809345  0.192613  0.188698  1
  Er  Er8  1  0.810020  0.811912  0.189734  1
  Er  Er9  1  0.653084  0.644488  0.049343  1
  Er  Er10  1  0.654765  0.645861  0.651597  1
  Er  Er11  1  0.065334  0.435830  0.433503  1
  Er  Er12  1  0.047775  0.645861  0.651597  1
  Er  Er13  1  0.810560  0.191633  0.811680  1
  Er  Er14  1  0.433861  0.436068  0.060791  1
  Er  Er15  1  0.188334  0.811912  0.189734  1
  In  In16  1  0.743106  0.421770  0.419910  1
  In  In17  1  0.415214  0.421770  0.419910  1
  Ni  Ni18  1  0.858035  0.426278  0.857652  1
  Ag  Ag19  1  0.416364  0.749532  0.417738  1
  Ag  Ag20  1  0.415385  0.418847  0.750382  1
  Rh  Rh21  1  0.857102  0.857446  0.428349  1
  Rh  Rh22  1  0.428578  0.857771  0.856964  1
  Rh  Rh23  1  0.856687  0.857771  0.856964  1
