# generated using pymatgen
data_ScTa(NbRe8)3
_symmetry_space_group_name_H-M   'P 1'
_cell_length_a   8.42694578
_cell_length_b   8.42694485
_cell_length_c   8.42694500
_cell_angle_alpha   109.47120193
_cell_angle_beta   109.47120716
_cell_angle_gamma   109.47119489
_symmetry_Int_Tables_number   1
_chemical_formula_structural   ScTa(NbRe8)3
_chemical_formula_sum   'Sc1 Ta1 Nb3 Re24'
_cell_volume   460.66893852
_cell_formula_units_Z   1
loop_
 _symmetry_equiv_pos_site_id
 _symmetry_equiv_pos_as_xyz
  1  'x, y, z'
loop_
 _atom_site_type_symbol
 _atom_site_label
 _atom_site_symmetry_multiplicity
 _atom_site_fract_x
 _atom_site_fract_y
 _atom_site_fract_z
 _atom_site_occupancy
  Sc  Sc0  1  0.999981  0.999981  0.999981  1
  Ta  Ta1  1  0.367963  0.367963  0.367963  1
  Nb  Nb2  1  0.000013  0.632005  0.000013  1
  Nb  Nb3  1  0.632005  0.000013  0.000013  1
  Nb  Nb4  1  0.000013  0.000013  0.632005  1
  Re  Re5  1  0.000026  0.399466  0.681715  1
  Re  Re6  1  0.282214  0.600549  0.600549  1
  Re  Re7  1  0.717794  0.318292  0.318292  1
  Re  Re8  1  0.318292  0.717794  0.318292  1
  Re  Re9  1  0.681715  0.000026  0.399466  1
  Re  Re10  1  0.000026  0.681715  0.399466  1
  Re  Re11  1  0.600549  0.600549  0.282214  1
  Re  Re12  1  0.805481  0.805481  0.181772  1
  Re  Re13  1  0.376250  0.194492  0.000061  1
  Re  Re14  1  0.194492  0.376250  0.000061  1
  Re  Re15  1  0.623706  0.818169  0.623706  1
  Re  Re16  1  0.376250  0.000061  0.194492  1
  Re  Re17  1  0.000061  0.376250  0.194492  1
  Re  Re18  1  0.818169  0.623706  0.623706  1
  Re  Re19  1  0.181772  0.805481  0.805481  1
  Re  Re20  1  0.805481  0.181772  0.805481  1
  Re  Re21  1  0.194492  0.000061  0.376250  1
  Re  Re22  1  0.000061  0.194492  0.376250  1
  Re  Re23  1  0.623706  0.623706  0.818169  1
  Re  Re24  1  0.399466  0.000026  0.681715  1
  Re  Re25  1  0.600549  0.282214  0.600549  1
  Re  Re26  1  0.681715  0.399466  0.000026  1
  Re  Re27  1  0.399466  0.681715  0.000026  1
  Re  Re28  1  0.318292  0.318292  0.717794  1
