# generated using pymatgen
data_PuSc7(AlB6)4
_symmetry_space_group_name_H-M   'P 1'
_cell_length_a   8.92621556
_cell_length_b   11.21508273
_cell_length_c   3.43529100
_cell_angle_alpha   90.00000000
_cell_angle_beta   90.00000000
_cell_angle_gamma   90.12672785
_symmetry_Int_Tables_number   1
_chemical_formula_structural   PuSc7(AlB6)4
_chemical_formula_sum   'Pu1 Sc7 Al4 B24'
_cell_volume   343.90011526
_cell_formula_units_Z   1
loop_
 _symmetry_equiv_pos_site_id
 _symmetry_equiv_pos_as_xyz
  1  'x, y, z'
loop_
 _atom_site_type_symbol
 _atom_site_label
 _atom_site_symmetry_multiplicity
 _atom_site_fract_x
 _atom_site_fract_y
 _atom_site_fract_z
 _atom_site_occupancy
  Pu  Pu0  1  0.678186  0.086169  0.000000  1
  Sc  Sc1  1  0.055648  0.127952  0.000000  1
  Sc  Sc2  1  0.556366  0.372728  0.000000  1
  Sc  Sc3  1  0.180312  0.413589  0.000000  1
  Sc  Sc4  1  0.819842  0.586808  0.000000  1
  Sc  Sc5  1  0.443672  0.627761  0.000000  1
  Sc  Sc6  1  0.943985  0.871244  0.000000  1
  Sc  Sc7  1  0.320402  0.913688  0.000000  1
  Al  Al8  1  0.359450  0.179084  0.000000  1
  Al  Al9  1  0.859181  0.320337  0.000000  1
  Al  Al10  1  0.140644  0.679694  0.000000  1
  Al  Al11  1  0.639881  0.820030  0.000000  1
  B  B12  1  0.900334  0.027057  0.500000  1
  B  B13  1  0.447757  0.063640  0.500000  1
  B  B14  1  0.246003  0.077992  0.500000  1
  B  B15  1  0.870501  0.180954  0.500000  1
  B  B16  1  0.520824  0.213583  0.500000  1
  B  B17  1  0.203165  0.238398  0.500000  1
  B  B18  1  0.702348  0.263599  0.500000  1
  B  B19  1  0.023234  0.289197  0.500000  1
  B  B20  1  0.368369  0.320514  0.500000  1
  B  B21  1  0.747040  0.423608  0.500000  1
  B  B22  1  0.948859  0.436479  0.500000  1
  B  B23  1  0.399469  0.472781  0.500000  1
  B  B24  1  0.600058  0.527955  0.500000  1
  B  B25  1  0.051844  0.563341  0.500000  1
  B  B26  1  0.253327  0.578045  0.500000  1
  B  B27  1  0.630401  0.681147  0.500000  1
  B  B28  1  0.978494  0.711138  0.500000  1
  B  B29  1  0.297253  0.737596  0.500000  1
  B  B30  1  0.798510  0.760203  0.500000  1
  B  B31  1  0.477537  0.787299  0.500000  1
  B  B32  1  0.131203  0.818831  0.500000  1
  B  B33  1  0.754783  0.920061  0.500000  1
  B  B34  1  0.550318  0.935541  0.500000  1
  B  B35  1  0.100810  0.971955  0.500000  1
