# generated using pymatgen
data_K4V2PdS8
_symmetry_space_group_name_H-M   'P 1'
_cell_length_a   6.60889607
_cell_length_b   7.27770784
_cell_length_c   9.05134794
_cell_angle_alpha   84.63015290
_cell_angle_beta   77.82444451
_cell_angle_gamma   82.55500622
_symmetry_Int_Tables_number   1
_chemical_formula_structural   K4V2PdS8
_chemical_formula_sum   'K4 V2 Pd1 S8'
_cell_volume   420.98093590
_cell_formula_units_Z   1
loop_
 _symmetry_equiv_pos_site_id
 _symmetry_equiv_pos_as_xyz
  1  'x, y, z'
loop_
 _atom_site_type_symbol
 _atom_site_label
 _atom_site_symmetry_multiplicity
 _atom_site_fract_x
 _atom_site_fract_y
 _atom_site_fract_z
 _atom_site_occupancy
  K  K0  1  0.289446  0.324233  0.130064  1
  K  K1  1  0.720401  0.224638  0.501015  1
  K  K2  1  0.279599  0.775362  0.498985  1
  K  K3  1  0.710554  0.675767  0.869936  1
  V  V4  1  0.843129  0.749528  0.256872  1
  V  V5  1  0.156871  0.250472  0.743128  1
  Pd  Pd6  1  0.000000  0.000000  0.000000  1
  S  S7  1  0.664745  0.976792  0.149659  1
  S  S8  1  0.762796  0.492072  0.203845  1
  S  S9  1  0.170023  0.781502  0.156906  1
  S  S10  1  0.781499  0.765929  0.497913  1
  S  S11  1  0.218501  0.234071  0.502087  1
  S  S12  1  0.829977  0.218498  0.843094  1
  S  S13  1  0.237204  0.507928  0.796155  1
  S  S14  1  0.335255  0.023208  0.850341  1
