# generated using pymatgen
data_Li3Tm2ThPb3
_symmetry_space_group_name_H-M   'P 1'
_cell_length_a   7.44370900
_cell_length_b   7.44370864
_cell_length_c   4.75936700
_cell_angle_alpha   90.00000000
_cell_angle_beta   90.00000000
_cell_angle_gamma   119.90095455
_symmetry_Int_Tables_number   1
_chemical_formula_structural   Li3Tm2ThPb3
_chemical_formula_sum   'Li3 Tm2 Th1 Pb3'
_cell_volume   228.60786151
_cell_formula_units_Z   1
loop_
 _symmetry_equiv_pos_site_id
 _symmetry_equiv_pos_as_xyz
  1  'x, y, z'
loop_
 _atom_site_type_symbol
 _atom_site_label
 _atom_site_symmetry_multiplicity
 _atom_site_fract_x
 _atom_site_fract_y
 _atom_site_fract_z
 _atom_site_occupancy
  Li  Li0  1  0.769475  0.000122  0.000000  1
  Li  Li1  1  0.228378  0.228379  0.000000  1
  Li  Li2  1  0.000122  0.769475  0.000000  1
  Tm  Tm3  1  0.442199  0.000010  0.499999  1
  Tm  Tm4  1  0.000010  0.442199  0.499999  1
  Th  Th5  1  0.555691  0.555691  0.499999  1
  Pb  Pb6  1  0.671190  0.327760  0.000000  1
  Pb  Pb7  1  0.327760  0.671190  0.000000  1
  Pb  Pb8  1  0.005175  0.005175  0.499999  1
