# generated using pymatgen
data_Cs4NaErS4
_symmetry_space_group_name_H-M   'P 1'
_cell_length_a   8.80841257
_cell_length_b   8.80841190
_cell_length_c   8.80841300
_cell_angle_alpha   133.09532465
_cell_angle_beta   129.15282755
_cell_angle_gamma   71.66301632
_symmetry_Int_Tables_number   1
_chemical_formula_structural   Cs4NaErS4
_chemical_formula_sum   'Cs4 Na1 Er1 S4'
_cell_volume   378.67915305
_cell_formula_units_Z   1
loop_
 _symmetry_equiv_pos_site_id
 _symmetry_equiv_pos_as_xyz
  1  'x, y, z'
loop_
 _atom_site_type_symbol
 _atom_site_label
 _atom_site_symmetry_multiplicity
 _atom_site_fract_x
 _atom_site_fract_y
 _atom_site_fract_z
 _atom_site_occupancy
  Cs  Cs0  1  0.510080  0.864682  0.673638  1
  Cs  Cs1  1  0.489920  0.163559  0.354602  1
  Cs  Cs2  1  0.808957  0.635318  0.145398  1
  Cs  Cs3  1  0.191043  0.336441  0.826362  1
  Na  Na4  1  0.000000  0.250000  0.250000  1
  Er  Er5  1  0.000000  0.750000  0.750000  1
  S  S6  1  0.090061  0.871990  0.165876  1
  S  S7  1  0.706114  0.424186  0.334124  1
  S  S8  1  0.909939  0.075814  0.781928  1
  S  S9  1  0.293887  0.628010  0.718072  1
