# generated using pymatgen
data_PrY2Al7Cu2
_symmetry_space_group_name_H-M   'P 1'
_cell_length_a   9.15754644
_cell_length_b   9.15754717
_cell_length_c   9.15754626
_cell_angle_alpha   35.18065786
_cell_angle_beta   35.18065248
_cell_angle_gamma   35.18065303
_symmetry_Int_Tables_number   1
_chemical_formula_structural   PrY2Al7Cu2
_chemical_formula_sum   'Pr1 Y2 Al7 Cu2'
_cell_volume   227.69104794
_cell_formula_units_Z   1
loop_
 _symmetry_equiv_pos_site_id
 _symmetry_equiv_pos_as_xyz
  1  'x, y, z'
loop_
 _atom_site_type_symbol
 _atom_site_label
 _atom_site_symmetry_multiplicity
 _atom_site_fract_x
 _atom_site_fract_y
 _atom_site_fract_z
 _atom_site_occupancy
  Pr  Pr0  1  0.000000  0.000000  0.000000  1
  Y  Y1  1  0.857803  0.857803  0.857803  1
  Y  Y2  1  0.142197  0.142197  0.142197  1
  Al  Al3  1  0.417627  0.417627  0.926343  1
  Al  Al4  1  0.926343  0.417627  0.417627  1
  Al  Al5  1  0.417627  0.926343  0.417627  1
  Al  Al6  1  0.500000  0.500000  0.500000  1
  Al  Al7  1  0.582373  0.073657  0.582373  1
  Al  Al8  1  0.073657  0.582373  0.582373  1
  Al  Al9  1  0.582373  0.582373  0.073657  1
  Cu  Cu10  1  0.664586  0.664586  0.664586  1
  Cu  Cu11  1  0.335414  0.335414  0.335414  1
