# generated using pymatgen
data_Ho5Th3(MgFe)2
_symmetry_space_group_name_H-M   'P 1'
_cell_length_a   9.55289178
_cell_length_b   9.64824845
_cell_length_c   9.64824985
_cell_angle_alpha   59.34719242
_cell_angle_beta   60.32640802
_cell_angle_gamma   60.32640126
_symmetry_Int_Tables_number   1
_chemical_formula_structural   Ho5Th3(MgFe)2
_chemical_formula_sum   'Ho10 Th6 Mg4 Fe4'
_cell_volume   628.68465592
_cell_formula_units_Z   2
loop_
 _symmetry_equiv_pos_site_id
 _symmetry_equiv_pos_as_xyz
  1  'x, y, z'
loop_
 _atom_site_type_symbol
 _atom_site_label
 _atom_site_symmetry_multiplicity
 _atom_site_fract_x
 _atom_site_fract_y
 _atom_site_fract_z
 _atom_site_occupancy
  Ho  Ho0  1  0.188819  0.811181  0.188819  1
  Ho  Ho1  1  0.811181  0.188819  0.811181  1
  Ho  Ho2  1  0.188819  0.188819  0.811181  1
  Ho  Ho3  1  0.811181  0.811181  0.188819  1
  Ho  Ho4  1  0.933973  0.566027  0.566027  1
  Ho  Ho5  1  0.566027  0.933973  0.933973  1
  Ho  Ho6  1  0.562027  0.937973  0.562027  1
  Ho  Ho7  1  0.937973  0.562027  0.937973  1
  Ho  Ho8  1  0.562027  0.562027  0.937973  1
  Ho  Ho9  1  0.937973  0.937973  0.562027  1
  Th  Th10  1  0.339869  0.345376  0.345376  1
  Th  Th11  1  0.345376  0.339869  0.969380  1
  Th  Th12  1  0.345376  0.969380  0.339869  1
  Th  Th13  1  0.969380  0.345376  0.345376  1
  Th  Th14  1  0.817481  0.182519  0.182519  1
  Th  Th15  1  0.182519  0.817481  0.817481  1
  Mg  Mg16  1  0.582427  0.579007  0.579007  1
  Mg  Mg17  1  0.579007  0.582427  0.259560  1
  Mg  Mg18  1  0.579007  0.259560  0.582427  1
  Mg  Mg19  1  0.259560  0.579007  0.579007  1
  Fe  Fe20  1  0.123668  0.150489  0.150489  1
  Fe  Fe21  1  0.150489  0.123668  0.575353  1
  Fe  Fe22  1  0.150489  0.575353  0.123668  1
  Fe  Fe23  1  0.575353  0.150489  0.150489  1
