# generated using pymatgen
data_Er2TmLu5Au4
_symmetry_space_group_name_H-M   'P 1'
_cell_length_a   4.83168200
_cell_length_b   7.01695911
_cell_length_c   8.79594520
_cell_angle_alpha   89.95542442
_cell_angle_beta   90.00000000
_cell_angle_gamma   90.00000000
_symmetry_Int_Tables_number   1
_chemical_formula_structural   Er2TmLu5Au4
_chemical_formula_sum   'Er2 Tm1 Lu5 Au4'
_cell_volume   298.21512932
_cell_formula_units_Z   1
loop_
 _symmetry_equiv_pos_site_id
 _symmetry_equiv_pos_as_xyz
  1  'x, y, z'
loop_
 _atom_site_type_symbol
 _atom_site_label
 _atom_site_symmetry_multiplicity
 _atom_site_fract_x
 _atom_site_fract_y
 _atom_site_fract_z
 _atom_site_occupancy
  Er  Er0  1  0.250000  0.982400  0.321299  1
  Er  Er1  1  0.750000  0.517557  0.821630  1
  Tm  Tm2  1  0.750000  0.017661  0.678444  1
  Lu  Lu3  1  0.250000  0.850396  0.923323  1
  Lu  Lu4  1  0.250000  0.350522  0.576589  1
  Lu  Lu5  1  0.750000  0.149896  0.076895  1
  Lu  Lu6  1  0.750000  0.649388  0.422731  1
  Lu  Lu7  1  0.250000  0.482311  0.178241  1
  Au  Au8  1  0.250000  0.256018  0.898160  1
  Au  Au9  1  0.250000  0.756057  0.602420  1
  Au  Au10  1  0.750000  0.743621  0.102499  1
  Au  Au11  1  0.750000  0.244172  0.397770  1
