# generated using pymatgen
data_HoTm3Al18Ir5Pt
_symmetry_space_group_name_H-M   'P 1'
_cell_length_a   7.54101874
_cell_length_b   7.54108431
_cell_length_c   9.43706500
_cell_angle_alpha   89.97103515
_cell_angle_beta   89.97350834
_cell_angle_gamma   119.57262747
_symmetry_Int_Tables_number   1
_chemical_formula_structural   HoTm3Al18Ir5Pt
_chemical_formula_sum   'Ho1 Tm3 Al18 Ir5 Pt1'
_cell_volume   466.75116951
_cell_formula_units_Z   1
loop_
 _symmetry_equiv_pos_site_id
 _symmetry_equiv_pos_as_xyz
  1  'x, y, z'
loop_
 _atom_site_type_symbol
 _atom_site_label
 _atom_site_symmetry_multiplicity
 _atom_site_fract_x
 _atom_site_fract_y
 _atom_site_fract_z
 _atom_site_occupancy
  Ho  Ho0  1  0.994499  0.670830  0.250724  1
  Tm  Tm1  1  0.005269  0.328951  0.749334  1
  Tm  Tm2  1  0.671045  0.994919  0.250668  1
  Tm  Tm3  1  0.328877  0.005376  0.749207  1
  Al  Al4  1  0.128306  0.127741  0.250231  1
  Al  Al5  1  0.872569  0.871845  0.749742  1
  Al  Al6  1  0.003633  0.335060  0.076328  1
  Al  Al7  1  0.002486  0.668251  0.923291  1
  Al  Al8  1  0.000164  0.664727  0.575098  1
  Al  Al9  1  0.335605  0.000135  0.425430  1
  Al  Al10  1  0.000428  0.334490  0.424864  1
  Al  Al11  1  0.665179  0.999562  0.575259  1
  Al  Al12  1  0.664616  0.996360  0.923553  1
  Al  Al13  1  0.332091  0.997849  0.076211  1
  Al  Al14  1  0.332773  0.332561  0.553507  1
  Al  Al15  1  0.667182  0.667225  0.446804  1
  Al  Al16  1  0.666388  0.669759  0.056249  1
  Al  Al17  1  0.330275  0.333375  0.943460  1
  Al  Al18  1  0.340535  0.549363  0.250306  1
  Al  Al19  1  0.659862  0.452846  0.747585  1
  Al  Al20  1  0.546624  0.339704  0.252436  1
  Al  Al21  1  0.450532  0.659662  0.749690  1
  Ir  Ir22  1  0.327896  0.672073  0.999918  1
  Ir  Ir23  1  0.328195  0.671783  0.500085  1
  Ir  Ir24  1  0.672319  0.327614  0.500102  1
  Ir  Ir25  1  0.999795  0.000433  0.999858  1
  Ir  Ir26  1  0.000362  0.999936  0.500133  1
  Pt  Pt27  1  0.672496  0.327570  0.999927  1
