# generated using pymatgen
data_Ac3TlSn4
_symmetry_space_group_name_H-M   'P 1'
_cell_length_a   6.94706717
_cell_length_b   6.94706710
_cell_length_c   11.00396130
_cell_angle_alpha   90.27580595
_cell_angle_beta   90.27579758
_cell_angle_gamma   102.37027223
_symmetry_Int_Tables_number   1
_chemical_formula_structural   Ac3TlSn4
_chemical_formula_sum   'Ac6 Tl2 Sn8'
_cell_volume   518.72547965
_cell_formula_units_Z   2
loop_
 _symmetry_equiv_pos_site_id
 _symmetry_equiv_pos_as_xyz
  1  'x, y, z'
loop_
 _atom_site_type_symbol
 _atom_site_label
 _atom_site_symmetry_multiplicity
 _atom_site_fract_x
 _atom_site_fract_y
 _atom_site_fract_z
 _atom_site_occupancy
  Ac  Ac0  1  0.795667  0.204333  0.000000  1
  Ac  Ac1  1  0.204333  0.795667  0.000000  1
  Ac  Ac2  1  0.202625  0.797375  0.500000  1
  Ac  Ac3  1  0.797375  0.202625  0.500000  1
  Ac  Ac4  1  0.634842  0.634842  0.254987  1
  Ac  Ac5  1  0.365158  0.365158  0.745013  1
  Tl  Tl6  1  0.309827  0.309827  0.039400  1
  Tl  Tl7  1  0.690173  0.690173  0.960600  1
  Sn  Sn8  1  0.080779  0.489077  0.248066  1
  Sn  Sn9  1  0.919222  0.510923  0.751934  1
  Sn  Sn10  1  0.489077  0.080778  0.248066  1
  Sn  Sn11  1  0.510923  0.919222  0.751934  1
  Sn  Sn12  1  0.032565  0.032565  0.249464  1
  Sn  Sn13  1  0.967435  0.967435  0.750536  1
  Sn  Sn14  1  0.687859  0.687859  0.553538  1
  Sn  Sn15  1  0.312141  0.312141  0.446462  1
