# generated using pymatgen
data_Dy9Th3(AlAu5)4
_symmetry_space_group_name_H-M   'P 1'
_cell_length_a   8.57195600
_cell_length_b   8.57195621
_cell_length_c   13.63086200
_cell_angle_alpha   90.00000000
_cell_angle_beta   90.00000000
_cell_angle_gamma   128.44201251
_symmetry_Int_Tables_number   1
_chemical_formula_structural   Dy9Th3(AlAu5)4
_chemical_formula_sum   'Dy9 Th3 Al4 Au20'
_cell_volume   784.47088326
_cell_formula_units_Z   1
loop_
 _symmetry_equiv_pos_site_id
 _symmetry_equiv_pos_as_xyz
  1  'x, y, z'
loop_
 _atom_site_type_symbol
 _atom_site_label
 _atom_site_symmetry_multiplicity
 _atom_site_fract_x
 _atom_site_fract_y
 _atom_site_fract_z
 _atom_site_occupancy
  Dy  Dy0  1  0.681120  0.318880  0.750000  1
  Dy  Dy1  1  0.632212  0.367788  0.466017  1
  Dy  Dy2  1  0.367603  0.632397  0.536633  1
  Dy  Dy3  1  0.632212  0.367788  0.033983  1
  Dy  Dy4  1  0.367603  0.632397  0.963367  1
  Dy  Dy5  1  0.882237  0.117763  0.949822  1
  Dy  Dy6  1  0.118593  0.881407  0.047182  1
  Dy  Dy7  1  0.882237  0.117763  0.550178  1
  Dy  Dy8  1  0.118593  0.881407  0.452818  1
  Th  Th9  1  0.931179  0.068821  0.250000  1
  Th  Th10  1  0.069323  0.930677  0.750000  1
  Th  Th11  1  0.317845  0.682155  0.250000  1
  Al  Al12  1  0.719464  0.280536  0.250000  1
  Al  Al13  1  0.280722  0.719278  0.750000  1
  Al  Al14  1  0.533804  0.466196  0.250000  1
  Al  Al15  1  0.467008  0.532992  0.750000  1
  Au  Au16  1  0.321443  0.068381  0.250000  1
  Au  Au17  1  0.068965  0.322129  0.750000  1
  Au  Au18  1  0.677871  0.931035  0.750000  1
  Au  Au19  1  0.931619  0.678557  0.250000  1
  Au  Au20  1  0.573748  0.007223  0.399223  1
  Au  Au21  1  0.005180  0.572450  0.603436  1
  Au  Au22  1  0.573748  0.007223  0.100777  1
  Au  Au23  1  0.005180  0.572450  0.896564  1
  Au  Au24  1  0.427550  0.994820  0.603436  1
  Au  Au25  1  0.992777  0.426252  0.399223  1
  Au  Au26  1  0.427550  0.994820  0.896564  1
  Au  Au27  1  0.992777  0.426252  0.100777  1
  Au  Au28  1  0.681434  0.735839  0.396507  1
  Au  Au29  1  0.736250  0.681930  0.603910  1
  Au  Au30  1  0.681434  0.735839  0.103493  1
  Au  Au31  1  0.736250  0.681930  0.896090  1
  Au  Au32  1  0.318070  0.263750  0.603910  1
  Au  Au33  1  0.264161  0.318566  0.396507  1
  Au  Au34  1  0.318070  0.263750  0.896090  1
  Au  Au35  1  0.264161  0.318566  0.103493  1
