# generated using pymatgen
data_LiSiAu3
_symmetry_space_group_name_H-M   'P 1'
_cell_length_a   8.89697800
_cell_length_b   8.89697800
_cell_length_c   8.89697800
_cell_angle_alpha   90.00000000
_cell_angle_beta   90.00000000
_cell_angle_gamma   90.00000000
_symmetry_Int_Tables_number   1
_chemical_formula_structural   LiSiAu3
_chemical_formula_sum   'Li8 Si8 Au24'
_cell_volume   704.25112595
_cell_formula_units_Z   8
loop_
 _symmetry_equiv_pos_site_id
 _symmetry_equiv_pos_as_xyz
  1  'x, y, z'
loop_
 _atom_site_type_symbol
 _atom_site_label
 _atom_site_symmetry_multiplicity
 _atom_site_fract_x
 _atom_site_fract_y
 _atom_site_fract_z
 _atom_site_occupancy
  Li  Li0  1  0.104775  0.104775  0.104775  1
  Li  Li1  1  0.395225  0.895225  0.604775  1
  Li  Li2  1  0.604775  0.395225  0.895225  1
  Li  Li3  1  0.895225  0.604775  0.395225  1
  Li  Li4  1  0.895225  0.895225  0.895225  1
  Li  Li5  1  0.604775  0.104775  0.395225  1
  Li  Li6  1  0.395225  0.604775  0.104775  1
  Li  Li7  1  0.104775  0.395225  0.604775  1
  Si  Si8  1  0.121311  0.878689  0.378689  1
  Si  Si9  1  0.878689  0.378689  0.121311  1
  Si  Si10  1  0.621311  0.621311  0.621311  1
  Si  Si11  1  0.621311  0.878689  0.121311  1
  Si  Si12  1  0.878689  0.121311  0.621311  1
  Si  Si13  1  0.121311  0.621311  0.878689  1
  Si  Si14  1  0.378689  0.378689  0.378689  1
  Si  Si15  1  0.378689  0.121311  0.878689  1
  Au  Au16  1  0.587506  0.726866  0.368372  1
  Au  Au17  1  0.726866  0.368372  0.587506  1
  Au  Au18  1  0.773134  0.631628  0.087506  1
  Au  Au19  1  0.273134  0.868372  0.912494  1
  Au  Au20  1  0.631628  0.087506  0.773134  1
  Au  Au21  1  0.587506  0.773134  0.868372  1
  Au  Au22  1  0.868372  0.587506  0.773134  1
  Au  Au23  1  0.631628  0.412494  0.273134  1
  Au  Au24  1  0.087506  0.726866  0.131628  1
  Au  Au25  1  0.131628  0.087506  0.726866  1
  Au  Au26  1  0.912494  0.226866  0.368372  1
  Au  Au27  1  0.412494  0.273134  0.631628  1
  Au  Au28  1  0.368372  0.912494  0.226866  1
  Au  Au29  1  0.273134  0.631628  0.412494  1
  Au  Au30  1  0.226866  0.368372  0.912494  1
  Au  Au31  1  0.726866  0.131628  0.087506  1
  Au  Au32  1  0.087506  0.773134  0.631628  1
  Au  Au33  1  0.868372  0.912494  0.273134  1
  Au  Au34  1  0.912494  0.273134  0.868372  1
  Au  Au35  1  0.368372  0.587506  0.726866  1
  Au  Au36  1  0.131628  0.412494  0.226866  1
  Au  Au37  1  0.412494  0.226866  0.131628  1
  Au  Au38  1  0.226866  0.131628  0.412494  1
  Au  Au39  1  0.773134  0.868372  0.587506  1
