# generated using pymatgen
data_Ba6Y2MnNiO12
_symmetry_space_group_name_H-M   'P 1'
_cell_length_a   7.15985805
_cell_length_b   7.15985793
_cell_length_c   7.15985994
_cell_angle_alpha   93.43579687
_cell_angle_beta   93.43580194
_cell_angle_gamma   93.43578740
_symmetry_Int_Tables_number   1
_chemical_formula_structural   Ba6Y2MnNiO12
_chemical_formula_sum   'Ba6 Y2 Mn1 Ni1 O12'
_cell_volume   364.97776455
_cell_formula_units_Z   1
loop_
 _symmetry_equiv_pos_site_id
 _symmetry_equiv_pos_as_xyz
  1  'x, y, z'
loop_
 _atom_site_type_symbol
 _atom_site_label
 _atom_site_symmetry_multiplicity
 _atom_site_fract_x
 _atom_site_fract_y
 _atom_site_fract_z
 _atom_site_occupancy
  Ba  Ba0  1  0.377535  0.111961  0.751059  1
  Ba  Ba1  1  0.751059  0.377536  0.111962  1
  Ba  Ba2  1  0.248940  0.622465  0.888039  1
  Ba  Ba3  1  0.622464  0.888038  0.248942  1
  Ba  Ba4  1  0.111962  0.751059  0.377536  1
  Ba  Ba5  1  0.888038  0.248941  0.622465  1
  Y  Y6  1  0.755109  0.755110  0.755109  1
  Y  Y7  1  0.244892  0.244891  0.244891  1
  Mn  Mn8  1  0.500000  0.500000  0.500000  1
  Ni  Ni9  1  0.000000  0.000000  0.000000  1
  O  O10  1  0.765572  0.584768  0.463586  1
  O  O11  1  0.584769  0.463585  0.765572  1
  O  O12  1  0.463585  0.765572  0.584769  1
  O  O13  1  0.034653  0.898646  0.709768  1
  O  O14  1  0.898645  0.709767  0.034653  1
  O  O15  1  0.709768  0.034653  0.898645  1
  O  O16  1  0.234429  0.415231  0.536415  1
  O  O17  1  0.415231  0.536414  0.234429  1
  O  O18  1  0.536414  0.234429  0.415230  1
  O  O19  1  0.965347  0.101355  0.290233  1
  O  O20  1  0.290233  0.965346  0.101354  1
  O  O21  1  0.101354  0.290232  0.965346  1
