# generated using pymatgen
data_TbScAlNi
_symmetry_space_group_name_H-M   'P 1'
_cell_length_a   5.43310728
_cell_length_b   5.43310727
_cell_length_c   7.30909600
_cell_angle_alpha   90.00000000
_cell_angle_beta   90.00000000
_cell_angle_gamma   46.61324811
_symmetry_Int_Tables_number   1
_chemical_formula_structural   TbScAlNi
_chemical_formula_sum   'Tb2 Sc2 Al2 Ni2'
_cell_volume   156.79615912
_cell_formula_units_Z   2
loop_
 _symmetry_equiv_pos_site_id
 _symmetry_equiv_pos_as_xyz
  1  'x, y, z'
loop_
 _atom_site_type_symbol
 _atom_site_label
 _atom_site_symmetry_multiplicity
 _atom_site_fract_x
 _atom_site_fract_y
 _atom_site_fract_z
 _atom_site_occupancy
  Tb  Tb0  1  0.055065  0.055065  0.249828  1
  Tb  Tb1  1  0.944935  0.944935  0.749828  1
  Sc  Sc2  1  0.342988  0.342988  0.054281  1
  Sc  Sc3  1  0.657012  0.657012  0.554281  1
  Al  Al4  1  0.652116  0.652116  0.947510  1
  Al  Al5  1  0.347884  0.347884  0.447511  1
  Ni  Ni6  1  0.777800  0.777800  0.248380  1
  Ni  Ni7  1  0.222199  0.222199  0.748380  1
