# generated using pymatgen
data_Eu5NiPd
_symmetry_space_group_name_H-M   'P 1'
_cell_length_a   6.74295989
_cell_length_b   7.71208262
_cell_length_c   9.02739800
_cell_angle_alpha   96.85234543
_cell_angle_beta   111.92990714
_cell_angle_gamma   90.00000188
_symmetry_Int_Tables_number   1
_chemical_formula_structural   Eu5NiPd
_chemical_formula_sum   'Eu10 Ni2 Pd2'
_cell_volume   431.85979621
_cell_formula_units_Z   2
loop_
 _symmetry_equiv_pos_site_id
 _symmetry_equiv_pos_as_xyz
  1  'x, y, z'
loop_
 _atom_site_type_symbol
 _atom_site_label
 _atom_site_symmetry_multiplicity
 _atom_site_fract_x
 _atom_site_fract_y
 _atom_site_fract_z
 _atom_site_occupancy
  Eu  Eu0  1  0.580869  0.251595  0.006773  1
  Eu  Eu1  1  0.425902  0.751595  0.006773  1
  Eu  Eu2  1  0.990416  0.915761  0.185667  1
  Eu  Eu3  1  0.195251  0.415761  0.185667  1
  Eu  Eu4  1  0.790336  0.318980  0.428456  1
  Eu  Eu5  1  0.638121  0.818981  0.428456  1
  Eu  Eu6  1  0.361122  0.183064  0.561308  1
  Eu  Eu7  1  0.200185  0.683065  0.561308  1
  Eu  Eu8  1  0.797657  0.577644  0.816668  1
  Eu  Eu9  1  0.019012  0.077644  0.816668  1
  Ni  Ni10  1  0.819736  0.582057  0.219934  1
  Ni  Ni11  1  0.400198  0.082058  0.219934  1
  Pd  Pd12  1  0.594309  0.920899  0.781193  1
  Pd  Pd13  1  0.186883  0.420900  0.781193  1
