# generated using pymatgen
data_Lu6Zn21Cu2C
_symmetry_space_group_name_H-M   'P 1'
_cell_length_a   8.87988950
_cell_length_b   8.87988869
_cell_length_c   8.90264200
_cell_angle_alpha   59.91519470
_cell_angle_beta   59.91519772
_cell_angle_gamma   60.01576495
_symmetry_Int_Tables_number   1
_chemical_formula_structural   Lu6Zn21Cu2C
_chemical_formula_sum   'Lu6 Zn21 Cu2 C1'
_cell_volume   495.80705853
_cell_formula_units_Z   1
loop_
 _symmetry_equiv_pos_site_id
 _symmetry_equiv_pos_as_xyz
  1  'x, y, z'
loop_
 _atom_site_type_symbol
 _atom_site_label
 _atom_site_symmetry_multiplicity
 _atom_site_fract_x
 _atom_site_fract_y
 _atom_site_fract_z
 _atom_site_occupancy
  Lu  Lu0  1  0.692191  0.307809  0.308379  1
  Lu  Lu1  1  0.307809  0.692191  0.691621  1
  Lu  Lu2  1  0.307809  0.692191  0.308379  1
  Lu  Lu3  1  0.692191  0.307809  0.691621  1
  Lu  Lu4  1  0.307099  0.307099  0.692901  1
  Lu  Lu5  1  0.692901  0.692901  0.307099  1
  Zn  Zn6  1  0.119529  0.119529  0.118030  1
  Zn  Zn7  1  0.880471  0.880471  0.881970  1
  Zn  Zn8  1  0.119529  0.119529  0.642913  1
  Zn  Zn9  1  0.126227  0.642037  0.115869  1
  Zn  Zn10  1  0.880471  0.880471  0.357087  1
  Zn  Zn11  1  0.873773  0.357963  0.884131  1
  Zn  Zn12  1  0.642037  0.126227  0.115869  1
  Zn  Zn13  1  0.357963  0.873773  0.884131  1
  Zn  Zn14  1  0.500000  0.000000  0.000000  1
  Zn  Zn15  1  0.000000  0.500000  0.500000  1
  Zn  Zn16  1  0.000000  0.500000  0.000000  1
  Zn  Zn17  1  0.500000  0.000000  0.500000  1
  Zn  Zn18  1  0.000000  0.000000  0.500000  1
  Zn  Zn19  1  0.330915  0.330915  0.325068  1
  Zn  Zn20  1  0.669085  0.669085  0.674932  1
  Zn  Zn21  1  0.330915  0.330915  0.013103  1
  Zn  Zn22  1  0.329233  0.012483  0.329143  1
  Zn  Zn23  1  0.669085  0.669085  0.986897  1
  Zn  Zn24  1  0.670767  0.987517  0.670857  1
  Zn  Zn25  1  0.012483  0.329233  0.329143  1
  Zn  Zn26  1  0.987517  0.670767  0.670857  1
  Cu  Cu27  1  0.500000  0.500000  0.000000  1
  Cu  Cu28  1  0.000000  0.000000  0.000000  1
  C  C29  1  0.500000  0.500000  0.500000  1
