# generated using pymatgen
data_Na3LiSnSe4
_symmetry_space_group_name_H-M   'P 1'
_cell_length_a   10.39358600
_cell_length_b   6.96984560
_cell_length_c   14.93007058
_cell_angle_alpha   62.63476159
_cell_angle_beta   90.00000000
_cell_angle_gamma   90.00000000
_symmetry_Int_Tables_number   1
_chemical_formula_structural   Na3LiSnSe4
_chemical_formula_sum   'Na12 Li4 Sn4 Se16'
_cell_volume   960.52699846
_cell_formula_units_Z   4
loop_
 _symmetry_equiv_pos_site_id
 _symmetry_equiv_pos_as_xyz
  1  'x, y, z'
loop_
 _atom_site_type_symbol
 _atom_site_label
 _atom_site_symmetry_multiplicity
 _atom_site_fract_x
 _atom_site_fract_y
 _atom_site_fract_z
 _atom_site_occupancy
  Na  Na0  1  0.896057  0.745340  0.484010  1
  Na  Na1  1  0.358995  0.827580  0.622600  1
  Na  Na2  1  0.396057  0.254660  0.015990  1
  Na  Na3  1  0.641005  0.172420  0.377400  1
  Na  Na4  1  0.882661  0.389629  0.124951  1
  Na  Na5  1  0.617339  0.389629  0.624951  1
  Na  Na6  1  0.603943  0.745340  0.984010  1
  Na  Na7  1  0.382661  0.610371  0.375049  1
  Na  Na8  1  0.141005  0.827580  0.122600  1
  Na  Na9  1  0.858995  0.172420  0.877400  1
  Na  Na10  1  0.117339  0.610371  0.875049  1
  Na  Na11  1  0.103943  0.254660  0.515990  1
  Li  Li12  1  0.605733  0.623162  0.787635  1
  Li  Li13  1  0.105733  0.376838  0.712365  1
  Li  Li14  1  0.394267  0.376838  0.212365  1
  Li  Li15  1  0.894267  0.623162  0.287635  1
  Sn  Sn16  1  0.860847  0.890152  0.694403  1
  Sn  Sn17  1  0.639153  0.890152  0.194403  1
  Sn  Sn18  1  0.360847  0.109848  0.805597  1
  Sn  Sn19  1  0.139153  0.109848  0.305597  1
  Se  Se20  1  0.162092  0.140564  0.901220  1
  Se  Se21  1  0.930893  0.221890  0.358204  1
  Se  Se22  1  0.891187  0.282321  0.659170  1
  Se  Se23  1  0.677855  0.622776  0.381080  1
  Se  Se24  1  0.569107  0.221890  0.858204  1
  Se  Se25  1  0.662092  0.859436  0.598780  1
  Se  Se26  1  0.108813  0.717679  0.340830  1
  Se  Se27  1  0.069107  0.778110  0.641796  1
  Se  Se28  1  0.322145  0.377224  0.618920  1
  Se  Se29  1  0.430893  0.778110  0.141796  1
  Se  Se30  1  0.608813  0.282321  0.159170  1
  Se  Se31  1  0.391187  0.717679  0.840830  1
  Se  Se32  1  0.337908  0.140564  0.401220  1
  Se  Se33  1  0.177855  0.377224  0.118920  1
  Se  Se34  1  0.837908  0.859436  0.098780  1
  Se  Se35  1  0.822145  0.622776  0.881080  1
