# generated using pymatgen
data_CaYbNi7GeB2
_symmetry_space_group_name_H-M   'P 1'
_cell_length_a   5.07941038
_cell_length_b   5.08647229
_cell_length_c   6.74487600
_cell_angle_alpha   89.99398300
_cell_angle_beta   90.00292158
_cell_angle_gamma   119.97343831
_symmetry_Int_Tables_number   1
_chemical_formula_structural   CaYbNi7GeB2
_chemical_formula_sum   'Ca1 Yb1 Ni7 Ge1 B2'
_cell_volume   150.95613320
_cell_formula_units_Z   1
loop_
 _symmetry_equiv_pos_site_id
 _symmetry_equiv_pos_as_xyz
  1  'x, y, z'
loop_
 _atom_site_type_symbol
 _atom_site_label
 _atom_site_symmetry_multiplicity
 _atom_site_fract_x
 _atom_site_fract_y
 _atom_site_fract_z
 _atom_site_occupancy
  Ca  Ca0  1  0.999986  0.000022  0.500007  1
  Yb  Yb1  1  0.000025  0.000012  0.999931  1
  Ni  Ni2  1  0.333216  0.666496  0.500065  1
  Ni  Ni3  1  0.500200  0.499957  0.798041  1
  Ni  Ni4  1  0.500231  0.000482  0.798009  1
  Ni  Ni5  1  0.999731  0.499961  0.797971  1
  Ni  Ni6  1  0.500123  0.499752  0.201940  1
  Ni  Ni7  1  0.500128  0.000177  0.202003  1
  Ni  Ni8  1  0.999705  0.499776  0.201993  1
  Ge  Ge9  1  0.666652  0.333411  0.500024  1
  B  B10  1  0.666678  0.333258  0.000020  1
  B  B11  1  0.333325  0.666695  0.999996  1
