# generated using pymatgen
data_TcSn15(IrO7)2
_symmetry_space_group_name_H-M   'P 1'
_cell_length_a   7.29884432
_cell_length_b   7.29883145
_cell_length_c   13.18839672
_cell_angle_alpha   73.85064765
_cell_angle_beta   73.85062701
_cell_angle_gamma   59.49306624
_symmetry_Int_Tables_number   1
_chemical_formula_structural   TcSn15(IrO7)2
_chemical_formula_sum   'Tc1 Sn15 Ir2 O14'
_cell_volume   573.42303044
_cell_formula_units_Z   1
loop_
 _symmetry_equiv_pos_site_id
 _symmetry_equiv_pos_as_xyz
  1  'x, y, z'
loop_
 _atom_site_type_symbol
 _atom_site_label
 _atom_site_symmetry_multiplicity
 _atom_site_fract_x
 _atom_site_fract_y
 _atom_site_fract_z
 _atom_site_occupancy
  Tc  Tc0  1  0.302690  0.302692  0.694250  1
  Sn  Sn1  1  0.323617  0.855218  0.086821  1
  Sn  Sn2  1  0.424012  0.903057  0.349708  1
  Sn  Sn3  1  0.903057  0.424011  0.349708  1
  Sn  Sn4  1  0.985497  0.985496  0.614867  1
  Sn  Sn5  1  0.089337  0.570502  0.837081  1
  Sn  Sn6  1  0.570502  0.089338  0.837077  1
  Sn  Sn7  1  0.847102  0.847102  0.083978  1
  Sn  Sn8  1  0.559119  0.559117  0.862736  1
  Sn  Sn9  1  0.903606  0.903606  0.343384  1
  Sn  Sn10  1  0.000279  0.508805  0.573007  1
  Sn  Sn11  1  0.508805  0.000279  0.573007  1
  Sn  Sn12  1  0.512510  0.512510  0.579202  1
  Sn  Sn13  1  0.099683  0.099686  0.821951  1
  Sn  Sn14  1  0.855218  0.323618  0.086821  1
  Sn  Sn15  1  0.323868  0.323867  0.110628  1
  Ir  Ir16  1  0.708382  0.708383  0.968501  1
  Ir  Ir17  1  0.116663  0.116662  0.231436  1
  O  O18  1  0.771856  0.771855  0.254828  1
  O  O19  1  0.770419  0.233679  0.827101  1
  O  O20  1  0.233680  0.770421  0.827101  1
  O  O21  1  0.028383  0.574337  0.403602  1
  O  O22  1  0.574338  0.028383  0.403603  1
  O  O23  1  0.659159  0.659159  0.624961  1
  O  O24  1  0.574688  0.574686  0.409058  1
  O  O25  1  0.372130  0.372130  0.945420  1
  O  O26  1  0.881118  0.881118  0.517948  1
  O  O27  1  0.052639  0.052639  0.994092  1
  O  O28  1  0.305289  0.880829  0.527638  1
  O  O29  1  0.880829  0.305289  0.527638  1
  O  O30  1  0.184604  0.645630  0.119659  1
  O  O31  1  0.645631  0.184604  0.119659  1
