# generated using pymatgen
data_DyTm3MnB12Rh
_symmetry_space_group_name_H-M   'P 1'
_cell_length_a   3.58780300
_cell_length_b   9.06377015
_cell_length_c   11.44009702
_cell_angle_alpha   90.15402401
_cell_angle_beta   90.00000000
_cell_angle_gamma   90.00000000
_symmetry_Int_Tables_number   1
_chemical_formula_structural   DyTm3MnB12Rh
_chemical_formula_sum   'Dy2 Tm6 Mn2 B24 Rh2'
_cell_volume   372.01941952
_cell_formula_units_Z   2
loop_
 _symmetry_equiv_pos_site_id
 _symmetry_equiv_pos_as_xyz
  1  'x, y, z'
loop_
 _atom_site_type_symbol
 _atom_site_label
 _atom_site_symmetry_multiplicity
 _atom_site_fract_x
 _atom_site_fract_y
 _atom_site_fract_z
 _atom_site_occupancy
  Dy  Dy0  1  0.500000  0.317913  0.410126  1
  Dy  Dy1  1  0.500000  0.682087  0.589874  1
  Tm  Tm2  1  0.500000  0.172020  0.918061  1
  Tm  Tm3  1  0.500000  0.827980  0.081939  1
  Tm  Tm4  1  0.500000  0.439796  0.126009  1
  Tm  Tm5  1  0.500000  0.560204  0.873991  1
  Tm  Tm6  1  0.500000  0.052128  0.630020  1
  Tm  Tm7  1  0.500000  0.947872  0.369980  1
  Mn  Mn8  1  0.500000  0.139099  0.180141  1
  Mn  Mn9  1  0.500000  0.860901  0.819859  1
  B  B10  1  0.000000  0.106799  0.470921  1
  B  B11  1  0.000000  0.893201  0.529079  1
  B  B12  1  0.000000  0.390635  0.969996  1
  B  B13  1  0.000000  0.609365  0.030004  1
  B  B14  1  0.000000  0.131665  0.312988  1
  B  B15  1  0.000000  0.868335  0.687012  1
  B  B16  1  0.000000  0.367594  0.817586  1
  B  B17  1  0.000000  0.632406  0.182414  1
  B  B18  1  0.000000  0.053605  0.067658  1
  B  B19  1  0.000000  0.946395  0.932342  1
  B  B20  1  0.000000  0.445845  0.566660  1
  B  B21  1  0.000000  0.554155  0.433340  1
  B  B22  1  0.000000  0.482384  0.286113  1
  B  B23  1  0.000000  0.517616  0.713887  1
  B  B24  1  0.000000  0.015017  0.788757  1
  B  B25  1  0.000000  0.984983  0.211243  1
  B  B26  1  0.000000  0.246018  0.081196  1
  B  B27  1  0.000000  0.753982  0.918804  1
  B  B28  1  0.000000  0.249062  0.579458  1
  B  B29  1  0.000000  0.750938  0.420542  1
  B  B30  1  0.000000  0.290349  0.232807  1
  B  B31  1  0.000000  0.709651  0.767193  1
  B  B32  1  0.000000  0.206829  0.735528  1
  B  B33  1  0.000000  0.793171  0.264472  1
  Rh  Rh34  1  0.500000  0.360925  0.679648  1
  Rh  Rh35  1  0.500000  0.639075  0.320352  1
