# generated using pymatgen
data_Li3AgP8
_symmetry_space_group_name_H-M   'P 1'
_cell_length_a   5.10320457
_cell_length_b   6.18882315
_cell_length_c   7.78224310
_cell_angle_alpha   66.18450365
_cell_angle_beta   89.42172201
_cell_angle_gamma   88.94763332
_symmetry_Int_Tables_number   1
_chemical_formula_structural   Li3AgP8
_chemical_formula_sum   'Li3 Ag1 P8'
_cell_volume   224.81788104
_cell_formula_units_Z   1
loop_
 _symmetry_equiv_pos_site_id
 _symmetry_equiv_pos_as_xyz
  1  'x, y, z'
loop_
 _atom_site_type_symbol
 _atom_site_label
 _atom_site_symmetry_multiplicity
 _atom_site_fract_x
 _atom_site_fract_y
 _atom_site_fract_z
 _atom_site_occupancy
  Li  Li0  1  0.952875  0.140840  0.096018  1
  Li  Li1  1  0.454976  0.855528  0.407319  1
  Li  Li2  1  0.045068  0.858074  0.900954  1
  Ag  Ag3  1  0.545800  0.140436  0.593672  1
  P  P4  1  0.593214  0.407261  0.916648  1
  P  P5  1  0.092177  0.592860  0.583959  1
  P  P6  1  0.407749  0.592494  0.085359  1
  P  P7  1  0.909026  0.413001  0.414954  1
  P  P8  1  0.236643  0.273734  0.301917  1
  P  P9  1  0.735790  0.728196  0.192991  1
  P  P10  1  0.761565  0.724448  0.699353  1
  P  P11  1  0.265117  0.273130  0.806855  1
