# generated using pymatgen
data_Ho7Er2TmBi6
_symmetry_space_group_name_H-M   'P 1'
_cell_length_a   8.22579500
_cell_length_b   9.48778700
_cell_length_c   11.99921800
_cell_angle_alpha   90.00030307
_cell_angle_beta   90.00000000
_cell_angle_gamma   90.00000000
_symmetry_Int_Tables_number   1
_chemical_formula_structural   Ho7Er2TmBi6
_chemical_formula_sum   'Ho14 Er4 Tm2 Bi12'
_cell_volume   936.47405963
_cell_formula_units_Z   2
loop_
 _symmetry_equiv_pos_site_id
 _symmetry_equiv_pos_as_xyz
  1  'x, y, z'
loop_
 _atom_site_type_symbol
 _atom_site_label
 _atom_site_symmetry_multiplicity
 _atom_site_fract_x
 _atom_site_fract_y
 _atom_site_fract_z
 _atom_site_occupancy
  Ho  Ho0  1  0.353509  0.750036  0.216422  1
  Ho  Ho1  1  0.853509  0.749964  0.283578  1
  Ho  Ho2  1  0.646626  0.249938  0.783565  1
  Ho  Ho3  1  0.146626  0.250062  0.716435  1
  Ho  Ho4  1  0.691875  0.935654  0.058977  1
  Ho  Ho5  1  0.191875  0.564346  0.441023  1
  Ho  Ho6  1  0.476775  0.249889  0.488922  1
  Ho  Ho7  1  0.976775  0.250111  0.011078  1
  Ho  Ho8  1  0.523650  0.750120  0.511206  1
  Ho  Ho9  1  0.023650  0.749880  0.988794  1
  Ho  Ho10  1  0.314359  0.250035  0.217991  1
  Ho  Ho11  1  0.814359  0.249965  0.282009  1
  Ho  Ho12  1  0.685713  0.749924  0.781934  1
  Ho  Ho13  1  0.185713  0.750076  0.718066  1
  Er  Er14  1  0.691835  0.564683  0.059052  1
  Er  Er15  1  0.191835  0.935317  0.440948  1
  Er  Er16  1  0.308151  0.064925  0.940989  1
  Er  Er17  1  0.808151  0.435075  0.559011  1
  Tm  Tm18  1  0.308003  0.435058  0.940949  1
  Tm  Tm19  1  0.808003  0.064942  0.559051  1
  Bi  Bi20  1  0.405241  0.749610  0.957372  1
  Bi  Bi21  1  0.905241  0.750390  0.542628  1
  Bi  Bi22  1  0.594347  0.250678  0.042392  1
  Bi  Bi23  1  0.094347  0.249322  0.457608  1
  Bi  Bi24  1  0.566084  0.996112  0.325726  1
  Bi  Bi25  1  0.066084  0.503888  0.174274  1
  Bi  Bi26  1  0.433772  0.496111  0.674411  1
  Bi  Bi27  1  0.933772  0.003889  0.825589  1
  Bi  Bi28  1  0.433818  0.003927  0.674314  1
  Bi  Bi29  1  0.933818  0.496073  0.825686  1
  Bi  Bi30  1  0.566240  0.503882  0.325642  1
  Bi  Bi31  1  0.066240  0.996118  0.174358  1
