# generated using pymatgen
data_V2Fe3NiPt2
_symmetry_space_group_name_H-M   'P 1'
_cell_length_a   3.77797900
_cell_length_b   3.67886100
_cell_length_c   7.42620500
_cell_angle_alpha   90.00000000
_cell_angle_beta   90.00000000
_cell_angle_gamma   90.00000000
_symmetry_Int_Tables_number   1
_chemical_formula_structural   V2Fe3NiPt2
_chemical_formula_sum   'V2 Fe3 Ni1 Pt2'
_cell_volume   103.21429543
_cell_formula_units_Z   1
loop_
 _symmetry_equiv_pos_site_id
 _symmetry_equiv_pos_as_xyz
  1  'x, y, z'
loop_
 _atom_site_type_symbol
 _atom_site_label
 _atom_site_symmetry_multiplicity
 _atom_site_fract_x
 _atom_site_fract_y
 _atom_site_fract_z
 _atom_site_occupancy
  V  V0  1  0.500000  0.000000  0.500000  1
  V  V1  1  0.500000  0.000000  0.000000  1
  Fe  Fe2  1  0.500000  0.500000  0.251299  1
  Fe  Fe3  1  0.500000  0.500000  0.748701  1
  Fe  Fe4  1  0.000000  0.500000  0.500000  1
  Ni  Ni5  1  0.000000  0.500000  0.000000  1
  Pt  Pt6  1  0.000000  0.000000  0.246468  1
  Pt  Pt7  1  0.000000  0.000000  0.753532  1
