# generated using pymatgen
data_Re7Si14Mo
_symmetry_space_group_name_H-M   'P 1'
_cell_length_a   3.15440214
_cell_length_b   8.38206070
_cell_length_c   11.75051156
_cell_angle_alpha   92.42714778
_cell_angle_beta   97.71375964
_cell_angle_gamma   89.99999781
_symmetry_Int_Tables_number   1
_chemical_formula_structural   Re7Si14Mo
_chemical_formula_sum   'Re7 Si14 Mo1'
_cell_volume   307.59541897
_cell_formula_units_Z   1
loop_
 _symmetry_equiv_pos_site_id
 _symmetry_equiv_pos_as_xyz
  1  'x, y, z'
loop_
 _atom_site_type_symbol
 _atom_site_label
 _atom_site_symmetry_multiplicity
 _atom_site_fract_x
 _atom_site_fract_y
 _atom_site_fract_z
 _atom_site_occupancy
  Re  Re0  1  0.269214  0.495123  0.538429  1
  Re  Re1  1  0.394774  0.365439  0.789546  1
  Re  Re2  1  0.520410  0.232341  0.040820  1
  Re  Re3  1  0.649817  0.114141  0.299634  1
  Re  Re4  1  0.766365  0.976337  0.532732  1
  Re  Re5  1  0.895112  0.859428  0.790225  1
  Re  Re6  1  0.019147  0.716365  0.038296  1
  Si  Si7  1  0.183225  0.901583  0.366451  1
  Si  Si8  1  0.313218  0.787516  0.626435  1
  Si  Si9  1  0.437064  0.659735  0.874128  1
  Si  Si10  1  0.562244  0.521297  0.124490  1
  Si  Si11  1  0.688332  0.398653  0.376664  1
  Si  Si12  1  0.842634  0.179381  0.685267  1
  Si  Si13  1  0.008374  0.002335  0.016748  1
  Si  Si14  1  0.102837  0.300192  0.205673  1
  Si  Si15  1  0.237204  0.196358  0.474407  1
  Si  Si16  1  0.727661  0.691831  0.455323  1
  Si  Si17  1  0.850694  0.558947  0.701387  1
  Si  Si18  1  0.976500  0.428414  0.953000  1
  Si  Si19  1  0.594523  0.839957  0.189047  1
  Si  Si20  1  0.424823  0.080207  0.849646  1
  Mo  Mo21  1  0.143695  0.607817  0.287390  1
