# generated using pymatgen
data_Sm4B16OsRu13
_symmetry_space_group_name_H-M   'P 1'
_cell_length_a   6.45910100
_cell_length_b   6.45910100
_cell_length_c   10.05849800
_cell_angle_alpha   90.00000000
_cell_angle_beta   90.00000000
_cell_angle_gamma   90.00000000
_symmetry_Int_Tables_number   1
_chemical_formula_structural   Sm4B16OsRu13
_chemical_formula_sum   'Sm4 B16 Os1 Ru13'
_cell_volume   419.64039301
_cell_formula_units_Z   1
loop_
 _symmetry_equiv_pos_site_id
 _symmetry_equiv_pos_as_xyz
  1  'x, y, z'
loop_
 _atom_site_type_symbol
 _atom_site_label
 _atom_site_symmetry_multiplicity
 _atom_site_fract_x
 _atom_site_fract_y
 _atom_site_fract_z
 _atom_site_occupancy
  Sm  Sm0  1  0.734354  0.873893  0.999126  1
  Sm  Sm1  1  0.126107  0.734354  0.500874  1
  Sm  Sm2  1  0.873893  0.265646  0.500874  1
  Sm  Sm3  1  0.265646  0.126107  0.999126  1
  B  B4  1  0.500000  0.000000  0.588860  1
  B  B5  1  0.500000  0.000000  0.411204  1
  B  B6  1  0.898236  0.272437  0.166266  1
  B  B7  1  0.102243  0.725868  0.831463  1
  B  B8  1  0.500000  0.500000  0.340877  1
  B  B9  1  0.500000  0.500000  0.840866  1
  B  B10  1  0.274132  0.102243  0.668537  1
  B  B11  1  0.101764  0.727563  0.166266  1
  B  B12  1  0.272437  0.101764  0.333734  1
  B  B13  1  0.897757  0.274132  0.831463  1
  B  B14  1  0.500000  0.500000  0.659134  1
  B  B15  1  0.500000  0.500000  0.159123  1
  B  B16  1  0.000000  0.500000  0.911140  1
  B  B17  1  0.725868  0.897757  0.668537  1
  B  B18  1  0.727563  0.898236  0.333734  1
  B  B19  1  0.000000  0.500000  0.088796  1
  Os  Os20  1  0.000000  0.000000  0.250000  1
  Ru  Ru21  1  0.203407  0.399180  0.751731  1
  Ru  Ru22  1  0.399503  0.287478  0.500250  1
  Ru  Ru23  1  0.399460  0.796041  0.251940  1
  Ru  Ru24  1  0.203959  0.399460  0.248060  1
  Ru  Ru25  1  0.600497  0.712522  0.500250  1
  Ru  Ru26  1  0.600820  0.203407  0.748269  1
  Ru  Ru27  1  0.287478  0.600497  0.999750  1
  Ru  Ru28  1  0.712522  0.399503  0.999750  1
  Ru  Ru29  1  0.796041  0.600540  0.248060  1
  Ru  Ru30  1  0.796593  0.600820  0.751731  1
  Ru  Ru31  1  0.399180  0.796593  0.748269  1
  Ru  Ru32  1  0.600540  0.203959  0.251940  1
  Ru  Ru33  1  0.000000  0.000000  0.750000  1
