# generated using pymatgen
data_CaYbEuPd2
_symmetry_space_group_name_H-M   'P 1'
_cell_length_a   7.70843371
_cell_length_b   7.70843439
_cell_length_c   7.70843413
_cell_angle_alpha   70.98162740
_cell_angle_beta   70.98162971
_cell_angle_gamma   70.98162648
_symmetry_Int_Tables_number   1
_chemical_formula_structural   CaYbEuPd2
_chemical_formula_sum   'Ca3 Yb3 Eu3 Pd6'
_cell_volume   396.83729520
_cell_formula_units_Z   3
loop_
 _symmetry_equiv_pos_site_id
 _symmetry_equiv_pos_as_xyz
  1  'x, y, z'
loop_
 _atom_site_type_symbol
 _atom_site_label
 _atom_site_symmetry_multiplicity
 _atom_site_fract_x
 _atom_site_fract_y
 _atom_site_fract_z
 _atom_site_occupancy
  Ca  Ca0  1  0.893903  0.166770  0.659213  1
  Ca  Ca1  1  0.659213  0.893903  0.166770  1
  Ca  Ca2  1  0.166770  0.659213  0.893903  1
  Yb  Yb3  1  0.500645  0.500645  0.500645  1
  Yb  Yb4  1  0.699453  0.699453  0.699453  1
  Yb  Yb5  1  0.300106  0.300106  0.300106  1
  Eu  Eu6  1  0.104160  0.833829  0.341368  1
  Eu  Eu7  1  0.341368  0.104160  0.833829  1
  Eu  Eu8  1  0.833829  0.341368  0.104160  1
  Pd  Pd9  1  0.910293  0.539128  0.349174  1
  Pd  Pd10  1  0.349174  0.910293  0.539128  1
  Pd  Pd11  1  0.539128  0.349174  0.910293  1
  Pd  Pd12  1  0.089645  0.461369  0.650944  1
  Pd  Pd13  1  0.650944  0.089645  0.461369  1
  Pd  Pd14  1  0.461369  0.650944  0.089645  1
