# generated using pymatgen
data_Tb3Cd3IrPd2
_symmetry_space_group_name_H-M   'P 1'
_cell_length_a   7.61796900
_cell_length_b   7.61796816
_cell_length_c   3.95727000
_cell_angle_alpha   90.00000000
_cell_angle_beta   90.00000000
_cell_angle_gamma   119.99999930
_symmetry_Int_Tables_number   1
_chemical_formula_structural   Tb3Cd3IrPd2
_chemical_formula_sum   'Tb3 Cd3 Ir1 Pd2'
_cell_volume   198.88620995
_cell_formula_units_Z   1
loop_
 _symmetry_equiv_pos_site_id
 _symmetry_equiv_pos_as_xyz
  1  'x, y, z'
loop_
 _atom_site_type_symbol
 _atom_site_label
 _atom_site_symmetry_multiplicity
 _atom_site_fract_x
 _atom_site_fract_y
 _atom_site_fract_z
 _atom_site_occupancy
  Tb  Tb0  1  0.582885  0.981521  0.000000  1
  Tb  Tb1  1  0.018479  0.601364  0.000000  1
  Tb  Tb2  1  0.398636  0.417115  0.000000  1
  Cd  Cd3  1  0.258816  0.005617  0.500000  1
  Cd  Cd4  1  0.994383  0.253199  0.500000  1
  Cd  Cd5  1  0.746801  0.741184  0.500000  1
  Ir  Ir6  1  0.333333  0.666667  0.500000  1
  Pd  Pd7  1  0.666667  0.333333  0.500000  1
  Pd  Pd8  1  0.000000  0.000000  0.000000  1
