# generated using pymatgen
data_YCo4(Ni4B3)2
_symmetry_space_group_name_H-M   'P 1'
_cell_length_a   5.99227271
_cell_length_b   5.98867265
_cell_length_c   5.99227297
_cell_angle_alpha   104.42285416
_cell_angle_beta   104.34193360
_cell_angle_gamma   104.42285784
_symmetry_Int_Tables_number   1
_chemical_formula_structural   YCo4(Ni4B3)2
_chemical_formula_sum   'Y1 Co4 Ni8 B6'
_cell_volume   190.38117787
_cell_formula_units_Z   1
loop_
 _symmetry_equiv_pos_site_id
 _symmetry_equiv_pos_as_xyz
  1  'x, y, z'
loop_
 _atom_site_type_symbol
 _atom_site_label
 _atom_site_symmetry_multiplicity
 _atom_site_fract_x
 _atom_site_fract_y
 _atom_site_fract_z
 _atom_site_occupancy
  Y  Y0  1  0.999158  0.000000  0.000842  1
  Co  Co1  1  0.865566  0.132173  0.501457  1
  Co  Co2  1  0.133499  0.500000  0.866501  1
  Co  Co3  1  0.498543  0.867827  0.134434  1
  Co  Co4  1  0.867278  0.500000  0.132722  1
  Ni  Ni5  1  0.499714  0.130679  0.867505  1
  Ni  Ni6  1  0.132495  0.869321  0.500286  1
  Ni  Ni7  1  0.813114  0.549958  0.547380  1
  Ni  Ni8  1  0.547576  0.547383  0.814821  1
  Ni  Ni9  1  0.545882  0.811261  0.546452  1
  Ni  Ni10  1  0.185179  0.452617  0.452424  1
  Ni  Ni11  1  0.452620  0.450042  0.186886  1
  Ni  Ni12  1  0.453548  0.188739  0.454118  1
  B  B13  1  0.329079  0.764786  0.770569  1
  B  B14  1  0.764496  0.767423  0.320328  1
  B  B15  1  0.772554  0.333921  0.769406  1
  B  B16  1  0.679672  0.232577  0.235504  1
  B  B17  1  0.229431  0.235214  0.670921  1
  B  B18  1  0.230594  0.666079  0.227446  1
