# generated using pymatgen
data_LuSnBRh6
_symmetry_space_group_name_H-M   'P 1'
_cell_length_a   5.74614788
_cell_length_b   5.74614864
_cell_length_c   5.74614900
_cell_angle_alpha   60.00000370
_cell_angle_beta   59.99999929
_cell_angle_gamma   60.00000394
_symmetry_Int_Tables_number   1
_chemical_formula_structural   LuSnBRh6
_chemical_formula_sum   'Lu1 Sn1 B1 Rh6'
_cell_volume   134.15768724
_cell_formula_units_Z   1
loop_
 _symmetry_equiv_pos_site_id
 _symmetry_equiv_pos_as_xyz
  1  'x, y, z'
loop_
 _atom_site_type_symbol
 _atom_site_label
 _atom_site_symmetry_multiplicity
 _atom_site_fract_x
 _atom_site_fract_y
 _atom_site_fract_z
 _atom_site_occupancy
  Lu  Lu0  1  0.250000  0.250000  0.250000  1
  Sn  Sn1  1  0.750000  0.750000  0.750000  1
  B  B2  1  0.000000  0.000000  0.000000  1
  Rh  Rh3  1  0.743058  0.256943  0.256943  1
  Rh  Rh4  1  0.256943  0.743058  0.256943  1
  Rh  Rh5  1  0.743057  0.743057  0.256944  1
  Rh  Rh6  1  0.256943  0.256943  0.743058  1
  Rh  Rh7  1  0.743057  0.256944  0.743057  1
  Rh  Rh8  1  0.256944  0.743057  0.743057  1
