# generated using pymatgen
data_Ca7Cd(SnN)2
_symmetry_space_group_name_H-M   'P 1'
_cell_length_a   12.40776946
_cell_length_b   12.40776959
_cell_length_c   4.88553300
_cell_angle_alpha   90.00000000
_cell_angle_beta   90.00000000
_cell_angle_gamma   156.97260964
_symmetry_Int_Tables_number   1
_chemical_formula_structural   Ca7Cd(SnN)2
_chemical_formula_sum   'Ca7 Cd1 Sn2 N2'
_cell_volume   294.21593091
_cell_formula_units_Z   1
loop_
 _symmetry_equiv_pos_site_id
 _symmetry_equiv_pos_as_xyz
  1  'x, y, z'
loop_
 _atom_site_type_symbol
 _atom_site_label
 _atom_site_symmetry_multiplicity
 _atom_site_fract_x
 _atom_site_fract_y
 _atom_site_fract_z
 _atom_site_occupancy
  Ca  Ca0  1  0.904057  0.095942  0.000000  1
  Ca  Ca1  1  0.695987  0.304012  0.000000  1
  Ca  Ca2  1  0.500955  0.499045  0.000000  1
  Ca  Ca3  1  0.301900  0.698099  0.000000  1
  Ca  Ca4  1  0.099209  0.900790  0.000000  1
  Ca  Ca5  1  0.598927  0.401073  0.500001  1
  Ca  Ca6  1  0.403174  0.596826  0.500001  1
  Cd  Cd7  1  0.791959  0.208040  0.500001  1
  Sn  Sn8  1  0.999958  0.000042  0.500001  1
  Sn  Sn9  1  0.205834  0.794165  0.500001  1
  N  N10  1  0.601636  0.398363  0.000000  1
  N  N11  1  0.396399  0.603600  0.000000  1
