# generated using pymatgen
data_Tb2Dy3Sn3Pb
_symmetry_space_group_name_H-M   'P 1'
_cell_length_a   8.09805800
_cell_length_b   8.18652800
_cell_length_c   15.51754000
_cell_angle_alpha   90.00000000
_cell_angle_beta   90.00000000
_cell_angle_gamma   90.00000000
_symmetry_Int_Tables_number   1
_chemical_formula_structural   Tb2Dy3Sn3Pb
_chemical_formula_sum   'Tb8 Dy12 Sn12 Pb4'
_cell_volume   1028.73498164
_cell_formula_units_Z   4
loop_
 _symmetry_equiv_pos_site_id
 _symmetry_equiv_pos_as_xyz
  1  'x, y, z'
loop_
 _atom_site_type_symbol
 _atom_site_label
 _atom_site_symmetry_multiplicity
 _atom_site_fract_x
 _atom_site_fract_y
 _atom_site_fract_z
 _atom_site_occupancy
  Tb  Tb0  1  0.529800  0.323459  0.898777  1
  Tb  Tb1  1  0.029800  0.176541  0.601223  1
  Tb  Tb2  1  0.470200  0.676541  0.398777  1
  Tb  Tb3  1  0.970200  0.823459  0.101223  1
  Tb  Tb4  1  0.464950  0.678282  0.100876  1
  Tb  Tb5  1  0.964950  0.821718  0.399124  1
  Tb  Tb6  1  0.535050  0.321718  0.600876  1
  Tb  Tb7  1  0.035050  0.178282  0.899124  1
  Dy  Dy8  1  0.375318  0.839024  0.878768  1
  Dy  Dy9  1  0.875318  0.660976  0.621232  1
  Dy  Dy10  1  0.624682  0.160976  0.378768  1
  Dy  Dy11  1  0.124682  0.339024  0.121232  1
  Dy  Dy12  1  0.621536  0.159846  0.122343  1
  Dy  Dy13  1  0.121536  0.340154  0.377657  1
  Dy  Dy14  1  0.378464  0.840154  0.622343  1
  Dy  Dy15  1  0.878464  0.659846  0.877657  1
  Dy  Dy16  1  0.208907  0.504012  0.751108  1
  Dy  Dy17  1  0.708907  0.995988  0.748892  1
  Dy  Dy18  1  0.791093  0.495988  0.251108  1
  Dy  Dy19  1  0.291093  0.004012  0.248892  1
  Sn  Sn20  1  0.284249  0.033990  0.042633  1
  Sn  Sn21  1  0.784249  0.466010  0.457367  1
  Sn  Sn22  1  0.715751  0.966010  0.542633  1
  Sn  Sn23  1  0.215751  0.533990  0.957367  1
  Sn  Sn24  1  0.574809  0.622527  0.750063  1
  Sn  Sn25  1  0.074809  0.877473  0.749937  1
  Sn  Sn26  1  0.425191  0.377473  0.250063  1
  Sn  Sn27  1  0.925191  0.122527  0.249937  1
  Sn  Sn28  1  0.340447  0.147568  0.749722  1
  Sn  Sn29  1  0.840447  0.352432  0.750278  1
  Sn  Sn30  1  0.659553  0.852432  0.249722  1
  Sn  Sn31  1  0.159553  0.647568  0.250278  1
  Pb  Pb32  1  0.716400  0.965433  0.957877  1
  Pb  Pb33  1  0.216400  0.534567  0.542123  1
  Pb  Pb34  1  0.283600  0.034567  0.457877  1
  Pb  Pb35  1  0.783600  0.465433  0.042123  1
