# generated using pymatgen
data_Rb3NaCl16
_symmetry_space_group_name_H-M   'P 1'
_cell_length_a   7.72233591
_cell_length_b   9.09633965
_cell_length_c   10.11676307
_cell_angle_alpha   68.82583392
_cell_angle_beta   90.00131741
_cell_angle_gamma   90.94253025
_symmetry_Int_Tables_number   1
_chemical_formula_structural   Rb3NaCl16
_chemical_formula_sum   'Rb3 Na1 Cl16'
_cell_volume   662.57049732
_cell_formula_units_Z   1
loop_
 _symmetry_equiv_pos_site_id
 _symmetry_equiv_pos_as_xyz
  1  'x, y, z'
loop_
 _atom_site_type_symbol
 _atom_site_label
 _atom_site_symmetry_multiplicity
 _atom_site_fract_x
 _atom_site_fract_y
 _atom_site_fract_z
 _atom_site_occupancy
  Rb  Rb0  1  0.116963  0.263107  0.803582  1
  Rb  Rb1  1  0.379020  0.250809  0.293490  1
  Rb  Rb2  1  0.856089  0.729638  0.202639  1
  Na  Na3  1  0.644673  0.910729  0.663327  1
  Cl  Cl4  1  0.373997  0.532155  0.509184  1
  Cl  Cl5  1  0.885171  0.457698  0.989443  1
  Cl  Cl6  1  0.617292  0.450559  0.481693  1
  Cl  Cl7  1  0.134200  0.538663  0.013359  1
  Cl  Cl8  1  0.064892  0.645780  0.552647  1
  Cl  Cl9  1  0.536622  0.313476  0.948221  1
  Cl  Cl10  1  0.976629  0.335620  0.419311  1
  Cl  Cl11  1  0.446980  0.660317  0.056044  1
  Cl  Cl12  1  0.195153  0.846494  0.602979  1
  Cl  Cl13  1  0.689532  0.128662  0.905515  1
  Cl  Cl14  1  0.815110  0.131647  0.400216  1
  Cl  Cl15  1  0.293000  0.856061  0.108032  1
  Cl  Cl16  1  0.335659  0.050165  0.650633  1
  Cl  Cl17  1  0.863702  0.938610  0.855839  1
  Cl  Cl18  1  0.642041  0.922172  0.389189  1
  Cl  Cl19  1  0.133274  0.037638  0.154657  1
