# generated using pymatgen
data_Y6Tm6Th4Cd3HgIr4
_symmetry_space_group_name_H-M   'P 1'
_cell_length_a   9.70770822
_cell_length_b   9.70770771
_cell_length_c   9.70770800
_cell_angle_alpha   59.99999900
_cell_angle_beta   60.00000077
_cell_angle_gamma   59.99999874
_symmetry_Int_Tables_number   1
_chemical_formula_structural   Y6Tm6Th4Cd3HgIr4
_chemical_formula_sum   'Y6 Tm6 Th4 Cd3 Hg1 Ir4'
_cell_volume   646.89695675
_cell_formula_units_Z   1
loop_
 _symmetry_equiv_pos_site_id
 _symmetry_equiv_pos_as_xyz
  1  'x, y, z'
loop_
 _atom_site_type_symbol
 _atom_site_label
 _atom_site_symmetry_multiplicity
 _atom_site_fract_x
 _atom_site_fract_y
 _atom_site_fract_z
 _atom_site_occupancy
  Y  Y0  1  0.935581  0.563352  0.563352  1
  Y  Y1  1  0.563546  0.936408  0.936408  1
  Y  Y2  1  0.563352  0.935581  0.563352  1
  Y  Y3  1  0.936408  0.563546  0.936408  1
  Y  Y4  1  0.563352  0.563352  0.935581  1
  Y  Y5  1  0.936408  0.936408  0.563546  1
  Tm  Tm6  1  0.813898  0.186090  0.186090  1
  Tm  Tm7  1  0.185940  0.813785  0.813785  1
  Tm  Tm8  1  0.186090  0.813898  0.186090  1
  Tm  Tm9  1  0.813785  0.185940  0.813785  1
  Tm  Tm10  1  0.186090  0.186090  0.813898  1
  Tm  Tm11  1  0.813785  0.813785  0.185940  1
  Th  Th12  1  0.350295  0.350295  0.350295  1
  Th  Th13  1  0.350732  0.350732  0.948078  1
  Th  Th14  1  0.350732  0.948078  0.350732  1
  Th  Th15  1  0.948078  0.350732  0.350732  1
  Cd  Cd16  1  0.582658  0.582658  0.251266  1
  Cd  Cd17  1  0.582658  0.251266  0.582658  1
  Cd  Cd18  1  0.251266  0.582658  0.582658  1
  Hg  Hg19  1  0.585471  0.585471  0.585471  1
  Ir  Ir20  1  0.142695  0.142695  0.142695  1
  Ir  Ir21  1  0.142679  0.142679  0.571821  1
  Ir  Ir22  1  0.142679  0.571821  0.142679  1
  Ir  Ir23  1  0.571821  0.142679  0.142679  1
