# generated using pymatgen
data_Y2Er3(SnPb)2
_symmetry_space_group_name_H-M   'P 1'
_cell_length_a   8.07693700
_cell_length_b   8.19703200
_cell_length_c   15.50112500
_cell_angle_alpha   90.00000000
_cell_angle_beta   90.00000000
_cell_angle_gamma   90.00000000
_symmetry_Int_Tables_number   1
_chemical_formula_structural   Y2Er3(SnPb)2
_chemical_formula_sum   'Y8 Er12 Sn8 Pb8'
_cell_volume   1026.28160407
_cell_formula_units_Z   4
loop_
 _symmetry_equiv_pos_site_id
 _symmetry_equiv_pos_as_xyz
  1  'x, y, z'
loop_
 _atom_site_type_symbol
 _atom_site_label
 _atom_site_symmetry_multiplicity
 _atom_site_fract_x
 _atom_site_fract_y
 _atom_site_fract_z
 _atom_site_occupancy
  Y  Y0  1  0.523376  0.321512  0.900122  1
  Y  Y1  1  0.023376  0.178488  0.599878  1
  Y  Y2  1  0.476624  0.678488  0.400122  1
  Y  Y3  1  0.976624  0.821512  0.099878  1
  Y  Y4  1  0.476624  0.678488  0.099878  1
  Y  Y5  1  0.976624  0.821512  0.400122  1
  Y  Y6  1  0.523376  0.321512  0.599878  1
  Y  Y7  1  0.023376  0.178488  0.900122  1
  Er  Er8  1  0.367609  0.837895  0.875569  1
  Er  Er9  1  0.867609  0.662105  0.624431  1
  Er  Er10  1  0.632391  0.162105  0.375569  1
  Er  Er11  1  0.132391  0.337895  0.124431  1
  Er  Er12  1  0.632391  0.162105  0.124431  1
  Er  Er13  1  0.132391  0.337895  0.375569  1
  Er  Er14  1  0.367609  0.837895  0.624431  1
  Er  Er15  1  0.867609  0.662105  0.875569  1
  Er  Er16  1  0.198613  0.503426  0.750000  1
  Er  Er17  1  0.698613  0.996574  0.750000  1
  Er  Er18  1  0.801387  0.496574  0.250000  1
  Er  Er19  1  0.301387  0.003426  0.250000  1
  Sn  Sn20  1  0.563992  0.621056  0.750000  1
  Sn  Sn21  1  0.063992  0.878944  0.750000  1
  Sn  Sn22  1  0.436008  0.378944  0.250000  1
  Sn  Sn23  1  0.936008  0.121056  0.250000  1
  Sn  Sn24  1  0.331798  0.148185  0.750000  1
  Sn  Sn25  1  0.831798  0.351815  0.750000  1
  Sn  Sn26  1  0.668202  0.851815  0.250000  1
  Sn  Sn27  1  0.168202  0.648185  0.250000  1
  Pb  Pb28  1  0.292282  0.037383  0.041405  1
  Pb  Pb29  1  0.792282  0.462617  0.458595  1
  Pb  Pb30  1  0.707718  0.962617  0.541405  1
  Pb  Pb31  1  0.207718  0.537383  0.958595  1
  Pb  Pb32  1  0.707718  0.962617  0.958595  1
  Pb  Pb33  1  0.207718  0.537383  0.541405  1
  Pb  Pb34  1  0.292282  0.037383  0.458595  1
  Pb  Pb35  1  0.792282  0.462617  0.041405  1
