# generated using pymatgen
data_Tb4MnOs6Ru
_symmetry_space_group_name_H-M   'P 1'
_cell_length_a   5.33725400
_cell_length_b   5.33725439
_cell_length_c   8.81026000
_cell_angle_alpha   90.00000000
_cell_angle_beta   90.00000000
_cell_angle_gamma   119.99999759
_symmetry_Int_Tables_number   1
_chemical_formula_structural   Tb4MnOs6Ru
_chemical_formula_sum   'Tb4 Mn1 Os6 Ru1'
_cell_volume   217.34774653
_cell_formula_units_Z   1
loop_
 _symmetry_equiv_pos_site_id
 _symmetry_equiv_pos_as_xyz
  1  'x, y, z'
loop_
 _atom_site_type_symbol
 _atom_site_label
 _atom_site_symmetry_multiplicity
 _atom_site_fract_x
 _atom_site_fract_y
 _atom_site_fract_z
 _atom_site_occupancy
  Tb  Tb0  1  0.333333  0.666667  0.430388  1
  Tb  Tb1  1  0.666667  0.333333  0.569612  1
  Tb  Tb2  1  0.666667  0.333333  0.935043  1
  Tb  Tb3  1  0.333333  0.666667  0.064957  1
  Mn  Mn4  1  0.000000  0.000000  0.500000  1
  Os  Os5  1  0.829648  0.170352  0.253277  1
  Os  Os6  1  0.829648  0.659295  0.253277  1
  Os  Os7  1  0.340705  0.170352  0.253277  1
  Os  Os8  1  0.170352  0.829648  0.746723  1
  Os  Os9  1  0.170352  0.340705  0.746723  1
  Os  Os10  1  0.659295  0.829648  0.746723  1
  Ru  Ru11  1  0.000000  0.000000  0.000000  1
