# generated using pymatgen
data_Tb2Er3Sn4
_symmetry_space_group_name_H-M   'P 1'
_cell_length_a   8.00449500
_cell_length_b   8.14349800
_cell_length_c   15.38999400
_cell_angle_alpha   90.00000000
_cell_angle_beta   90.00000000
_cell_angle_gamma   90.00000000
_symmetry_Int_Tables_number   1
_chemical_formula_structural   Tb2Er3Sn4
_chemical_formula_sum   'Tb8 Er12 Sn16'
_cell_volume   1003.19043396
_cell_formula_units_Z   4
loop_
 _symmetry_equiv_pos_site_id
 _symmetry_equiv_pos_as_xyz
  1  'x, y, z'
loop_
 _atom_site_type_symbol
 _atom_site_label
 _atom_site_symmetry_multiplicity
 _atom_site_fract_x
 _atom_site_fract_y
 _atom_site_fract_z
 _atom_site_occupancy
  Tb  Tb0  1  0.520506  0.319586  0.902462  1
  Tb  Tb1  1  0.020506  0.180414  0.597538  1
  Tb  Tb2  1  0.479494  0.680414  0.402462  1
  Tb  Tb3  1  0.979494  0.819586  0.097538  1
  Tb  Tb4  1  0.479494  0.680414  0.097538  1
  Tb  Tb5  1  0.979494  0.819586  0.402462  1
  Tb  Tb6  1  0.520506  0.319586  0.597538  1
  Tb  Tb7  1  0.020506  0.180414  0.902462  1
  Er  Er8  1  0.367701  0.835460  0.878176  1
  Er  Er9  1  0.867701  0.664540  0.621824  1
  Er  Er10  1  0.632299  0.164540  0.378176  1
  Er  Er11  1  0.132299  0.335460  0.121824  1
  Er  Er12  1  0.632299  0.164540  0.121824  1
  Er  Er13  1  0.132299  0.335460  0.378176  1
  Er  Er14  1  0.367701  0.835460  0.621824  1
  Er  Er15  1  0.867701  0.664540  0.878176  1
  Er  Er16  1  0.197747  0.503235  0.750000  1
  Er  Er17  1  0.697747  0.996765  0.750000  1
  Er  Er18  1  0.802253  0.496765  0.250000  1
  Er  Er19  1  0.302253  0.003235  0.250000  1
  Sn  Sn20  1  0.293053  0.034979  0.042046  1
  Sn  Sn21  1  0.793053  0.465021  0.457954  1
  Sn  Sn22  1  0.706947  0.965021  0.542046  1
  Sn  Sn23  1  0.206947  0.534979  0.957954  1
  Sn  Sn24  1  0.706947  0.965021  0.957954  1
  Sn  Sn25  1  0.206947  0.534979  0.542046  1
  Sn  Sn26  1  0.293053  0.034979  0.457954  1
  Sn  Sn27  1  0.793053  0.465021  0.042046  1
  Sn  Sn28  1  0.564836  0.620143  0.750000  1
  Sn  Sn29  1  0.064836  0.879857  0.750000  1
  Sn  Sn30  1  0.435164  0.379857  0.250000  1
  Sn  Sn31  1  0.935164  0.120143  0.250000  1
  Sn  Sn32  1  0.328304  0.145683  0.750000  1
  Sn  Sn33  1  0.828304  0.354317  0.750000  1
  Sn  Sn34  1  0.671696  0.854317  0.250000  1
  Sn  Sn35  1  0.171696  0.645683  0.250000  1
