# generated using pymatgen
data_Yb2Sc2Ga15(SiIr2)3
_symmetry_space_group_name_H-M   'P 1'
_cell_length_a   7.53394090
_cell_length_b   7.45237916
_cell_length_c   9.45676732
_cell_angle_alpha   89.98133871
_cell_angle_beta   89.99672464
_cell_angle_gamma   119.95836496
_symmetry_Int_Tables_number   1
_chemical_formula_structural   Yb2Sc2Ga15(SiIr2)3
_chemical_formula_sum   'Yb2 Sc2 Ga15 Si3 Ir6'
_cell_volume   460.01553889
_cell_formula_units_Z   1
loop_
 _symmetry_equiv_pos_site_id
 _symmetry_equiv_pos_as_xyz
  1  'x, y, z'
loop_
 _atom_site_type_symbol
 _atom_site_label
 _atom_site_symmetry_multiplicity
 _atom_site_fract_x
 _atom_site_fract_y
 _atom_site_fract_z
 _atom_site_occupancy
  Yb  Yb0  1  0.672370  0.002381  0.248314  1
  Yb  Yb1  1  0.324961  0.994132  0.749868  1
  Sc  Sc2  1  0.996163  0.664758  0.247620  1
  Sc  Sc3  1  0.004754  0.341117  0.751136  1
  Ga  Ga4  1  0.127575  0.125100  0.250757  1
  Ga  Ga5  1  0.872417  0.871343  0.750936  1
  Ga  Ga6  1  0.339635  0.002392  0.418239  1
  Ga  Ga7  1  0.998212  0.328690  0.419636  1
  Ga  Ga8  1  0.668338  0.004953  0.581730  1
  Ga  Ga9  1  0.664021  0.001038  0.916243  1
  Ga  Ga10  1  0.337636  0.000893  0.082812  1
  Ga  Ga11  1  0.329882  0.328037  0.571597  1
  Ga  Ga12  1  0.662530  0.670028  0.429690  1
  Ga  Ga13  1  0.662801  0.670283  0.072431  1
  Ga  Ga14  1  0.335433  0.328721  0.927342  1
  Ga  Ga15  1  0.334270  0.547580  0.250956  1
  Ga  Ga16  1  0.665112  0.454983  0.752122  1
  Ga  Ga17  1  0.552694  0.342665  0.250828  1
  Ga  Ga18  1  0.449097  0.659653  0.750838  1
  Si  Si19  1  0.000866  0.330749  0.071671  1
  Si  Si20  1  0.998856  0.668896  0.929844  1
  Si  Si21  1  0.000677  0.663841  0.567278  1
  Ir  Ir22  1  0.697524  0.344069  0.002917  1
  Ir  Ir23  1  0.302097  0.655513  0.998158  1
  Ir  Ir24  1  0.314440  0.667771  0.503583  1
  Ir  Ir25  1  0.686503  0.344319  0.502116  1
  Ir  Ir26  1  0.000173  0.000071  0.000390  1
  Ir  Ir27  1  0.000963  0.986025  0.500949  1
