# generated using pymatgen
data_Er2CdNiAu
_symmetry_space_group_name_H-M   'P 1'
_cell_length_a   7.65483409
_cell_length_b   7.65483361
_cell_length_c   3.62951300
_cell_angle_alpha   90.00000000
_cell_angle_beta   90.00000000
_cell_angle_gamma   92.10017351
_symmetry_Int_Tables_number   1
_chemical_formula_structural   Er2CdNiAu
_chemical_formula_sum   'Er4 Cd2 Ni2 Au2'
_cell_volume   212.53383196
_cell_formula_units_Z   2
loop_
 _symmetry_equiv_pos_site_id
 _symmetry_equiv_pos_as_xyz
  1  'x, y, z'
loop_
 _atom_site_type_symbol
 _atom_site_label
 _atom_site_symmetry_multiplicity
 _atom_site_fract_x
 _atom_site_fract_y
 _atom_site_fract_z
 _atom_site_occupancy
  Er  Er0  1  0.687773  0.187773  0.500000  1
  Er  Er1  1  0.312227  0.812227  0.500000  1
  Er  Er2  1  0.157447  0.342553  0.500000  1
  Er  Er3  1  0.842553  0.657447  0.500000  1
  Cd  Cd4  1  0.000000  0.000000  0.000000  1
  Cd  Cd5  1  0.500000  0.500000  0.000000  1
  Ni  Ni6  1  0.119135  0.619135  0.000000  1
  Ni  Ni7  1  0.880865  0.380865  0.000000  1
  Au  Au8  1  0.629959  0.870041  0.000000  1
  Au  Au9  1  0.370041  0.129959  0.000000  1
