# generated using pymatgen
data_Eu8Ho5Tm7Sn16
_symmetry_space_group_name_H-M   'P 1'
_cell_length_a   8.03640256
_cell_length_b   8.20660385
_cell_length_c   15.48343500
_cell_angle_alpha   89.98225260
_cell_angle_beta   90.02148128
_cell_angle_gamma   89.96585932
_symmetry_Int_Tables_number   1
_chemical_formula_structural   Eu8Ho5Tm7Sn16
_chemical_formula_sum   'Eu8 Ho5 Tm7 Sn16'
_cell_volume   1021.15657978
_cell_formula_units_Z   1
loop_
 _symmetry_equiv_pos_site_id
 _symmetry_equiv_pos_as_xyz
  1  'x, y, z'
loop_
 _atom_site_type_symbol
 _atom_site_label
 _atom_site_symmetry_multiplicity
 _atom_site_fract_x
 _atom_site_fract_y
 _atom_site_fract_z
 _atom_site_occupancy
  Eu  Eu0  1  0.502979  0.325126  0.906964  1
  Eu  Eu1  1  0.003157  0.174728  0.592494  1
  Eu  Eu2  1  0.496550  0.674688  0.407567  1
  Eu  Eu3  1  0.996802  0.825503  0.092686  1
  Eu  Eu4  1  0.496565  0.675046  0.093113  1
  Eu  Eu5  1  0.996431  0.825190  0.407546  1
  Eu  Eu6  1  0.503601  0.325433  0.592737  1
  Eu  Eu7  1  0.003500  0.174574  0.906837  1
  Ho  Ho8  1  0.336291  0.835545  0.875586  1
  Ho  Ho9  1  0.836346  0.664265  0.624136  1
  Ho  Ho10  1  0.663700  0.164382  0.376022  1
  Ho  Ho11  1  0.163716  0.335671  0.124540  1
  Ho  Ho12  1  0.664229  0.164403  0.124356  1
  Tm  Tm13  1  0.164395  0.336012  0.375724  1
  Tm  Tm14  1  0.335649  0.835756  0.624484  1
  Tm  Tm15  1  0.835807  0.663965  0.874852  1
  Tm  Tm16  1  0.173428  0.495890  0.749566  1
  Tm  Tm17  1  0.673240  0.003973  0.749981  1
  Tm  Tm18  1  0.826776  0.504397  0.250041  1
  Tm  Tm19  1  0.326783  0.995881  0.250564  1
  Sn  Sn20  1  0.329346  0.039840  0.042438  1
  Sn  Sn21  1  0.830722  0.460030  0.457519  1
  Sn  Sn22  1  0.669138  0.960165  0.542609  1
  Sn  Sn23  1  0.168789  0.539887  0.957319  1
  Sn  Sn24  1  0.672159  0.959392  0.957429  1
  Sn  Sn25  1  0.172033  0.539673  0.541989  1
  Sn  Sn26  1  0.328181  0.039682  0.458264  1
  Sn  Sn27  1  0.829325  0.460825  0.041665  1
  Sn  Sn28  1  0.535424  0.621856  0.749707  1
  Sn  Sn29  1  0.035481  0.878092  0.749592  1
  Sn  Sn30  1  0.464160  0.378674  0.250514  1
  Sn  Sn31  1  0.965168  0.122187  0.250777  1
  Sn  Sn32  1  0.306783  0.139241  0.749514  1
  Sn  Sn33  1  0.807349  0.360333  0.749959  1
  Sn  Sn34  1  0.693350  0.860295  0.250227  1
  Sn  Sn35  1  0.192647  0.639400  0.250679  1
