# generated using pymatgen
data_Ho7Tm3Si5As
_symmetry_space_group_name_H-M   'P 1'
_cell_length_a   8.38689001
_cell_length_b   8.39988067
_cell_length_c   6.25393602
_cell_angle_alpha   89.99111828
_cell_angle_beta   90.00460423
_cell_angle_gamma   119.95200027
_symmetry_Int_Tables_number   1
_chemical_formula_structural   Ho7Tm3Si5As
_chemical_formula_sum   'Ho7 Tm3 Si5 As1'
_cell_volume   381.74027262
_cell_formula_units_Z   1
loop_
 _symmetry_equiv_pos_site_id
 _symmetry_equiv_pos_as_xyz
  1  'x, y, z'
loop_
 _atom_site_type_symbol
 _atom_site_label
 _atom_site_symmetry_multiplicity
 _atom_site_fract_x
 _atom_site_fract_y
 _atom_site_fract_z
 _atom_site_occupancy
  Ho  Ho0  1  0.996295  0.753454  0.749823  1
  Ho  Ho1  1  0.000147  0.244058  0.250153  1
  Ho  Ho2  1  0.756236  0.755822  0.250175  1
  Ho  Ho3  1  0.758311  0.000113  0.749855  1
  Ho  Ho4  1  0.242909  0.246434  0.749865  1
  Ho  Ho5  1  0.243279  0.000118  0.250106  1
  Ho  Ho6  1  0.332977  0.663911  0.001137  1
  Tm  Tm7  1  0.333002  0.663879  0.498766  1
  Tm  Tm8  1  0.669174  0.336207  0.001345  1
  Tm  Tm9  1  0.669119  0.336117  0.498686  1
  Si  Si10  1  0.394654  0.393068  0.250477  1
  Si  Si11  1  0.000656  0.606451  0.250488  1
  Si  Si12  1  0.999267  0.394049  0.749534  1
  Si  Si13  1  0.605650  0.605423  0.749534  1
  Si  Si14  1  0.606819  0.000472  0.250414  1
  As  As15  1  0.391503  0.000425  0.749642  1
