# generated using pymatgen
data_Sc2TiNb(VP)4
_symmetry_space_group_name_H-M   'P 1'
_cell_length_a   3.42119100
_cell_length_b   6.53851914
_cell_length_c   7.77852014
_cell_angle_alpha   89.35254851
_cell_angle_beta   90.00000000
_cell_angle_gamma   90.00000000
_symmetry_Int_Tables_number   1
_chemical_formula_structural   Sc2TiNb(VP)4
_chemical_formula_sum   'Sc2 Ti1 Nb1 V4 P4'
_cell_volume   173.99067446
_cell_formula_units_Z   1
loop_
 _symmetry_equiv_pos_site_id
 _symmetry_equiv_pos_as_xyz
  1  'x, y, z'
loop_
 _atom_site_type_symbol
 _atom_site_label
 _atom_site_symmetry_multiplicity
 _atom_site_fract_x
 _atom_site_fract_y
 _atom_site_fract_z
 _atom_site_occupancy
  Sc  Sc0  1  0.250000  0.540224  0.168466  1
  Sc  Sc1  1  0.750000  0.457809  0.831286  1
  Ti  Ti2  1  0.250000  0.040551  0.334304  1
  Nb  Nb3  1  0.750000  0.959635  0.665066  1
  V  V4  1  0.250000  0.636567  0.558234  1
  V  V5  1  0.750000  0.363623  0.440528  1
  V  V6  1  0.750000  0.874568  0.057711  1
  V  V7  1  0.250000  0.126432  0.942449  1
  P  P8  1  0.250000  0.761809  0.860606  1
  P  P9  1  0.750000  0.234395  0.143965  1
  P  P10  1  0.750000  0.747012  0.361366  1
  P  P11  1  0.250000  0.257376  0.636020  1
