# generated using pymatgen
data_Hf6Ta4Ga12Os7
_symmetry_space_group_name_H-M   'P 1'
_cell_length_a   8.83108579
_cell_length_b   8.83108609
_cell_length_c   8.83108500
_cell_angle_alpha   59.99999284
_cell_angle_beta   59.99999172
_cell_angle_gamma   59.99999344
_symmetry_Int_Tables_number   1
_chemical_formula_structural   Hf6Ta4Ga12Os7
_chemical_formula_sum   'Hf6 Ta4 Ga12 Os7'
_cell_volume   486.99804426
_cell_formula_units_Z   1
loop_
 _symmetry_equiv_pos_site_id
 _symmetry_equiv_pos_as_xyz
  1  'x, y, z'
loop_
 _atom_site_type_symbol
 _atom_site_label
 _atom_site_symmetry_multiplicity
 _atom_site_fract_x
 _atom_site_fract_y
 _atom_site_fract_z
 _atom_site_occupancy
  Hf  Hf0  1  0.703014  0.703014  0.296986  1
  Hf  Hf1  1  0.296986  0.703014  0.296986  1
  Hf  Hf2  1  0.703014  0.296986  0.296986  1
  Hf  Hf3  1  0.296986  0.296986  0.703014  1
  Hf  Hf4  1  0.703014  0.296986  0.703014  1
  Hf  Hf5  1  0.296986  0.703014  0.703014  1
  Ta  Ta6  1  0.877798  0.877798  0.366606  1
  Ta  Ta7  1  0.877798  0.366606  0.877798  1
  Ta  Ta8  1  0.366606  0.877798  0.877798  1
  Ta  Ta9  1  0.877798  0.877798  0.877798  1
  Ga  Ga10  1  0.120376  0.120376  0.638873  1
  Ga  Ga11  1  0.120376  0.638873  0.120376  1
  Ga  Ga12  1  0.638873  0.120376  0.120376  1
  Ga  Ga13  1  0.120376  0.120376  0.120376  1
  Ga  Ga14  1  0.655921  0.655921  0.032236  1
  Ga  Ga15  1  0.655921  0.032236  0.655921  1
  Ga  Ga16  1  0.032236  0.655921  0.655921  1
  Ga  Ga17  1  0.655921  0.655921  0.655921  1
  Ga  Ga18  1  0.339446  0.339446  0.981664  1
  Ga  Ga19  1  0.339446  0.981664  0.339446  1
  Ga  Ga20  1  0.981664  0.339446  0.339446  1
  Ga  Ga21  1  0.339446  0.339446  0.339446  1
  Os  Os22  1  0.000000  0.000000  0.000000  1
  Os  Os23  1  0.997958  0.997958  0.502042  1
  Os  Os24  1  0.502042  0.997958  0.502042  1
  Os  Os25  1  0.997958  0.502042  0.502042  1
  Os  Os26  1  0.502042  0.502042  0.997958  1
  Os  Os27  1  0.997958  0.502042  0.997958  1
  Os  Os28  1  0.502042  0.997958  0.997958  1
