# generated using pymatgen
data_Tb3Pr4Dy(SiO5)4
_symmetry_space_group_name_H-M   'P 1'
_cell_length_a   8.15982165
_cell_length_b   8.16312553
_cell_length_c   10.85062956
_cell_angle_alpha   61.13611419
_cell_angle_beta   61.11711615
_cell_angle_gamma   50.29097268
_symmetry_Int_Tables_number   1
_chemical_formula_structural   Tb3Pr4Dy(SiO5)4
_chemical_formula_sum   'Tb3 Pr4 Dy1 Si4 O20'
_cell_volume   470.30359370
_cell_formula_units_Z   1
loop_
 _symmetry_equiv_pos_site_id
 _symmetry_equiv_pos_as_xyz
  1  'x, y, z'
loop_
 _atom_site_type_symbol
 _atom_site_label
 _atom_site_symmetry_multiplicity
 _atom_site_fract_x
 _atom_site_fract_y
 _atom_site_fract_z
 _atom_site_occupancy
  Tb  Tb0  1  0.521783  0.763832  0.163504  1
  Tb  Tb1  1  0.764338  0.522427  0.662842  1
  Tb  Tb2  1  0.477733  0.236145  0.836707  1
  Pr  Pr3  1  0.782785  0.291523  0.035621  1
  Pr  Pr4  1  0.708228  0.217103  0.464386  1
  Pr  Pr5  1  0.216766  0.708550  0.964760  1
  Pr  Pr6  1  0.291397  0.782713  0.535477  1
  Dy  Dy7  1  0.237281  0.476836  0.336671  1
  Si  Si8  1  0.728743  0.903423  0.306906  1
  Si  Si9  1  0.096564  0.271677  0.193377  1
  Si  Si10  1  0.271523  0.096746  0.692582  1
  Si  Si11  1  0.903468  0.728596  0.806999  1
  O  O12  1  0.420773  0.610771  0.110066  1
  O  O13  1  0.387501  0.577785  0.391166  1
  O  O14  1  0.578255  0.388792  0.890935  1
  O  O15  1  0.611432  0.421829  0.608829  1
  O  O16  1  0.868329  0.724637  0.431764  1
  O  O17  1  0.274609  0.134030  0.067356  1
  O  O18  1  0.134613  0.275398  0.566250  1
  O  O19  1  0.725141  0.866326  0.932914  1
  O  O20  1  0.565789  0.842542  0.318147  1
  O  O21  1  0.157296  0.434003  0.183234  1
  O  O22  1  0.434554  0.156891  0.682080  1
  O  O23  1  0.842814  0.565674  0.818033  1
  O  O24  1  0.158543  0.588483  0.822814  1
  O  O25  1  0.411592  0.841644  0.676956  1
  O  O26  1  0.841535  0.411831  0.177310  1
  O  O27  1  0.587477  0.158687  0.322979  1
  O  O28  1  0.907790  0.906337  0.646288  1
  O  O29  1  0.093573  0.092391  0.853307  1
  O  O30  1  0.092067  0.093525  0.353847  1
  O  O31  1  0.905709  0.908851  0.145894  1
