# generated using pymatgen
data_TbHo3MnAl18Pd5
_symmetry_space_group_name_H-M   'P 1'
_cell_length_a   7.59283433
_cell_length_b   7.59427299
_cell_length_c   9.46415171
_cell_angle_alpha   89.96930449
_cell_angle_beta   89.94563574
_cell_angle_gamma   119.53975498
_symmetry_Int_Tables_number   1
_chemical_formula_structural   TbHo3MnAl18Pd5
_chemical_formula_sum   'Tb1 Ho3 Mn1 Al18 Pd5'
_cell_volume   474.78554322
_cell_formula_units_Z   1
loop_
 _symmetry_equiv_pos_site_id
 _symmetry_equiv_pos_as_xyz
  1  'x, y, z'
loop_
 _atom_site_type_symbol
 _atom_site_label
 _atom_site_symmetry_multiplicity
 _atom_site_fract_x
 _atom_site_fract_y
 _atom_site_fract_z
 _atom_site_occupancy
  Tb  Tb0  1  0.994911  0.669936  0.248521  1
  Ho  Ho1  1  0.005018  0.329649  0.751759  1
  Ho  Ho2  1  0.670192  0.994990  0.248252  1
  Ho  Ho3  1  0.329823  0.005168  0.751675  1
  Mn  Mn4  1  0.000097  0.000228  0.999756  1
  Al  Al5  1  0.124146  0.124432  0.241808  1
  Al  Al6  1  0.876010  0.876103  0.758124  1
  Al  Al7  1  0.998780  0.323933  0.072150  1
  Al  Al8  1  0.001210  0.675682  0.927079  1
  Al  Al9  1  0.998437  0.664456  0.578900  1
  Al  Al10  1  0.335906  0.001944  0.421812  1
  Al  Al11  1  0.001541  0.335026  0.421850  1
  Al  Al12  1  0.664514  0.998486  0.578537  1
  Al  Al13  1  0.675614  0.001222  0.927504  1
  Al  Al14  1  0.324839  0.999310  0.072091  1
  Al  Al15  1  0.333763  0.333769  0.558139  1
  Al  Al16  1  0.665858  0.666235  0.442332  1
  Al  Al17  1  0.676359  0.676784  0.051408  1
  Al  Al18  1  0.323252  0.323267  0.948103  1
  Al  Al19  1  0.340623  0.546258  0.248440  1
  Al  Al20  1  0.659585  0.453569  0.751552  1
  Al  Al21  1  0.545844  0.339930  0.248447  1
  Al  Al22  1  0.453628  0.659692  0.751530  1
  Pd  Pd23  1  0.672148  0.327633  0.999841  1
  Pd  Pd24  1  0.327856  0.672269  0.999878  1
  Pd  Pd25  1  0.327716  0.672418  0.500150  1
  Pd  Pd26  1  0.672302  0.327460  0.500150  1
  Pd  Pd27  1  0.000028  0.000153  0.500212  1
