# generated using pymatgen
data_Mn2Zn22Rh
_symmetry_space_group_name_H-M   'P 1'
_cell_length_a   7.78436949
_cell_length_b   7.78436981
_cell_length_c   7.84094445
_cell_angle_alpha   72.25685148
_cell_angle_beta   72.25683668
_cell_angle_gamma   57.96926014
_symmetry_Int_Tables_number   1
_chemical_formula_structural   Mn2Zn22Rh
_chemical_formula_sum   'Mn2 Zn22 Rh1'
_cell_volume   377.56558747
_cell_formula_units_Z   1
loop_
 _symmetry_equiv_pos_site_id
 _symmetry_equiv_pos_as_xyz
  1  'x, y, z'
loop_
 _atom_site_type_symbol
 _atom_site_label
 _atom_site_symmetry_multiplicity
 _atom_site_fract_x
 _atom_site_fract_y
 _atom_site_fract_z
 _atom_site_occupancy
  Mn  Mn0  1  0.655155  0.655156  0.057922  1
  Mn  Mn1  1  0.344845  0.344844  0.942078  1
  Zn  Zn2  1  0.343890  0.738895  0.313007  1
  Zn  Zn3  1  0.656110  0.261105  0.686993  1
  Zn  Zn4  1  0.261105  0.656110  0.686993  1
  Zn  Zn5  1  0.738895  0.343890  0.313007  1
  Zn  Zn6  1  0.679814  0.320186  0.000000  1
  Zn  Zn7  1  0.320186  0.679814  0.000000  1
  Zn  Zn8  1  0.828409  0.828409  0.786490  1
  Zn  Zn9  1  0.171591  0.171591  0.213510  1
  Zn  Zn10  1  0.976436  0.976437  0.174368  1
  Zn  Zn11  1  0.023564  0.023563  0.825632  1
  Zn  Zn12  1  0.353595  0.353595  0.273443  1
  Zn  Zn13  1  0.646405  0.646405  0.726557  1
  Zn  Zn14  1  0.685788  0.685788  0.376675  1
  Zn  Zn15  1  0.314212  0.314212  0.623325  1
  Zn  Zn16  1  0.658722  0.025044  0.462888  1
  Zn  Zn17  1  0.341278  0.974956  0.537112  1
  Zn  Zn18  1  0.974956  0.341278  0.537113  1
  Zn  Zn19  1  0.025044  0.658722  0.462887  1
  Zn  Zn20  1  0.619962  0.998176  0.102598  1
  Zn  Zn21  1  0.380038  0.001824  0.897402  1
  Zn  Zn22  1  0.001823  0.380039  0.897403  1
  Zn  Zn23  1  0.998177  0.619961  0.102597  1
  Rh  Rh24  1  0.000000  0.000000  0.500000  1
