# generated using pymatgen
data_Li12TbY11(WO6)8
_symmetry_space_group_name_H-M   'P 1'
_cell_length_a   10.70612657
_cell_length_b   10.70460772
_cell_length_c   10.70616003
_cell_angle_alpha   109.46967886
_cell_angle_beta   109.48024726
_cell_angle_gamma   109.46954306
_symmetry_Int_Tables_number   1
_chemical_formula_structural   Li12TbY11(WO6)8
_chemical_formula_sum   'Li12 Tb1 Y11 W8 O48'
_cell_volume   944.46058215
_cell_formula_units_Z   1
loop_
 _symmetry_equiv_pos_site_id
 _symmetry_equiv_pos_as_xyz
  1  'x, y, z'
loop_
 _atom_site_type_symbol
 _atom_site_label
 _atom_site_symmetry_multiplicity
 _atom_site_fract_x
 _atom_site_fract_y
 _atom_site_fract_z
 _atom_site_occupancy
  Li  Li0  1  0.875095  0.749998  0.125095  1
  Li  Li1  1  0.250001  0.875022  0.125008  1
  Li  Li2  1  0.874989  0.125011  0.250011  1
  Li  Li3  1  0.374991  0.624978  0.249998  1
  Li  Li4  1  0.624985  0.250000  0.374983  1
  Li  Li5  1  0.749986  0.624978  0.374982  1
  Li  Li6  1  0.249991  0.374989  0.625011  1
  Li  Li7  1  0.374903  0.749999  0.624903  1
  Li  Li8  1  0.125020  0.875020  0.750013  1
  Li  Li9  1  0.624999  0.374990  0.749978  1
  Li  Li10  1  0.125015  0.250001  0.875017  1
  Li  Li11  1  0.750020  0.125011  0.875000  1
  Tb  Tb12  1  0.624999  0.749998  0.874999  1
  Y  Y13  1  0.749938  0.374962  0.124993  1
  Y  Y14  1  0.374999  0.249999  0.124999  1
  Y  Y15  1  0.624991  0.875054  0.250110  1
  Y  Y16  1  0.125024  0.374963  0.249969  1
  Y  Y17  1  0.125001  0.750000  0.375000  1
  Y  Y18  1  0.250031  0.125039  0.374978  1
  Y  Y19  1  0.750063  0.875054  0.624943  1
  Y  Y20  1  0.875000  0.250000  0.625000  1
  Y  Y21  1  0.375007  0.125038  0.750062  1
  Y  Y22  1  0.875055  0.624945  0.749937  1
  Y  Y23  1  0.249890  0.624945  0.875009  1
  W  W24  1  0.000117  0.000000  0.999981  1
  W  W25  1  0.499882  0.000000  0.000019  1
  W  W26  1  0.499984  0.500001  0.000118  1
  W  W27  1  0.999997  0.499986  0.999998  1
  W  W28  1  0.000013  0.000015  0.500010  1
  W  W29  1  0.999990  0.499985  0.499987  1
  W  W30  1  0.500002  0.000015  0.500004  1
  W  W31  1  0.500018  0.500003  0.499883  1
  O  O32  1  0.119106  0.200665  0.027043  1
  O  O33  1  0.907972  0.326387  0.026986  1
  O  O34  1  0.407960  0.880979  0.081609  1
  O  O35  1  0.673670  0.700441  0.081853  1
  O  O36  1  0.673493  0.973004  0.092035  1
  O  O37  1  0.418393  0.619022  0.092044  1
  O  O38  1  0.200755  0.027123  0.119092  1
  O  O39  1  0.918439  0.592040  0.119022  1
  O  O40  1  0.581560  0.200666  0.173622  1
  O  O41  1  0.591969  0.472877  0.173634  1
  O  O42  1  0.026956  0.118990  0.200539  1
  O  O43  1  0.173619  0.581588  0.200613  1
  O  O44  1  0.918414  0.326387  0.299400  1
  O  O45  1  0.380908  0.472878  0.299243  1
  O  O46  1  0.299388  0.918411  0.326380  1
  O  O47  1  0.026984  0.907959  0.326400  1
  O  O48  1  0.472957  0.299335  0.380895  1
  O  O49  1  0.907968  0.581588  0.380975  1
  O  O50  1  0.526982  0.826398  0.407953  1
  O  O51  1  0.880986  0.081580  0.407965  1
  O  O52  1  0.619014  0.092047  0.418445  1
  O  O53  1  0.799416  0.826398  0.418446  1
  O  O54  1  0.299459  0.381010  0.473042  1
  O  O55  1  0.173600  0.592038  0.473017  1
  O  O56  1  0.700628  0.619022  0.526978  1
  O  O57  1  0.826400  0.407954  0.526967  1
  O  O58  1  0.200603  0.173615  0.581587  1
  O  O59  1  0.380976  0.907959  0.581560  1
  O  O60  1  0.119024  0.918410  0.592031  1
  O  O61  1  0.473014  0.173615  0.592029  1
  O  O62  1  0.526772  0.700442  0.618588  1
  O  O63  1  0.092034  0.418419  0.619015  1
  O  O64  1  0.700593  0.081580  0.673616  1
  O  O65  1  0.973033  0.092048  0.673601  1
  O  O66  1  0.081555  0.673601  0.700585  1
  O  O67  1  0.619032  0.526997  0.700489  1
  O  O68  1  0.973019  0.880980  0.799369  1
  O  O69  1  0.826385  0.418419  0.799406  1
  O  O70  1  0.407965  0.526995  0.826507  1
  O  O71  1  0.418145  0.799558  0.826330  1
  O  O72  1  0.081555  0.407954  0.880986  1
  O  O73  1  0.799510  0.973005  0.880969  1
  O  O74  1  0.581552  0.381011  0.907969  1
  O  O75  1  0.326370  0.027125  0.908032  1
  O  O76  1  0.326378  0.299335  0.918440  1
  O  O77  1  0.592033  0.118991  0.918451  1
  O  O78  1  0.092048  0.673601  0.973017  1
  O  O79  1  0.881413  0.799559  0.973230  1
