# generated using pymatgen
data_Lu5ZnBiIr
_symmetry_space_group_name_H-M   'P 1'
_cell_length_a   8.67181455
_cell_length_b   8.67181383
_cell_length_c   8.56444621
_cell_angle_alpha   126.36149470
_cell_angle_beta   126.36148913
_cell_angle_gamma   80.14969839
_symmetry_Int_Tables_number   1
_chemical_formula_structural   Lu5ZnBiIr
_chemical_formula_sum   'Lu10 Zn2 Bi2 Ir2'
_cell_volume   401.17206696
_cell_formula_units_Z   2
loop_
 _symmetry_equiv_pos_site_id
 _symmetry_equiv_pos_as_xyz
  1  'x, y, z'
loop_
 _atom_site_type_symbol
 _atom_site_label
 _atom_site_symmetry_multiplicity
 _atom_site_fract_x
 _atom_site_fract_y
 _atom_site_fract_z
 _atom_site_occupancy
  Lu  Lu0  1  0.000000  0.000000  0.000000  1
  Lu  Lu1  1  0.500000  0.500000  0.000000  1
  Lu  Lu2  1  0.807555  0.307555  0.839787  1
  Lu  Lu3  1  0.192445  0.692445  0.160213  1
  Lu  Lu4  1  0.467770  0.967770  0.160213  1
  Lu  Lu5  1  0.281496  0.487834  0.500000  1
  Lu  Lu6  1  0.012166  0.218504  0.500000  1
  Lu  Lu7  1  0.532230  0.032230  0.839787  1
  Lu  Lu8  1  0.718504  0.512166  0.500000  1
  Lu  Lu9  1  0.987834  0.781496  0.500000  1
  Zn  Zn10  1  0.633856  0.866144  0.500000  1
  Zn  Zn11  1  0.366144  0.133856  0.500000  1
  Bi  Bi12  1  0.250000  0.250000  0.000000  1
  Bi  Bi13  1  0.750000  0.750000  0.000000  1
  Ir  Ir14  1  0.140090  0.640090  0.780180  1
  Ir  Ir15  1  0.859910  0.359910  0.219820  1
