# generated using pymatgen
data_YEr2Ga(SiIr3)2
_symmetry_space_group_name_H-M   'P 1'
_cell_length_a   5.55637100
_cell_length_b   5.55637224
_cell_length_c   15.43694400
_cell_angle_alpha   90.00000000
_cell_angle_beta   90.00000000
_cell_angle_gamma   120.00001050
_symmetry_Int_Tables_number   1
_chemical_formula_structural   YEr2Ga(SiIr3)2
_chemical_formula_sum   'Y2 Er4 Ga2 Si4 Ir12'
_cell_volume   412.73802620
_cell_formula_units_Z   2
loop_
 _symmetry_equiv_pos_site_id
 _symmetry_equiv_pos_as_xyz
  1  'x, y, z'
loop_
 _atom_site_type_symbol
 _atom_site_label
 _atom_site_symmetry_multiplicity
 _atom_site_fract_x
 _atom_site_fract_y
 _atom_site_fract_z
 _atom_site_occupancy
  Y  Y0  1  0.333333  0.666667  0.750000  1
  Y  Y1  1  0.666667  0.333333  0.250000  1
  Er  Er2  1  0.333333  0.666667  0.539441  1
  Er  Er3  1  0.666667  0.333333  0.460559  1
  Er  Er4  1  0.666667  0.333333  0.039441  1
  Er  Er5  1  0.333333  0.666667  0.960559  1
  Ga  Ga6  1  0.000000  0.000000  0.000000  1
  Ga  Ga7  1  0.000000  0.000000  0.500000  1
  Si  Si8  1  0.000000  0.000000  0.250000  1
  Si  Si9  1  0.000000  0.000000  0.750000  1
  Si  Si10  1  0.333333  0.666667  0.250000  1
  Si  Si11  1  0.666667  0.333333  0.750000  1
  Ir  Ir12  1  0.168271  0.336542  0.132437  1
  Ir  Ir13  1  0.831729  0.663458  0.867563  1
  Ir  Ir14  1  0.663458  0.831729  0.132437  1
  Ir  Ir15  1  0.831729  0.663458  0.632437  1
  Ir  Ir16  1  0.336542  0.168271  0.867563  1
  Ir  Ir17  1  0.168271  0.336542  0.367563  1
  Ir  Ir18  1  0.168271  0.831729  0.132437  1
  Ir  Ir19  1  0.336542  0.168271  0.632437  1
  Ir  Ir20  1  0.831729  0.168271  0.867563  1
  Ir  Ir21  1  0.663458  0.831729  0.367563  1
  Ir  Ir22  1  0.831729  0.168271  0.632437  1
  Ir  Ir23  1  0.168271  0.831729  0.367563  1
