# generated using pymatgen
data_Dy2Tm2MnB12Ru
_symmetry_space_group_name_H-M   'P 1'
_cell_length_a   3.59514600
_cell_length_b   9.08057311
_cell_length_c   11.46624901
_cell_angle_alpha   89.99389184
_cell_angle_beta   90.00000000
_cell_angle_gamma   90.00000000
_symmetry_Int_Tables_number   1
_chemical_formula_structural   Dy2Tm2MnB12Ru
_chemical_formula_sum   'Dy4 Tm4 Mn2 B24 Ru2'
_cell_volume   374.32700367
_cell_formula_units_Z   2
loop_
 _symmetry_equiv_pos_site_id
 _symmetry_equiv_pos_as_xyz
  1  'x, y, z'
loop_
 _atom_site_type_symbol
 _atom_site_label
 _atom_site_symmetry_multiplicity
 _atom_site_fract_x
 _atom_site_fract_y
 _atom_site_fract_z
 _atom_site_occupancy
  Dy  Dy0  1  0.000000  0.326220  0.416318  1
  Dy  Dy1  1  0.000000  0.673780  0.583682  1
  Dy  Dy2  1  0.000000  0.820343  0.087475  1
  Dy  Dy3  1  0.000000  0.179657  0.912525  1
  Tm  Tm4  1  0.000000  0.939469  0.370566  1
  Tm  Tm5  1  0.000000  0.060531  0.629434  1
  Tm  Tm6  1  0.000000  0.444973  0.131789  1
  Tm  Tm7  1  0.000000  0.555027  0.868211  1
  Mn  Mn8  1  0.000000  0.639049  0.319631  1
  Mn  Mn9  1  0.000000  0.360951  0.680369  1
  B  B10  1  0.500000  0.554421  0.431939  1
  B  B11  1  0.500000  0.445579  0.568061  1
  B  B12  1  0.500000  0.053881  0.067436  1
  B  B13  1  0.500000  0.946119  0.932564  1
  B  B14  1  0.500000  0.747027  0.417319  1
  B  B15  1  0.500000  0.252973  0.582681  1
  B  B16  1  0.500000  0.249897  0.081925  1
  B  B17  1  0.500000  0.750103  0.918075  1
  B  B18  1  0.500000  0.789452  0.265905  1
  B  B19  1  0.500000  0.210548  0.734095  1
  B  B20  1  0.500000  0.291799  0.235532  1
  B  B21  1  0.500000  0.708201  0.764468  1
  B  B22  1  0.500000  0.630818  0.186259  1
  B  B23  1  0.500000  0.369182  0.813741  1
  B  B24  1  0.500000  0.130497  0.315389  1
  B  B25  1  0.500000  0.869503  0.684611  1
  B  B26  1  0.500000  0.982142  0.212673  1
  B  B27  1  0.500000  0.017858  0.787327  1
  B  B28  1  0.500000  0.485423  0.288616  1
  B  B29  1  0.500000  0.514577  0.711384  1
  B  B30  1  0.500000  0.601612  0.027898  1
  B  B31  1  0.500000  0.398388  0.972102  1
  B  B32  1  0.500000  0.101954  0.471930  1
  B  B33  1  0.500000  0.898046  0.528070  1
  Ru  Ru34  1  0.000000  0.138487  0.179739  1
  Ru  Ru35  1  0.000000  0.861513  0.820261  1
