# generated using pymatgen
data_Fe7Ni13Sn4(BO5)8
_symmetry_space_group_name_H-M   'P 1'
_cell_length_a   6.24356084
_cell_length_b   9.55664495
_cell_length_c   12.42129909
_cell_angle_alpha   89.90606652
_cell_angle_beta   89.96366754
_cell_angle_gamma   89.94845771
_symmetry_Int_Tables_number   1
_chemical_formula_structural   Fe7Ni13Sn4(BO5)8
_chemical_formula_sum   'Fe7 Ni13 Sn4 B8 O40'
_cell_volume   741.14634721
_cell_formula_units_Z   1
loop_
 _symmetry_equiv_pos_site_id
 _symmetry_equiv_pos_as_xyz
  1  'x, y, z'
loop_
 _atom_site_type_symbol
 _atom_site_label
 _atom_site_symmetry_multiplicity
 _atom_site_fract_x
 _atom_site_fract_y
 _atom_site_fract_z
 _atom_site_occupancy
  Fe  Fe0  1  0.508890  0.503561  0.279685  1
  Fe  Fe1  1  0.008694  0.496410  0.720281  1
  Fe  Fe2  1  0.991061  0.003769  0.220131  1
  Fe  Fe3  1  0.500098  0.999441  0.499008  1
  Fe  Fe4  1  0.498951  0.500882  0.997350  1
  Fe  Fe5  1  0.998870  0.500513  0.001397  1
  Fe  Fe6  1  0.000735  0.999469  0.502201  1
  Ni  Ni7  1  0.251580  0.758094  0.615582  1
  Ni  Ni8  1  0.747605  0.991497  0.000170  1
  Ni  Ni9  1  0.749195  0.743560  0.115200  1
  Ni  Ni10  1  0.751336  0.490932  0.500067  1
  Ni  Ni11  1  0.003689  0.997949  0.781727  1
  Ni  Ni12  1  0.249834  0.256226  0.884823  1
  Ni  Ni13  1  0.498348  0.497160  0.717768  1
  Ni  Ni14  1  0.249940  0.009227  0.999002  1
  Ni  Ni15  1  0.495097  0.997510  0.781348  1
  Ni  Ni16  1  0.998655  0.502441  0.282214  1
  Ni  Ni17  1  0.501221  0.002724  0.217746  1
  Ni  Ni18  1  0.750350  0.242516  0.384940  1
  Ni  Ni19  1  0.251042  0.508774  0.500976  1
  Sn  Sn20  1  0.248997  0.743957  0.116302  1
  Sn  Sn21  1  0.250949  0.243430  0.383582  1
  Sn  Sn22  1  0.748160  0.255666  0.883530  1
  Sn  Sn23  1  0.748666  0.757444  0.617279  1
  B  B24  1  0.750623  0.767652  0.359041  1
  B  B25  1  0.251281  0.772441  0.364864  1
  B  B26  1  0.253464  0.230098  0.641733  1
  B  B27  1  0.249174  0.273059  0.134979  1
  B  B28  1  0.252381  0.733967  0.857530  1
  B  B29  1  0.748238  0.728919  0.864164  1
  B  B30  1  0.746144  0.225335  0.635513  1
  B  B31  1  0.749324  0.268147  0.141188  1
  O  O32  1  0.491229  0.389740  0.420968  1
  O  O33  1  0.000951  0.609377  0.144672  1
  O  O34  1  0.740611  0.123017  0.139414  1
  O  O35  1  0.008756  0.890183  0.078710  1
  O  O36  1  0.254408  0.128722  0.139362  1
  O  O37  1  0.249252  0.659462  0.955419  1
  O  O38  1  0.002461  0.107304  0.358907  1
  O  O39  1  0.507964  0.109668  0.920192  1
  O  O40  1  0.749201  0.343346  0.043556  1
  O  O41  1  0.741930  0.843887  0.264354  1
  O  O42  1  0.749089  0.147444  0.732968  1
  O  O43  1  0.990128  0.610560  0.579709  1
  O  O44  1  0.243899  0.349366  0.232427  1
  O  O45  1  0.249445  0.879765  0.858039  1
  O  O46  1  0.500891  0.892001  0.644581  1
  O  O47  1  0.259612  0.375208  0.640802  1
  O  O48  1  0.255642  0.849050  0.267366  1
  O  O49  1  0.745759  0.152347  0.540247  1
  O  O50  1  0.744271  0.651088  0.767702  1
  O  O51  1  0.998619  0.891709  0.644606  1
  O  O52  1  0.749737  0.842862  0.456502  1
  O  O53  1  0.498957  0.109635  0.354432  1
  O  O54  1  0.489095  0.889973  0.078779  1
  O  O55  1  0.497581  0.608162  0.141223  1
  O  O56  1  0.997280  0.390511  0.857763  1
  O  O57  1  0.258237  0.656633  0.763818  1
  O  O58  1  0.500715  0.391330  0.855335  1
  O  O59  1  0.989123  0.109759  0.920746  1
  O  O60  1  0.249594  0.152472  0.736284  1
  O  O61  1  0.750667  0.655893  0.959712  1
  O  O62  1  0.011068  0.389316  0.421648  1
  O  O63  1  0.510896  0.609526  0.578812  1
  O  O64  1  0.744738  0.369560  0.640613  1
  O  O65  1  0.250411  0.156229  0.543958  1
  O  O66  1  0.244680  0.628323  0.360568  1
  O  O67  1  0.749611  0.873743  0.858546  1
  O  O68  1  0.254492  0.846519  0.459902  1
  O  O69  1  0.758797  0.343877  0.235729  1
  O  O70  1  0.248298  0.347018  0.039779  1
  O  O71  1  0.759314  0.622640  0.360527  1
