# generated using pymatgen
data_HoTh(Ni4Pt)2
_symmetry_space_group_name_H-M   'P 1'
_cell_length_a   4.03885800
_cell_length_b   5.10682743
_cell_length_c   8.51238754
_cell_angle_alpha   93.45857007
_cell_angle_beta   90.00000000
_cell_angle_gamma   90.00000000
_symmetry_Int_Tables_number   1
_chemical_formula_structural   HoTh(Ni4Pt)2
_chemical_formula_sum   'Ho1 Th1 Ni8 Pt2'
_cell_volume   175.25460755
_cell_formula_units_Z   1
loop_
 _symmetry_equiv_pos_site_id
 _symmetry_equiv_pos_as_xyz
  1  'x, y, z'
loop_
 _atom_site_type_symbol
 _atom_site_label
 _atom_site_symmetry_multiplicity
 _atom_site_fract_x
 _atom_site_fract_y
 _atom_site_fract_z
 _atom_site_occupancy
  Ho  Ho0  1  0.000000  0.500000  0.500000  1
  Th  Th1  1  0.000000  0.000000  0.000000  1
  Ni  Ni2  1  0.000000  0.977207  0.343856  1
  Ni  Ni3  1  0.000000  0.474455  0.840439  1
  Ni  Ni4  1  0.000000  0.525545  0.159561  1
  Ni  Ni5  1  0.000000  0.022793  0.656144  1
  Ni  Ni6  1  0.500000  0.000000  0.500000  1
  Ni  Ni7  1  0.500000  0.500000  0.000000  1
  Ni  Ni8  1  0.500000  0.752365  0.251109  1
  Ni  Ni9  1  0.500000  0.247635  0.748891  1
  Pt  Pt10  1  0.500000  0.253772  0.253089  1
  Pt  Pt11  1  0.500000  0.746228  0.746911  1
