# generated using pymatgen
data_BaPr3(AsPt)4
_symmetry_space_group_name_H-M   'P 1'
_cell_length_a   4.36560300
_cell_length_b   4.36560353
_cell_length_c   17.11617200
_cell_angle_alpha   90.00000000
_cell_angle_beta   90.00000000
_cell_angle_gamma   119.99998842
_symmetry_Int_Tables_number   1
_chemical_formula_structural   BaPr3(AsPt)4
_chemical_formula_sum   'Ba1 Pr3 As4 Pt4'
_cell_volume   282.50481575
_cell_formula_units_Z   1
loop_
 _symmetry_equiv_pos_site_id
 _symmetry_equiv_pos_as_xyz
  1  'x, y, z'
loop_
 _atom_site_type_symbol
 _atom_site_label
 _atom_site_symmetry_multiplicity
 _atom_site_fract_x
 _atom_site_fract_y
 _atom_site_fract_z
 _atom_site_occupancy
  Ba  Ba0  1  0.000000  0.000000  0.500000  1
  Pr  Pr1  1  0.000000  0.000000  0.000000  1
  Pr  Pr2  1  0.000000  0.000000  0.240216  1
  Pr  Pr3  1  0.000000  0.000000  0.759784  1
  As  As4  1  0.333333  0.666667  0.886140  1
  As  As5  1  0.666667  0.333333  0.113860  1
  As  As6  1  0.666667  0.333333  0.361938  1
  As  As7  1  0.333333  0.666667  0.638062  1
  Pt  Pt8  1  0.333333  0.666667  0.351532  1
  Pt  Pt9  1  0.666667  0.333333  0.648468  1
  Pt  Pt10  1  0.666667  0.333333  0.876452  1
  Pt  Pt11  1  0.333333  0.666667  0.123548  1
