# generated using pymatgen
data_LiHf12Re5Ir6
_symmetry_space_group_name_H-M   'P 1'
_cell_length_a   4.63592600
_cell_length_b   6.53586100
_cell_length_c   13.94186500
_cell_angle_alpha   90.00000000
_cell_angle_beta   90.00000000
_cell_angle_gamma   90.00000000
_symmetry_Int_Tables_number   1
_chemical_formula_structural   LiHf12Re5Ir6
_chemical_formula_sum   'Li1 Hf12 Re5 Ir6'
_cell_volume   422.43527418
_cell_formula_units_Z   1
loop_
 _symmetry_equiv_pos_site_id
 _symmetry_equiv_pos_as_xyz
  1  'x, y, z'
loop_
 _atom_site_type_symbol
 _atom_site_label
 _atom_site_symmetry_multiplicity
 _atom_site_fract_x
 _atom_site_fract_y
 _atom_site_fract_z
 _atom_site_occupancy
  Li  Li0  1  0.000000  0.000000  0.000000  1
  Hf  Hf1  1  0.500001  0.251121  0.000000  1
  Hf  Hf2  1  0.500001  0.748878  0.000000  1
  Hf  Hf3  1  0.000000  0.249997  0.167703  1
  Hf  Hf4  1  0.000000  0.750002  0.167703  1
  Hf  Hf5  1  0.499992  0.249656  0.333563  1
  Hf  Hf6  1  0.499992  0.750344  0.333563  1
  Hf  Hf7  1  0.000000  0.249140  0.500000  1
  Hf  Hf8  1  0.000000  0.750859  0.500000  1
  Hf  Hf9  1  0.500007  0.249656  0.666436  1
  Hf  Hf10  1  0.500007  0.750344  0.666436  1
  Hf  Hf11  1  0.000000  0.249997  0.832297  1
  Hf  Hf12  1  0.000000  0.750002  0.832297  1
  Re  Re13  1  0.499992  0.500000  0.166229  1
  Re  Re14  1  0.000000  0.000000  0.332880  1
  Re  Re15  1  0.500001  0.500000  0.500000  1
  Re  Re16  1  0.000000  0.000000  0.667121  1
  Re  Re17  1  0.500007  0.500000  0.833771  1
  Ir  Ir18  1  0.000000  0.500000  0.000000  1
  Ir  Ir19  1  0.500005  0.000000  0.164173  1
  Ir  Ir20  1  0.000000  0.500000  0.332953  1
  Ir  Ir21  1  0.500001  0.000000  0.500000  1
  Ir  Ir22  1  0.000000  0.500000  0.667047  1
  Ir  Ir23  1  0.499996  0.000000  0.835827  1
