# generated using pymatgen
data_Y4MgP12Ru19
_symmetry_space_group_name_H-M   'P 1'
_cell_length_a   12.47411334
_cell_length_b   12.49754659
_cell_length_c   3.99107500
_cell_angle_alpha   90.00000000
_cell_angle_beta   90.00000000
_cell_angle_gamma   120.06215789
_symmetry_Int_Tables_number   1
_chemical_formula_structural   Y4MgP12Ru19
_chemical_formula_sum   'Y4 Mg1 P12 Ru19'
_cell_volume   538.49616193
_cell_formula_units_Z   1
loop_
 _symmetry_equiv_pos_site_id
 _symmetry_equiv_pos_as_xyz
  1  'x, y, z'
loop_
 _atom_site_type_symbol
 _atom_site_label
 _atom_site_symmetry_multiplicity
 _atom_site_fract_x
 _atom_site_fract_y
 _atom_site_fract_z
 _atom_site_occupancy
  Y  Y0  1  0.816562  0.816079  0.500000  1
  Y  Y1  1  0.183438  0.999517  0.500000  1
  Y  Y2  1  0.672762  0.332586  0.000000  1
  Y  Y3  1  0.327238  0.659825  0.000000  1
  Mg  Mg4  1  0.000000  0.190100  0.500000  1
  P  P5  1  0.000000  0.827039  0.000000  1
  P  P6  1  0.194245  0.181291  0.000000  1
  P  P7  1  0.805755  0.987046  0.000000  1
  P  P8  1  0.698533  0.169451  0.500000  1
  P  P9  1  0.830709  0.524922  0.500000  1
  P  P10  1  0.480993  0.306535  0.500000  1
  P  P11  1  0.169291  0.694213  0.500000  1
  P  P12  1  0.519007  0.825541  0.500000  1
  P  P13  1  0.301467  0.470918  0.500000  1
  P  P14  1  0.000000  0.381150  0.000000  1
  P  P15  1  0.625258  0.626108  0.000000  1
  P  P16  1  0.374742  0.000850  0.000000  1
  Ru  Ru17  1  0.000000  0.560533  0.000000  1
  Ru  Ru18  1  0.439909  0.445832  0.000000  1
  Ru  Ru19  1  0.560091  0.005923  0.000000  1
  Ru  Ru20  1  0.000000  0.721689  0.500000  1
  Ru  Ru21  1  0.283477  0.279752  0.500000  1
  Ru  Ru22  1  0.716523  0.996276  0.500000  1
  Ru  Ru23  1  0.825344  0.182702  0.000000  1
  Ru  Ru24  1  0.815412  0.627440  0.000000  1
  Ru  Ru25  1  0.384523  0.194991  0.000000  1
  Ru  Ru26  1  0.184588  0.812027  0.000000  1
  Ru  Ru27  1  0.615477  0.810467  0.000000  1
  Ru  Ru28  1  0.174656  0.357357  0.000000  1
  Ru  Ru29  1  0.874200  0.364744  0.500000  1
  Ru  Ru30  1  0.633640  0.508525  0.500000  1
  Ru  Ru31  1  0.496505  0.126736  0.500000  1
  Ru  Ru32  1  0.366360  0.874885  0.500000  1
  Ru  Ru33  1  0.503495  0.630231  0.500000  1
  Ru  Ru34  1  0.125800  0.490545  0.500000  1
  Ru  Ru35  1  0.000000  0.016169  0.000000  1
