# generated using pymatgen
data_Dy10Tl7In(PtRh)2
_symmetry_space_group_name_H-M   'P 1'
_cell_length_a   3.63506600
_cell_length_b   8.22405163
_cell_length_c   18.44438174
_cell_angle_alpha   90.00811598
_cell_angle_beta   90.00000000
_cell_angle_gamma   90.00000000
_symmetry_Int_Tables_number   1
_chemical_formula_structural   Dy10Tl7In(PtRh)2
_chemical_formula_sum   'Dy10 Tl7 In1 Pt2 Rh2'
_cell_volume   551.39424157
_cell_formula_units_Z   1
loop_
 _symmetry_equiv_pos_site_id
 _symmetry_equiv_pos_as_xyz
  1  'x, y, z'
loop_
 _atom_site_type_symbol
 _atom_site_label
 _atom_site_symmetry_multiplicity
 _atom_site_fract_x
 _atom_site_fract_y
 _atom_site_fract_z
 _atom_site_occupancy
  Dy  Dy0  1  0.000000  0.113611  0.410886  1
  Dy  Dy1  1  0.000000  0.886178  0.588521  1
  Dy  Dy2  1  0.000000  0.385094  0.911139  1
  Dy  Dy3  1  0.000000  0.614975  0.088899  1
  Dy  Dy4  1  0.000000  0.240395  0.221942  1
  Dy  Dy5  1  0.000000  0.760293  0.778297  1
  Dy  Dy6  1  0.000000  0.249388  0.720245  1
  Dy  Dy7  1  0.000000  0.749388  0.279833  1
  Dy  Dy8  1  0.000000  0.000081  0.999934  1
  Dy  Dy9  1  0.000000  0.501795  0.499879  1
  Tl  Tl10  1  0.500000  0.421782  0.353486  1
  Tl  Tl11  1  0.500000  0.581585  0.647077  1
  Tl  Tl12  1  0.500000  0.074191  0.850779  1
  Tl  Tl13  1  0.500000  0.926393  0.149512  1
  Tl  Tl14  1  0.500000  0.292459  0.063985  1
  Tl  Tl15  1  0.500000  0.707417  0.936010  1
  Tl  Tl16  1  0.500000  0.205620  0.565777  1
  In  In17  1  0.500000  0.794973  0.432453  1
  Pt  Pt18  1  0.500000  0.475134  0.802176  1
  Pt  Pt19  1  0.500000  0.523885  0.197781  1
  Rh  Rh20  1  0.500000  0.017634  0.306164  1
  Rh  Rh21  1  0.500000  0.977729  0.695226  1
