# generated using pymatgen
data_ScNb5Si7Ni16
_symmetry_space_group_name_H-M   'P 1'
_cell_length_a   7.96856521
_cell_length_b   7.96856437
_cell_length_c   7.97671900
_cell_angle_alpha   59.96613791
_cell_angle_beta   59.96614143
_cell_angle_gamma   60.06771923
_symmetry_Int_Tables_number   1
_chemical_formula_structural   ScNb5Si7Ni16
_chemical_formula_sum   'Sc1 Nb5 Si7 Ni16'
_cell_volume   358.15300241
_cell_formula_units_Z   1
loop_
 _symmetry_equiv_pos_site_id
 _symmetry_equiv_pos_as_xyz
  1  'x, y, z'
loop_
 _atom_site_type_symbol
 _atom_site_label
 _atom_site_symmetry_multiplicity
 _atom_site_fract_x
 _atom_site_fract_y
 _atom_site_fract_z
 _atom_site_occupancy
  Sc  Sc0  1  0.796072  0.796072  0.203928  1
  Nb  Nb1  1  0.797628  0.205159  0.794841  1
  Nb  Nb2  1  0.205159  0.797628  0.202372  1
  Nb  Nb3  1  0.797628  0.205159  0.202372  1
  Nb  Nb4  1  0.205159  0.797628  0.794841  1
  Nb  Nb5  1  0.200391  0.200391  0.799609  1
  Si  Si6  1  0.502118  0.502118  0.497882  1
  Si  Si7  1  0.498643  0.001821  0.501357  1
  Si  Si8  1  0.001821  0.498643  0.998179  1
  Si  Si9  1  0.999472  0.999472  0.500528  1
  Si  Si10  1  0.498643  0.001821  0.998179  1
  Si  Si11  1  0.001821  0.498643  0.501357  1
  Si  Si12  1  0.499472  0.499472  0.000528  1
  Ni  Ni13  1  0.168609  0.168609  0.494391  1
  Ni  Ni14  1  0.496750  0.166937  0.168157  1
  Ni  Ni15  1  0.168609  0.168609  0.168392  1
  Ni  Ni16  1  0.505609  0.831608  0.831391  1
  Ni  Ni17  1  0.831843  0.831843  0.833063  1
  Ni  Ni18  1  0.831843  0.831843  0.503250  1
  Ni  Ni19  1  0.166937  0.496750  0.168157  1
  Ni  Ni20  1  0.615725  0.150533  0.616871  1
  Ni  Ni21  1  0.383129  0.383129  0.849467  1
  Ni  Ni22  1  0.851980  0.378845  0.384588  1
  Ni  Ni23  1  0.383129  0.383129  0.384275  1
  Ni  Ni24  1  0.150533  0.615725  0.616871  1
  Ni  Ni25  1  0.615412  0.615412  0.621155  1
  Ni  Ni26  1  0.615412  0.615412  0.148020  1
  Ni  Ni27  1  0.378845  0.851980  0.384588  1
  Ni  Ni28  1  0.831608  0.505609  0.831391  1
