# generated using pymatgen
data_Pa(P3Os)4
_symmetry_space_group_name_H-M   'P 1'
_cell_length_a   7.02602088
_cell_length_b   7.02602169
_cell_length_c   7.02602100
_cell_angle_alpha   109.47121866
_cell_angle_beta   109.47122097
_cell_angle_gamma   109.47121798
_symmetry_Int_Tables_number   1
_chemical_formula_structural   Pa(P3Os)4
_chemical_formula_sum   'Pa1 P12 Os4'
_cell_volume   266.99707149
_cell_formula_units_Z   1
loop_
 _symmetry_equiv_pos_site_id
 _symmetry_equiv_pos_as_xyz
  1  'x, y, z'
loop_
 _atom_site_type_symbol
 _atom_site_label
 _atom_site_symmetry_multiplicity
 _atom_site_fract_x
 _atom_site_fract_y
 _atom_site_fract_z
 _atom_site_occupancy
  Pa  Pa0  1  0.000000  0.000000  0.000000  1
  P  P1  1  0.857792  0.647457  0.505249  1
  P  P2  1  0.142208  0.352543  0.494751  1
  P  P3  1  0.142208  0.647457  0.789665  1
  P  P4  1  0.857792  0.352543  0.210335  1
  P  P5  1  0.647457  0.505249  0.857792  1
  P  P6  1  0.352543  0.494751  0.142208  1
  P  P7  1  0.647457  0.789665  0.142208  1
  P  P8  1  0.352543  0.210335  0.857792  1
  P  P9  1  0.505249  0.857792  0.647457  1
  P  P10  1  0.494751  0.142208  0.352543  1
  P  P11  1  0.789665  0.142208  0.647457  1
  P  P12  1  0.210335  0.857792  0.352543  1
  Os  Os13  1  0.500000  0.500000  0.500000  1
  Os  Os14  1  0.500000  0.000000  0.000000  1
  Os  Os15  1  0.000000  0.500000  0.000000  1
  Os  Os16  1  0.000000  0.000000  0.500000  1
