# generated using pymatgen
data_Tb8MgGaPd23
_symmetry_space_group_name_H-M   'P 1'
_cell_length_a   8.45067400
_cell_length_b   8.41760500
_cell_length_c   8.30874400
_cell_angle_alpha   90.00000000
_cell_angle_beta   90.00000000
_cell_angle_gamma   90.00000000
_symmetry_Int_Tables_number   1
_chemical_formula_structural   Tb8MgGaPd23
_chemical_formula_sum   'Tb8 Mg1 Ga1 Pd23'
_cell_volume   591.03781595
_cell_formula_units_Z   1
loop_
 _symmetry_equiv_pos_site_id
 _symmetry_equiv_pos_as_xyz
  1  'x, y, z'
loop_
 _atom_site_type_symbol
 _atom_site_label
 _atom_site_symmetry_multiplicity
 _atom_site_fract_x
 _atom_site_fract_y
 _atom_site_fract_z
 _atom_site_occupancy
  Tb  Tb0  1  0.263799  0.242393  0.748941  1
  Tb  Tb1  1  0.250999  0.745917  0.252342  1
  Tb  Tb2  1  0.749001  0.254083  0.252342  1
  Tb  Tb3  1  0.736201  0.757607  0.748941  1
  Tb  Tb4  1  0.749001  0.745917  0.252342  1
  Tb  Tb5  1  0.736201  0.242393  0.748941  1
  Tb  Tb6  1  0.263799  0.757607  0.748941  1
  Tb  Tb7  1  0.250999  0.254083  0.252342  1
  Mg  Mg8  1  0.000000  0.500000  0.731518  1
  Ga  Ga9  1  0.000000  0.000000  0.001771  1
  Pd  Pd10  1  0.500000  0.500000  0.747179  1
  Pd  Pd11  1  0.500000  0.254027  0.497466  1
  Pd  Pd12  1  0.253500  0.500000  0.505977  1
  Pd  Pd13  1  0.500000  0.500000  0.252561  1
  Pd  Pd14  1  0.500000  0.745973  0.497466  1
  Pd  Pd15  1  0.746500  0.500000  0.505977  1
  Pd  Pd16  1  0.000000  0.000000  0.707977  1
  Pd  Pd17  1  0.000000  0.292956  0.989980  1
  Pd  Pd18  1  0.289511  0.000000  0.003653  1
  Pd  Pd19  1  0.000000  0.000000  0.294502  1
  Pd  Pd20  1  0.000000  0.707044  0.989980  1
  Pd  Pd21  1  0.710489  0.000000  0.003653  1
  Pd  Pd22  1  0.500000  0.259707  0.003053  1
  Pd  Pd23  1  0.260792  0.000000  0.497972  1
  Pd  Pd24  1  0.000000  0.262464  0.506692  1
  Pd  Pd25  1  0.500000  0.000000  0.740656  1
  Pd  Pd26  1  0.259832  0.500000  0.994807  1
  Pd  Pd27  1  0.000000  0.500000  0.259165  1
  Pd  Pd28  1  0.500000  0.740293  0.003053  1
  Pd  Pd29  1  0.000000  0.737536  0.506692  1
  Pd  Pd30  1  0.500000  0.000000  0.260339  1
  Pd  Pd31  1  0.739208  0.000000  0.497972  1
  Pd  Pd32  1  0.740168  0.500000  0.994807  1
