# generated using pymatgen
data_PrGd2TaO7
_symmetry_space_group_name_H-M   'P 1'
_cell_length_a   6.58508182
_cell_length_b   6.58508179
_cell_length_c   7.66645600
_cell_angle_alpha   90.00000000
_cell_angle_beta   90.00000000
_cell_angle_gamma   110.62644221
_symmetry_Int_Tables_number   1
_chemical_formula_structural   PrGd2TaO7
_chemical_formula_sum   'Pr2 Gd4 Ta2 O14'
_cell_volume   311.13228560
_cell_formula_units_Z   2
loop_
 _symmetry_equiv_pos_site_id
 _symmetry_equiv_pos_as_xyz
  1  'x, y, z'
loop_
 _atom_site_type_symbol
 _atom_site_label
 _atom_site_symmetry_multiplicity
 _atom_site_fract_x
 _atom_site_fract_y
 _atom_site_fract_z
 _atom_site_occupancy
  Pr  Pr0  1  0.000000  0.000000  0.000000  1
  Pr  Pr1  1  0.000000  0.000000  0.500000  1
  Gd  Gd2  1  0.518104  0.058477  0.250000  1
  Gd  Gd3  1  0.941523  0.481896  0.750000  1
  Gd  Gd4  1  0.058477  0.518104  0.250000  1
  Gd  Gd5  1  0.481896  0.941523  0.750000  1
  Ta  Ta6  1  0.500000  0.500000  0.000000  1
  Ta  Ta7  1  0.500000  0.500000  0.500000  1
  O  O8  1  0.884982  0.158815  0.250000  1
  O  O9  1  0.841185  0.115018  0.750000  1
  O  O10  1  0.817412  0.561307  0.034495  1
  O  O11  1  0.438693  0.182588  0.965505  1
  O  O12  1  0.817412  0.561307  0.465505  1
  O  O13  1  0.438693  0.182588  0.534495  1
  O  O14  1  0.572496  0.572496  0.750000  1
  O  O15  1  0.427504  0.427504  0.250000  1
  O  O16  1  0.182588  0.438693  0.534495  1
  O  O17  1  0.561307  0.817412  0.034495  1
  O  O18  1  0.182588  0.438693  0.965505  1
  O  O19  1  0.561307  0.817412  0.465505  1
  O  O20  1  0.158815  0.884982  0.250000  1
  O  O21  1  0.115018  0.841185  0.750000  1
