# generated using pymatgen
data_ErTm11ZnCo4Sn
_symmetry_space_group_name_H-M   'P 1'
_cell_length_a   8.17989613
_cell_length_b   8.17203329
_cell_length_c   8.17203430
_cell_angle_alpha   112.10637255
_cell_angle_beta   109.55496974
_cell_angle_gamma   106.75992868
_symmetry_Int_Tables_number   1
_chemical_formula_structural   ErTm11ZnCo4Sn
_chemical_formula_sum   'Er1 Tm11 Zn1 Co4 Sn1'
_cell_volume   419.79375738
_cell_formula_units_Z   1
loop_
 _symmetry_equiv_pos_site_id
 _symmetry_equiv_pos_as_xyz
  1  'x, y, z'
loop_
 _atom_site_type_symbol
 _atom_site_label
 _atom_site_symmetry_multiplicity
 _atom_site_fract_x
 _atom_site_fract_y
 _atom_site_fract_z
 _atom_site_occupancy
  Er  Er0  1  0.430512  0.230221  0.200292  1
  Tm  Tm1  1  0.569806  0.770258  0.799547  1
  Tm  Tm2  1  0.029713  0.229808  0.799904  1
  Tm  Tm3  1  0.969602  0.769646  0.199956  1
  Tm  Tm4  1  0.181581  0.282943  0.465082  1
  Tm  Tm5  1  0.818810  0.717599  0.535850  1
  Tm  Tm6  1  0.181581  0.716499  0.898637  1
  Tm  Tm7  1  0.818810  0.282960  0.101212  1
  Tm  Tm8  1  0.323255  0.635210  0.310933  1
  Tm  Tm9  1  0.676860  0.365137  0.689430  1
  Tm  Tm10  1  0.323255  0.012321  0.688047  1
  Tm  Tm11  1  0.676860  0.987430  0.311721  1
  Zn  Zn12  1  0.999962  0.999630  0.000332  1
  Co  Co13  1  0.343901  0.999780  0.344120  1
  Co  Co14  1  0.655242  0.000130  0.655112  1
  Co  Co15  1  0.115451  0.615350  0.500101  1
  Co  Co16  1  0.884880  0.384722  0.500158  1
  Sn  Sn17  1  0.499919  0.500354  0.999564  1
