# generated using pymatgen
data_LaPr3(Ga12Rh)2
_symmetry_space_group_name_H-M   'P 1'
_cell_length_a   6.14544855
_cell_length_b   6.14544855
_cell_length_c   15.74258300
_cell_angle_alpha   90.00000000
_cell_angle_beta   90.00000000
_cell_angle_gamma   89.95142567
_symmetry_Int_Tables_number   1
_chemical_formula_structural   LaPr3(Ga12Rh)2
_chemical_formula_sum   'La1 Pr3 Ga24 Rh2'
_cell_volume   594.54264396
_cell_formula_units_Z   1
loop_
 _symmetry_equiv_pos_site_id
 _symmetry_equiv_pos_as_xyz
  1  'x, y, z'
loop_
 _atom_site_type_symbol
 _atom_site_label
 _atom_site_symmetry_multiplicity
 _atom_site_fract_x
 _atom_site_fract_y
 _atom_site_fract_z
 _atom_site_occupancy
  La  La0  1  0.750000  0.250000  0.243308  1
  Pr  Pr1  1  0.250000  0.750000  0.242901  1
  Pr  Pr2  1  0.250000  0.750000  0.756935  1
  Pr  Pr3  1  0.750000  0.250000  0.757202  1
  Ga  Ga4  1  0.250000  0.250000  0.187527  1
  Ga  Ga5  1  0.750000  0.750000  0.187527  1
  Ga  Ga6  1  0.750000  0.750000  0.812189  1
  Ga  Ga7  1  0.250000  0.250000  0.812189  1
  Ga  Ga8  1  0.250000  0.250000  0.345673  1
  Ga  Ga9  1  0.750000  0.750000  0.345673  1
  Ga  Ga10  1  0.750000  0.750000  0.654538  1
  Ga  Ga11  1  0.250000  0.250000  0.654538  1
  Ga  Ga12  1  0.499998  0.999998  0.913762  1
  Ga  Ga13  1  0.999958  0.000042  0.913747  1
  Ga  Ga14  1  0.500042  0.499958  0.913747  1
  Ga  Ga15  1  0.000002  0.500002  0.913762  1
  Ga  Ga16  1  0.500013  0.000013  0.086273  1
  Ga  Ga17  1  0.000018  0.999982  0.086288  1
  Ga  Ga18  1  0.499982  0.500018  0.086288  1
  Ga  Ga19  1  0.999987  0.499987  0.086273  1
  Ga  Ga20  1  0.582053  0.082053  0.431776  1
  Ga  Ga21  1  0.081940  0.918060  0.431653  1
  Ga  Ga22  1  0.418060  0.581940  0.431653  1
  Ga  Ga23  1  0.917947  0.417947  0.431776  1
  Ga  Ga24  1  0.418061  0.918061  0.568268  1
  Ga  Ga25  1  0.917921  0.082079  0.568309  1
  Ga  Ga26  1  0.582079  0.417921  0.568309  1
  Ga  Ga27  1  0.081939  0.581939  0.568268  1
  Rh  Rh28  1  0.750000  0.250000  0.999767  1
  Rh  Rh29  1  0.250000  0.750000  0.999877  1
