# generated using pymatgen
data_Al11ZnOs2
_symmetry_space_group_name_H-M   'P 1'
_cell_length_a   4.98599165
_cell_length_b   4.98599127
_cell_length_c   9.03607490
_cell_angle_alpha   90.04623476
_cell_angle_beta   90.04621921
_cell_angle_gamma   97.97814063
_symmetry_Int_Tables_number   1
_chemical_formula_structural   Al11ZnOs2
_chemical_formula_sum   'Al11 Zn1 Os2'
_cell_volume   222.46340684
_cell_formula_units_Z   1
loop_
 _symmetry_equiv_pos_site_id
 _symmetry_equiv_pos_as_xyz
  1  'x, y, z'
loop_
 _atom_site_type_symbol
 _atom_site_label
 _atom_site_symmetry_multiplicity
 _atom_site_fract_x
 _atom_site_fract_y
 _atom_site_fract_z
 _atom_site_occupancy
  Al  Al0  1  0.673858  0.318055  0.001105  1
  Al  Al1  1  0.321789  0.679537  0.499792  1
  Al  Al2  1  0.318055  0.673858  0.001105  1
  Al  Al3  1  0.679537  0.321789  0.499792  1
  Al  Al4  1  0.867539  0.867539  0.600999  1
  Al  Al5  1  0.135049  0.135049  0.393539  1
  Al  Al6  1  0.863894  0.863894  0.904650  1
  Al  Al7  1  0.978708  0.617295  0.248229  1
  Al  Al8  1  0.024239  0.383673  0.751637  1
  Al  Al9  1  0.617295  0.978708  0.248229  1
  Al  Al10  1  0.383673  0.024239  0.751637  1
  Zn  Zn11  1  0.129040  0.129040  0.098103  1
  Os  Os12  1  0.465902  0.465902  0.251084  1
  Os  Os13  1  0.541421  0.541421  0.750100  1
