# generated using pymatgen
data_Pr4Ga7Ge3IrRh5
_symmetry_space_group_name_H-M   'P 1'
_cell_length_a   8.64656155
_cell_length_b   8.69349256
_cell_length_c   8.69349194
_cell_angle_alpha   140.71187962
_cell_angle_beta   108.48312602
_cell_angle_gamma   84.84961270
_symmetry_Int_Tables_number   1
_chemical_formula_structural   Pr4Ga7Ge3IrRh5
_chemical_formula_sum   'Pr4 Ga7 Ge3 Ir1 Rh5'
_cell_volume   379.05073859
_cell_formula_units_Z   1
loop_
 _symmetry_equiv_pos_site_id
 _symmetry_equiv_pos_as_xyz
  1  'x, y, z'
loop_
 _atom_site_type_symbol
 _atom_site_label
 _atom_site_symmetry_multiplicity
 _atom_site_fract_x
 _atom_site_fract_y
 _atom_site_fract_z
 _atom_site_occupancy
  Pr  Pr0  1  0.860804  0.631104  0.229700  1
  Pr  Pr1  1  0.136782  0.364588  0.772194  1
  Pr  Pr2  1  0.409161  0.137915  0.271246  1
  Pr  Pr3  1  0.594437  0.864781  0.729656  1
  Ga  Ga4  1  0.498440  0.751940  0.249658  1
  Ga  Ga5  1  0.498440  0.248783  0.746501  1
  Ga  Ga6  1  0.213874  0.963178  0.749059  1
  Ga  Ga7  1  0.787438  0.533473  0.746929  1
  Ga  Ga8  1  0.787438  0.040509  0.253966  1
  Ga  Ga9  1  0.213874  0.464815  0.250696  1
  Ga  Ga10  1  0.074051  0.907599  0.166452  1
  Ge  Ge11  1  0.930349  0.093898  0.836451  1
  Ge  Ge12  1  0.736117  0.402650  0.333466  1
  Ge  Ge13  1  0.258664  0.593299  0.665365  1
  Ir  Ir14  1  0.546351  0.645286  0.901065  1
  Rh  Rh15  1  0.998026  0.748523  0.746540  1
  Rh  Rh16  1  0.998026  0.251486  0.249503  1
  Rh  Rh17  1  0.258446  0.855900  0.402546  1
  Rh  Rh18  1  0.745731  0.143375  0.602356  1
  Rh  Rh19  1  0.453549  0.356897  0.096651  1
