# generated using pymatgen
data_Tb2Al20Fe2IrRh
_symmetry_space_group_name_H-M   'P 1'
_cell_length_a   6.81902253
_cell_length_b   6.81480472
_cell_length_c   9.09970830
_cell_angle_alpha   90.13225752
_cell_angle_beta   90.18128528
_cell_angle_gamma   97.09728525
_symmetry_Int_Tables_number   1
_chemical_formula_structural   Tb2Al20Fe2IrRh
_chemical_formula_sum   'Tb2 Al20 Fe2 Ir1 Rh1'
_cell_volume   419.62249582
_cell_formula_units_Z   1
loop_
 _symmetry_equiv_pos_site_id
 _symmetry_equiv_pos_as_xyz
  1  'x, y, z'
loop_
 _atom_site_type_symbol
 _atom_site_label
 _atom_site_symmetry_multiplicity
 _atom_site_fract_x
 _atom_site_fract_y
 _atom_site_fract_z
 _atom_site_occupancy
  Tb  Tb0  1  0.872557  0.127524  0.749787  1
  Tb  Tb1  1  0.127443  0.872476  0.250213  1
  Al  Al2  1  0.619778  0.372886  0.549696  1
  Al  Al3  1  0.380222  0.627114  0.450304  1
  Al  Al4  1  0.372892  0.620072  0.049958  1
  Al  Al5  1  0.627108  0.379928  0.950042  1
  Al  Al6  1  0.228904  0.220234  0.495851  1
  Al  Al7  1  0.771096  0.779766  0.504149  1
  Al  Al8  1  0.778541  0.770941  0.004079  1
  Al  Al9  1  0.221459  0.229059  0.995921  1
  Al  Al10  1  0.847602  0.161244  0.100097  1
  Al  Al11  1  0.152398  0.838756  0.899903  1
  Al  Al12  1  0.161873  0.847603  0.600498  1
  Al  Al13  1  0.838127  0.152397  0.399502  1
  Al  Al14  1  0.859594  0.587256  0.754518  1
  Al  Al15  1  0.140406  0.412744  0.245482  1
  Al  Al16  1  0.413146  0.140389  0.746113  1
  Al  Al17  1  0.586854  0.859611  0.253887  1
  Al  Al18  1  0.221578  0.480706  0.754689  1
  Al  Al19  1  0.778422  0.519294  0.245311  1
  Al  Al20  1  0.519285  0.777748  0.745477  1
  Al  Al21  1  0.480715  0.222252  0.254523  1
  Fe  Fe22  1  0.000000  0.500000  0.000000  1
  Fe  Fe23  1  0.500000  0.000000  0.500000  1
  Ir  Ir24  1  0.000000  0.500000  0.500000  1
  Rh  Rh25  1  0.500000  0.000000  0.000000  1
