# generated using pymatgen
data_Tb7Dy3Cd3Ru
_symmetry_space_group_name_H-M   'P 1'
_cell_length_a   9.62336400
_cell_length_b   9.62336427
_cell_length_c   9.88291200
_cell_angle_alpha   90.00000000
_cell_angle_beta   90.00000000
_cell_angle_gamma   119.99999909
_symmetry_Int_Tables_number   1
_chemical_formula_structural   Tb7Dy3Cd3Ru
_chemical_formula_sum   'Tb14 Dy6 Cd6 Ru2'
_cell_volume   792.62798587
_cell_formula_units_Z   2
loop_
 _symmetry_equiv_pos_site_id
 _symmetry_equiv_pos_as_xyz
  1  'x, y, z'
loop_
 _atom_site_type_symbol
 _atom_site_label
 _atom_site_symmetry_multiplicity
 _atom_site_fract_x
 _atom_site_fract_y
 _atom_site_fract_z
 _atom_site_occupancy
  Tb  Tb0  1  0.000000  0.000000  0.500000  1
  Tb  Tb1  1  0.000000  0.000000  0.000000  1
  Tb  Tb2  1  0.790099  0.209901  0.939754  1
  Tb  Tb3  1  0.790099  0.580197  0.939754  1
  Tb  Tb4  1  0.419803  0.209901  0.939754  1
  Tb  Tb5  1  0.209901  0.790099  0.060246  1
  Tb  Tb6  1  0.209901  0.419803  0.060246  1
  Tb  Tb7  1  0.580197  0.790099  0.060246  1
  Tb  Tb8  1  0.541218  0.458782  0.250517  1
  Tb  Tb9  1  0.541218  0.082435  0.250517  1
  Tb  Tb10  1  0.917565  0.458782  0.250517  1
  Tb  Tb11  1  0.458782  0.541218  0.749483  1
  Tb  Tb12  1  0.458782  0.917565  0.749483  1
  Tb  Tb13  1  0.082435  0.541218  0.749483  1
  Dy  Dy14  1  0.210057  0.789943  0.440032  1
  Dy  Dy15  1  0.210057  0.420116  0.440032  1
  Dy  Dy16  1  0.579884  0.789943  0.440032  1
  Dy  Dy17  1  0.789943  0.210057  0.559968  1
  Dy  Dy18  1  0.789943  0.579884  0.559968  1
  Dy  Dy19  1  0.420116  0.210057  0.559968  1
  Cd  Cd20  1  0.885322  0.114678  0.250069  1
  Cd  Cd21  1  0.885322  0.770645  0.250069  1
  Cd  Cd22  1  0.229355  0.114678  0.250069  1
  Cd  Cd23  1  0.114678  0.885322  0.749931  1
  Cd  Cd24  1  0.114678  0.229355  0.749931  1
  Cd  Cd25  1  0.770645  0.885322  0.749931  1
  Ru  Ru26  1  0.333333  0.666667  0.250643  1
  Ru  Ru27  1  0.666667  0.333333  0.749357  1
