# generated using pymatgen
data_HoTm3Al4(IrRh)2
_symmetry_space_group_name_H-M   'P 1'
_cell_length_a   4.23938800
_cell_length_b   6.77704941
_cell_length_c   7.89182302
_cell_angle_alpha   90.04391836
_cell_angle_beta   90.00000000
_cell_angle_gamma   90.00000000
_symmetry_Int_Tables_number   1
_chemical_formula_structural   HoTm3Al4(IrRh)2
_chemical_formula_sum   'Ho1 Tm3 Al4 Ir2 Rh2'
_cell_volume   226.73628580
_cell_formula_units_Z   1
loop_
 _symmetry_equiv_pos_site_id
 _symmetry_equiv_pos_as_xyz
  1  'x, y, z'
loop_
 _atom_site_type_symbol
 _atom_site_label
 _atom_site_symmetry_multiplicity
 _atom_site_fract_x
 _atom_site_fract_y
 _atom_site_fract_z
 _atom_site_occupancy
  Ho  Ho0  1  0.250000  0.034844  0.320717  1
  Tm  Tm1  1  0.250000  0.533412  0.178647  1
  Tm  Tm2  1  0.750000  0.466643  0.820816  1
  Tm  Tm3  1  0.750000  0.964272  0.680212  1
  Al  Al4  1  0.250000  0.638831  0.561357  1
  Al  Al5  1  0.750000  0.361425  0.439216  1
  Al  Al6  1  0.750000  0.859858  0.059553  1
  Al  Al7  1  0.250000  0.140053  0.939217  1
  Ir  Ir8  1  0.250000  0.766537  0.878009  1
  Ir  Ir9  1  0.750000  0.235319  0.120524  1
  Rh  Rh10  1  0.750000  0.732897  0.380239  1
  Rh  Rh11  1  0.250000  0.265909  0.621493  1
