# generated using pymatgen
data_K(Sn3Rh2)2
_symmetry_space_group_name_H-M   'P 1'
_cell_length_a   7.00092408
_cell_length_b   7.00092377
_cell_length_c   7.00092247
_cell_angle_alpha   119.28835471
_cell_angle_beta   119.28834908
_cell_angle_gamma   91.23708767
_symmetry_Int_Tables_number   1
_chemical_formula_structural   K(Sn3Rh2)2
_chemical_formula_sum   'K1 Sn6 Rh4'
_cell_volume   245.18168603
_cell_formula_units_Z   1
loop_
 _symmetry_equiv_pos_site_id
 _symmetry_equiv_pos_as_xyz
  1  'x, y, z'
loop_
 _atom_site_type_symbol
 _atom_site_label
 _atom_site_symmetry_multiplicity
 _atom_site_fract_x
 _atom_site_fract_y
 _atom_site_fract_z
 _atom_site_occupancy
  K  K0  1  0.000000  0.000000  0.000000  1
  Sn  Sn1  1  0.876658  0.531504  0.000000  1
  Sn  Sn2  1  0.531504  0.876658  0.000000  1
  Sn  Sn3  1  0.468496  0.468496  0.345154  1
  Sn  Sn4  1  0.500000  0.000000  0.500000  1
  Sn  Sn5  1  0.000000  0.500000  0.500000  1
  Sn  Sn6  1  0.123341  0.123341  0.654846  1
  Rh  Rh7  1  0.589301  0.247249  0.000000  1
  Rh  Rh8  1  0.247249  0.589301  0.000000  1
  Rh  Rh9  1  0.752752  0.752752  0.342052  1
  Rh  Rh10  1  0.410698  0.410698  0.657948  1
