# generated using pymatgen
data_Li8Ho5Er3(Sn3Bi)2
_symmetry_space_group_name_H-M   'P 1'
_cell_length_a   9.41010742
_cell_length_b   9.41081233
_cell_length_c   7.21202300
_cell_angle_alpha   90.00019584
_cell_angle_beta   90.10446867
_cell_angle_gamma   120.00339790
_symmetry_Int_Tables_number   1
_chemical_formula_structural   Li8Ho5Er3(Sn3Bi)2
_chemical_formula_sum   'Li8 Ho5 Er3 Sn6 Bi2'
_cell_volume   553.08718151
_cell_formula_units_Z   1
loop_
 _symmetry_equiv_pos_site_id
 _symmetry_equiv_pos_as_xyz
  1  'x, y, z'
loop_
 _atom_site_type_symbol
 _atom_site_label
 _atom_site_symmetry_multiplicity
 _atom_site_fract_x
 _atom_site_fract_y
 _atom_site_fract_z
 _atom_site_occupancy
  Li  Li0  1  0.167786  0.334158  0.283348  1
  Li  Li1  1  0.167779  0.833627  0.283350  1
  Li  Li2  1  0.664924  0.832445  0.286690  1
  Li  Li3  1  0.829049  0.664327  0.787151  1
  Li  Li4  1  0.829048  0.164733  0.787149  1
  Li  Li5  1  0.338170  0.169082  0.791282  1
  Li  Li6  1  0.337947  0.668980  0.668882  1
  Li  Li7  1  0.665427  0.332714  0.173114  1
  Ho  Ho8  1  0.493141  0.978413  0.997198  1
  Ho  Ho9  1  0.493138  0.514733  0.997229  1
  Ho  Ho10  1  0.017477  0.508744  0.999760  1
  Ho  Ho11  1  0.994716  0.997358  0.494911  1
  Ho  Ho12  1  0.995320  0.997659  0.005373  1
  Er  Er13  1  0.517079  0.026709  0.490760  1
  Er  Er14  1  0.517032  0.490324  0.490873  1
  Er  Er15  1  0.971915  0.485974  0.488495  1
  Sn  Sn16  1  0.666916  0.833462  0.732472  1
  Sn  Sn17  1  0.833679  0.666283  0.232582  1
  Sn  Sn18  1  0.833696  0.167403  0.232572  1
  Sn  Sn19  1  0.333245  0.166627  0.232390  1
  Sn  Sn20  1  0.332120  0.666049  0.260416  1
  Sn  Sn21  1  0.667820  0.333912  0.759078  1
  Bi  Bi22  1  0.166285  0.333614  0.733454  1
  Bi  Bi23  1  0.166290  0.832674  0.733442  1
