# generated using pymatgen
data_GdDy3(TmSb5)4
_symmetry_space_group_name_H-M   'P 1'
_cell_length_a   4.21376600
_cell_length_b   13.18213297
_cell_length_c   14.60054900
_cell_angle_alpha   78.27447228
_cell_angle_beta   90.00000000
_cell_angle_gamma   90.00000000
_symmetry_Int_Tables_number   1
_chemical_formula_structural   GdDy3(TmSb5)4
_chemical_formula_sum   'Gd1 Dy3 Tm4 Sb20'
_cell_volume   794.08445457
_cell_formula_units_Z   1
loop_
 _symmetry_equiv_pos_site_id
 _symmetry_equiv_pos_as_xyz
  1  'x, y, z'
loop_
 _atom_site_type_symbol
 _atom_site_label
 _atom_site_symmetry_multiplicity
 _atom_site_fract_x
 _atom_site_fract_y
 _atom_site_fract_z
 _atom_site_occupancy
  Gd  Gd0  1  0.250000  0.669234  0.575859  1
  Dy  Dy1  1  0.750000  0.330442  0.423909  1
  Dy  Dy2  1  0.250000  0.953195  0.358078  1
  Dy  Dy3  1  0.750000  0.047448  0.641710  1
  Tm  Tm4  1  0.250000  0.395517  0.771505  1
  Tm  Tm5  1  0.750000  0.604183  0.228251  1
  Tm  Tm6  1  0.250000  0.661625  0.856938  1
  Tm  Tm7  1  0.750000  0.338549  0.143361  1
  Sb  Sb8  1  0.250000  0.145438  0.779825  1
  Sb  Sb9  1  0.750000  0.854743  0.220342  1
  Sb  Sb10  1  0.250000  0.142824  0.482177  1
  Sb  Sb11  1  0.750000  0.858131  0.517568  1
  Sb  Sb12  1  0.250000  0.153833  0.169618  1
  Sb  Sb13  1  0.750000  0.846541  0.830419  1
  Sb  Sb14  1  0.250000  0.420786  0.975564  1
  Sb  Sb15  1  0.750000  0.579212  0.024546  1
  Sb  Sb16  1  0.750000  0.028600  0.910563  1
  Sb  Sb17  1  0.250000  0.971723  0.089514  1
  Sb  Sb18  1  0.750000  0.139801  0.320944  1
  Sb  Sb19  1  0.250000  0.860862  0.679120  1
  Sb  Sb20  1  0.750000  0.279975  0.936547  1
  Sb  Sb21  1  0.250000  0.720107  0.063402  1
  Sb  Sb22  1  0.750000  0.285899  0.654267  1
  Sb  Sb23  1  0.250000  0.713662  0.345479  1
  Sb  Sb24  1  0.750000  0.575381  0.737471  1
  Sb  Sb25  1  0.250000  0.423710  0.263779  1
  Sb  Sb26  1  0.750000  0.570822  0.445745  1
  Sb  Sb27  1  0.250000  0.427755  0.553501  1
