# generated using pymatgen
data_ErTmFe2O7
_symmetry_space_group_name_H-M   'P 1'
_cell_length_a   7.10771294
_cell_length_b   7.10771404
_cell_length_c   7.10491600
_cell_angle_alpha   60.01302140
_cell_angle_beta   60.01301626
_cell_angle_gamma   60.03004047
_symmetry_Int_Tables_number   1
_chemical_formula_structural   ErTmFe2O7
_chemical_formula_sum   'Er2 Tm2 Fe4 O14'
_cell_volume   253.91464387
_cell_formula_units_Z   2
loop_
 _symmetry_equiv_pos_site_id
 _symmetry_equiv_pos_as_xyz
  1  'x, y, z'
loop_
 _atom_site_type_symbol
 _atom_site_label
 _atom_site_symmetry_multiplicity
 _atom_site_fract_x
 _atom_site_fract_y
 _atom_site_fract_z
 _atom_site_occupancy
  Er  Er0  1  0.625000  0.125000  0.125000  1
  Er  Er1  1  0.125000  0.625000  0.125000  1
  Tm  Tm2  1  0.125000  0.125000  0.625000  1
  Tm  Tm3  1  0.125000  0.125000  0.125000  1
  Fe  Fe4  1  0.625000  0.625000  0.625000  1
  Fe  Fe5  1  0.125000  0.625000  0.625000  1
  Fe  Fe6  1  0.625000  0.125000  0.625000  1
  Fe  Fe7  1  0.625000  0.625000  0.125000  1
  O  O8  1  0.540732  0.540732  0.959268  1
  O  O9  1  0.959646  0.539763  0.959524  1
  O  O10  1  0.290166  0.290166  0.709834  1
  O  O11  1  0.001331  0.001331  0.998669  1
  O  O12  1  0.290354  0.710237  0.708933  1
  O  O13  1  0.709268  0.709268  0.290732  1
  O  O14  1  0.710237  0.290354  0.290476  1
  O  O15  1  0.539763  0.959646  0.541067  1
  O  O16  1  0.710237  0.290354  0.708933  1
  O  O17  1  0.539763  0.959646  0.959524  1
  O  O18  1  0.959834  0.959834  0.540166  1
  O  O19  1  0.248669  0.248669  0.251331  1
  O  O20  1  0.290354  0.710237  0.290476  1
  O  O21  1  0.959646  0.539763  0.541067  1
