# generated using pymatgen
data_Hf2Zr2In2CoPd3
_symmetry_space_group_name_H-M   'P 1'
_cell_length_a   7.56185283
_cell_length_b   7.56185296
_cell_length_c   3.31160500
_cell_angle_alpha   90.00000000
_cell_angle_beta   90.00000000
_cell_angle_gamma   91.02679656
_symmetry_Int_Tables_number   1
_chemical_formula_structural   Hf2Zr2In2CoPd3
_chemical_formula_sum   'Hf2 Zr2 In2 Co1 Pd3'
_cell_volume   189.33252896
_cell_formula_units_Z   1
loop_
 _symmetry_equiv_pos_site_id
 _symmetry_equiv_pos_as_xyz
  1  'x, y, z'
loop_
 _atom_site_type_symbol
 _atom_site_label
 _atom_site_symmetry_multiplicity
 _atom_site_fract_x
 _atom_site_fract_y
 _atom_site_fract_z
 _atom_site_occupancy
  Hf  Hf0  1  0.640245  0.177049  0.000000  1
  Hf  Hf1  1  0.322951  0.859755  0.000000  1
  Zr  Zr2  1  0.190336  0.309664  0.000000  1
  Zr  Zr3  1  0.836881  0.663119  0.000000  1
  In  In4  1  0.995795  0.999684  0.500000  1
  In  In5  1  0.500316  0.504205  0.500000  1
  Co  Co6  1  0.375409  0.124591  0.500000  1
  Pd  Pd7  1  0.626490  0.873510  0.500000  1
  Pd  Pd8  1  0.874234  0.362655  0.500000  1
  Pd  Pd9  1  0.137345  0.625766  0.500000  1
