# generated using pymatgen
data_Pr7Nd3(Si9Hg)2
_symmetry_space_group_name_H-M   'P 1'
_cell_length_a   4.21478895
_cell_length_b   4.27289754
_cell_length_c   35.93915319
_cell_angle_alpha   86.42867202
_cell_angle_beta   86.32813618
_cell_angle_gamma   90.01222826
_symmetry_Int_Tables_number   1
_chemical_formula_structural   Pr7Nd3(Si9Hg)2
_chemical_formula_sum   'Pr7 Nd3 Si18 Hg2'
_cell_volume   644.65244515
_cell_formula_units_Z   1
loop_
 _symmetry_equiv_pos_site_id
 _symmetry_equiv_pos_as_xyz
  1  'x, y, z'
loop_
 _atom_site_type_symbol
 _atom_site_label
 _atom_site_symmetry_multiplicity
 _atom_site_fract_x
 _atom_site_fract_y
 _atom_site_fract_z
 _atom_site_occupancy
  Pr  Pr0  1  0.949705  0.450495  0.099047  1
  Pr  Pr1  1  0.349336  0.849972  0.300532  1
  Pr  Pr2  1  0.751801  0.252258  0.497057  1
  Pr  Pr3  1  0.148718  0.649258  0.701772  1
  Pr  Pr4  1  0.546297  0.047200  0.905596  1
  Pr  Pr5  1  0.999915  0.999157  0.000919  1
  Pr  Pr6  1  0.400730  0.400339  0.198888  1
  Nd  Nd7  1  0.801125  0.800129  0.399528  1
  Nd  Nd8  1  0.204674  0.203959  0.592535  1
  Nd  Nd9  1  0.601838  0.601706  0.796071  1
  Si  Si10  1  0.467399  0.966640  0.065769  1
  Si  Si11  1  0.867324  0.366242  0.266357  1
  Si  Si12  1  0.269543  0.767973  0.464340  1
  Si  Si13  1  0.667537  0.165364  0.668279  1
  Si  Si14  1  0.066156  0.563823  0.870900  1
  Si  Si15  1  0.915666  0.916777  0.165812  1
  Si  Si16  1  0.316381  0.316788  0.367000  1
  Si  Si17  1  0.719049  0.719025  0.561206  1
  Si  Si18  1  0.116968  0.116895  0.764453  1
  Si  Si19  1  0.515150  0.515717  0.968259  1
  Si  Si20  1  0.434010  0.933828  0.132253  1
  Si  Si21  1  0.834589  0.333298  0.333642  1
  Si  Si22  1  0.235222  0.735409  0.530315  1
  Si  Si23  1  0.633453  0.134110  0.733234  1
  Si  Si24  1  0.032021  0.532509  0.935859  1
  Si  Si25  1  0.481956  0.482905  0.034025  1
  Si  Si26  1  0.882587  0.883959  0.233146  1
  Si  Si27  1  0.283561  0.284205  0.432948  1
  Hg  Hg28  1  0.683185  0.684473  0.631502  1
  Hg  Hg29  1  0.081304  0.082785  0.834357  1
