# generated using pymatgen
data_Tm5Hf3(ZrSn3)2
_symmetry_space_group_name_H-M   'P 1'
_cell_length_a   8.69237997
_cell_length_b   8.71517565
_cell_length_c   5.99994800
_cell_angle_alpha   90.00273031
_cell_angle_beta   89.99594562
_cell_angle_gamma   120.08307065
_symmetry_Int_Tables_number   1
_chemical_formula_structural   Tm5Hf3(ZrSn3)2
_chemical_formula_sum   'Tm5 Hf3 Zr2 Sn6'
_cell_volume   393.30441170
_cell_formula_units_Z   1
loop_
 _symmetry_equiv_pos_site_id
 _symmetry_equiv_pos_as_xyz
  1  'x, y, z'
loop_
 _atom_site_type_symbol
 _atom_site_label
 _atom_site_symmetry_multiplicity
 _atom_site_fract_x
 _atom_site_fract_y
 _atom_site_fract_z
 _atom_site_occupancy
  Tm  Tm0  1  0.761006  0.759616  0.749982  1
  Tm  Tm1  1  0.238978  0.998591  0.750032  1
  Tm  Tm2  1  0.000028  0.243897  0.749947  1
  Tm  Tm3  1  0.240393  0.239224  0.250044  1
  Tm  Tm4  1  0.759558  0.998790  0.249996  1
  Hf  Hf5  1  0.332715  0.667407  0.000996  1
  Hf  Hf6  1  0.332751  0.667397  0.499038  1
  Hf  Hf7  1  0.667273  0.334754  0.498830  1
  Zr  Zr8  1  0.999994  0.753573  0.249991  1
  Zr  Zr9  1  0.667229  0.334534  0.001218  1
  Sn  Sn10  1  0.398735  0.399007  0.749530  1
  Sn  Sn11  1  0.600749  0.999263  0.749564  1
  Sn  Sn12  1  0.000491  0.602677  0.749604  1
  Sn  Sn13  1  0.606809  0.604040  0.250431  1
  Sn  Sn14  1  0.392770  0.996389  0.250364  1
  Sn  Sn15  1  0.000520  0.400841  0.250435  1
