# generated using pymatgen
data_Zr7TiTl2(InCu4)2
_symmetry_space_group_name_H-M   'P 1'
_cell_length_a   7.27983010
_cell_length_b   7.27146133
_cell_length_c   6.80014800
_cell_angle_alpha   90.00000000
_cell_angle_beta   90.00000000
_cell_angle_gamma   89.98129876
_symmetry_Int_Tables_number   1
_chemical_formula_structural   Zr7TiTl2(InCu4)2
_chemical_formula_sum   'Zr7 Ti1 Tl2 In2 Cu8'
_cell_volume   359.96583560
_cell_formula_units_Z   1
loop_
 _symmetry_equiv_pos_site_id
 _symmetry_equiv_pos_as_xyz
  1  'x, y, z'
loop_
 _atom_site_type_symbol
 _atom_site_label
 _atom_site_symmetry_multiplicity
 _atom_site_fract_x
 _atom_site_fract_y
 _atom_site_fract_z
 _atom_site_occupancy
  Zr  Zr0  1  0.148297  0.151715  0.000000  1
  Zr  Zr1  1  0.852856  0.848831  0.000000  1
  Zr  Zr2  1  0.648543  0.349306  0.500000  1
  Zr  Zr3  1  0.345917  0.645240  0.500000  1
  Zr  Zr4  1  0.695324  0.304993  0.000000  1
  Zr  Zr5  1  0.303776  0.693871  0.000000  1
  Zr  Zr6  1  0.805528  0.804460  0.500000  1
  Ti  Ti7  1  0.193117  0.194714  0.500000  1
  Tl  Tl8  1  0.497170  0.001689  0.253274  1
  Tl  Tl9  1  0.497170  0.001689  0.746726  1
  In  In10  1  0.001553  0.496789  0.254323  1
  In  In11  1  0.001553  0.496789  0.745677  1
  Cu  Cu12  1  0.373266  0.376690  0.204318  1
  Cu  Cu13  1  0.622858  0.619829  0.801177  1
  Cu  Cu14  1  0.622858  0.619829  0.198823  1
  Cu  Cu15  1  0.885427  0.126546  0.695543  1
  Cu  Cu16  1  0.885427  0.126546  0.304457  1
  Cu  Cu17  1  0.373266  0.376690  0.795682  1
  Cu  Cu18  1  0.123048  0.881892  0.304280  1
  Cu  Cu19  1  0.123048  0.881892  0.695720  1
