# generated using pymatgen
data_Tm8Sc11Si16Au
_symmetry_space_group_name_H-M   'P 1'
_cell_length_a   6.96323719
_cell_length_b   7.34527538
_cell_length_c   13.93620100
_cell_angle_alpha   90.00000000
_cell_angle_beta   90.00000000
_cell_angle_gamma   89.82559205
_symmetry_Int_Tables_number   1
_chemical_formula_structural   Tm8Sc11Si16Au
_chemical_formula_sum   'Tm8 Sc11 Si16 Au1'
_cell_volume   712.79010238
_cell_formula_units_Z   1
loop_
 _symmetry_equiv_pos_site_id
 _symmetry_equiv_pos_as_xyz
  1  'x, y, z'
loop_
 _atom_site_type_symbol
 _atom_site_label
 _atom_site_symmetry_multiplicity
 _atom_site_fract_x
 _atom_site_fract_y
 _atom_site_fract_z
 _atom_site_occupancy
  Tm  Tm0  1  0.010737  0.176462  0.095815  1
  Tm  Tm1  1  0.990978  0.813504  0.901843  1
  Tm  Tm2  1  0.486197  0.673591  0.902337  1
  Tm  Tm3  1  0.990978  0.813504  0.598157  1
  Tm  Tm4  1  0.510006  0.322408  0.095799  1
  Tm  Tm5  1  0.010737  0.176462  0.404185  1
  Tm  Tm6  1  0.510006  0.322408  0.404201  1
  Tm  Tm7  1  0.486197  0.673591  0.597663  1
  Sc  Sc8  1  0.838198  0.496550  0.250000  1
  Sc  Sc9  1  0.340429  0.004086  0.250000  1
  Sc  Sc10  1  0.656271  0.996885  0.750000  1
  Sc  Sc11  1  0.323894  0.182760  0.627306  1
  Sc  Sc12  1  0.671230  0.823994  0.374966  1
  Sc  Sc13  1  0.170749  0.678561  0.374098  1
  Sc  Sc14  1  0.671230  0.823994  0.125034  1
  Sc  Sc15  1  0.836864  0.327704  0.627357  1
  Sc  Sc16  1  0.323894  0.182760  0.872694  1
  Sc  Sc17  1  0.836864  0.327704  0.872643  1
  Sc  Sc18  1  0.170749  0.678561  0.125902  1
  Si  Si19  1  0.025290  0.091353  0.750000  1
  Si  Si20  1  0.969692  0.890865  0.250000  1
  Si  Si21  1  0.467720  0.614612  0.250000  1
  Si  Si22  1  0.534277  0.387397  0.750000  1
  Si  Si23  1  0.288366  0.877695  0.750000  1
  Si  Si24  1  0.714105  0.130973  0.250000  1
  Si  Si25  1  0.213087  0.369511  0.250000  1
  Si  Si26  1  0.777755  0.631779  0.750000  1
  Si  Si27  1  0.164053  0.459771  0.530599  1
  Si  Si28  1  0.841066  0.535153  0.462502  1
  Si  Si29  1  0.343322  0.965862  0.463184  1
  Si  Si30  1  0.841066  0.535153  0.037498  1
  Si  Si31  1  0.659054  0.033444  0.540500  1
  Si  Si32  1  0.164053  0.459771  0.969401  1
  Si  Si33  1  0.659054  0.033444  0.959500  1
  Si  Si34  1  0.343322  0.965862  0.036816  1
  Au  Au35  1  0.158508  0.521867  0.750000  1
