# generated using pymatgen
data_La2PrCd3Sn2Pd
_symmetry_space_group_name_H-M   'P 1'
_cell_length_a   7.67279500
_cell_length_b   7.63763273
_cell_length_c   4.74389100
_cell_angle_alpha   90.00000000
_cell_angle_beta   90.00000000
_cell_angle_gamma   120.15241463
_symmetry_Int_Tables_number   1
_chemical_formula_structural   La2PrCd3Sn2Pd
_chemical_formula_sum   'La2 Pr1 Cd3 Sn2 Pd1'
_cell_volume   240.38570895
_cell_formula_units_Z   1
loop_
 _symmetry_equiv_pos_site_id
 _symmetry_equiv_pos_as_xyz
  1  'x, y, z'
loop_
 _atom_site_type_symbol
 _atom_site_label
 _atom_site_symmetry_multiplicity
 _atom_site_fract_x
 _atom_site_fract_y
 _atom_site_fract_z
 _atom_site_occupancy
  La  La0  1  0.398295  0.398346  0.500000  1
  La  La1  1  0.999949  0.601654  0.500000  1
  Pr  Pr2  1  0.602214  0.000000  0.500000  1
  Cd  Cd3  1  0.768063  0.769362  0.000000  1
  Cd  Cd4  1  0.232636  0.000000  0.000000  1
  Cd  Cd5  1  0.998701  0.230638  0.000000  1
  Sn  Sn6  1  0.665100  0.330739  0.000000  1
  Sn  Sn7  1  0.334361  0.669261  0.000000  1
  Pd  Pd8  1  0.000682  0.000000  0.500000  1
