# generated using pymatgen
data_Tm6FeCo14(NiP4)3
_symmetry_space_group_name_H-M   'P 1'
_cell_length_a   3.67980300
_cell_length_b   10.44653900
_cell_length_c   12.14601600
_cell_angle_alpha   90.00000000
_cell_angle_beta   90.00000000
_cell_angle_gamma   90.00000000
_symmetry_Int_Tables_number   1
_chemical_formula_structural   Tm6FeCo14(NiP4)3
_chemical_formula_sum   'Tm6 Fe1 Co14 Ni3 P12'
_cell_volume   466.90749769
_cell_formula_units_Z   1
loop_
 _symmetry_equiv_pos_site_id
 _symmetry_equiv_pos_as_xyz
  1  'x, y, z'
loop_
 _atom_site_type_symbol
 _atom_site_label
 _atom_site_symmetry_multiplicity
 _atom_site_fract_x
 _atom_site_fract_y
 _atom_site_fract_z
 _atom_site_occupancy
  Tm  Tm0  1  0.000000  0.500000  0.519908  1
  Tm  Tm1  1  0.500000  0.000000  0.478395  1
  Tm  Tm2  1  0.500000  0.815322  0.205705  1
  Tm  Tm3  1  0.500000  0.184678  0.205705  1
  Tm  Tm4  1  0.000000  0.683396  0.795007  1
  Tm  Tm5  1  0.000000  0.316604  0.795007  1
  Fe  Fe6  1  0.500000  0.500000  0.158148  1
  Co  Co7  1  0.000000  0.500000  0.985790  1
  Co  Co8  1  0.500000  0.000000  0.016103  1
  Co  Co9  1  0.500000  0.333654  0.994955  1
  Co  Co10  1  0.500000  0.666346  0.994955  1
  Co  Co11  1  0.000000  0.166431  0.005430  1
  Co  Co12  1  0.000000  0.833569  0.005430  1
  Co  Co13  1  0.500000  0.297952  0.431387  1
  Co  Co14  1  0.500000  0.702048  0.431387  1
  Co  Co15  1  0.000000  0.201695  0.569055  1
  Co  Co16  1  0.000000  0.798305  0.569055  1
  Co  Co17  1  0.500000  0.878436  0.709733  1
  Co  Co18  1  0.500000  0.121564  0.709733  1
  Co  Co19  1  0.000000  0.621872  0.290743  1
  Co  Co20  1  0.000000  0.378128  0.290743  1
  Ni  Ni21  1  0.000000  0.000000  0.838191  1
  Ni  Ni22  1  0.500000  0.500000  0.701986  1
  Ni  Ni23  1  0.000000  0.000000  0.297605  1
  P  P24  1  0.500000  0.500000  0.881925  1
  P  P25  1  0.000000  0.000000  0.118100  1
  P  P26  1  0.500000  0.500000  0.344195  1
  P  P27  1  0.000000  0.000000  0.652643  1
  P  P28  1  0.500000  0.311337  0.615838  1
  P  P29  1  0.500000  0.688663  0.615838  1
  P  P30  1  0.000000  0.189344  0.384028  1
  P  P31  1  0.000000  0.810656  0.384028  1
  P  P32  1  0.500000  0.846023  0.893846  1
  P  P33  1  0.500000  0.153977  0.893846  1
  P  P34  1  0.000000  0.652706  0.107779  1
  P  P35  1  0.000000  0.347294  0.107779  1
