# generated using pymatgen
data_LaNd3Sm2Ta2O14
_symmetry_space_group_name_H-M   'P 1'
_cell_length_a   6.67088194
_cell_length_b   6.67088141
_cell_length_c   7.72240521
_cell_angle_alpha   90.02184736
_cell_angle_beta   89.97815596
_cell_angle_gamma   108.94222567
_symmetry_Int_Tables_number   1
_chemical_formula_structural   LaNd3Sm2Ta2O14
_chemical_formula_sum   'La1 Nd3 Sm2 Ta2 O14'
_cell_volume   325.04210380
_cell_formula_units_Z   1
loop_
 _symmetry_equiv_pos_site_id
 _symmetry_equiv_pos_as_xyz
  1  'x, y, z'
loop_
 _atom_site_type_symbol
 _atom_site_label
 _atom_site_symmetry_multiplicity
 _atom_site_fract_x
 _atom_site_fract_y
 _atom_site_fract_z
 _atom_site_occupancy
  La  La0  1  0.487921  0.487921  0.000000  1
  Nd  Nd1  1  0.468350  0.468350  0.500000  1
  Nd  Nd2  1  0.536610  0.996131  0.748516  1
  Nd  Nd3  1  0.996131  0.536610  0.251484  1
  Sm  Sm4  1  0.466410  0.997419  0.249310  1
  Sm  Sm5  1  0.997419  0.466410  0.750690  1
  Ta  Ta6  1  0.998100  0.998100  0.500000  1
  Ta  Ta7  1  0.000397  0.000397  0.000000  1
  O  O8  1  0.695360  0.947215  0.464144  1
  O  O9  1  0.947215  0.695360  0.535856  1
  O  O10  1  0.691223  0.940016  0.033457  1
  O  O11  1  0.940016  0.691223  0.966543  1
  O  O12  1  0.319849  0.075988  0.525481  1
  O  O13  1  0.075988  0.319849  0.474519  1
  O  O14  1  0.316813  0.069915  0.972331  1
  O  O15  1  0.069915  0.316813  0.027669  1
  O  O16  1  0.942390  0.059199  0.749993  1
  O  O17  1  0.059199  0.942390  0.250007  1
  O  O18  1  0.364038  0.626910  0.747469  1
  O  O19  1  0.626910  0.364038  0.252531  1
  O  O20  1  0.637842  0.361908  0.747320  1
  O  O21  1  0.361908  0.637842  0.252680  1
