# generated using pymatgen
data_Yb9DyIr4
_symmetry_space_group_name_H-M   'P 1'
_cell_length_a   6.43049515
_cell_length_b   7.44340854
_cell_length_c   8.43316919
_cell_angle_alpha   97.03966390
_cell_angle_beta   112.41188464
_cell_angle_gamma   89.99999551
_symmetry_Int_Tables_number   1
_chemical_formula_structural   Yb9DyIr4
_chemical_formula_sum   'Yb9 Dy1 Ir4'
_cell_volume   369.86926285
_cell_formula_units_Z   1
loop_
 _symmetry_equiv_pos_site_id
 _symmetry_equiv_pos_as_xyz
  1  'x, y, z'
loop_
 _atom_site_type_symbol
 _atom_site_label
 _atom_site_symmetry_multiplicity
 _atom_site_fract_x
 _atom_site_fract_y
 _atom_site_fract_z
 _atom_site_occupancy
  Yb  Yb0  1  0.795429  0.080027  0.828661  1
  Yb  Yb1  1  0.966768  0.419973  0.171339  1
  Yb  Yb2  1  0.202540  0.921341  0.172570  1
  Yb  Yb3  1  0.029969  0.578659  0.827430  1
  Yb  Yb4  1  0.202205  0.178979  0.564541  1
  Yb  Yb5  1  0.637664  0.321021  0.435459  1
  Yb  Yb6  1  0.798995  0.820758  0.439400  1
  Yb  Yb7  1  0.359594  0.679242  0.560600  1
  Yb  Yb8  1  0.428531  0.250000  0.000000  1
  Dy  Dy9  1  0.567870  0.750000  0.000000  1
  Ir  Ir10  1  0.605296  0.428022  0.784710  1
  Ir  Ir11  1  0.820586  0.071978  0.215290  1
  Ir  Ir12  1  0.399859  0.582726  0.215164  1
  Ir  Ir13  1  0.184695  0.917274  0.784836  1
