# generated using pymatgen
data_Ce2HgIrPd
_symmetry_space_group_name_H-M   'P 1'
_cell_length_a   7.81184883
_cell_length_b   7.81184901
_cell_length_c   3.72536300
_cell_angle_alpha   90.00000000
_cell_angle_beta   90.00000000
_cell_angle_gamma   90.43673992
_symmetry_Int_Tables_number   1
_chemical_formula_structural   Ce2HgIrPd
_chemical_formula_sum   'Ce4 Hg2 Ir2 Pd2'
_cell_volume   227.33361120
_cell_formula_units_Z   2
loop_
 _symmetry_equiv_pos_site_id
 _symmetry_equiv_pos_as_xyz
  1  'x, y, z'
loop_
 _atom_site_type_symbol
 _atom_site_label
 _atom_site_symmetry_multiplicity
 _atom_site_fract_x
 _atom_site_fract_y
 _atom_site_fract_z
 _atom_site_occupancy
  Ce  Ce0  1  0.680392  0.180392  0.500000  1
  Ce  Ce1  1  0.319608  0.819608  0.500000  1
  Ce  Ce2  1  0.164768  0.335232  0.500000  1
  Ce  Ce3  1  0.835232  0.664768  0.500000  1
  Hg  Hg4  1  0.000000  0.000000  0.000000  1
  Hg  Hg5  1  0.500000  0.500000  0.000000  1
  Ir  Ir6  1  0.131582  0.631582  0.000000  1
  Ir  Ir7  1  0.868418  0.368418  0.000000  1
  Pd  Pd8  1  0.628510  0.871490  0.000000  1
  Pd  Pd9  1  0.371490  0.128510  0.000000  1
