# generated using pymatgen
data_LaThCdPt2
_symmetry_space_group_name_H-M   'P 1'
_cell_length_a   8.02358000
_cell_length_b   8.00383500
_cell_length_c   3.85129100
_cell_angle_alpha   90.00000000
_cell_angle_beta   90.00000000
_cell_angle_gamma   90.00000000
_symmetry_Int_Tables_number   1
_chemical_formula_structural   LaThCdPt2
_chemical_formula_sum   'La2 Th2 Cd2 Pt4'
_cell_volume   247.32763741
_cell_formula_units_Z   2
loop_
 _symmetry_equiv_pos_site_id
 _symmetry_equiv_pos_as_xyz
  1  'x, y, z'
loop_
 _atom_site_type_symbol
 _atom_site_label
 _atom_site_symmetry_multiplicity
 _atom_site_fract_x
 _atom_site_fract_y
 _atom_site_fract_z
 _atom_site_occupancy
  La  La0  1  0.827919  0.671875  0.500000  1
  La  La1  1  0.672081  0.171875  0.500000  1
  Th  Th2  1  0.168833  0.330043  0.500000  1
  Th  Th3  1  0.331167  0.830043  0.500000  1
  Cd  Cd4  1  0.500447  0.497993  0.000000  1
  Cd  Cd5  1  0.999553  0.997993  0.000000  1
  Pt  Pt6  1  0.616781  0.869112  0.000000  1
  Pt  Pt7  1  0.142733  0.630977  0.000000  1
  Pt  Pt8  1  0.883219  0.369112  0.000000  1
  Pt  Pt9  1  0.357267  0.130977  0.000000  1
