# generated using pymatgen
data_TaNb2Re3SiB2
_symmetry_space_group_name_H-M   'P 1'
_cell_length_a   6.63335523
_cell_length_b   6.65477238
_cell_length_c   3.17764800
_cell_angle_alpha   90.00000000
_cell_angle_beta   90.00000000
_cell_angle_gamma   119.82399873
_symmetry_Int_Tables_number   1
_chemical_formula_structural   TaNb2Re3SiB2
_chemical_formula_sum   'Ta1 Nb2 Re3 Si1 B2'
_cell_volume   121.69433853
_cell_formula_units_Z   1
loop_
 _symmetry_equiv_pos_site_id
 _symmetry_equiv_pos_as_xyz
  1  'x, y, z'
loop_
 _atom_site_type_symbol
 _atom_site_label
 _atom_site_symmetry_multiplicity
 _atom_site_fract_x
 _atom_site_fract_y
 _atom_site_fract_z
 _atom_site_occupancy
  Ta  Ta0  1  0.387982  0.973290  0.500000  1
  Nb  Nb1  1  0.026176  0.415444  0.500000  1
  Nb  Nb2  1  0.585200  0.609470  0.500000  1
  Re  Re3  1  0.751915  0.998792  0.000000  1
  Re  Re4  1  0.002093  0.754905  0.000000  1
  Re  Re5  1  0.246382  0.246340  0.000000  1
  Si  Si6  1  0.666928  0.333095  0.000000  1
  B  B7  1  0.333773  0.668250  0.000000  1
  B  B8  1  0.999549  0.000415  0.500000  1
