# generated using pymatgen
data_Tm3Lu9(CoSi)8
_symmetry_space_group_name_H-M   'P 1'
_cell_length_a   5.44643504
_cell_length_b   7.51483607
_cell_length_c   12.40225600
_cell_angle_alpha   90.00000000
_cell_angle_beta   90.00000000
_cell_angle_gamma   90.01495960
_symmetry_Int_Tables_number   1
_chemical_formula_structural   Tm3Lu9(CoSi)8
_chemical_formula_sum   'Tm3 Lu9 Co8 Si8'
_cell_volume   507.61274336
_cell_formula_units_Z   1
loop_
 _symmetry_equiv_pos_site_id
 _symmetry_equiv_pos_as_xyz
  1  'x, y, z'
loop_
 _atom_site_type_symbol
 _atom_site_label
 _atom_site_symmetry_multiplicity
 _atom_site_fract_x
 _atom_site_fract_y
 _atom_site_fract_z
 _atom_site_occupancy
  Tm  Tm0  1  0.628366  0.252305  0.250000  1
  Tm  Tm1  1  0.371356  0.747818  0.750000  1
  Tm  Tm2  1  0.372400  0.752528  0.250000  1
  Lu  Lu3  1  0.627685  0.247100  0.750000  1
  Lu  Lu4  1  0.141465  0.395032  0.101143  1
  Lu  Lu5  1  0.858361  0.604744  0.898260  1
  Lu  Lu6  1  0.858361  0.604744  0.601740  1
  Lu  Lu7  1  0.859034  0.894805  0.398997  1
  Lu  Lu8  1  0.141465  0.395032  0.398857  1
  Lu  Lu9  1  0.140961  0.105290  0.601690  1
  Lu  Lu10  1  0.140961  0.105290  0.898310  1
  Lu  Lu11  1  0.859034  0.894805  0.101003  1
  Co  Co12  1  0.363286  0.028604  0.087072  1
  Co  Co13  1  0.635821  0.971751  0.912765  1
  Co  Co14  1  0.635821  0.971751  0.587235  1
  Co  Co15  1  0.637221  0.529195  0.412796  1
  Co  Co16  1  0.363286  0.028604  0.412928  1
  Co  Co17  1  0.363829  0.470656  0.587593  1
  Co  Co18  1  0.363829  0.470656  0.912407  1
  Co  Co19  1  0.637221  0.529195  0.087204  1
  Si  Si20  1  0.146778  0.102181  0.250000  1
  Si  Si21  1  0.852276  0.898528  0.750000  1
  Si  Si22  1  0.853785  0.602232  0.250000  1
  Si  Si23  1  0.147099  0.397280  0.750000  1
  Si  Si24  1  0.612623  0.250095  0.999746  1
  Si  Si25  1  0.387527  0.749841  0.999819  1
  Si  Si26  1  0.387527  0.749841  0.500181  1
  Si  Si27  1  0.612623  0.250095  0.500254  1
