# generated using pymatgen
data_TiMn2MoP2
_symmetry_space_group_name_H-M   'P 1'
_cell_length_a   3.57009500
_cell_length_b   6.03965900
_cell_length_c   6.99977100
_cell_angle_alpha   90.00000000
_cell_angle_beta   90.00000000
_cell_angle_gamma   90.00000000
_symmetry_Int_Tables_number   1
_chemical_formula_structural   TiMn2MoP2
_chemical_formula_sum   'Ti2 Mn4 Mo2 P4'
_cell_volume   150.93015705
_cell_formula_units_Z   2
loop_
 _symmetry_equiv_pos_site_id
 _symmetry_equiv_pos_as_xyz
  1  'x, y, z'
loop_
 _atom_site_type_symbol
 _atom_site_label
 _atom_site_symmetry_multiplicity
 _atom_site_fract_x
 _atom_site_fract_y
 _atom_site_fract_z
 _atom_site_occupancy
  Ti  Ti0  1  0.750000  0.973104  0.178579  1
  Ti  Ti1  1  0.750000  0.473104  0.321421  1
  Mn  Mn2  1  0.250000  0.139240  0.444626  1
  Mn  Mn3  1  0.250000  0.639240  0.055374  1
  Mn  Mn4  1  0.750000  0.858822  0.558271  1
  Mn  Mn5  1  0.750000  0.358822  0.941729  1
  Mo  Mo6  1  0.250000  0.030177  0.830097  1
  Mo  Mo7  1  0.250000  0.530177  0.669903  1
  P  P8  1  0.250000  0.766344  0.368204  1
  P  P9  1  0.250000  0.266344  0.131796  1
  P  P10  1  0.750000  0.232313  0.628100  1
  P  P11  1  0.750000  0.732313  0.871900  1
