# generated using pymatgen
data_Er6Lu4Si5Sn
_symmetry_space_group_name_H-M   'P 1'
_cell_length_a   8.39553900
_cell_length_b   8.41362272
_cell_length_c   6.24751900
_cell_angle_alpha   90.00000000
_cell_angle_beta   90.00000000
_cell_angle_gamma   119.92893767
_symmetry_Int_Tables_number   1
_chemical_formula_structural   Er6Lu4Si5Sn
_chemical_formula_sum   'Er6 Lu4 Si5 Sn1'
_cell_volume   382.45502830
_cell_formula_units_Z   1
loop_
 _symmetry_equiv_pos_site_id
 _symmetry_equiv_pos_as_xyz
  1  'x, y, z'
loop_
 _atom_site_type_symbol
 _atom_site_label
 _atom_site_symmetry_multiplicity
 _atom_site_fract_x
 _atom_site_fract_y
 _atom_site_fract_z
 _atom_site_occupancy
  Er  Er0  1  0.765601  0.000000  0.750000  1
  Er  Er1  1  0.756663  0.757802  0.250000  1
  Er  Er2  1  0.998860  0.242198  0.250000  1
  Er  Er3  1  0.989558  0.749736  0.750000  1
  Er  Er4  1  0.239821  0.250264  0.750000  1
  Er  Er5  1  0.240385  0.000000  0.250000  1
  Lu  Lu6  1  0.673426  0.341752  0.002961  1
  Lu  Lu7  1  0.331672  0.658248  0.497039  1
  Lu  Lu8  1  0.331672  0.658248  0.002961  1
  Lu  Lu9  1  0.673426  0.341752  0.497039  1
  Si  Si10  1  0.394573  0.393432  0.250000  1
  Si  Si11  1  0.001141  0.606568  0.250000  1
  Si  Si12  1  0.998832  0.395174  0.750000  1
  Si  Si13  1  0.603659  0.604826  0.750000  1
  Si  Si14  1  0.604998  0.000000  0.250000  1
  Sn  Sn15  1  0.395715  0.000000  0.750000  1
