# generated using pymatgen
data_Tb7Y4In9Ru4
_symmetry_space_group_name_H-M   'P 1'
_cell_length_a   3.78362200
_cell_length_b   13.00563400
_cell_length_c   12.98624957
_cell_angle_alpha   112.81067351
_cell_angle_beta   90.00000000
_cell_angle_gamma   90.00000000
_symmetry_Int_Tables_number   1
_chemical_formula_structural   Tb7Y4In9Ru4
_chemical_formula_sum   'Tb7 Y4 In9 Ru4'
_cell_volume   589.05446605
_cell_formula_units_Z   1
loop_
 _symmetry_equiv_pos_site_id
 _symmetry_equiv_pos_as_xyz
  1  'x, y, z'
loop_
 _atom_site_type_symbol
 _atom_site_label
 _atom_site_symmetry_multiplicity
 _atom_site_fract_x
 _atom_site_fract_y
 _atom_site_fract_z
 _atom_site_occupancy
  Tb  Tb0  1  0.000000  0.418447  0.082989  1
  Tb  Tb1  1  0.000000  0.162091  0.838280  1
  Tb  Tb2  1  0.000000  0.838083  0.162054  1
  Tb  Tb3  1  0.000000  0.374733  0.625316  1
  Tb  Tb4  1  0.000000  0.625349  0.374807  1
  Tb  Tb5  1  0.000000  0.689599  0.689577  1
  Tb  Tb6  1  0.000000  0.310308  0.310551  1
  Y  Y7  1  0.000000  0.917992  0.581907  1
  Y  Y8  1  0.000000  0.082016  0.418095  1
  Y  Y9  1  0.000000  0.581639  0.917981  1
  Y  Y10  1  0.000000  0.000037  0.000023  1
  In  In11  1  0.500000  0.156663  0.631518  1
  In  In12  1  0.500000  0.843374  0.368529  1
  In  In13  1  0.500000  0.632053  0.156921  1
  In  In14  1  0.500000  0.368351  0.842940  1
  In  In15  1  0.500000  0.925651  0.780404  1
  In  In16  1  0.500000  0.074384  0.219564  1
  In  In17  1  0.500000  0.780395  0.925614  1
  In  In18  1  0.500000  0.219151  0.074335  1
  In  In19  1  0.500000  0.500058  0.500082  1
  Ru  Ru20  1  0.500000  0.746393  0.551182  1
  Ru  Ru21  1  0.500000  0.253566  0.448874  1
  Ru  Ru22  1  0.500000  0.551295  0.746469  1
  Ru  Ru23  1  0.500000  0.448373  0.251988  1
