# generated using pymatgen
data_LaDy2(ZnPd)4
_symmetry_space_group_name_H-M   'P 1'
_cell_length_a   8.26997658
_cell_length_b   8.26997708
_cell_length_c   8.26997651
_cell_angle_alpha   151.12151654
_cell_angle_beta   126.36645233
_cell_angle_gamma   62.05696971
_symmetry_Int_Tables_number   1
_chemical_formula_structural   LaDy2(ZnPd)4
_chemical_formula_sum   'La1 Dy2 Zn4 Pd4'
_cell_volume   218.08902753
_cell_formula_units_Z   1
loop_
 _symmetry_equiv_pos_site_id
 _symmetry_equiv_pos_as_xyz
  1  'x, y, z'
loop_
 _atom_site_type_symbol
 _atom_site_label
 _atom_site_symmetry_multiplicity
 _atom_site_fract_x
 _atom_site_fract_y
 _atom_site_fract_z
 _atom_site_occupancy
  La  La0  1  0.500000  0.000000  0.500000  1
  Dy  Dy1  1  0.871509  0.871509  0.000000  1
  Dy  Dy2  1  0.128491  0.128491  0.000000  1
  Zn  Zn3  1  0.478138  0.674337  0.803801  1
  Zn  Zn4  1  0.870536  0.674337  0.196199  1
  Zn  Zn5  1  0.129464  0.325663  0.803801  1
  Zn  Zn6  1  0.521862  0.325663  0.196199  1
  Pd  Pd7  1  0.279368  0.779368  0.500000  1
  Pd  Pd8  1  0.720632  0.220632  0.500000  1
  Pd  Pd9  1  0.811548  0.500000  0.311548  1
  Pd  Pd10  1  0.188452  0.500000  0.688452  1
