# generated using pymatgen
data_Rb6Co(RhBr6)3
_symmetry_space_group_name_H-M   'P 1'
_cell_length_a   7.49408701
_cell_length_b   7.49360703
_cell_length_c   19.20401301
_cell_angle_alpha   89.99951195
_cell_angle_beta   89.99646761
_cell_angle_gamma   119.99952687
_symmetry_Int_Tables_number   1
_chemical_formula_structural   Rb6Co(RhBr6)3
_chemical_formula_sum   'Rb6 Co1 Rh3 Br18'
_cell_volume   933.97303612
_cell_formula_units_Z   1
loop_
 _symmetry_equiv_pos_site_id
 _symmetry_equiv_pos_as_xyz
  1  'x, y, z'
loop_
 _atom_site_type_symbol
 _atom_site_label
 _atom_site_symmetry_multiplicity
 _atom_site_fract_x
 _atom_site_fract_y
 _atom_site_fract_z
 _atom_site_occupancy
  Rb  Rb0  1  0.666646  0.333320  0.563451  1
  Rb  Rb1  1  0.333322  0.666645  0.062343  1
  Rb  Rb2  1  0.333314  0.666641  0.437921  1
  Rb  Rb3  1  0.666643  0.333310  0.936429  1
  Rb  Rb4  1  0.999980  0.999975  0.249950  1
  Rb  Rb5  1  0.999984  0.999962  0.750085  1
  Co  Co6  1  0.333315  0.666646  0.665614  1
  Rh  Rh7  1  0.666626  0.333296  0.335051  1
  Rh  Rh8  1  0.333665  0.666950  0.832702  1
  Rh  Rh9  1  0.666530  0.333265  0.165549  1
  Br  Br10  1  0.824195  0.648409  0.408315  1
  Br  Br11  1  0.180747  0.819213  0.595958  1
  Br  Br12  1  0.638451  0.819215  0.595957  1
  Br  Br13  1  0.824184  0.175768  0.408319  1
  Br  Br14  1  0.351552  0.175766  0.408317  1
  Br  Br15  1  0.176110  0.352148  0.906535  1
  Br  Br16  1  0.036314  0.518179  0.746799  1
  Br  Br17  1  0.648064  0.824061  0.906546  1
  Br  Br18  1  0.823973  0.648017  0.092335  1
  Br  Br19  1  0.180742  0.361501  0.595957  1
  Br  Br20  1  0.481890  0.963733  0.746805  1
  Br  Br21  1  0.514800  0.485119  0.250358  1
  Br  Br22  1  0.481914  0.518181  0.746792  1
  Br  Br23  1  0.176116  0.824045  0.906530  1
  Br  Br24  1  0.351866  0.175919  0.092328  1
  Br  Br25  1  0.970287  0.485133  0.250362  1
  Br  Br26  1  0.514793  0.029653  0.250360  1
  Br  Br27  1  0.823977  0.175930  0.092331  1
