# generated using pymatgen
data_Y6Al13Os7W3
_symmetry_space_group_name_H-M   'P 1'
_cell_length_a   9.00319759
_cell_length_b   9.00319795
_cell_length_c   9.00319757
_cell_angle_alpha   59.54114582
_cell_angle_beta   59.54113311
_cell_angle_gamma   59.54113655
_symmetry_Int_Tables_number   1
_chemical_formula_structural   Y6Al13Os7W3
_chemical_formula_sum   'Y6 Al13 Os7 W3'
_cell_volume   510.64667576
_cell_formula_units_Z   1
loop_
 _symmetry_equiv_pos_site_id
 _symmetry_equiv_pos_as_xyz
  1  'x, y, z'
loop_
 _atom_site_type_symbol
 _atom_site_label
 _atom_site_symmetry_multiplicity
 _atom_site_fract_x
 _atom_site_fract_y
 _atom_site_fract_z
 _atom_site_occupancy
  Y  Y0  1  0.708503  0.708503  0.284759  1
  Y  Y1  1  0.294116  0.707655  0.294116  1
  Y  Y2  1  0.707655  0.294116  0.294116  1
  Y  Y3  1  0.294116  0.294116  0.707655  1
  Y  Y4  1  0.708503  0.284759  0.708503  1
  Y  Y5  1  0.284759  0.708503  0.708503  1
  Al  Al6  1  0.879933  0.879933  0.879933  1
  Al  Al7  1  0.121886  0.121886  0.639207  1
  Al  Al8  1  0.121886  0.639207  0.121886  1
  Al  Al9  1  0.639207  0.121886  0.121886  1
  Al  Al10  1  0.121963  0.121962  0.121963  1
  Al  Al11  1  0.668916  0.668916  0.996620  1
  Al  Al12  1  0.668916  0.996620  0.668916  1
  Al  Al13  1  0.996620  0.668916  0.668916  1
  Al  Al14  1  0.662251  0.662251  0.662251  1
  Al  Al15  1  0.330531  0.330531  0.010561  1
  Al  Al16  1  0.330531  0.010561  0.330531  1
  Al  Al17  1  0.010561  0.330531  0.330531  1
  Al  Al18  1  0.331303  0.331304  0.331303  1
  Os  Os19  1  0.005074  0.005074  0.005074  1
  Os  Os20  1  0.996506  0.996506  0.496086  1
  Os  Os21  1  0.505541  0.994178  0.505541  1
  Os  Os22  1  0.994178  0.505541  0.505540  1
  Os  Os23  1  0.505541  0.505541  0.994178  1
  Os  Os24  1  0.996506  0.496086  0.996506  1
  Os  Os25  1  0.496086  0.996506  0.996506  1
  W  W26  1  0.877139  0.877140  0.364135  1
  W  W27  1  0.877140  0.364135  0.877140  1
  W  W28  1  0.364135  0.877140  0.877140  1
