# generated using pymatgen
data_CePr4Dy(Al3Ru)8
_symmetry_space_group_name_H-M   'P 1'
_cell_length_a   8.89012233
_cell_length_b   8.91203243
_cell_length_c   9.69306000
_cell_angle_alpha   90.00000000
_cell_angle_beta   90.00000000
_cell_angle_gamma   120.03173468
_symmetry_Int_Tables_number   1
_chemical_formula_structural   CePr4Dy(Al3Ru)8
_chemical_formula_sum   'Ce1 Pr4 Dy1 Al24 Ru8'
_cell_volume   664.87049491
_cell_formula_units_Z   1
loop_
 _symmetry_equiv_pos_site_id
 _symmetry_equiv_pos_as_xyz
  1  'x, y, z'
loop_
 _atom_site_type_symbol
 _atom_site_label
 _atom_site_symmetry_multiplicity
 _atom_site_fract_x
 _atom_site_fract_y
 _atom_site_fract_z
 _atom_site_occupancy
  Ce  Ce0  1  0.194235  0.390161  0.250000  1
  Pr  Pr1  1  0.808180  0.616608  0.750000  1
  Pr  Pr2  1  0.616679  0.808004  0.250000  1
  Pr  Pr3  1  0.383290  0.190277  0.750000  1
  Pr  Pr4  1  0.806962  0.192453  0.750000  1
  Dy  Dy5  1  0.192999  0.806541  0.250000  1
  Al  Al6  1  0.333654  0.668154  0.489312  1
  Al  Al7  1  0.666341  0.333303  0.991530  1
  Al  Al8  1  0.666341  0.333303  0.508470  1
  Al  Al9  1  0.333654  0.668154  0.010688  1
  Al  Al10  1  0.162729  0.325488  0.573929  1
  Al  Al11  1  0.673594  0.836673  0.575002  1
  Al  Al12  1  0.162801  0.836467  0.572122  1
  Al  Al13  1  0.837933  0.163043  0.077317  1
  Al  Al14  1  0.837933  0.163043  0.422683  1
  Al  Al15  1  0.839057  0.674851  0.077294  1
  Al  Al16  1  0.324208  0.161395  0.078310  1
  Al  Al17  1  0.673594  0.836673  0.924998  1
  Al  Al18  1  0.162729  0.325488  0.926071  1
  Al  Al19  1  0.839057  0.674851  0.422706  1
  Al  Al20  1  0.004646  0.003673  0.250000  1
  Al  Al21  1  0.999175  0.999932  0.750000  1
  Al  Al22  1  0.559960  0.122738  0.250000  1
  Al  Al23  1  0.436883  0.561460  0.750000  1
  Al  Al24  1  0.124571  0.562571  0.750000  1
  Al  Al25  1  0.877132  0.439902  0.250000  1
  Al  Al26  1  0.562366  0.436871  0.250000  1
  Al  Al27  1  0.436233  0.873615  0.750000  1
  Al  Al28  1  0.162801  0.836467  0.927878  1
  Al  Al29  1  0.324208  0.161395  0.421690  1
  Ru  Ru30  1  0.999737  0.999077  0.499535  1
  Ru  Ru31  1  0.999737  0.999077  0.000465  1
  Ru  Ru32  1  0.498035  0.998768  0.497841  1
  Ru  Ru33  1  0.497423  0.499597  0.002960  1
  Ru  Ru34  1  0.002831  0.500781  0.004276  1
  Ru  Ru35  1  0.002831  0.500781  0.495724  1
  Ru  Ru36  1  0.497423  0.499597  0.497040  1
  Ru  Ru37  1  0.498035  0.998768  0.002159  1
