# generated using pymatgen
data_Tb3Sc17(Bi2Te)4
_symmetry_space_group_name_H-M   'P 1'
_cell_length_a   7.77826331
_cell_length_b   8.98721500
_cell_length_c   11.41072730
_cell_angle_alpha   90.00000000
_cell_angle_beta   90.12051574
_cell_angle_gamma   90.00000000
_symmetry_Int_Tables_number   1
_chemical_formula_structural   Tb3Sc17(Bi2Te)4
_chemical_formula_sum   'Tb3 Sc17 Bi8 Te4'
_cell_volume   797.66426794
_cell_formula_units_Z   1
loop_
 _symmetry_equiv_pos_site_id
 _symmetry_equiv_pos_as_xyz
  1  'x, y, z'
loop_
 _atom_site_type_symbol
 _atom_site_label
 _atom_site_symmetry_multiplicity
 _atom_site_fract_x
 _atom_site_fract_y
 _atom_site_fract_z
 _atom_site_occupancy
  Tb  Tb0  1  0.823713  0.250000  0.281822  1
  Tb  Tb1  1  0.676146  0.750000  0.782171  1
  Tb  Tb2  1  0.175622  0.750000  0.717998  1
  Sc  Sc3  1  0.349481  0.750000  0.219194  1
  Sc  Sc4  1  0.851985  0.750000  0.278963  1
  Sc  Sc5  1  0.648895  0.250000  0.783819  1
  Sc  Sc6  1  0.150531  0.250000  0.719040  1
  Sc  Sc7  1  0.690552  0.563907  0.060361  1
  Sc  Sc8  1  0.187495  0.935731  0.439302  1
  Sc  Sc9  1  0.310933  0.064519  0.941059  1
  Sc  Sc10  1  0.811683  0.434651  0.559473  1
  Sc  Sc11  1  0.310933  0.435481  0.941059  1
  Sc  Sc12  1  0.811683  0.065349  0.559473  1
  Sc  Sc13  1  0.690552  0.936093  0.060361  1
  Sc  Sc14  1  0.187495  0.564269  0.439302  1
  Sc  Sc15  1  0.481621  0.250000  0.486319  1
  Sc  Sc16  1  0.982941  0.250000  0.012867  1
  Sc  Sc17  1  0.515966  0.750000  0.509718  1
  Sc  Sc18  1  0.018182  0.750000  0.990716  1
  Sc  Sc19  1  0.323174  0.250000  0.214807  1
  Bi  Bi20  1  0.563323  0.992017  0.326096  1
  Bi  Bi21  1  0.074373  0.506664  0.172455  1
  Bi  Bi22  1  0.432668  0.488948  0.670880  1
  Bi  Bi23  1  0.931897  0.011162  0.829616  1
  Bi  Bi24  1  0.432668  0.011052  0.670880  1
  Bi  Bi25  1  0.931897  0.488838  0.829616  1
  Bi  Bi26  1  0.563323  0.507983  0.326096  1
  Bi  Bi27  1  0.074373  0.993336  0.172455  1
  Te  Te28  1  0.401594  0.750000  0.968246  1
  Te  Te29  1  0.899194  0.750000  0.531017  1
  Te  Te30  1  0.594287  0.250000  0.037470  1
  Te  Te31  1  0.100819  0.250000  0.467350  1
