# generated using pymatgen
data_YbY3HfPd15
_symmetry_space_group_name_H-M   'P 1'
_cell_length_a   4.09796100
_cell_length_b   4.09796100
_cell_length_c   20.58842800
_cell_angle_alpha   90.00000000
_cell_angle_beta   90.00000000
_cell_angle_gamma   90.00000000
_symmetry_Int_Tables_number   1
_chemical_formula_structural   YbY3HfPd15
_chemical_formula_sum   'Yb1 Y3 Hf1 Pd15'
_cell_volume   345.74732588
_cell_formula_units_Z   1
loop_
 _symmetry_equiv_pos_site_id
 _symmetry_equiv_pos_as_xyz
  1  'x, y, z'
loop_
 _atom_site_type_symbol
 _atom_site_label
 _atom_site_symmetry_multiplicity
 _atom_site_fract_x
 _atom_site_fract_y
 _atom_site_fract_z
 _atom_site_occupancy
  Yb  Yb0  1  0.000000  0.000000  0.196316  1
  Y  Y1  1  0.000000  0.000000  0.397077  1
  Y  Y2  1  0.000000  0.000000  0.601768  1
  Y  Y3  1  0.000000  0.000000  0.803654  1
  Hf  Hf4  1  0.000000  0.000000  0.001383  1
  Pd  Pd5  1  0.500000  0.500000  0.000436  1
  Pd  Pd6  1  0.500000  0.500000  0.195535  1
  Pd  Pd7  1  0.500000  0.500000  0.398796  1
  Pd  Pd8  1  0.500000  0.500000  0.600889  1
  Pd  Pd9  1  0.500000  0.500000  0.804562  1
  Pd  Pd10  1  0.500000  0.000000  0.094057  1
  Pd  Pd11  1  0.500000  0.000000  0.296641  1
  Pd  Pd12  1  0.500000  0.000000  0.499991  1
  Pd  Pd13  1  0.500000  0.000000  0.702447  1
  Pd  Pd14  1  0.500000  0.000000  0.906656  1
  Pd  Pd15  1  0.000000  0.500000  0.094057  1
  Pd  Pd16  1  0.000000  0.500000  0.296641  1
  Pd  Pd17  1  0.000000  0.500000  0.499991  1
  Pd  Pd18  1  0.000000  0.500000  0.702447  1
  Pd  Pd19  1  0.000000  0.500000  0.906656  1
