# generated using pymatgen
data_TiNb8SbS16
_symmetry_space_group_name_H-M   'P 1'
_cell_length_a   6.71122700
_cell_length_b   6.71122546
_cell_length_c   13.12795600
_cell_angle_alpha   90.00000000
_cell_angle_beta   90.00000000
_cell_angle_gamma   120.00001254
_symmetry_Int_Tables_number   1
_chemical_formula_structural   TiNb8SbS16
_chemical_formula_sum   'Ti1 Nb8 Sb1 S16'
_cell_volume   512.07249186
_cell_formula_units_Z   1
loop_
 _symmetry_equiv_pos_site_id
 _symmetry_equiv_pos_as_xyz
  1  'x, y, z'
loop_
 _atom_site_type_symbol
 _atom_site_label
 _atom_site_symmetry_multiplicity
 _atom_site_fract_x
 _atom_site_fract_y
 _atom_site_fract_z
 _atom_site_occupancy
  Ti  Ti0  1  0.000000  0.000000  0.000000  1
  Nb  Nb1  1  0.000000  0.000000  0.235590  1
  Nb  Nb2  1  0.000000  0.000000  0.764410  1
  Nb  Nb3  1  0.505764  0.494236  0.235088  1
  Nb  Nb4  1  0.505764  0.011530  0.235088  1
  Nb  Nb5  1  0.988470  0.494236  0.235088  1
  Nb  Nb6  1  0.494236  0.505764  0.764912  1
  Nb  Nb7  1  0.494236  0.988470  0.764912  1
  Nb  Nb8  1  0.011530  0.505764  0.764912  1
  Sb  Sb9  1  0.000000  0.000000  0.500000  1
  S  S10  1  0.333333  0.666667  0.886758  1
  S  S11  1  0.666667  0.333333  0.113242  1
  S  S12  1  0.666667  0.333333  0.358346  1
  S  S13  1  0.333333  0.666667  0.641654  1
  S  S14  1  0.169646  0.830354  0.355128  1
  S  S15  1  0.169646  0.339292  0.355128  1
  S  S16  1  0.660708  0.830354  0.355128  1
  S  S17  1  0.830354  0.169646  0.644872  1
  S  S18  1  0.830354  0.660708  0.644872  1
  S  S19  1  0.339292  0.169646  0.644872  1
  S  S20  1  0.833424  0.166576  0.884864  1
  S  S21  1  0.833424  0.666848  0.884864  1
  S  S22  1  0.333152  0.166576  0.884864  1
  S  S23  1  0.166576  0.833424  0.115136  1
  S  S24  1  0.166576  0.333152  0.115136  1
  S  S25  1  0.666848  0.833424  0.115136  1
