# generated using pymatgen
data_Dy2AlB2Rh5
_symmetry_space_group_name_H-M   'P 1'
_cell_length_a   9.51465100
_cell_length_b   9.51465100
_cell_length_c   3.19251700
_cell_angle_alpha   90.00000000
_cell_angle_beta   90.00000000
_cell_angle_gamma   90.00000000
_symmetry_Int_Tables_number   1
_chemical_formula_structural   Dy2AlB2Rh5
_chemical_formula_sum   'Dy4 Al2 B4 Rh10'
_cell_volume   289.01404229
_cell_formula_units_Z   2
loop_
 _symmetry_equiv_pos_site_id
 _symmetry_equiv_pos_as_xyz
  1  'x, y, z'
loop_
 _atom_site_type_symbol
 _atom_site_label
 _atom_site_symmetry_multiplicity
 _atom_site_fract_x
 _atom_site_fract_y
 _atom_site_fract_z
 _atom_site_occupancy
  Dy  Dy0  1  0.825447  0.325447  0.000000  1
  Dy  Dy1  1  0.325447  0.174553  0.000000  1
  Dy  Dy2  1  0.674553  0.825447  0.000000  1
  Dy  Dy3  1  0.174553  0.674553  0.000000  1
  Al  Al4  1  0.000000  0.000000  0.000000  1
  Al  Al5  1  0.500000  0.500000  0.000000  1
  B  B6  1  0.622125  0.122125  0.000000  1
  B  B7  1  0.122125  0.377875  0.000000  1
  B  B8  1  0.877875  0.622125  0.000000  1
  B  B9  1  0.377875  0.877875  0.000000  1
  Rh  Rh10  1  0.070828  0.219117  0.500000  1
  Rh  Rh11  1  0.219117  0.929172  0.500000  1
  Rh  Rh12  1  0.780883  0.070828  0.500000  1
  Rh  Rh13  1  0.929172  0.780883  0.500000  1
  Rh  Rh14  1  0.429172  0.719117  0.500000  1
  Rh  Rh15  1  0.570828  0.280883  0.500000  1
  Rh  Rh16  1  0.719117  0.570828  0.500000  1
  Rh  Rh17  1  0.280883  0.429172  0.500000  1
  Rh  Rh18  1  0.500000  0.000000  0.500000  1
  Rh  Rh19  1  0.000000  0.500000  0.500000  1
