# generated using pymatgen
data_Be12Re
_symmetry_space_group_name_H-M   'P 1'
_cell_length_a   5.47778998
_cell_length_b   5.47778974
_cell_length_c   5.47779019
_cell_angle_alpha   98.38240579
_cell_angle_beta   98.38241104
_cell_angle_gamma   135.10822819
_symmetry_Int_Tables_number   1
_chemical_formula_structural   Be12Re
_chemical_formula_sum   'Be12 Re1'
_cell_volume   107.21716100
_cell_formula_units_Z   1
loop_
 _symmetry_equiv_pos_site_id
 _symmetry_equiv_pos_as_xyz
  1  'x, y, z'
loop_
 _atom_site_type_symbol
 _atom_site_label
 _atom_site_symmetry_multiplicity
 _atom_site_fract_x
 _atom_site_fract_y
 _atom_site_fract_z
 _atom_site_occupancy
  Be  Be0  1  0.650405  0.000000  0.650405  1
  Be  Be1  1  0.000000  0.500000  0.000000  1
  Be  Be2  1  0.000000  0.650405  0.650405  1
  Be  Be3  1  0.710870  0.500000  0.210870  1
  Be  Be4  1  0.349595  0.000000  0.349595  1
  Be  Be5  1  0.000000  0.000000  0.500000  1
  Be  Be6  1  0.000000  0.349595  0.349595  1
  Be  Be7  1  0.500000  0.289130  0.789130  1
  Be  Be8  1  0.289130  0.500000  0.789130  1
  Be  Be9  1  0.500000  0.500000  0.500000  1
  Be  Be10  1  0.500000  0.710870  0.210870  1
  Be  Be11  1  0.500000  0.000000  0.000000  1
  Re  Re12  1  0.000000  0.000000  0.000000  1
