# generated using pymatgen
data_Sc2Si4IrRh7
_symmetry_space_group_name_H-M   'P 1'
_cell_length_a   4.06544600
_cell_length_b   8.93420300
_cell_length_c   11.17951100
_cell_angle_alpha   90.00000000
_cell_angle_beta   90.00000000
_cell_angle_gamma   90.00000000
_symmetry_Int_Tables_number   1
_chemical_formula_structural   Sc2Si4IrRh7
_chemical_formula_sum   'Sc4 Si8 Ir2 Rh14'
_cell_volume   406.05683069
_cell_formula_units_Z   2
loop_
 _symmetry_equiv_pos_site_id
 _symmetry_equiv_pos_as_xyz
  1  'x, y, z'
loop_
 _atom_site_type_symbol
 _atom_site_label
 _atom_site_symmetry_multiplicity
 _atom_site_fract_x
 _atom_site_fract_y
 _atom_site_fract_z
 _atom_site_occupancy
  Sc  Sc0  1  0.250000  0.145232  0.825794  1
  Sc  Sc1  1  0.250000  0.354768  0.325794  1
  Sc  Sc2  1  0.750000  0.855692  0.174230  1
  Sc  Sc3  1  0.750000  0.644308  0.674230  1
  Si  Si4  1  0.250000  0.414425  0.639177  1
  Si  Si5  1  0.250000  0.085575  0.139177  1
  Si  Si6  1  0.750000  0.585745  0.361657  1
  Si  Si7  1  0.750000  0.914255  0.861657  1
  Si  Si8  1  0.250000  0.618121  0.059299  1
  Si  Si9  1  0.250000  0.881879  0.559299  1
  Si  Si10  1  0.750000  0.381715  0.940203  1
  Si  Si11  1  0.750000  0.118285  0.440203  1
  Ir  Ir12  1  0.250000  0.615816  0.500449  1
  Ir  Ir13  1  0.250000  0.884184  0.000449  1
  Rh  Rh14  1  0.750000  0.383568  0.498307  1
  Rh  Rh15  1  0.750000  0.116432  0.998307  1
  Rh  Rh16  1  0.250000  0.696707  0.266001  1
  Rh  Rh17  1  0.250000  0.803293  0.766001  1
  Rh  Rh18  1  0.750000  0.304093  0.733294  1
  Rh  Rh19  1  0.750000  0.195907  0.233294  1
  Rh  Rh20  1  0.250000  0.172086  0.560762  1
  Rh  Rh21  1  0.250000  0.327914  0.060762  1
  Rh  Rh22  1  0.750000  0.828326  0.439708  1
  Rh  Rh23  1  0.750000  0.671674  0.939708  1
  Rh  Rh24  1  0.250000  0.008770  0.342848  1
  Rh  Rh25  1  0.250000  0.491230  0.842848  1
  Rh  Rh26  1  0.750000  0.991506  0.658272  1
  Rh  Rh27  1  0.750000  0.508494  0.158272  1
