# generated using pymatgen
data_Ho4Er(LuSe4)3
_symmetry_space_group_name_H-M   'P 1'
_cell_length_a   13.37879734
_cell_length_b   12.76895219
_cell_length_c   7.03879300
_cell_angle_alpha   79.22736604
_cell_angle_beta   69.65186381
_cell_angle_gamma   30.98625826
_symmetry_Int_Tables_number   1
_chemical_formula_structural   Ho4Er(LuSe4)3
_chemical_formula_sum   'Ho4 Er1 Lu3 Se12'
_cell_volume   564.82564436
_cell_formula_units_Z   1
loop_
 _symmetry_equiv_pos_site_id
 _symmetry_equiv_pos_as_xyz
  1  'x, y, z'
loop_
 _atom_site_type_symbol
 _atom_site_label
 _atom_site_symmetry_multiplicity
 _atom_site_fract_x
 _atom_site_fract_y
 _atom_site_fract_z
 _atom_site_occupancy
  Ho  Ho0  1  0.084186  0.084186  0.915814  1
  Ho  Ho1  1  0.996979  0.996979  0.503021  1
  Ho  Ho2  1  0.502679  0.502679  0.997321  1
  Ho  Ho3  1  0.253135  0.253135  0.746865  1
  Er  Er4  1  0.747664  0.747664  0.252336  1
  Lu  Lu5  1  0.333574  0.333574  0.166426  1
  Lu  Lu6  1  0.166634  0.166634  0.333366  1
  Lu  Lu7  1  0.916244  0.916244  0.083756  1
  Se  Se8  1  0.009265  0.490741  0.489882  1
  Se  Se9  1  0.490741  0.009265  0.010112  1
  Se  Se10  1  0.241008  0.757112  0.759165  1
  Se  Se11  1  0.757112  0.241008  0.242715  1
  Se  Se12  1  0.663756  0.171748  0.845348  1
  Se  Se13  1  0.842550  0.321478  0.660796  1
  Se  Se14  1  0.321478  0.842550  0.175175  1
  Se  Se15  1  0.171748  0.663756  0.319148  1
  Se  Se16  1  0.586605  0.077060  0.404352  1
  Se  Se17  1  0.408187  0.929393  0.582675  1
  Se  Se18  1  0.929393  0.408187  0.079744  1
  Se  Se19  1  0.077060  0.586605  0.931984  1
