# generated using pymatgen
data_Rb12AlGaSb6
_symmetry_space_group_name_H-M   'P 1'
_cell_length_a   6.32901800
_cell_length_b   10.91180444
_cell_length_c   12.54896110
_cell_angle_alpha   79.13664344
_cell_angle_beta   90.00000000
_cell_angle_gamma   90.00000000
_symmetry_Int_Tables_number   1
_chemical_formula_structural   Rb12AlGaSb6
_chemical_formula_sum   'Rb12 Al1 Ga1 Sb6'
_cell_volume   851.11314995
_cell_formula_units_Z   1
loop_
 _symmetry_equiv_pos_site_id
 _symmetry_equiv_pos_as_xyz
  1  'x, y, z'
loop_
 _atom_site_type_symbol
 _atom_site_label
 _atom_site_symmetry_multiplicity
 _atom_site_fract_x
 _atom_site_fract_y
 _atom_site_fract_z
 _atom_site_occupancy
  Rb  Rb0  1  0.750000  0.123395  0.321975  1
  Rb  Rb1  1  0.250000  0.876516  0.678058  1
  Rb  Rb2  1  0.750000  0.135380  0.977231  1
  Rb  Rb3  1  0.250000  0.864639  0.022792  1
  Rb  Rb4  1  0.750000  0.438416  0.460353  1
  Rb  Rb5  1  0.250000  0.561575  0.539628  1
  Rb  Rb6  1  0.750000  0.457909  0.078059  1
  Rb  Rb7  1  0.250000  0.542104  0.921950  1
  Rb  Rb8  1  0.750000  0.739585  0.224338  1
  Rb  Rb9  1  0.250000  0.260350  0.775660  1
  Rb  Rb10  1  0.750000  0.084237  0.630809  1
  Rb  Rb11  1  0.250000  0.915761  0.369169  1
  Al  Al12  1  0.250000  0.321005  0.279551  1
  Ga  Ga13  1  0.750000  0.678982  0.720465  1
  Sb  Sb14  1  0.750000  0.433134  0.773801  1
  Sb  Sb15  1  0.250000  0.566846  0.226193  1
  Sb  Sb16  1  0.750000  0.786538  0.511580  1
  Sb  Sb17  1  0.250000  0.213496  0.488262  1
  Sb  Sb18  1  0.750000  0.821417  0.875812  1
  Sb  Sb19  1  0.250000  0.178715  0.124314  1
