# generated using pymatgen
data_Tb4Mg4IrPt3
_symmetry_space_group_name_H-M   'P 1'
_cell_length_a   4.18871300
_cell_length_b   7.10184595
_cell_length_c   8.65625994
_cell_angle_alpha   89.37376071
_cell_angle_beta   90.00000000
_cell_angle_gamma   90.00000000
_symmetry_Int_Tables_number   1
_chemical_formula_structural   Tb4Mg4IrPt3
_chemical_formula_sum   'Tb4 Mg4 Ir1 Pt3'
_cell_volume   257.48752919
_cell_formula_units_Z   1
loop_
 _symmetry_equiv_pos_site_id
 _symmetry_equiv_pos_as_xyz
  1  'x, y, z'
loop_
 _atom_site_type_symbol
 _atom_site_label
 _atom_site_symmetry_multiplicity
 _atom_site_fract_x
 _atom_site_fract_y
 _atom_site_fract_z
 _atom_site_occupancy
  Tb  Tb0  1  0.250000  0.041701  0.671771  1
  Tb  Tb1  1  0.250000  0.537279  0.824719  1
  Tb  Tb2  1  0.750000  0.969345  0.325651  1
  Tb  Tb3  1  0.750000  0.457004  0.179731  1
  Mg  Mg4  1  0.250000  0.135365  0.062360  1
  Mg  Mg5  1  0.250000  0.635411  0.438196  1
  Mg  Mg6  1  0.750000  0.863668  0.938527  1
  Mg  Mg7  1  0.750000  0.364145  0.559384  1
  Ir  Ir8  1  0.250000  0.247865  0.375588  1
  Pt  Pt9  1  0.250000  0.747970  0.122327  1
  Pt  Pt10  1  0.750000  0.749950  0.626047  1
  Pt  Pt11  1  0.750000  0.250297  0.875700  1
