# generated using pymatgen
data_Ca7Tb(CeSn3)2
_symmetry_space_group_name_H-M   'P 1'
_cell_length_a   9.36184387
_cell_length_b   9.36196536
_cell_length_c   9.38080100
_cell_angle_alpha   96.31484028
_cell_angle_beta   96.22551103
_cell_angle_gamma   141.36803149
_symmetry_Int_Tables_number   1
_chemical_formula_structural   Ca7Tb(CeSn3)2
_chemical_formula_sum   'Ca7 Tb1 Ce2 Sn6'
_cell_volume   484.51392056
_cell_formula_units_Z   1
loop_
 _symmetry_equiv_pos_site_id
 _symmetry_equiv_pos_as_xyz
  1  'x, y, z'
loop_
 _atom_site_type_symbol
 _atom_site_label
 _atom_site_symmetry_multiplicity
 _atom_site_fract_x
 _atom_site_fract_y
 _atom_site_fract_z
 _atom_site_occupancy
  Ca  Ca0  1  0.915795  0.786871  0.702784  1
  Ca  Ca1  1  0.786167  0.083949  0.870006  1
  Ca  Ca2  1  0.414783  0.714515  0.129172  1
  Ca  Ca3  1  0.213873  0.916045  0.129864  1
  Ca  Ca4  1  0.583821  0.287715  0.871477  1
  Ca  Ca5  1  0.715602  0.581974  0.297664  1
  Ca  Ca6  1  0.286764  0.417411  0.704232  1
  Tb  Tb7  1  0.083678  0.211647  0.295291  1
  Ce  Ce8  1  0.248449  0.748316  0.500641  1
  Ce  Ce9  1  0.752451  0.252331  0.500607  1
  Sn  Sn10  1  0.157477  0.658419  0.815874  1
  Sn  Sn11  1  0.846555  0.338691  0.185329  1
  Sn  Sn12  1  0.337727  0.157726  0.495989  1
  Sn  Sn13  1  0.653938  0.837969  0.491760  1
  Sn  Sn14  1  0.249996  0.251750  0.004658  1
  Sn  Sn15  1  0.752924  0.754670  0.004654  1
