# generated using pymatgen
data_Th4IrPd3Pb2
_symmetry_space_group_name_H-M   'P 1'
_cell_length_a   8.04229207
_cell_length_b   8.04229207
_cell_length_c   3.80595000
_cell_angle_alpha   90.00000000
_cell_angle_beta   90.00000000
_cell_angle_gamma   89.98506745
_symmetry_Int_Tables_number   1
_chemical_formula_structural   Th4IrPd3Pb2
_chemical_formula_sum   'Th4 Ir1 Pd3 Pb2'
_cell_volume   246.16298299
_cell_formula_units_Z   1
loop_
 _symmetry_equiv_pos_site_id
 _symmetry_equiv_pos_as_xyz
  1  'x, y, z'
loop_
 _atom_site_type_symbol
 _atom_site_label
 _atom_site_symmetry_multiplicity
 _atom_site_fract_x
 _atom_site_fract_y
 _atom_site_fract_z
 _atom_site_occupancy
  Th  Th0  1  0.660631  0.176629  0.500000  1
  Th  Th1  1  0.182064  0.317936  0.500000  1
  Th  Th2  1  0.830303  0.669697  0.500000  1
  Th  Th3  1  0.323371  0.839369  0.500000  1
  Ir  Ir4  1  0.377068  0.122932  0.000000  1
  Pd  Pd5  1  0.127368  0.624407  0.000000  1
  Pd  Pd6  1  0.632279  0.867721  0.000000  1
  Pd  Pd7  1  0.875593  0.372632  0.000000  1
  Pb  Pb8  1  0.992815  0.001492  0.000000  1
  Pb  Pb9  1  0.498508  0.507185  0.000000  1
