# generated using pymatgen
data_LaPr2Al12Ru3Rh
_symmetry_space_group_name_H-M   'P 1'
_cell_length_a   8.97191700
_cell_length_b   8.92852853
_cell_length_c   9.72352200
_cell_angle_alpha   90.00000000
_cell_angle_beta   90.00000000
_cell_angle_gamma   120.16087893
_symmetry_Int_Tables_number   1
_chemical_formula_structural   LaPr2Al12Ru3Rh
_chemical_formula_sum   'La2 Pr4 Al24 Ru6 Rh2'
_cell_volume   673.46191500
_cell_formula_units_Z   2
loop_
 _symmetry_equiv_pos_site_id
 _symmetry_equiv_pos_as_xyz
  1  'x, y, z'
loop_
 _atom_site_type_symbol
 _atom_site_label
 _atom_site_symmetry_multiplicity
 _atom_site_fract_x
 _atom_site_fract_y
 _atom_site_fract_z
 _atom_site_occupancy
  La  La0  1  0.194217  0.388432  0.250000  1
  La  La1  1  0.805783  0.611568  0.750000  1
  Pr  Pr2  1  0.617712  0.805353  0.250000  1
  Pr  Pr3  1  0.382288  0.194647  0.750000  1
  Pr  Pr4  1  0.187642  0.805353  0.250000  1
  Pr  Pr5  1  0.812358  0.194647  0.750000  1
  Al  Al6  1  0.333204  0.666410  0.008226  1
  Al  Al7  1  0.666796  0.333590  0.991774  1
  Al  Al8  1  0.666796  0.333590  0.508226  1
  Al  Al9  1  0.333204  0.666410  0.491774  1
  Al  Al10  1  0.163193  0.326385  0.576592  1
  Al  Al11  1  0.836807  0.673615  0.423408  1
  Al  Al12  1  0.675850  0.837510  0.576412  1
  Al  Al13  1  0.836807  0.673615  0.076592  1
  Al  Al14  1  0.324150  0.162490  0.423588  1
  Al  Al15  1  0.163193  0.326385  0.923408  1
  Al  Al16  1  0.161661  0.837510  0.576412  1
  Al  Al17  1  0.324150  0.162490  0.076412  1
  Al  Al18  1  0.838339  0.162490  0.423588  1
  Al  Al19  1  0.675850  0.837510  0.923588  1
  Al  Al20  1  0.838339  0.162490  0.076412  1
  Al  Al21  1  0.161661  0.837510  0.923588  1
  Al  Al22  1  0.561198  0.122395  0.250000  1
  Al  Al23  1  0.438802  0.877605  0.750000  1
  Al  Al24  1  0.872145  0.435313  0.250000  1
  Al  Al25  1  0.127855  0.564687  0.750000  1
  Al  Al26  1  0.563167  0.435313  0.250000  1
  Al  Al27  1  0.436833  0.564687  0.750000  1
  Al  Al28  1  0.999249  0.998498  0.250000  1
  Al  Al29  1  0.000751  0.001502  0.750000  1
  Ru  Ru30  1  0.000000  0.500000  0.000000  1
  Ru  Ru31  1  0.500000  0.500000  0.000000  1
  Ru  Ru32  1  0.000000  0.500000  0.500000  1
  Ru  Ru33  1  0.500000  0.500000  0.500000  1
  Ru  Ru34  1  0.000000  0.000000  0.000000  1
  Ru  Ru35  1  0.000000  0.000000  0.500000  1
  Rh  Rh36  1  0.500000  0.000000  0.000000  1
  Rh  Rh37  1  0.500000  0.000000  0.500000  1
