# generated using pymatgen
data_Tb13Y3Cd4Ni3Ru
_symmetry_space_group_name_H-M   'P 1'
_cell_length_a   9.64692340
_cell_length_b   9.60628123
_cell_length_c   9.58423462
_cell_angle_alpha   59.92387186
_cell_angle_beta   60.32892666
_cell_angle_gamma   60.13925608
_symmetry_Int_Tables_number   1
_chemical_formula_structural   Tb13Y3Cd4Ni3Ru
_chemical_formula_sum   'Tb13 Y3 Cd4 Ni3 Ru1'
_cell_volume   629.88254501
_cell_formula_units_Z   1
loop_
 _symmetry_equiv_pos_site_id
 _symmetry_equiv_pos_as_xyz
  1  'x, y, z'
loop_
 _atom_site_type_symbol
 _atom_site_label
 _atom_site_symmetry_multiplicity
 _atom_site_fract_x
 _atom_site_fract_y
 _atom_site_fract_z
 _atom_site_occupancy
  Tb  Tb0  1  0.436016  0.435649  0.063603  1
  Tb  Tb1  1  0.064857  0.059470  0.438117  1
  Tb  Tb2  1  0.436016  0.064734  0.063603  1
  Tb  Tb3  1  0.845902  0.849139  0.848674  1
  Tb  Tb4  1  0.689944  0.310432  0.310974  1
  Tb  Tb5  1  0.064857  0.437557  0.438117  1
  Tb  Tb6  1  0.311926  0.689283  0.688013  1
  Tb  Tb7  1  0.311926  0.310780  0.688013  1
  Tb  Tb8  1  0.847410  0.848828  0.454936  1
  Tb  Tb9  1  0.689944  0.688650  0.310974  1
  Tb  Tb10  1  0.452099  0.848701  0.850499  1
  Tb  Tb11  1  0.065478  0.437550  0.059423  1
  Tb  Tb12  1  0.845902  0.456285  0.848674  1
  Y  Y13  1  0.436224  0.063624  0.436529  1
  Y  Y14  1  0.311734  0.688630  0.311007  1
  Y  Y15  1  0.691767  0.309851  0.688530  1
  Cd  Cd16  1  0.081798  0.757428  0.080515  1
  Cd  Cd17  1  0.081421  0.081194  0.756193  1
  Cd  Cd18  1  0.757331  0.081215  0.080241  1
  Cd  Cd19  1  0.081798  0.080260  0.080515  1
  Ni  Ni20  1  0.640407  0.072752  0.642635  1
  Ni  Ni21  1  0.640407  0.644204  0.642635  1
  Ni  Ni22  1  0.641886  0.642342  0.073430  1
  Ru  Ru23  1  0.072952  0.641447  0.644153  1
