# generated using pymatgen
data_DyYHo2(WO6)2
_symmetry_space_group_name_H-M   'P 1'
_cell_length_a   5.39675400
_cell_length_b   7.70220720
_cell_length_c   11.46114922
_cell_angle_alpha   75.52039515
_cell_angle_beta   90.00000000
_cell_angle_gamma   90.00000000
_symmetry_Int_Tables_number   1
_chemical_formula_structural   DyYHo2(WO6)2
_chemical_formula_sum   'Dy2 Y2 Ho4 W4 O24'
_cell_volume   461.27246337
_cell_formula_units_Z   2
loop_
 _symmetry_equiv_pos_site_id
 _symmetry_equiv_pos_as_xyz
  1  'x, y, z'
loop_
 _atom_site_type_symbol
 _atom_site_label
 _atom_site_symmetry_multiplicity
 _atom_site_fract_x
 _atom_site_fract_y
 _atom_site_fract_z
 _atom_site_occupancy
  Dy  Dy0  1  0.739055  0.000000  0.750000  1
  Dy  Dy1  1  0.260945  0.000000  0.250000  1
  Y  Y2  1  0.683678  0.500000  0.750000  1
  Y  Y3  1  0.316322  0.500000  0.250000  1
  Ho  Ho4  1  0.186134  0.795512  0.578071  1
  Ho  Ho5  1  0.813866  0.795512  0.078071  1
  Ho  Ho6  1  0.186134  0.204488  0.921929  1
  Ho  Ho7  1  0.813866  0.204488  0.421929  1
  W  W8  1  0.254062  0.723055  0.885917  1
  W  W9  1  0.745938  0.723055  0.385917  1
  W  W10  1  0.254062  0.276945  0.614083  1
  W  W11  1  0.745938  0.276945  0.114083  1
  O  O12  1  0.042255  0.939768  0.895841  1
  O  O13  1  0.530788  0.847982  0.931605  1
  O  O14  1  0.957745  0.939768  0.395841  1
  O  O15  1  0.458049  0.789729  0.727775  1
  O  O16  1  0.469212  0.847982  0.431605  1
  O  O17  1  0.982035  0.710398  0.771467  1
  O  O18  1  0.541951  0.789729  0.227775  1
  O  O19  1  0.852426  0.635213  0.548542  1
  O  O20  1  0.360878  0.489346  0.887104  1
  O  O21  1  0.017965  0.710398  0.271467  1
  O  O22  1  0.360878  0.510654  0.612896  1
  O  O23  1  0.852426  0.364787  0.951458  1
  O  O24  1  0.147574  0.635213  0.048542  1
  O  O25  1  0.639122  0.489346  0.387104  1
  O  O26  1  0.982035  0.289602  0.728533  1
  O  O27  1  0.639122  0.510654  0.112896  1
  O  O28  1  0.147574  0.364787  0.451458  1
  O  O29  1  0.458049  0.210271  0.772225  1
  O  O30  1  0.017965  0.289602  0.228533  1
  O  O31  1  0.530788  0.152018  0.568395  1
  O  O32  1  0.541951  0.210271  0.272225  1
  O  O33  1  0.042255  0.060232  0.604159  1
  O  O34  1  0.469212  0.152018  0.068395  1
  O  O35  1  0.957745  0.060232  0.104159  1
