# generated using pymatgen
data_LaNdGdNbO7
_symmetry_space_group_name_H-M   'P 1'
_cell_length_a   6.65173766
_cell_length_b   6.65173720
_cell_length_c   7.76911800
_cell_angle_alpha   90.00000000
_cell_angle_beta   90.00000000
_cell_angle_gamma   109.29499466
_symmetry_Int_Tables_number   1
_chemical_formula_structural   LaNdGdNbO7
_chemical_formula_sum   'La2 Nd2 Gd2 Nb2 O14'
_cell_volume   324.44090802
_cell_formula_units_Z   2
loop_
 _symmetry_equiv_pos_site_id
 _symmetry_equiv_pos_as_xyz
  1  'x, y, z'
loop_
 _atom_site_type_symbol
 _atom_site_label
 _atom_site_symmetry_multiplicity
 _atom_site_fract_x
 _atom_site_fract_y
 _atom_site_fract_z
 _atom_site_occupancy
  La  La0  1  0.496409  0.496409  0.500000  1
  La  La1  1  0.496409  0.496409  0.000000  1
  Nd  Nd2  1  0.536922  0.999102  0.750000  1
  Nd  Nd3  1  0.999102  0.536922  0.250000  1
  Gd  Gd4  1  0.466897  0.999200  0.250000  1
  Gd  Gd5  1  0.999200  0.466897  0.750000  1
  Nb  Nb6  1  0.000297  0.000297  0.500000  1
  Nb  Nb7  1  0.000297  0.000297  0.000000  1
  O  O8  1  0.685880  0.933827  0.464899  1
  O  O9  1  0.933827  0.685880  0.535101  1
  O  O10  1  0.685880  0.933827  0.035101  1
  O  O11  1  0.933827  0.685880  0.964899  1
  O  O12  1  0.317530  0.068426  0.527586  1
  O  O13  1  0.068426  0.317530  0.472414  1
  O  O14  1  0.317530  0.068426  0.972414  1
  O  O15  1  0.068426  0.317530  0.027586  1
  O  O16  1  0.361043  0.626525  0.750000  1
  O  O17  1  0.626525  0.361043  0.250000  1
  O  O18  1  0.642179  0.364787  0.750000  1
  O  O19  1  0.364787  0.642179  0.250000  1
  O  O20  1  0.937410  0.061197  0.750000  1
  O  O21  1  0.061197  0.937410  0.250000  1
