# generated using pymatgen
data_Li4Yb3YSi8
_symmetry_space_group_name_H-M   'P 1'
_cell_length_a   3.79697400
_cell_length_b   7.81087350
_cell_length_c   10.48248803
_cell_angle_alpha   90.16867469
_cell_angle_beta   90.00000000
_cell_angle_gamma   90.00000000
_symmetry_Int_Tables_number   1
_chemical_formula_structural   Li4Yb3YSi8
_chemical_formula_sum   'Li4 Yb3 Y1 Si8'
_cell_volume   310.88496597
_cell_formula_units_Z   1
loop_
 _symmetry_equiv_pos_site_id
 _symmetry_equiv_pos_as_xyz
  1  'x, y, z'
loop_
 _atom_site_type_symbol
 _atom_site_label
 _atom_site_symmetry_multiplicity
 _atom_site_fract_x
 _atom_site_fract_y
 _atom_site_fract_z
 _atom_site_occupancy
  Li  Li0  1  0.250000  0.990733  0.389631  1
  Li  Li1  1  0.250000  0.499095  0.108052  1
  Li  Li2  1  0.750000  0.003085  0.609113  1
  Li  Li3  1  0.750000  0.503440  0.889211  1
  Yb  Yb4  1  0.250000  0.137275  0.866638  1
  Yb  Yb5  1  0.250000  0.634988  0.634411  1
  Yb  Yb6  1  0.750000  0.864370  0.135723  1
  Y  Y7  1  0.750000  0.368823  0.366397  1
  Si  Si8  1  0.250000  0.233470  0.564132  1
  Si  Si9  1  0.250000  0.735309  0.931305  1
  Si  Si10  1  0.750000  0.760122  0.432238  1
  Si  Si11  1  0.750000  0.270684  0.072670  1
  Si  Si12  1  0.250000  0.657345  0.322013  1
  Si  Si13  1  0.250000  0.166744  0.182092  1
  Si  Si14  1  0.750000  0.337033  0.673527  1
  Si  Si15  1  0.750000  0.837484  0.822846  1
