# generated using pymatgen
data_Tb2Ce2TmRu2
_symmetry_space_group_name_H-M   'P 1'
_cell_length_a   6.38045960
_cell_length_b   7.00534987
_cell_length_c   8.82599584
_cell_angle_alpha   95.53058193
_cell_angle_beta   111.18978467
_cell_angle_gamma   90.00000185
_symmetry_Int_Tables_number   1
_chemical_formula_structural   Tb2Ce2TmRu2
_chemical_formula_sum   'Tb4 Ce4 Tm2 Ru4'
_cell_volume   365.85560981
_cell_formula_units_Z   2
loop_
 _symmetry_equiv_pos_site_id
 _symmetry_equiv_pos_as_xyz
  1  'x, y, z'
loop_
 _atom_site_type_symbol
 _atom_site_label
 _atom_site_symmetry_multiplicity
 _atom_site_fract_x
 _atom_site_fract_y
 _atom_site_fract_z
 _atom_site_occupancy
  Tb  Tb0  1  0.206980  0.185424  0.567476  1
  Tb  Tb1  1  0.639504  0.314576  0.432524  1
  Tb  Tb2  1  0.793020  0.814576  0.432524  1
  Tb  Tb3  1  0.360496  0.685424  0.567476  1
  Ce  Ce4  1  0.790728  0.095560  0.811306  1
  Ce  Ce5  1  0.979421  0.404440  0.188694  1
  Ce  Ce6  1  0.209272  0.904440  0.188694  1
  Ce  Ce7  1  0.020579  0.595560  0.811306  1
  Tm  Tm8  1  0.419386  0.250000  0.000000  1
  Tm  Tm9  1  0.580614  0.750000  0.000000  1
  Ru  Ru10  1  0.627218  0.406694  0.781875  1
  Ru  Ru11  1  0.845343  0.093306  0.218125  1
  Ru  Ru12  1  0.372782  0.593306  0.218125  1
  Ru  Ru13  1  0.154657  0.906694  0.781875  1
