# generated using pymatgen
data_Ac5Hg2Os
_symmetry_space_group_name_H-M   'P 1'
_cell_length_a   8.32838200
_cell_length_b   10.00329000
_cell_length_c   13.34726900
_cell_angle_alpha   90.00000000
_cell_angle_beta   90.00000000
_cell_angle_gamma   90.00000000
_symmetry_Int_Tables_number   1
_chemical_formula_structural   Ac5Hg2Os
_chemical_formula_sum   'Ac20 Hg8 Os4'
_cell_volume   1111.97726909
_cell_formula_units_Z   4
loop_
 _symmetry_equiv_pos_site_id
 _symmetry_equiv_pos_as_xyz
  1  'x, y, z'
loop_
 _atom_site_type_symbol
 _atom_site_label
 _atom_site_symmetry_multiplicity
 _atom_site_fract_x
 _atom_site_fract_y
 _atom_site_fract_z
 _atom_site_occupancy
  Ac  Ac0  1  0.651626  0.750000  0.719033  1
  Ac  Ac1  1  0.348374  0.250000  0.280967  1
  Ac  Ac2  1  0.151626  0.250000  0.780967  1
  Ac  Ac3  1  0.848374  0.750000  0.219033  1
  Ac  Ac4  1  0.116878  0.750000  0.813193  1
  Ac  Ac5  1  0.883122  0.250000  0.186807  1
  Ac  Ac6  1  0.616878  0.250000  0.686807  1
  Ac  Ac7  1  0.383122  0.750000  0.313193  1
  Ac  Ac8  1  0.560598  0.750000  0.004362  1
  Ac  Ac9  1  0.439402  0.250000  0.995638  1
  Ac  Ac10  1  0.060598  0.250000  0.495638  1
  Ac  Ac11  1  0.939402  0.750000  0.504362  1
  Ac  Ac12  1  0.820800  0.458919  0.924899  1
  Ac  Ac13  1  0.179200  0.541081  0.075101  1
  Ac  Ac14  1  0.320800  0.541081  0.575101  1
  Ac  Ac15  1  0.179200  0.958919  0.075101  1
  Ac  Ac16  1  0.679200  0.458919  0.424899  1
  Ac  Ac17  1  0.820800  0.041081  0.924899  1
  Ac  Ac18  1  0.679200  0.041081  0.424899  1
  Ac  Ac19  1  0.320800  0.958919  0.575101  1
  Hg  Hg20  1  0.923889  0.009375  0.670184  1
  Hg  Hg21  1  0.076111  0.990625  0.329816  1
  Hg  Hg22  1  0.423889  0.990625  0.829816  1
  Hg  Hg23  1  0.076111  0.509375  0.329816  1
  Hg  Hg24  1  0.576111  0.009375  0.170184  1
  Hg  Hg25  1  0.923889  0.490625  0.670184  1
  Hg  Hg26  1  0.576111  0.490625  0.170184  1
  Hg  Hg27  1  0.423889  0.509375  0.829816  1
  Os  Os28  1  0.918580  0.750000  0.996848  1
  Os  Os29  1  0.081420  0.250000  0.003152  1
  Os  Os30  1  0.418580  0.250000  0.503152  1
  Os  Os31  1  0.581420  0.750000  0.496848  1
