# generated using pymatgen
data_Sn(SeO4)2
_symmetry_space_group_name_H-M   'P 1'
_cell_length_a   9.53644152
_cell_length_b   9.53644108
_cell_length_c   9.53644238
_cell_angle_alpha   54.69845958
_cell_angle_beta   54.69846416
_cell_angle_gamma   54.69846237
_symmetry_Int_Tables_number   1
_chemical_formula_structural   Sn(SeO4)2
_chemical_formula_sum   'Sn3 Se6 O24'
_cell_volume   537.52119119
_cell_formula_units_Z   3
loop_
 _symmetry_equiv_pos_site_id
 _symmetry_equiv_pos_as_xyz
  1  'x, y, z'
loop_
 _atom_site_type_symbol
 _atom_site_label
 _atom_site_symmetry_multiplicity
 _atom_site_fract_x
 _atom_site_fract_y
 _atom_site_fract_z
 _atom_site_occupancy
  Sn  Sn0  1  0.354505  0.354505  0.354505  1
  Sn  Sn1  1  0.643856  0.643856  0.643856  1
  Sn  Sn2  1  0.847729  0.847729  0.847729  1
  Se  Se3  1  0.469133  0.741134  0.035721  1
  Se  Se4  1  0.741134  0.035721  0.469133  1
  Se  Se5  1  0.035721  0.469133  0.741134  1
  Se  Se6  1  0.964255  0.534237  0.249538  1
  Se  Se7  1  0.249538  0.964255  0.534237  1
  Se  Se8  1  0.534237  0.249538  0.964255  1
  O  O9  1  0.536619  0.252626  0.140461  1
  O  O10  1  0.140461  0.536619  0.252626  1
  O  O11  1  0.336206  0.954821  0.976583  1
  O  O12  1  0.252626  0.140461  0.536619  1
  O  O13  1  0.672992  0.699013  0.030098  1
  O  O14  1  0.376401  0.606572  0.255152  1
  O  O15  1  0.606572  0.255152  0.376401  1
  O  O16  1  0.954821  0.976583  0.336206  1
  O  O17  1  0.255152  0.376401  0.606572  1
  O  O18  1  0.989962  0.678101  0.026206  1
  O  O19  1  0.971405  0.333449  0.312674  1
  O  O20  1  0.312674  0.971405  0.333449  1
  O  O21  1  0.699013  0.030098  0.672992  1
  O  O22  1  0.030098  0.672992  0.699013  1
  O  O23  1  0.976583  0.336206  0.954821  1
  O  O24  1  0.758532  0.663199  0.372150  1
  O  O25  1  0.026206  0.989962  0.678101  1
  O  O26  1  0.372150  0.758532  0.663199  1
  O  O27  1  0.663199  0.372150  0.758532  1
  O  O28  1  0.333449  0.312674  0.971405  1
  O  O29  1  0.621020  0.914367  0.533643  1
  O  O30  1  0.678101  0.026206  0.989962  1
  O  O31  1  0.914367  0.533643  0.621020  1
  O  O32  1  0.533643  0.621020  0.914367  1
