# generated using pymatgen
data_Zr10ZnBi2Pb5
_symmetry_space_group_name_H-M   'P 1'
_cell_length_a   8.94784170
_cell_length_b   8.96360086
_cell_length_c   6.00531900
_cell_angle_alpha   89.98238990
_cell_angle_beta   90.03528223
_cell_angle_gamma   119.94185861
_symmetry_Int_Tables_number   1
_chemical_formula_structural   Zr10ZnBi2Pb5
_chemical_formula_sum   'Zr10 Zn1 Bi2 Pb5'
_cell_volume   417.37033253
_cell_formula_units_Z   1
loop_
 _symmetry_equiv_pos_site_id
 _symmetry_equiv_pos_as_xyz
  1  'x, y, z'
loop_
 _atom_site_type_symbol
 _atom_site_label
 _atom_site_symmetry_multiplicity
 _atom_site_fract_x
 _atom_site_fract_y
 _atom_site_fract_z
 _atom_site_occupancy
  Zr  Zr0  1  0.275559  0.276024  0.733223  1
  Zr  Zr1  1  0.999535  0.723976  0.733223  1
  Zr  Zr2  1  0.999395  0.273326  0.266457  1
  Zr  Zr3  1  0.723823  0.000000  0.733068  1
  Zr  Zr4  1  0.333341  0.667093  0.501623  1
  Zr  Zr5  1  0.726069  0.726674  0.266457  1
  Zr  Zr6  1  0.274423  0.000000  0.267066  1
  Zr  Zr7  1  0.666250  0.332907  0.501623  1
  Zr  Zr8  1  0.666810  0.333176  0.998712  1
  Zr  Zr9  1  0.333633  0.666824  0.998712  1
  Zn  Zn10  1  0.999729  0.000000  0.501643  1
  Bi  Bi11  1  0.999796  0.613003  0.245657  1
  Bi  Bi12  1  0.386792  0.386997  0.245657  1
  Pb  Pb13  1  0.615026  0.000000  0.244662  1
  Pb  Pb14  1  0.999802  0.000000  0.998147  1
  Pb  Pb15  1  0.383975  0.000000  0.755093  1
  Pb  Pb16  1  0.616407  0.616772  0.754489  1
  Pb  Pb17  1  0.999634  0.383228  0.754489  1
