# generated using pymatgen
data_Nd20NiIr3Pt8
_symmetry_space_group_name_H-M   'P 1'
_cell_length_a   11.39812900
_cell_length_b   11.39812900
_cell_length_c   6.62912100
_cell_angle_alpha   90.00000000
_cell_angle_beta   90.00000000
_cell_angle_gamma   90.00000000
_symmetry_Int_Tables_number   1
_chemical_formula_structural   Nd20NiIr3Pt8
_chemical_formula_sum   'Nd20 Ni1 Ir3 Pt8'
_cell_volume   861.23779802
_cell_formula_units_Z   1
loop_
 _symmetry_equiv_pos_site_id
 _symmetry_equiv_pos_as_xyz
  1  'x, y, z'
loop_
 _atom_site_type_symbol
 _atom_site_label
 _atom_site_symmetry_multiplicity
 _atom_site_fract_x
 _atom_site_fract_y
 _atom_site_fract_z
 _atom_site_occupancy
  Nd  Nd0  1  0.088789  0.297599  0.124578  1
  Nd  Nd1  1  0.797599  0.411211  0.124578  1
  Nd  Nd2  1  0.202401  0.588789  0.124578  1
  Nd  Nd3  1  0.911211  0.702401  0.124578  1
  Nd  Nd4  1  0.409657  0.795538  0.375823  1
  Nd  Nd5  1  0.590343  0.204462  0.375823  1
  Nd  Nd6  1  0.295538  0.090343  0.375823  1
  Nd  Nd7  1  0.704462  0.909657  0.375823  1
  Nd  Nd8  1  0.409885  0.204310  0.875527  1
  Nd  Nd9  1  0.704310  0.090115  0.875527  1
  Nd  Nd10  1  0.295690  0.909885  0.875527  1
  Nd  Nd11  1  0.590115  0.795690  0.875527  1
  Nd  Nd12  1  0.088761  0.701610  0.623561  1
  Nd  Nd13  1  0.911239  0.298390  0.623561  1
  Nd  Nd14  1  0.201610  0.411239  0.623561  1
  Nd  Nd15  1  0.798390  0.588761  0.623561  1
  Nd  Nd16  1  0.000000  0.000000  0.999675  1
  Nd  Nd17  1  0.500000  0.500000  0.999675  1
  Nd  Nd18  1  0.500000  0.500000  0.500233  1
  Nd  Nd19  1  0.000000  0.000000  0.500233  1
  Ni  Ni20  1  0.000000  0.500000  0.384133  1
  Ir  Ir21  1  0.500000  0.000000  0.118216  1
  Ir  Ir22  1  0.500000  0.000000  0.616880  1
  Ir  Ir23  1  0.000000  0.500000  0.882300  1
  Pt  Pt24  1  0.152188  0.845520  0.249930  1
  Pt  Pt25  1  0.345520  0.347812  0.249930  1
  Pt  Pt26  1  0.654480  0.652188  0.249930  1
  Pt  Pt27  1  0.847812  0.154480  0.249930  1
  Pt  Pt28  1  0.346622  0.653162  0.750245  1
  Pt  Pt29  1  0.153162  0.153378  0.750245  1
  Pt  Pt30  1  0.846838  0.846622  0.750245  1
  Pt  Pt31  1  0.653378  0.346838  0.750245  1
