# generated using pymatgen
data_Dy5ZnSi5P6Ir19
_symmetry_space_group_name_H-M   'P 1'
_cell_length_a   12.80634655
_cell_length_b   12.84566882
_cell_length_c   3.95671600
_cell_angle_alpha   90.00000000
_cell_angle_beta   90.00000000
_cell_angle_gamma   119.99521250
_symmetry_Int_Tables_number   1
_chemical_formula_structural   Dy5ZnSi5P6Ir19
_chemical_formula_sum   'Dy5 Zn1 Si5 P6 Ir19'
_cell_volume   563.72647430
_cell_formula_units_Z   1
loop_
 _symmetry_equiv_pos_site_id
 _symmetry_equiv_pos_as_xyz
  1  'x, y, z'
loop_
 _atom_site_type_symbol
 _atom_site_label
 _atom_site_symmetry_multiplicity
 _atom_site_fract_x
 _atom_site_fract_y
 _atom_site_fract_z
 _atom_site_occupancy
  Dy  Dy0  1  0.335976  0.667313  0.500000  1
  Dy  Dy1  1  0.666636  0.334577  0.500000  1
  Dy  Dy2  1  0.999936  0.814382  0.000000  1
  Dy  Dy3  1  0.183741  0.185714  0.000000  1
  Dy  Dy4  1  0.811851  0.996508  0.000000  1
  Zn  Zn5  1  0.514227  0.678783  0.000000  1
  Si  Si6  1  0.001791  0.635512  0.500000  1
  Si  Si7  1  0.364991  0.366307  0.500000  1
  Si  Si8  1  0.633406  0.999899  0.500000  1
  Si  Si9  1  0.318899  0.838255  0.000000  1
  Si  Si10  1  0.162442  0.478856  0.000000  1
  P  P11  1  0.482758  0.178308  0.000000  1
  P  P12  1  0.694583  0.518770  0.000000  1
  P  P13  1  0.821695  0.306263  0.000000  1
  P  P14  1  0.994258  0.175834  0.500000  1
  P  P15  1  0.822579  0.820145  0.500000  1
  P  P16  1  0.179767  0.002666  0.500000  1
  Ir  Ir17  1  0.518778  0.878389  0.000000  1
  Ir  Ir18  1  0.132370  0.646370  0.000000  1
  Ir  Ir19  1  0.346677  0.470036  0.000000  1
  Ir  Ir20  1  0.496750  0.367982  0.000000  1
  Ir  Ir21  1  0.874185  0.505057  0.000000  1
  Ir  Ir22  1  0.631753  0.129461  0.000000  1
  Ir  Ir23  1  0.014212  0.457360  0.500000  1
  Ir  Ir24  1  0.548776  0.553122  0.500000  1
  Ir  Ir25  1  0.443165  0.990280  0.500000  1
  Ir  Ir26  1  0.991451  0.277294  0.000000  1
  Ir  Ir27  1  0.728229  0.717510  0.000000  1
  Ir  Ir28  1  0.283452  0.006591  0.000000  1
  Ir  Ir29  1  0.637043  0.814777  0.500000  1
  Ir  Ir30  1  0.192176  0.823904  0.500000  1
  Ir  Ir31  1  0.172366  0.364493  0.500000  1
  Ir  Ir32  1  0.381274  0.183131  0.500000  1
  Ir  Ir33  1  0.801383  0.616260  0.500000  1
  Ir  Ir34  1  0.815863  0.199096  0.500000  1
  Ir  Ir35  1  0.000560  0.000798  0.500000  1
