# generated using pymatgen
data_Y12Th4Mg2ZnHgIr4
_symmetry_space_group_name_H-M   'P 1'
_cell_length_a   9.73974788
_cell_length_b   9.73974729
_cell_length_c   9.77216800
_cell_angle_alpha   59.88983303
_cell_angle_beta   59.88983504
_cell_angle_gamma   59.95896967
_symmetry_Int_Tables_number   1
_chemical_formula_structural   Y12Th4Mg2ZnHgIr4
_chemical_formula_sum   'Y12 Th4 Mg2 Zn1 Hg1 Ir4'
_cell_volume   654.20182520
_cell_formula_units_Z   1
loop_
 _symmetry_equiv_pos_site_id
 _symmetry_equiv_pos_as_xyz
  1  'x, y, z'
loop_
 _atom_site_type_symbol
 _atom_site_label
 _atom_site_symmetry_multiplicity
 _atom_site_fract_x
 _atom_site_fract_y
 _atom_site_fract_z
 _atom_site_occupancy
  Y  Y0  1  0.061543  0.437636  0.438753  1
  Y  Y1  1  0.436524  0.062211  0.062367  1
  Y  Y2  1  0.437636  0.061543  0.438753  1
  Y  Y3  1  0.062211  0.436524  0.062367  1
  Y  Y4  1  0.437784  0.437784  0.062131  1
  Y  Y5  1  0.060121  0.060121  0.439156  1
  Y  Y6  1  0.184498  0.813282  0.814961  1
  Y  Y7  1  0.813880  0.181628  0.189110  1
  Y  Y8  1  0.813282  0.184498  0.814961  1
  Y  Y9  1  0.181628  0.813880  0.189110  1
  Y  Y10  1  0.813842  0.813842  0.188268  1
  Y  Y11  1  0.184988  0.184988  0.815151  1
  Th  Th12  1  0.600109  0.600109  0.598140  1
  Th  Th13  1  0.599104  0.599104  0.203045  1
  Th  Th14  1  0.601949  0.198072  0.599457  1
  Th  Th15  1  0.198072  0.601949  0.599457  1
  Mg  Mg16  1  0.829882  0.518211  0.825521  1
  Mg  Mg17  1  0.518211  0.829882  0.825521  1
  Zn  Zn18  1  0.833725  0.833725  0.494520  1
  Hg  Hg19  1  0.833497  0.833497  0.837035  1
  Ir  Ir20  1  0.393030  0.393030  0.394824  1
  Ir  Ir21  1  0.393615  0.393615  0.817910  1
  Ir  Ir22  1  0.392695  0.818174  0.394740  1
  Ir  Ir23  1  0.818174  0.392695  0.394740  1
