# generated using pymatgen
data_Li2Sc4RuPt
_symmetry_space_group_name_H-M   'P 1'
_cell_length_a   4.70035800
_cell_length_b   6.55715300
_cell_length_c   13.86110300
_cell_angle_alpha   89.99996599
_cell_angle_beta   90.00212633
_cell_angle_gamma   89.99987789
_symmetry_Int_Tables_number   1
_chemical_formula_structural   Li2Sc4RuPt
_chemical_formula_sum   'Li6 Sc12 Ru3 Pt3'
_cell_volume   427.21259191
_cell_formula_units_Z   3
loop_
 _symmetry_equiv_pos_site_id
 _symmetry_equiv_pos_as_xyz
  1  'x, y, z'
loop_
 _atom_site_type_symbol
 _atom_site_label
 _atom_site_symmetry_multiplicity
 _atom_site_fract_x
 _atom_site_fract_y
 _atom_site_fract_z
 _atom_site_occupancy
  Li  Li0  1  0.000011  0.000000  0.999890  1
  Li  Li1  1  0.499529  0.500000  0.166684  1
  Li  Li2  1  0.999551  0.000000  0.333431  1
  Li  Li3  1  0.500013  0.500000  0.499960  1
  Li  Li4  1  0.000453  0.000000  0.666666  1
  Li  Li5  1  0.500454  0.500001  0.833368  1
  Sc  Sc6  1  0.499995  0.245597  0.996966  1
  Sc  Sc7  1  0.500001  0.754403  0.996968  1
  Sc  Sc8  1  0.999697  0.250220  0.166674  1
  Sc  Sc9  1  0.999696  0.749777  0.166673  1
  Sc  Sc10  1  0.499701  0.245598  0.336377  1
  Sc  Sc11  1  0.499704  0.754406  0.336378  1
  Sc  Sc12  1  0.999994  0.248174  0.502386  1
  Sc  Sc13  1  0.999993  0.751825  0.502385  1
  Sc  Sc14  1  0.500298  0.249489  0.666652  1
  Sc  Sc15  1  0.500301  0.750514  0.666652  1
  Sc  Sc16  1  0.000292  0.248182  0.830940  1
  Sc  Sc17  1  0.000291  0.751819  0.830943  1
  Ru  Ru18  1  0.499994  0.999995  0.497747  1
  Ru  Ru19  1  0.000309  0.499999  0.666674  1
  Ru  Ru20  1  0.500321  0.000001  0.835571  1
  Pt  Pt21  1  0.999993  0.500000  0.002216  1
  Pt  Pt22  1  0.499735  0.999999  0.166680  1
  Pt  Pt23  1  0.999671  0.499999  0.331119  1
