# generated using pymatgen
data_Tb3Y9(BCl3)4
_symmetry_space_group_name_H-M   'P 1'
_cell_length_a   9.48000030
_cell_length_b   9.47812303
_cell_length_c   9.47902349
_cell_angle_alpha   109.50997614
_cell_angle_beta   109.45072534
_cell_angle_gamma   109.44687424
_symmetry_Int_Tables_number   1
_chemical_formula_structural   Tb3Y9(BCl3)4
_chemical_formula_sum   'Tb3 Y9 B4 Cl12'
_cell_volume   655.69956223
_cell_formula_units_Z   1
loop_
 _symmetry_equiv_pos_site_id
 _symmetry_equiv_pos_as_xyz
  1  'x, y, z'
loop_
 _atom_site_type_symbol
 _atom_site_label
 _atom_site_symmetry_multiplicity
 _atom_site_fract_x
 _atom_site_fract_y
 _atom_site_fract_z
 _atom_site_occupancy
  Tb  Tb0  1  0.469755  0.484877  0.234877  1
  Tb  Tb1  1  0.749922  0.235081  0.264959  1
  Tb  Tb2  1  0.749922  0.014842  0.484963  1
  Y  Y3  1  0.234729  0.469323  0.484512  1
  Y  Y4  1  0.265124  0.749766  0.234459  1
  Y  Y5  1  0.031186  0.265594  0.015594  1
  Y  Y6  1  0.015280  0.030774  0.265465  1
  Y  Y7  1  0.484438  0.750026  0.015506  1
  Y  Y8  1  0.484438  0.234413  0.468933  1
  Y  Y9  1  0.015280  0.484504  0.749815  1
  Y  Y10  1  0.265124  0.015358  0.030664  1
  Y  Y11  1  0.234729  0.265406  0.750216  1
  B  B12  1  0.249849  0.249890  0.249968  1
  B  B13  1  0.499844  0.999922  0.249922  1
  B  B14  1  0.000131  0.250066  0.500066  1
  B  B15  1  0.249849  0.499960  0.999882  1
  Cl  Cl16  1  0.250001  0.755207  0.744756  1
  Cl  Cl17  1  0.510451  0.505225  0.755225  1
  Cl  Cl18  1  0.989478  0.744739  0.994739  1
  Cl  Cl19  1  0.744702  0.250297  0.755482  1
  Cl  Cl20  1  0.995252  0.989481  0.745199  1
  Cl  Cl21  1  0.250001  0.994794  0.505245  1
  Cl  Cl22  1  0.755735  0.510692  0.506130  1
  Cl  Cl23  1  0.504545  0.249648  0.993900  1
  Cl  Cl24  1  0.755735  0.745043  0.249606  1
  Cl  Cl25  1  0.744702  0.994404  0.989220  1
  Cl  Cl26  1  0.995252  0.505771  0.250053  1
  Cl  Cl27  1  0.504545  0.754897  0.510644  1
