# generated using pymatgen
data_La8Tb12Si15Hg
_symmetry_space_group_name_H-M   'P 1'
_cell_length_a   7.87809772
_cell_length_b   7.84941240
_cell_length_c   14.81899245
_cell_angle_alpha   89.98162837
_cell_angle_beta   89.78633751
_cell_angle_gamma   90.03127697
_symmetry_Int_Tables_number   1
_chemical_formula_structural   La8Tb12Si15Hg
_chemical_formula_sum   'La8 Tb12 Si15 Hg1'
_cell_volume   916.37678882
_cell_formula_units_Z   1
loop_
 _symmetry_equiv_pos_site_id
 _symmetry_equiv_pos_as_xyz
  1  'x, y, z'
loop_
 _atom_site_type_symbol
 _atom_site_label
 _atom_site_symmetry_multiplicity
 _atom_site_fract_x
 _atom_site_fract_y
 _atom_site_fract_z
 _atom_site_occupancy
  La  La0  1  0.988244  0.630975  0.046179  1
  La  La1  1  0.012746  0.360396  0.548168  1
  La  La2  1  0.632701  0.987136  0.953727  1
  La  La3  1  0.133316  0.512321  0.796777  1
  La  La4  1  0.858982  0.480493  0.290841  1
  La  La5  1  0.511229  0.131686  0.201398  1
  La  La6  1  0.491213  0.868080  0.705311  1
  La  La7  1  0.374099  0.017297  0.454438  1
  Tb  Tb8  1  0.373040  0.484627  0.373057  1
  Tb  Tb9  1  0.857794  0.021799  0.370756  1
  Tb  Tb10  1  0.986896  0.134231  0.123984  1
  Tb  Tb11  1  0.014537  0.867645  0.627951  1
  Tb  Tb12  1  0.635118  0.513917  0.874715  1
  Tb  Tb13  1  0.489568  0.363864  0.627937  1
  Tb  Tb14  1  0.512919  0.632053  0.123859  1
  Tb  Tb15  1  0.132333  0.987478  0.876406  1
  Tb  Tb16  1  0.680743  0.690018  0.500933  1
  Tb  Tb17  1  0.813220  0.186806  0.750450  1
  Tb  Tb18  1  0.184473  0.811611  0.246308  1
  Tb  Tb19  1  0.311550  0.313736  0.999610  1
  Si  Si20  1  0.928019  0.285062  0.938088  1
  Si  Si21  1  0.714111  0.070646  0.562995  1
  Si  Si22  1  0.215923  0.427784  0.188306  1
  Si  Si23  1  0.786086  0.572116  0.688704  1
  Si  Si24  1  0.428162  0.215532  0.813120  1
  Si  Si25  1  0.571310  0.785534  0.309898  1
  Si  Si26  1  0.285932  0.928480  0.060488  1
  Si  Si27  1  0.839206  0.802747  0.803858  1
  Si  Si28  1  0.162531  0.196994  0.302296  1
  Si  Si29  1  0.799265  0.838720  0.195648  1
  Si  Si30  1  0.308435  0.657636  0.559999  1
  Si  Si31  1  0.698370  0.338926  0.051932  1
  Si  Si32  1  0.662548  0.305252  0.449752  1
  Si  Si33  1  0.338885  0.697991  0.947215  1
  Si  Si34  1  0.199085  0.161206  0.699410  1
  Hg  Hg35  1  0.067411  0.719205  0.435483  1
