# generated using pymatgen
data_RbBa3O12
_symmetry_space_group_name_H-M   'P 1'
_cell_length_a   5.82606352
_cell_length_b   6.25060051
_cell_length_c   8.53900566
_cell_angle_alpha   57.87301500
_cell_angle_beta   91.96010811
_cell_angle_gamma   91.21164905
_symmetry_Int_Tables_number   1
_chemical_formula_structural   RbBa3O12
_chemical_formula_sum   'Rb1 Ba3 O12'
_cell_volume   263.18732280
_cell_formula_units_Z   1
loop_
 _symmetry_equiv_pos_site_id
 _symmetry_equiv_pos_as_xyz
  1  'x, y, z'
loop_
 _atom_site_type_symbol
 _atom_site_label
 _atom_site_symmetry_multiplicity
 _atom_site_fract_x
 _atom_site_fract_y
 _atom_site_fract_z
 _atom_site_occupancy
  Rb  Rb0  1  0.751190  0.234842  0.916994  1
  Ba  Ba1  1  0.743621  0.230954  0.417649  1
  Ba  Ba2  1  0.238562  0.795770  0.071649  1
  Ba  Ba3  1  0.255523  0.756286  0.590160  1
  O  O4  1  0.431632  0.083023  0.222373  1
  O  O5  1  0.957034  0.902961  0.297705  1
  O  O6  1  0.549917  0.894906  0.791767  1
  O  O7  1  0.065745  0.076301  0.702453  1
  O  O8  1  0.214871  0.294513  0.598271  1
  O  O9  1  0.719085  0.704026  0.897344  1
  O  O10  1  0.788384  0.708442  0.396868  1
  O  O11  1  0.287778  0.297951  0.106205  1
  O  O12  1  0.264158  0.319086  0.422005  1
  O  O13  1  0.754660  0.674641  0.075841  1
  O  O14  1  0.731608  0.707521  0.561063  1
  O  O15  1  0.246232  0.318778  0.931653  1
