# generated using pymatgen
data_Ho8Lu4InGaNi4
_symmetry_space_group_name_H-M   'P 1'
_cell_length_a   8.27832985
_cell_length_b   8.27832881
_cell_length_c   8.27832950
_cell_angle_alpha   112.88651710
_cell_angle_beta   109.94745428
_cell_angle_gamma   105.66037542
_symmetry_Int_Tables_number   1
_chemical_formula_structural   Ho8Lu4InGaNi4
_chemical_formula_sum   'Ho8 Lu4 In1 Ga1 Ni4'
_cell_volume   434.97886198
_cell_formula_units_Z   1
loop_
 _symmetry_equiv_pos_site_id
 _symmetry_equiv_pos_as_xyz
  1  'x, y, z'
loop_
 _atom_site_type_symbol
 _atom_site_label
 _atom_site_symmetry_multiplicity
 _atom_site_fract_x
 _atom_site_fract_y
 _atom_site_fract_z
 _atom_site_occupancy
  Ho  Ho0  1  0.181711  0.286966  0.468676  1
  Ho  Ho1  1  0.818289  0.713034  0.531324  1
  Ho  Ho2  1  0.181711  0.713034  0.894746  1
  Ho  Ho3  1  0.818289  0.286966  0.105254  1
  Ho  Ho4  1  0.323653  0.632718  0.309067  1
  Ho  Ho5  1  0.676347  0.367282  0.690933  1
  Ho  Ho6  1  0.323653  0.014587  0.690933  1
  Ho  Ho7  1  0.676347  0.985413  0.309067  1
  Lu  Lu8  1  0.428621  0.231457  0.197165  1
  Lu  Lu9  1  0.571379  0.768543  0.802835  1
  Lu  Lu10  1  0.034292  0.231457  0.802835  1
  Lu  Lu11  1  0.965708  0.768543  0.197165  1
  In  In12  1  0.500000  0.500000  0.000000  1
  Ga  Ga13  1  0.000000  0.000000  0.000000  1
  Ni  Ni14  1  0.349120  0.000000  0.349120  1
  Ni  Ni15  1  0.650880  0.000000  0.650880  1
  Ni  Ni16  1  0.122137  0.622137  0.500000  1
  Ni  Ni17  1  0.877863  0.377863  0.500000  1
