# generated using pymatgen
data_YHo7(SiPt)8
_symmetry_space_group_name_H-M   'P 1'
_cell_length_a   4.28237400
_cell_length_b   7.45125800
_cell_length_c   14.03489000
_cell_angle_alpha   90.00000000
_cell_angle_beta   90.00000000
_cell_angle_gamma   90.00000000
_symmetry_Int_Tables_number   1
_chemical_formula_structural   YHo7(SiPt)8
_chemical_formula_sum   'Y1 Ho7 Si8 Pt8'
_cell_volume   447.84033695
_cell_formula_units_Z   1
loop_
 _symmetry_equiv_pos_site_id
 _symmetry_equiv_pos_as_xyz
  1  'x, y, z'
loop_
 _atom_site_type_symbol
 _atom_site_label
 _atom_site_symmetry_multiplicity
 _atom_site_fract_x
 _atom_site_fract_y
 _atom_site_fract_z
 _atom_site_occupancy
  Y  Y0  1  0.000000  0.300794  0.000000  1
  Ho  Ho1  1  0.500000  0.795176  0.748921  1
  Ho  Ho2  1  0.000000  0.204505  0.750513  1
  Ho  Ho3  1  0.500000  0.795176  0.251079  1
  Ho  Ho4  1  0.000000  0.204505  0.249487  1
  Ho  Ho5  1  0.500000  0.706100  0.000000  1
  Ho  Ho6  1  0.000000  0.294258  0.500000  1
  Ho  Ho7  1  0.500000  0.699747  0.500000  1
  Si  Si8  1  0.500000  0.407070  0.648239  1
  Si  Si9  1  0.000000  0.593094  0.851444  1
  Si  Si10  1  0.500000  0.407070  0.351761  1
  Si  Si11  1  0.000000  0.593094  0.148556  1
  Si  Si12  1  0.500000  0.092163  0.092607  1
  Si  Si13  1  0.000000  0.907442  0.407949  1
  Si  Si14  1  0.500000  0.092163  0.907393  1
  Si  Si15  1  0.000000  0.907442  0.592051  1
  Pt  Pt16  1  0.500000  0.076238  0.608356  1
  Pt  Pt17  1  0.000000  0.923330  0.891361  1
  Pt  Pt18  1  0.500000  0.076238  0.391644  1
  Pt  Pt19  1  0.000000  0.923330  0.108639  1
  Pt  Pt20  1  0.500000  0.420755  0.154475  1
  Pt  Pt21  1  0.000000  0.579777  0.346736  1
  Pt  Pt22  1  0.500000  0.420755  0.845525  1
  Pt  Pt23  1  0.000000  0.579777  0.653264  1
