# generated using pymatgen
data_Ho7Er5Fe2I17
_symmetry_space_group_name_H-M   'P 1'
_cell_length_a   9.71709492
_cell_length_b   11.64834923
_cell_length_c   11.66949491
_cell_angle_alpha   93.60700818
_cell_angle_beta   104.76621070
_cell_angle_gamma   113.93813704
_symmetry_Int_Tables_number   1
_chemical_formula_structural   Ho7Er5Fe2I17
_chemical_formula_sum   'Ho7 Er5 Fe2 I17'
_cell_volume   1146.50459468
_cell_formula_units_Z   1
loop_
 _symmetry_equiv_pos_site_id
 _symmetry_equiv_pos_as_xyz
  1  'x, y, z'
loop_
 _atom_site_type_symbol
 _atom_site_label
 _atom_site_symmetry_multiplicity
 _atom_site_fract_x
 _atom_site_fract_y
 _atom_site_fract_z
 _atom_site_occupancy
  Ho  Ho0  1  0.050674  0.500927  0.318426  1
  Ho  Ho1  1  0.992090  0.807764  0.590141  1
  Ho  Ho2  1  0.657297  0.241586  0.279433  1
  Ho  Ho3  1  0.007787  0.191444  0.410161  1
  Ho  Ho4  1  0.217838  0.671724  0.981173  1
  Ho  Ho5  1  0.253312  0.976687  0.888276  1
  Ho  Ho6  1  0.343240  0.758026  0.719866  1
  Er  Er7  1  0.949825  0.500456  0.681896  1
  Er  Er8  1  0.747489  0.024787  0.112180  1
  Er  Er9  1  0.137259  0.285937  0.153845  1
  Er  Er10  1  0.782229  0.327473  0.019097  1
  Er  Er11  1  0.861508  0.713560  0.845858  1
  Fe  Fe12  1  0.104141  0.738226  0.785889  1
  Fe  Fe13  1  0.895852  0.261787  0.213992  1
  I  I14  1  0.785197  0.528302  0.418180  1
  I  I15  1  0.648391  0.420836  0.764474  1
  I  I16  1  0.844514  0.897145  0.327347  1
  I  I17  1  0.326698  0.214438  0.366836  1
  I  I18  1  0.154982  0.102643  0.672226  1
  I  I19  1  0.584708  0.052744  0.843715  1
  I  I20  1  0.760788  0.191634  0.538880  1
  I  I21  1  0.552414  0.713285  0.954260  1
  I  I22  1  0.352292  0.578763  0.235738  1
  I  I23  1  0.214373  0.471248  0.582304  1
  I  I24  1  0.056072  0.368135  0.897371  1
  I  I25  1  0.448051  0.287182  0.045681  1
  I  I26  1  0.999697  0.999888  0.000093  1
  I  I27  1  0.239585  0.809038  0.461468  1
  I  I28  1  0.415571  0.947119  0.156125  1
  I  I29  1  0.673108  0.785526  0.633120  1
  I  I30  1  0.943019  0.631690  0.101949  1
