# generated using pymatgen
data_Hf18Ti2Fe2Mo5Ir
_symmetry_space_group_name_H-M   'P 1'
_cell_length_a   8.37104700
_cell_length_b   8.68513417
_cell_length_c   8.67708502
_cell_angle_alpha   120.03073086
_cell_angle_beta   90.00000000
_cell_angle_gamma   90.00000000
_symmetry_Int_Tables_number   1
_chemical_formula_structural   Hf18Ti2Fe2Mo5Ir
_chemical_formula_sum   'Hf18 Ti2 Fe2 Mo5 Ir1'
_cell_volume   546.16797056
_cell_formula_units_Z   1
loop_
 _symmetry_equiv_pos_site_id
 _symmetry_equiv_pos_as_xyz
  1  'x, y, z'
loop_
 _atom_site_type_symbol
 _atom_site_label
 _atom_site_symmetry_multiplicity
 _atom_site_fract_x
 _atom_site_fract_y
 _atom_site_fract_z
 _atom_site_occupancy
  Hf  Hf0  1  0.559062  0.797928  0.595857  1
  Hf  Hf1  1  0.559893  0.797580  0.201545  1
  Hf  Hf2  1  0.559890  0.403955  0.201541  1
  Hf  Hf3  1  0.440995  0.202866  0.405732  1
  Hf  Hf4  1  0.441327  0.201828  0.797400  1
  Hf  Hf5  1  0.441332  0.595581  0.797405  1
  Hf  Hf6  1  0.059005  0.202866  0.405732  1
  Hf  Hf7  1  0.058673  0.201828  0.797400  1
  Hf  Hf8  1  0.058668  0.595581  0.797405  1
  Hf  Hf9  1  0.940938  0.797928  0.595857  1
  Hf  Hf10  1  0.940107  0.797580  0.201545  1
  Hf  Hf11  1  0.940110  0.403955  0.201541  1
  Hf  Hf12  1  0.750000  0.457918  0.915842  1
  Hf  Hf13  1  0.750000  0.459201  0.542861  1
  Hf  Hf14  1  0.750000  0.083660  0.542864  1
  Hf  Hf15  1  0.250000  0.540977  0.081950  1
  Hf  Hf16  1  0.250000  0.540649  0.458028  1
  Hf  Hf17  1  0.250000  0.917379  0.458026  1
  Ti  Ti18  1  0.501489  0.001620  0.003243  1
  Ti  Ti19  1  0.998511  0.001620  0.003243  1
  Fe  Fe20  1  0.750000  0.666341  0.332696  1
  Fe  Fe21  1  0.250000  0.331221  0.662413  1
  Mo  Mo22  1  0.750000  0.114303  0.885515  1
  Mo  Mo23  1  0.750000  0.771209  0.885517  1
  Mo  Mo24  1  0.250000  0.885140  0.770270  1
  Mo  Mo25  1  0.250000  0.886159  0.114802  1
  Mo  Mo26  1  0.250000  0.228648  0.114802  1
  Ir  Ir27  1  0.750000  0.114478  0.228965  1
