# generated using pymatgen
data_Mn3Zn2Fe(MoO4)6
_symmetry_space_group_name_H-M   'P 1'
_cell_length_a   7.16381223
_cell_length_b   8.62478918
_cell_length_c   10.00298668
_cell_angle_alpha   96.51962499
_cell_angle_beta   106.53799114
_cell_angle_gamma   101.74310908
_symmetry_Int_Tables_number   1
_chemical_formula_structural   Mn3Zn2Fe(MoO4)6
_chemical_formula_sum   'Mn3 Zn2 Fe1 Mo6 O24'
_cell_volume   570.31612174
_cell_formula_units_Z   1
loop_
 _symmetry_equiv_pos_site_id
 _symmetry_equiv_pos_as_xyz
  1  'x, y, z'
loop_
 _atom_site_type_symbol
 _atom_site_label
 _atom_site_symmetry_multiplicity
 _atom_site_fract_x
 _atom_site_fract_y
 _atom_site_fract_z
 _atom_site_occupancy
  Mn  Mn0  1  0.251687  0.691168  0.910293  1
  Mn  Mn1  1  0.748877  0.309146  0.090949  1
  Mn  Mn2  1  0.533846  0.696577  0.487916  1
  Zn  Zn3  1  0.970239  0.886795  0.711303  1
  Zn  Zn4  1  0.031340  0.115077  0.290776  1
  Fe  Fe5  1  0.464402  0.301270  0.512068  1
  Mo  Mo6  1  0.504710  0.991253  0.756041  1
  Mo  Mo7  1  0.495579  0.011460  0.243626  1
  Mo  Mo8  1  0.700127  0.604843  0.834682  1
  Mo  Mo9  1  0.300113  0.391998  0.164955  1
  Mo  Mo10  1  0.978559  0.712197  0.375435  1
  Mo  Mo11  1  0.020090  0.289213  0.624021  1
  O  O12  1  0.266923  0.871595  0.764310  1
  O  O13  1  0.734489  0.131171  0.236304  1
  O  O14  1  0.557886  0.706942  0.917083  1
  O  O15  1  0.440219  0.288909  0.081499  1
  O  O16  1  0.558111  0.524421  0.648453  1
  O  O17  1  0.442932  0.469990  0.351989  1
  O  O18  1  0.552247  0.869508  0.353181  1
  O  O19  1  0.449892  0.132605  0.644228  1
  O  O20  1  0.655672  0.098695  0.925245  1
  O  O21  1  0.343452  0.902919  0.074680  1
  O  O22  1  0.648496  0.866991  0.685525  1
  O  O23  1  0.350702  0.132879  0.316941  1
  O  O24  1  0.019776  0.118710  0.712416  1
  O  O25  1  0.979257  0.882217  0.286929  1
  O  O26  1  0.051556  0.265079  0.148131  1
  O  O27  1  0.947800  0.733783  0.850449  1
  O  O28  1  0.146538  0.470391  0.749453  1
  O  O29  1  0.851406  0.531001  0.250203  1
  O  O30  1  0.139929  0.264729  0.484198  1
  O  O31  1  0.861591  0.737158  0.516449  1
  O  O32  1  0.255812  0.554140  0.077883  1
  O  O33  1  0.746864  0.444214  0.923176  1
  O  O34  1  0.231259  0.707557  0.458529  1
  O  O35  1  0.767622  0.293396  0.540678  1
