# generated using pymatgen
data_Sr4(NiH4)3
_symmetry_space_group_name_H-M   'P 1'
_cell_length_a   6.41955242
_cell_length_b   6.41955279
_cell_length_c   6.41955200
_cell_angle_alpha   109.47122128
_cell_angle_beta   109.47122245
_cell_angle_gamma   109.47121765
_symmetry_Int_Tables_number   1
_chemical_formula_structural   Sr4(NiH4)3
_chemical_formula_sum   'Sr4 Ni3 H12'
_cell_volume   203.65372482
_cell_formula_units_Z   1
loop_
 _symmetry_equiv_pos_site_id
 _symmetry_equiv_pos_as_xyz
  1  'x, y, z'
loop_
 _atom_site_type_symbol
 _atom_site_label
 _atom_site_symmetry_multiplicity
 _atom_site_fract_x
 _atom_site_fract_y
 _atom_site_fract_z
 _atom_site_occupancy
  Sr  Sr0  1  0.000000  0.000000  0.500000  1
  Sr  Sr1  1  0.000000  0.500000  0.000000  1
  Sr  Sr2  1  0.500000  0.000000  0.000000  1
  Sr  Sr3  1  0.500000  0.500000  0.500000  1
  Ni  Ni4  1  0.000000  0.500000  0.500000  1
  Ni  Ni5  1  0.500000  0.500000  0.000000  1
  Ni  Ni6  1  0.500000  0.000000  0.500000  1
  H  H7  1  0.716045  0.716045  0.000000  1
  H  H8  1  0.283955  0.000000  0.283955  1
  H  H9  1  0.000000  0.283955  0.283955  1
  H  H10  1  0.283955  0.283955  0.000000  1
  H  H11  1  0.716045  0.000000  0.716045  1
  H  H12  1  0.000000  0.716045  0.716045  1
  H  H13  1  0.750000  0.250000  0.500000  1
  H  H14  1  0.750000  0.500000  0.250000  1
  H  H15  1  0.500000  0.250000  0.750000  1
  H  H16  1  0.250000  0.500000  0.750000  1
  H  H17  1  0.250000  0.750000  0.500000  1
  H  H18  1  0.500000  0.750000  0.250000  1
