# generated using pymatgen
data_SrYbTaN3
_symmetry_space_group_name_H-M   'P 1'
_cell_length_a   6.24494345
_cell_length_b   6.37467535
_cell_length_c   12.40943800
_cell_angle_alpha   89.36101864
_cell_angle_beta   88.66210849
_cell_angle_gamma   123.18296044
_symmetry_Int_Tables_number   1
_chemical_formula_structural   SrYbTaN3
_chemical_formula_sum   'Sr4 Yb4 Ta4 N12'
_cell_volume   413.17136397
_cell_formula_units_Z   4
loop_
 _symmetry_equiv_pos_site_id
 _symmetry_equiv_pos_as_xyz
  1  'x, y, z'
loop_
 _atom_site_type_symbol
 _atom_site_label
 _atom_site_symmetry_multiplicity
 _atom_site_fract_x
 _atom_site_fract_y
 _atom_site_fract_z
 _atom_site_occupancy
  Sr  Sr0  1  0.045580  0.455365  0.856491  1
  Sr  Sr1  1  0.524242  0.931043  0.637235  1
  Sr  Sr2  1  0.483380  0.068405  0.363343  1
  Sr  Sr3  1  0.637228  0.878221  0.078446  1
  Yb  Yb4  1  0.962739  0.580587  0.124555  1
  Yb  Yb5  1  0.183695  0.416338  0.428903  1
  Yb  Yb6  1  0.388890  0.162910  0.925650  1
  Yb  Yb7  1  0.819172  0.578825  0.574957  1
  Ta  Ta8  1  0.801123  0.773323  0.341749  1
  Ta  Ta9  1  0.257128  0.255877  0.164977  1
  Ta  Ta10  1  0.207858  0.214908  0.660453  1
  Ta  Ta11  1  0.735886  0.747629  0.835162  1
  N  N12  1  0.454551  0.455677  0.764009  1
  N  N13  1  0.567806  0.530770  0.233824  1
  N  N14  1  0.039279  0.874714  0.734106  1
  N  N15  1  0.971191  0.118712  0.274499  1
  N  N16  1  0.994529  0.329606  0.614284  1
  N  N17  1  0.634982  0.979721  0.870868  1
  N  N18  1  0.018194  0.669560  0.393956  1
  N  N19  1  0.318079  0.005007  0.114403  1
  N  N20  1  0.786859  0.606399  0.961467  1
  N  N21  1  0.603931  0.772549  0.461427  1
  N  N22  1  0.162614  0.377919  0.045385  1
  N  N23  1  0.401061  0.215937  0.539853  1
