# generated using pymatgen
data_Ho11In(Hg2Pd)4
_symmetry_space_group_name_H-M   'P 1'
_cell_length_a   12.93512507
_cell_length_b   12.93512444
_cell_length_c   3.70677300
_cell_angle_alpha   90.00000000
_cell_angle_beta   90.00000000
_cell_angle_gamma   111.33553330
_symmetry_Int_Tables_number   1
_chemical_formula_structural   Ho11In(Hg2Pd)4
_chemical_formula_sum   'Ho11 In1 Hg8 Pd4'
_cell_volume   577.70235000
_cell_formula_units_Z   1
loop_
 _symmetry_equiv_pos_site_id
 _symmetry_equiv_pos_as_xyz
  1  'x, y, z'
loop_
 _atom_site_type_symbol
 _atom_site_label
 _atom_site_symmetry_multiplicity
 _atom_site_fract_x
 _atom_site_fract_y
 _atom_site_fract_z
 _atom_site_occupancy
  Ho  Ho0  1  0.415160  0.076019  0.000000  1
  Ho  Ho1  1  0.584840  0.923981  0.000000  1
  Ho  Ho2  1  0.076019  0.415160  0.000000  1
  Ho  Ho3  1  0.923981  0.584840  0.000000  1
  Ho  Ho4  1  0.166563  0.833437  0.000000  1
  Ho  Ho5  1  0.833437  0.166563  0.000000  1
  Ho  Ho6  1  0.370415  0.629585  0.000000  1
  Ho  Ho7  1  0.629585  0.370415  0.000000  1
  Ho  Ho8  1  0.300113  0.300113  0.000000  1
  Ho  Ho9  1  0.699887  0.699887  0.000000  1
  Ho  Ho10  1  0.000000  0.000000  0.000000  1
  In  In11  1  0.500000  0.500000  0.500000  1
  Hg  Hg12  1  0.369459  0.846471  0.500000  1
  Hg  Hg13  1  0.630541  0.153529  0.500000  1
  Hg  Hg14  1  0.846473  0.369459  0.500000  1
  Hg  Hg15  1  0.153527  0.630541  0.500000  1
  Hg  Hg16  1  0.214458  0.061898  0.500000  1
  Hg  Hg17  1  0.785542  0.938102  0.500000  1
  Hg  Hg18  1  0.061897  0.214457  0.500000  1
  Hg  Hg19  1  0.938103  0.785543  0.500000  1
  Pd  Pd20  1  0.448931  0.250368  0.500000  1
  Pd  Pd21  1  0.551069  0.749632  0.500000  1
  Pd  Pd22  1  0.250369  0.448931  0.500000  1
  Pd  Pd23  1  0.749631  0.551069  0.500000  1
