# generated using pymatgen
data_La10Pr6CdHg3Pt4
_symmetry_space_group_name_H-M   'P 1'
_cell_length_a   10.15698702
_cell_length_b   10.15874349
_cell_length_c   10.15874400
_cell_angle_alpha   59.99999834
_cell_angle_beta   59.99427762
_cell_angle_gamma   59.99427563
_symmetry_Int_Tables_number   1
_chemical_formula_structural   La10Pr6CdHg3Pt4
_chemical_formula_sum   'La10 Pr6 Cd1 Hg3 Pt4'
_cell_volume   741.12647747
_cell_formula_units_Z   1
loop_
 _symmetry_equiv_pos_site_id
 _symmetry_equiv_pos_as_xyz
  1  'x, y, z'
loop_
 _atom_site_type_symbol
 _atom_site_label
 _atom_site_symmetry_multiplicity
 _atom_site_fract_x
 _atom_site_fract_y
 _atom_site_fract_z
 _atom_site_occupancy
  La  La0  1  0.350453  0.350719  0.350719  1
  La  La1  1  0.350453  0.350719  0.948110  1
  La  La2  1  0.350453  0.948110  0.350719  1
  La  La3  1  0.944769  0.351743  0.351743  1
  La  La4  1  0.807741  0.192539  0.192539  1
  La  La5  1  0.191204  0.808445  0.808445  1
  La  La6  1  0.191204  0.808445  0.191907  1
  La  La7  1  0.807741  0.192539  0.807182  1
  La  La8  1  0.191204  0.191907  0.808445  1
  La  La9  1  0.807741  0.807182  0.192539  1
  Pr  Pr10  1  0.934543  0.565347  0.565347  1
  Pr  Pr11  1  0.563908  0.935765  0.935765  1
  Pr  Pr12  1  0.563908  0.935765  0.564560  1
  Pr  Pr13  1  0.934543  0.565347  0.934761  1
  Pr  Pr14  1  0.563908  0.564560  0.935765  1
  Pr  Pr15  1  0.934543  0.934761  0.565347  1
  Cd  Cd16  1  0.261497  0.579501  0.579501  1
  Hg  Hg17  1  0.583022  0.585393  0.585393  1
  Hg  Hg18  1  0.583022  0.585393  0.246190  1
  Hg  Hg19  1  0.583022  0.246190  0.585393  1
  Pt  Pt20  1  0.142644  0.142243  0.142243  1
  Pt  Pt21  1  0.142644  0.142243  0.572870  1
  Pt  Pt22  1  0.142644  0.572870  0.142243  1
  Pt  Pt23  1  0.573189  0.142270  0.142270  1
