# generated using pymatgen
data_TbDy2(Co3P2)3
_symmetry_space_group_name_H-M   'P 1'
_cell_length_a   3.70101800
_cell_length_b   10.51276500
_cell_length_c   12.18186800
_cell_angle_alpha   90.00000000
_cell_angle_beta   90.00000000
_cell_angle_gamma   90.00000000
_symmetry_Int_Tables_number   1
_chemical_formula_structural   TbDy2(Co3P2)3
_chemical_formula_sum   'Tb2 Dy4 Co18 P12'
_cell_volume   473.97129780
_cell_formula_units_Z   2
loop_
 _symmetry_equiv_pos_site_id
 _symmetry_equiv_pos_as_xyz
  1  'x, y, z'
loop_
 _atom_site_type_symbol
 _atom_site_label
 _atom_site_symmetry_multiplicity
 _atom_site_fract_x
 _atom_site_fract_y
 _atom_site_fract_z
 _atom_site_occupancy
  Tb  Tb0  1  0.000000  0.500000  0.521796  1
  Tb  Tb1  1  0.500000  0.000000  0.478204  1
  Dy  Dy2  1  0.500000  0.817332  0.205812  1
  Dy  Dy3  1  0.500000  0.182668  0.205812  1
  Dy  Dy4  1  0.000000  0.682668  0.794188  1
  Dy  Dy5  1  0.000000  0.317332  0.794188  1
  Co  Co6  1  0.500000  0.500000  0.158447  1
  Co  Co7  1  0.000000  0.000000  0.841553  1
  Co  Co8  1  0.500000  0.500000  0.703696  1
  Co  Co9  1  0.000000  0.000000  0.296304  1
  Co  Co10  1  0.000000  0.500000  0.986222  1
  Co  Co11  1  0.500000  0.000000  0.013778  1
  Co  Co12  1  0.500000  0.333474  0.994837  1
  Co  Co13  1  0.500000  0.666526  0.994837  1
  Co  Co14  1  0.000000  0.166526  0.005163  1
  Co  Co15  1  0.000000  0.833474  0.005163  1
  Co  Co16  1  0.500000  0.297299  0.430296  1
  Co  Co17  1  0.500000  0.702701  0.430296  1
  Co  Co18  1  0.000000  0.202701  0.569704  1
  Co  Co19  1  0.000000  0.797299  0.569704  1
  Co  Co20  1  0.500000  0.879488  0.710154  1
  Co  Co21  1  0.500000  0.120512  0.710154  1
  Co  Co22  1  0.000000  0.620512  0.289846  1
  Co  Co23  1  0.000000  0.379488  0.289846  1
  P  P24  1  0.500000  0.500000  0.882950  1
  P  P25  1  0.000000  0.000000  0.117050  1
  P  P26  1  0.500000  0.500000  0.343071  1
  P  P27  1  0.000000  0.000000  0.656929  1
  P  P28  1  0.500000  0.309997  0.615989  1
  P  P29  1  0.500000  0.690003  0.615989  1
  P  P30  1  0.000000  0.190003  0.384011  1
  P  P31  1  0.000000  0.809997  0.384011  1
  P  P32  1  0.500000  0.847383  0.893448  1
  P  P33  1  0.500000  0.152617  0.893448  1
  P  P34  1  0.000000  0.652617  0.106552  1
  P  P35  1  0.000000  0.347383  0.106552  1
