# generated using pymatgen
data_Pr4Y6Sn5Pb3
_symmetry_space_group_name_H-M   'P 1'
_cell_length_a   8.27854200
_cell_length_b   8.47357475
_cell_length_c   15.90693600
_cell_angle_alpha   90.06068628
_cell_angle_beta   90.00000000
_cell_angle_gamma   90.00000000
_symmetry_Int_Tables_number   1
_chemical_formula_structural   Pr4Y6Sn5Pb3
_chemical_formula_sum   'Pr8 Y12 Sn10 Pb6'
_cell_volume   1115.85255376
_cell_formula_units_Z   2
loop_
 _symmetry_equiv_pos_site_id
 _symmetry_equiv_pos_as_xyz
  1  'x, y, z'
loop_
 _atom_site_type_symbol
 _atom_site_label
 _atom_site_symmetry_multiplicity
 _atom_site_fract_x
 _atom_site_fract_y
 _atom_site_fract_z
 _atom_site_occupancy
  Pr  Pr0  1  0.512504  0.324575  0.901607  1
  Pr  Pr1  1  0.012504  0.175425  0.598393  1
  Pr  Pr2  1  0.488666  0.678826  0.400785  1
  Pr  Pr3  1  0.988666  0.821174  0.099215  1
  Pr  Pr4  1  0.491709  0.674446  0.099091  1
  Pr  Pr5  1  0.991709  0.825554  0.400909  1
  Pr  Pr6  1  0.509435  0.321756  0.598650  1
  Pr  Pr7  1  0.009435  0.178244  0.901350  1
  Y  Y8  1  0.348301  0.837112  0.873696  1
  Y  Y9  1  0.848301  0.662888  0.626304  1
  Y  Y10  1  0.649160  0.162872  0.374016  1
  Y  Y11  1  0.149160  0.337128  0.125984  1
  Y  Y12  1  0.652250  0.165704  0.125668  1
  Y  Y13  1  0.152250  0.334296  0.374332  1
  Y  Y14  1  0.348381  0.838531  0.625491  1
  Y  Y15  1  0.848381  0.661469  0.874509  1
  Y  Y16  1  0.182124  0.501188  0.750215  1
  Y  Y17  1  0.682124  0.998812  0.749785  1
  Y  Y18  1  0.817792  0.498749  0.248387  1
  Y  Y19  1  0.317792  0.001251  0.251613  1
  Sn  Sn20  1  0.310866  0.041081  0.457782  1
  Sn  Sn21  1  0.810866  0.458919  0.042218  1
  Sn  Sn22  1  0.544248  0.625380  0.749728  1
  Sn  Sn23  1  0.044248  0.874620  0.750272  1
  Sn  Sn24  1  0.454885  0.375380  0.250207  1
  Sn  Sn25  1  0.954885  0.124620  0.249793  1
  Sn  Sn26  1  0.316755  0.146310  0.750252  1
  Sn  Sn27  1  0.816755  0.353690  0.749748  1
  Sn  Sn28  1  0.683720  0.854540  0.249962  1
  Sn  Sn29  1  0.183720  0.645460  0.250038  1
  Pb  Pb30  1  0.310670  0.041744  0.042010  1
  Pb  Pb31  1  0.810670  0.458256  0.457990  1
  Pb  Pb32  1  0.689182  0.958001  0.541626  1
  Pb  Pb33  1  0.189182  0.541999  0.958374  1
  Pb  Pb34  1  0.689353  0.958201  0.958234  1
  Pb  Pb35  1  0.189353  0.541799  0.541766  1
