# generated using pymatgen
data_Tm12Tc3HgBi
_symmetry_space_group_name_H-M   'P 1'
_cell_length_a   8.39773127
_cell_length_b   8.39773120
_cell_length_c   8.39773200
_cell_angle_alpha   108.67589528
_cell_angle_beta   109.43190326
_cell_angle_gamma   110.30999296
_symmetry_Int_Tables_number   1
_chemical_formula_structural   Tm12Tc3HgBi
_chemical_formula_sum   'Tm12 Tc3 Hg1 Bi1'
_cell_volume   455.80126876
_cell_formula_units_Z   1
loop_
 _symmetry_equiv_pos_site_id
 _symmetry_equiv_pos_as_xyz
  1  'x, y, z'
loop_
 _atom_site_type_symbol
 _atom_site_label
 _atom_site_symmetry_multiplicity
 _atom_site_fract_x
 _atom_site_fract_y
 _atom_site_fract_z
 _atom_site_occupancy
  Tm  Tm0  1  0.187142  0.427822  0.240679  1
  Tm  Tm1  1  0.812858  0.572178  0.759321  1
  Tm  Tm2  1  0.187142  0.946464  0.759321  1
  Tm  Tm3  1  0.956093  0.192397  0.763694  1
  Tm  Tm4  1  0.812858  0.053536  0.240679  1
  Tm  Tm5  1  0.043907  0.807603  0.236306  1
  Tm  Tm6  1  0.428703  0.192397  0.236306  1
  Tm  Tm7  1  0.571297  0.807603  0.763694  1
  Tm  Tm8  1  0.303157  0.311698  0.614857  1
  Tm  Tm9  1  0.696843  0.688302  0.385143  1
  Tm  Tm10  1  0.696843  0.311698  0.008541  1
  Tm  Tm11  1  0.303157  0.688302  0.991459  1
  Tc  Tc12  1  0.370456  0.370456  0.000000  1
  Tc  Tc13  1  0.629544  0.629544  0.000000  1
  Tc  Tc14  1  0.000000  0.000000  0.000000  1
  Hg  Hg15  1  0.000000  0.500000  0.500000  1
  Bi  Bi16  1  0.500000  0.000000  0.500000  1
