# generated using pymatgen
data_Zr6Zn20Co2AgAs
_symmetry_space_group_name_H-M   'P 1'
_cell_length_a   8.73835913
_cell_length_b   8.79592784
_cell_length_c   8.75641224
_cell_angle_alpha   59.84576972
_cell_angle_beta   60.06817611
_cell_angle_gamma   60.21627129
_symmetry_Int_Tables_number   1
_chemical_formula_structural   Zr6Zn20Co2AgAs
_chemical_formula_sum   'Zr6 Zn20 Co2 Ag1 As1'
_cell_volume   476.36586535
_cell_formula_units_Z   1
loop_
 _symmetry_equiv_pos_site_id
 _symmetry_equiv_pos_as_xyz
  1  'x, y, z'
loop_
 _atom_site_type_symbol
 _atom_site_label
 _atom_site_symmetry_multiplicity
 _atom_site_fract_x
 _atom_site_fract_y
 _atom_site_fract_z
 _atom_site_occupancy
  Zr  Zr0  1  0.710415  0.281045  0.298126  1
  Zr  Zr1  1  0.289585  0.718955  0.701874  1
  Zr  Zr2  1  0.282265  0.717131  0.289186  1
  Zr  Zr3  1  0.717735  0.282869  0.710814  1
  Zr  Zr4  1  0.288582  0.282869  0.710814  1
  Zr  Zr5  1  0.711418  0.717131  0.289186  1
  Zn  Zn6  1  0.120217  0.120143  0.138327  1
  Zn  Zn7  1  0.879783  0.879857  0.861673  1
  Zn  Zn8  1  0.131801  0.117697  0.618699  1
  Zn  Zn9  1  0.125554  0.624860  0.124032  1
  Zn  Zn10  1  0.868199  0.882303  0.381301  1
  Zn  Zn11  1  0.874446  0.375140  0.875968  1
  Zn  Zn12  1  0.621314  0.120143  0.138327  1
  Zn  Zn13  1  0.378686  0.879857  0.861673  1
  Zn  Zn14  1  0.500000  0.000000  0.000000  1
  Zn  Zn15  1  0.000000  0.500000  0.500000  1
  Zn  Zn16  1  0.000000  0.500000  0.000000  1
  Zn  Zn17  1  0.500000  0.500000  0.000000  1
  Zn  Zn18  1  0.341046  0.328665  0.341781  1
  Zn  Zn19  1  0.658954  0.671335  0.658219  1
  Zn  Zn20  1  0.338754  0.338908  0.983584  1
  Zn  Zn21  1  0.333219  0.992334  0.341228  1
  Zn  Zn22  1  0.661246  0.661092  0.016416  1
  Zn  Zn23  1  0.666781  0.007666  0.658772  1
  Zn  Zn24  1  0.988508  0.328665  0.341781  1
  Zn  Zn25  1  0.011492  0.671335  0.658219  1
  Co  Co26  1  0.500000  0.000000  0.500000  1
  Co  Co27  1  0.000000  0.000000  0.500000  1
  Ag  Ag28  1  0.000000  0.000000  0.000000  1
  As  As29  1  0.500000  0.500000  0.500000  1
