# generated using pymatgen
data_Tm5Ge5P7Ir3Rh16
_symmetry_space_group_name_H-M   'P 1'
_cell_length_a   12.89967842
_cell_length_b   12.89706949
_cell_length_c   3.92975900
_cell_angle_alpha   90.00000000
_cell_angle_beta   90.00000000
_cell_angle_gamma   119.93305683
_symmetry_Int_Tables_number   1
_chemical_formula_structural   Tm5Ge5P7Ir3Rh16
_chemical_formula_sum   'Tm5 Ge5 P7 Ir3 Rh16'
_cell_volume   566.57712569
_cell_formula_units_Z   1
loop_
 _symmetry_equiv_pos_site_id
 _symmetry_equiv_pos_as_xyz
  1  'x, y, z'
loop_
 _atom_site_type_symbol
 _atom_site_label
 _atom_site_symmetry_multiplicity
 _atom_site_fract_x
 _atom_site_fract_y
 _atom_site_fract_z
 _atom_site_occupancy
  Tm  Tm0  1  0.339806  0.667123  0.500000  1
  Tm  Tm1  1  0.666661  0.333240  0.500000  1
  Tm  Tm2  1  0.179794  0.182546  0.000000  1
  Tm  Tm3  1  0.818649  0.996819  0.000000  1
  Tm  Tm4  1  0.002119  0.820817  0.000000  1
  Ge  Ge5  1  0.323041  0.841267  0.000000  1
  Ge  Ge6  1  0.159505  0.482780  0.000000  1
  Ge  Ge7  1  0.365191  0.364440  0.500000  1
  Ge  Ge8  1  0.636462  0.999645  0.500000  1
  Ge  Ge9  1  0.997895  0.635356  0.500000  1
  P  P10  1  0.522822  0.679733  0.000000  1
  P  P11  1  0.824537  0.307433  0.000000  1
  P  P12  1  0.483522  0.175225  0.000000  1
  P  P13  1  0.691565  0.515678  0.000000  1
  P  P14  1  0.823368  0.816708  0.500000  1
  P  P15  1  0.180503  0.006463  0.500000  1
  P  P16  1  0.995663  0.175695  0.500000  1
  Ir  Ir17  1  0.280012  0.010698  0.000000  1
  Ir  Ir18  1  0.990840  0.270061  0.000000  1
  Ir  Ir19  1  0.997965  0.998273  0.500000  1
  Rh  Rh20  1  0.189281  0.829893  0.500000  1
  Rh  Rh21  1  0.173145  0.362774  0.500000  1
  Rh  Rh22  1  0.634816  0.804258  0.500000  1
  Rh  Rh23  1  0.819538  0.202833  0.500000  1
  Rh  Rh24  1  0.384665  0.180718  0.500000  1
  Rh  Rh25  1  0.794865  0.616913  0.500000  1
  Rh  Rh26  1  0.129593  0.652479  0.000000  1
  Rh  Rh27  1  0.356353  0.492049  0.000000  1
  Rh  Rh28  1  0.520321  0.862090  0.000000  1
  Rh  Rh29  1  0.634513  0.131213  0.000000  1
  Rh  Rh30  1  0.497481  0.365335  0.000000  1
  Rh  Rh31  1  0.866993  0.501534  0.000000  1
  Rh  Rh32  1  0.545980  0.559796  0.500000  1
  Rh  Rh33  1  0.441939  0.990999  0.500000  1
  Rh  Rh34  1  0.007165  0.449017  0.500000  1
  Rh  Rh35  1  0.723427  0.718102  0.000000  1
