# generated using pymatgen
data_YLu15(In3Co)2
_symmetry_space_group_name_H-M   'P 1'
_cell_length_a   10.13751200
_cell_length_b   10.13751257
_cell_length_c   6.87826300
_cell_angle_alpha   90.00000000
_cell_angle_beta   90.00000000
_cell_angle_gamma   120.00000468
_symmetry_Int_Tables_number   1
_chemical_formula_structural   YLu15(In3Co)2
_chemical_formula_sum   'Y1 Lu15 In6 Co2'
_cell_volume   612.17018749
_cell_formula_units_Z   1
loop_
 _symmetry_equiv_pos_site_id
 _symmetry_equiv_pos_as_xyz
  1  'x, y, z'
loop_
 _atom_site_type_symbol
 _atom_site_label
 _atom_site_symmetry_multiplicity
 _atom_site_fract_x
 _atom_site_fract_y
 _atom_site_fract_z
 _atom_site_occupancy
  Y  Y0  1  0.000000  0.000000  0.994426  1
  Lu  Lu1  1  0.464965  0.535035  0.481303  1
  Lu  Lu2  1  0.070070  0.535035  0.481303  1
  Lu  Lu3  1  0.464965  0.929930  0.481303  1
  Lu  Lu4  1  0.535187  0.464813  0.981612  1
  Lu  Lu5  1  0.929625  0.464813  0.981612  1
  Lu  Lu6  1  0.535187  0.070375  0.981612  1
  Lu  Lu7  1  0.820290  0.179710  0.277590  1
  Lu  Lu8  1  0.359420  0.179710  0.277590  1
  Lu  Lu9  1  0.820290  0.640580  0.277590  1
  Lu  Lu10  1  0.179863  0.820137  0.775414  1
  Lu  Lu11  1  0.640274  0.820137  0.775414  1
  Lu  Lu12  1  0.179863  0.359726  0.775414  1
  Lu  Lu13  1  0.333333  0.666667  0.091650  1
  Lu  Lu14  1  0.666667  0.333333  0.591255  1
  Lu  Lu15  1  0.000000  0.000000  0.495541  1
  In  In16  1  0.163014  0.836986  0.236396  1
  In  In17  1  0.673971  0.836986  0.236396  1
  In  In18  1  0.163014  0.326029  0.236396  1
  In  In19  1  0.837218  0.162782  0.734410  1
  In  In20  1  0.325564  0.162782  0.734410  1
  In  In21  1  0.837218  0.674436  0.734410  1
  Co  Co22  1  0.333333  0.666667  0.706043  1
  Co  Co23  1  0.666667  0.333333  0.205458  1
