# generated using pymatgen
data_Th2Ni7AsP3
_symmetry_space_group_name_H-M   'P 1'
_cell_length_a   3.85905800
_cell_length_b   9.18913400
_cell_length_c   10.54013500
_cell_angle_alpha   90.00000000
_cell_angle_beta   90.00000000
_cell_angle_gamma   90.00000000
_symmetry_Int_Tables_number   1
_chemical_formula_structural   Th2Ni7AsP3
_chemical_formula_sum   'Th4 Ni14 As2 P6'
_cell_volume   373.76795463
_cell_formula_units_Z   2
loop_
 _symmetry_equiv_pos_site_id
 _symmetry_equiv_pos_as_xyz
  1  'x, y, z'
loop_
 _atom_site_type_symbol
 _atom_site_label
 _atom_site_symmetry_multiplicity
 _atom_site_fract_x
 _atom_site_fract_y
 _atom_site_fract_z
 _atom_site_occupancy
  Th  Th0  1  0.000000  0.562417  0.007780  1
  Th  Th1  1  0.500000  0.437583  0.507780  1
  Th  Th2  1  0.000000  0.939515  0.779407  1
  Th  Th3  1  0.500000  0.060485  0.279407  1
  Ni  Ni4  1  0.000000  0.579459  0.321184  1
  Ni  Ni5  1  0.500000  0.420541  0.821184  1
  Ni  Ni6  1  0.000000  0.307308  0.277896  1
  Ni  Ni7  1  0.500000  0.692692  0.777896  1
  Ni  Ni8  1  0.000000  0.252388  0.897574  1
  Ni  Ni9  1  0.500000  0.747612  0.397574  1
  Ni  Ni10  1  0.000000  0.904123  0.082286  1
  Ni  Ni11  1  0.500000  0.095877  0.582286  1
  Ni  Ni12  1  0.000000  0.942496  0.473101  1
  Ni  Ni13  1  0.500000  0.057504  0.973101  1
  Ni  Ni14  1  0.000000  0.269870  0.669588  1
  Ni  Ni15  1  0.500000  0.730130  0.169588  1
  Ni  Ni16  1  0.000000  0.698485  0.556469  1
  Ni  Ni17  1  0.500000  0.301515  0.056469  1
  As  As18  1  0.000000  0.534498  0.722550  1
  As  As19  1  0.500000  0.465502  0.222550  1
  P  P20  1  0.000000  0.813322  0.284698  1
  P  P21  1  0.500000  0.186678  0.784698  1
  P  P22  1  0.000000  0.160431  0.086979  1
  P  P23  1  0.500000  0.839569  0.586979  1
  P  P24  1  0.000000  0.184951  0.471688  1
  P  P25  1  0.500000  0.815049  0.971688  1
