# generated using pymatgen
data_HoLu(IrO4)2
_symmetry_space_group_name_H-M   'P 1'
_cell_length_a   5.29824952
_cell_length_b   7.34031482
_cell_length_c   7.59220449
_cell_angle_alpha   81.03317490
_cell_angle_beta   86.67488076
_cell_angle_gamma   89.27917948
_symmetry_Int_Tables_number   1
_chemical_formula_structural   HoLu(IrO4)2
_chemical_formula_sum   'Ho2 Lu2 Ir4 O16'
_cell_volume   291.16563467
_cell_formula_units_Z   2
loop_
 _symmetry_equiv_pos_site_id
 _symmetry_equiv_pos_as_xyz
  1  'x, y, z'
loop_
 _atom_site_type_symbol
 _atom_site_label
 _atom_site_symmetry_multiplicity
 _atom_site_fract_x
 _atom_site_fract_y
 _atom_site_fract_z
 _atom_site_occupancy
  Ho  Ho0  1  0.760012  0.384590  0.373691  1
  Ho  Ho1  1  0.239988  0.615410  0.626309  1
  Lu  Lu2  1  0.699343  0.890683  0.334908  1
  Lu  Lu3  1  0.300657  0.109317  0.665092  1
  Ir  Ir4  1  0.783168  0.300556  0.836580  1
  Ir  Ir5  1  0.216832  0.699444  0.163420  1
  Ir  Ir6  1  0.259439  0.201906  0.160462  1
  Ir  Ir7  1  0.740561  0.798094  0.839538  1
  O  O8  1  0.895617  0.806541  0.066007  1
  O  O9  1  0.104383  0.193459  0.933993  1
  O  O10  1  0.367832  0.943820  0.168262  1
  O  O11  1  0.632168  0.056180  0.831738  1
  O  O12  1  0.104015  0.445850  0.173237  1
  O  O13  1  0.895985  0.554150  0.826763  1
  O  O14  1  0.581640  0.312592  0.055832  1
  O  O15  1  0.418360  0.687408  0.944168  1
  O  O16  1  0.005037  0.318255  0.605960  1
  O  O17  1  0.994963  0.681745  0.394040  1
  O  O18  1  0.448539  0.169459  0.389879  1
  O  O19  1  0.551461  0.830541  0.610121  1
  O  O20  1  0.484228  0.618594  0.331867  1
  O  O21  1  0.515772  0.381406  0.668133  1
  O  O22  1  0.948537  0.120282  0.295138  1
  O  O23  1  0.051463  0.879718  0.704862  1
