# generated using pymatgen
data_Tb5Sm2Eu(WO6)4
_symmetry_space_group_name_H-M   'P 1'
_cell_length_a   5.46717800
_cell_length_b   7.78226755
_cell_length_c   11.55961393
_cell_angle_alpha   75.77451523
_cell_angle_beta   90.00000000
_cell_angle_gamma   90.00000000
_symmetry_Int_Tables_number   1
_chemical_formula_structural   Tb5Sm2Eu(WO6)4
_chemical_formula_sum   'Tb5 Sm2 Eu1 W4 O24'
_cell_volume   476.74605444
_cell_formula_units_Z   1
loop_
 _symmetry_equiv_pos_site_id
 _symmetry_equiv_pos_as_xyz
  1  'x, y, z'
loop_
 _atom_site_type_symbol
 _atom_site_label
 _atom_site_symmetry_multiplicity
 _atom_site_fract_x
 _atom_site_fract_y
 _atom_site_fract_z
 _atom_site_occupancy
  Tb  Tb0  1  0.738431  0.000000  0.750000  1
  Tb  Tb1  1  0.185643  0.794674  0.578271  1
  Tb  Tb2  1  0.812977  0.796422  0.076840  1
  Tb  Tb3  1  0.185643  0.205326  0.921729  1
  Tb  Tb4  1  0.812977  0.203578  0.423160  1
  Sm  Sm5  1  0.684006  0.500000  0.750000  1
  Sm  Sm6  1  0.318024  0.500000  0.250000  1
  Eu  Eu7  1  0.259380  0.000000  0.250000  1
  W  W8  1  0.253325  0.726092  0.884833  1
  W  W9  1  0.746824  0.722140  0.386782  1
  W  W10  1  0.253325  0.273908  0.615167  1
  W  W11  1  0.746824  0.277860  0.113218  1
  O  O12  1  0.042129  0.939719  0.894825  1
  O  O13  1  0.528592  0.848221  0.930835  1
  O  O14  1  0.955450  0.935860  0.399052  1
  O  O15  1  0.456619  0.791139  0.728522  1
  O  O16  1  0.474961  0.844927  0.433598  1
  O  O17  1  0.984901  0.713428  0.771006  1
  O  O18  1  0.545081  0.785567  0.230348  1
  O  O19  1  0.853356  0.634001  0.547792  1
  O  O20  1  0.355285  0.493981  0.886463  1
  O  O21  1  0.013177  0.711321  0.272103  1
  O  O22  1  0.355285  0.506019  0.613537  1
  O  O23  1  0.853356  0.365999  0.952208  1
  O  O24  1  0.148613  0.640175  0.046296  1
  O  O25  1  0.643146  0.489991  0.388874  1
  O  O26  1  0.984901  0.286572  0.728994  1
  O  O27  1  0.643146  0.510009  0.111126  1
  O  O28  1  0.148613  0.359825  0.453704  1
  O  O29  1  0.456619  0.208861  0.771478  1
  O  O30  1  0.013177  0.288679  0.227897  1
  O  O31  1  0.528592  0.151779  0.569165  1
  O  O32  1  0.545081  0.214433  0.269652  1
  O  O33  1  0.042129  0.060281  0.605175  1
  O  O34  1  0.474961  0.155073  0.066402  1
  O  O35  1  0.955450  0.064140  0.100948  1
