# generated using pymatgen
data_Dy4Er7Tm(GaCo2)2
_symmetry_space_group_name_H-M   'P 1'
_cell_length_a   8.21023608
_cell_length_b   8.20947128
_cell_length_c   8.21023601
_cell_angle_alpha   107.01372790
_cell_angle_beta   109.38002118
_cell_angle_gamma   112.06321491
_symmetry_Int_Tables_number   1
_chemical_formula_structural   Dy4Er7Tm(GaCo2)2
_chemical_formula_sum   'Dy4 Er7 Tm1 Ga2 Co4'
_cell_volume   425.14566758
_cell_formula_units_Z   1
loop_
 _symmetry_equiv_pos_site_id
 _symmetry_equiv_pos_as_xyz
  1  'x, y, z'
loop_
 _atom_site_type_symbol
 _atom_site_label
 _atom_site_symmetry_multiplicity
 _atom_site_fract_x
 _atom_site_fract_y
 _atom_site_fract_z
 _atom_site_occupancy
  Dy  Dy0  1  0.698722  0.261850  0.960934  1
  Dy  Dy1  1  0.301757  0.738278  0.039680  1
  Dy  Dy2  1  0.698597  0.738278  0.436522  1
  Dy  Dy3  1  0.300916  0.261850  0.563126  1
  Er  Er4  1  0.810365  0.483410  0.673045  1
  Er  Er5  1  0.189625  0.862823  0.673198  1
  Er  Er6  1  0.189526  0.516189  0.326663  1
  Er  Er7  1  0.601018  0.781120  0.820174  1
  Er  Er8  1  0.960945  0.781120  0.180102  1
  Er  Er9  1  0.038864  0.218966  0.819644  1
  Er  Er10  1  0.399322  0.218966  0.180103  1
  Tm  Tm11  1  0.810938  0.137882  0.326944  1
  Ga  Ga12  1  0.499977  0.499876  0.999899  1
  Ga  Ga13  1  0.499936  0.999964  0.500029  1
  Co  Co14  1  0.839989  0.499606  0.340116  1
  Co  Co15  1  0.159489  0.499606  0.659617  1
  Co  Co16  1  0.999865  0.114959  0.115094  1
  Co  Co17  1  0.000149  0.885258  0.885109  1
