# generated using pymatgen
data_Nd5SiGeSe3
_symmetry_space_group_name_H-M   'P 1'
_cell_length_a   7.38577806
_cell_length_b   7.38577781
_cell_length_c   7.39750869
_cell_angle_alpha   99.10547100
_cell_angle_beta   99.84040412
_cell_angle_gamma   132.09182011
_symmetry_Int_Tables_number   1
_chemical_formula_structural   Nd5SiGeSe3
_chemical_formula_sum   'Nd5 Si1 Ge1 Se3'
_cell_volume   273.73603278
_cell_formula_units_Z   1
loop_
 _symmetry_equiv_pos_site_id
 _symmetry_equiv_pos_as_xyz
  1  'x, y, z'
loop_
 _atom_site_type_symbol
 _atom_site_label
 _atom_site_symmetry_multiplicity
 _atom_site_fract_x
 _atom_site_fract_y
 _atom_site_fract_z
 _atom_site_occupancy
  Nd  Nd0  1  0.397062  0.790454  0.187515  1
  Nd  Nd1  1  0.001750  0.996565  0.998315  1
  Nd  Nd2  1  0.597536  0.204907  0.802443  1
  Nd  Nd3  1  0.204831  0.408727  0.613558  1
  Nd  Nd4  1  0.798378  0.599433  0.397811  1
  Si  Si5  1  0.501547  0.500937  0.002484  1
  Ge  Ge6  1  0.097727  0.698790  0.796517  1
  Se  Se7  1  0.698010  0.900208  0.598217  1
  Se  Se8  1  0.300549  0.098713  0.399263  1
  Se  Se9  1  0.902609  0.301266  0.203876  1
