# generated using pymatgen
data_RbCdGa5(HgSe4)3
_symmetry_space_group_name_H-M   'P 1'
_cell_length_a   9.06157550
_cell_length_b   9.11114620
_cell_length_c   9.33614073
_cell_angle_alpha   108.51188460
_cell_angle_beta   106.72393283
_cell_angle_gamma   107.94056131
_symmetry_Int_Tables_number   1
_chemical_formula_structural   RbCdGa5(HgSe4)3
_chemical_formula_sum   'Rb1 Cd1 Ga5 Hg3 Se12'
_cell_volume   628.67496393
_cell_formula_units_Z   1
loop_
 _symmetry_equiv_pos_site_id
 _symmetry_equiv_pos_as_xyz
  1  'x, y, z'
loop_
 _atom_site_type_symbol
 _atom_site_label
 _atom_site_symmetry_multiplicity
 _atom_site_fract_x
 _atom_site_fract_y
 _atom_site_fract_z
 _atom_site_occupancy
  Rb  Rb0  1  0.998819  0.004400  0.006704  1
  Cd  Cd1  1  0.489092  0.339228  0.933902  1
  Ga  Ga2  1  0.187158  0.553171  0.025203  1
  Ga  Ga3  1  0.022368  0.185587  0.553904  1
  Ga  Ga4  1  0.561444  0.022249  0.192609  1
  Ga  Ga5  1  0.935363  0.469783  0.331526  1
  Ga  Ga6  1  0.319812  0.930329  0.468188  1
  Hg  Hg7  1  0.623577  0.704985  0.403470  1
  Hg  Hg8  1  0.410421  0.642688  0.718375  1
  Hg  Hg9  1  0.714565  0.404951  0.635646  1
  Se  Se10  1  0.882024  0.637890  0.549297  1
  Se  Se11  1  0.549920  0.893158  0.634827  1
  Se  Se12  1  0.664218  0.590486  0.882666  1
  Se  Se13  1  0.351879  0.426683  0.146542  1
  Se  Se14  1  0.147210  0.369007  0.437384  1
  Se  Se15  1  0.429173  0.139792  0.364679  1
  Se  Se16  1  0.065277  0.675239  0.221592  1
  Se  Se17  1  0.211531  0.063607  0.663603  1
  Se  Se18  1  0.698752  0.214810  0.082455  1
  Se  Se19  1  0.782457  0.936109  0.298535  1
  Se  Se20  1  0.295952  0.784600  0.949393  1
  Se  Se21  1  0.940189  0.292449  0.780702  1
