# generated using pymatgen
data_HoLu3ScBi3
_symmetry_space_group_name_H-M   'P 1'
_cell_length_a   8.04048800
_cell_length_b   9.31848300
_cell_length_c   11.79071700
_cell_angle_alpha   90.00000000
_cell_angle_beta   90.00000000
_cell_angle_gamma   90.00000000
_symmetry_Int_Tables_number   1
_chemical_formula_structural   HoLu3ScBi3
_chemical_formula_sum   'Ho4 Lu12 Sc4 Bi12'
_cell_volume   883.42124855
_cell_formula_units_Z   4
loop_
 _symmetry_equiv_pos_site_id
 _symmetry_equiv_pos_as_xyz
  1  'x, y, z'
loop_
 _atom_site_type_symbol
 _atom_site_label
 _atom_site_symmetry_multiplicity
 _atom_site_fract_x
 _atom_site_fract_y
 _atom_site_fract_z
 _atom_site_occupancy
  Ho  Ho0  1  0.316181  0.250000  0.218449  1
  Ho  Ho1  1  0.816181  0.250000  0.281551  1
  Ho  Ho2  1  0.683819  0.750000  0.781551  1
  Ho  Ho3  1  0.183819  0.750000  0.718449  1
  Lu  Lu4  1  0.352311  0.750000  0.218870  1
  Lu  Lu5  1  0.852311  0.750000  0.281130  1
  Lu  Lu6  1  0.647689  0.250000  0.781130  1
  Lu  Lu7  1  0.147689  0.250000  0.718870  1
  Lu  Lu8  1  0.693778  0.566893  0.060319  1
  Lu  Lu9  1  0.193778  0.933107  0.439681  1
  Lu  Lu10  1  0.306222  0.066893  0.939681  1
  Lu  Lu11  1  0.806222  0.433107  0.560319  1
  Lu  Lu12  1  0.306222  0.433107  0.939681  1
  Lu  Lu13  1  0.806222  0.066893  0.560319  1
  Lu  Lu14  1  0.693778  0.933107  0.060319  1
  Lu  Lu15  1  0.193778  0.566893  0.439681  1
  Sc  Sc16  1  0.479734  0.250000  0.488507  1
  Sc  Sc17  1  0.979734  0.250000  0.011493  1
  Sc  Sc18  1  0.520266  0.750000  0.511493  1
  Sc  Sc19  1  0.020266  0.750000  0.988507  1
  Bi  Bi20  1  0.398477  0.750000  0.960154  1
  Bi  Bi21  1  0.898477  0.750000  0.539846  1
  Bi  Bi22  1  0.601523  0.250000  0.039846  1
  Bi  Bi23  1  0.101523  0.250000  0.460154  1
  Bi  Bi24  1  0.565911  0.994917  0.330306  1
  Bi  Bi25  1  0.065911  0.505083  0.169694  1
  Bi  Bi26  1  0.434089  0.494917  0.669694  1
  Bi  Bi27  1  0.934089  0.005083  0.830306  1
  Bi  Bi28  1  0.434089  0.005083  0.669694  1
  Bi  Bi29  1  0.934089  0.494917  0.830306  1
  Bi  Bi30  1  0.565911  0.505083  0.330306  1
  Bi  Bi31  1  0.065911  0.994917  0.169694  1
