# generated using pymatgen
data_Pr4Mn4Ge3PtO20
_symmetry_space_group_name_H-M   'P 1'
_cell_length_a   5.87422100
_cell_length_b   7.68708981
_cell_length_c   8.80729066
_cell_angle_alpha   89.90322348
_cell_angle_beta   90.00000000
_cell_angle_gamma   90.00000000
_symmetry_Int_Tables_number   1
_chemical_formula_structural   Pr4Mn4Ge3PtO20
_chemical_formula_sum   'Pr4 Mn4 Ge3 Pt1 O20'
_cell_volume   397.69849407
_cell_formula_units_Z   1
loop_
 _symmetry_equiv_pos_site_id
 _symmetry_equiv_pos_as_xyz
  1  'x, y, z'
loop_
 _atom_site_type_symbol
 _atom_site_label
 _atom_site_symmetry_multiplicity
 _atom_site_fract_x
 _atom_site_fract_y
 _atom_site_fract_z
 _atom_site_occupancy
  Pr  Pr0  1  0.998861  0.359594  0.672360  1
  Pr  Pr1  1  0.998861  0.640406  0.327640  1
  Pr  Pr2  1  0.001450  0.859564  0.829388  1
  Pr  Pr3  1  0.001450  0.140436  0.170612  1
  Mn  Mn4  1  0.504382  0.090789  0.852593  1
  Mn  Mn5  1  0.504382  0.909211  0.147407  1
  Mn  Mn6  1  0.500379  0.587052  0.650066  1
  Mn  Mn7  1  0.500379  0.412948  0.349934  1
  Ge  Ge8  1  0.259902  0.500000  0.000000  1
  Ge  Ge9  1  0.739125  0.000000  0.500000  1
  Ge  Ge10  1  0.740432  0.500000  0.000000  1
  Pt  Pt11  1  0.252413  0.000000  0.500000  1
  O  O12  1  0.246024  0.898114  0.286226  1
  O  O13  1  0.246024  0.101886  0.713774  1
  O  O14  1  0.752518  0.405007  0.204806  1
  O  O15  1  0.752518  0.594993  0.795194  1
  O  O16  1  0.753013  0.098607  0.706363  1
  O  O17  1  0.753013  0.901393  0.293637  1
  O  O18  1  0.248357  0.596062  0.795008  1
  O  O19  1  0.248357  0.403938  0.204992  1
  O  O20  1  0.500389  0.349069  0.937837  1
  O  O21  1  0.500389  0.650931  0.062163  1
  O  O22  1  0.511333  0.845794  0.565478  1
  O  O23  1  0.511333  0.154206  0.434522  1
  O  O24  1  0.281141  0.000000  0.000000  1
  O  O25  1  0.721913  0.500000  0.500000  1
  O  O26  1  0.727783  0.000000  0.000000  1
  O  O27  1  0.277626  0.500000  0.500000  1
  O  O28  1  0.982936  0.158629  0.446277  1
  O  O29  1  0.982936  0.841371  0.553723  1
  O  O30  1  0.000192  0.653936  0.050470  1
  O  O31  1  0.000192  0.346064  0.949530  1
