# generated using pymatgen
data_Ba8TaNb7(TeO10)4
_symmetry_space_group_name_H-M   'P 1'
_cell_length_a   7.36780242
_cell_length_b   12.71692184
_cell_length_c   10.05842725
_cell_angle_alpha   90.02158276
_cell_angle_beta   90.01404036
_cell_angle_gamma   89.96408438
_symmetry_Int_Tables_number   1
_chemical_formula_structural   Ba8TaNb7(TeO10)4
_chemical_formula_sum   'Ba8 Ta1 Nb7 Te4 O40'
_cell_volume   942.43178159
_cell_formula_units_Z   1
loop_
 _symmetry_equiv_pos_site_id
 _symmetry_equiv_pos_as_xyz
  1  'x, y, z'
loop_
 _atom_site_type_symbol
 _atom_site_label
 _atom_site_symmetry_multiplicity
 _atom_site_fract_x
 _atom_site_fract_y
 _atom_site_fract_z
 _atom_site_occupancy
  Ba  Ba0  1  0.018237  0.140263  0.113540  1
  Ba  Ba1  1  0.484591  0.639917  0.112075  1
  Ba  Ba2  1  0.512590  0.140935  0.387520  1
  Ba  Ba3  1  0.983159  0.640517  0.388717  1
  Ba  Ba4  1  0.015717  0.359585  0.611305  1
  Ba  Ba5  1  0.483787  0.860439  0.611823  1
  Ba  Ba6  1  0.515301  0.359899  0.888798  1
  Ba  Ba7  1  0.983815  0.860526  0.888165  1
  Ta  Ta8  1  0.208034  0.395806  0.243842  1
  Nb  Nb9  1  0.288715  0.893927  0.243399  1
  Nb  Nb10  1  0.708713  0.394165  0.255462  1
  Nb  Nb11  1  0.788497  0.894340  0.256558  1
  Nb  Nb12  1  0.211195  0.105801  0.743613  1
  Nb  Nb13  1  0.288726  0.605881  0.743375  1
  Nb  Nb14  1  0.711311  0.105868  0.756587  1
  Nb  Nb15  1  0.788856  0.605797  0.756765  1
  Te  Te16  1  0.500129  0.999836  0.999947  1
  Te  Te17  1  0.000337  0.499521  0.999608  1
  Te  Te18  1  0.999759  0.999891  0.500091  1
  Te  Te19  1  0.500404  0.499984  0.500140  1
  O  O20  1  0.080344  0.361891  0.069543  1
  O  O21  1  0.422251  0.861536  0.069355  1
  O  O22  1  0.767155  0.485710  0.094861  1
  O  O23  1  0.733216  0.985662  0.095352  1
  O  O24  1  0.378903  0.054511  0.154100  1
  O  O25  1  0.122128  0.553335  0.154835  1
  O  O26  1  0.444188  0.415607  0.167099  1
  O  O27  1  0.055179  0.915161  0.165444  1
  O  O28  1  0.721560  0.257145  0.203571  1
  O  O29  1  0.778579  0.756973  0.204425  1
  O  O30  1  0.222019  0.258209  0.295543  1
  O  O31  1  0.277924  0.756673  0.295582  1
  O  O32  1  0.946554  0.415477  0.331352  1
  O  O33  1  0.554888  0.915081  0.334564  1
  O  O34  1  0.878544  0.054547  0.345928  1
  O  O35  1  0.621526  0.555190  0.346412  1
  O  O36  1  0.267561  0.484825  0.404043  1
  O  O37  1  0.232866  0.985565  0.404575  1
  O  O38  1  0.580364  0.361913  0.431164  1
  O  O39  1  0.922050  0.861596  0.430674  1
  O  O40  1  0.077772  0.138159  0.569460  1
  O  O41  1  0.421486  0.638183  0.569151  1
  O  O42  1  0.766964  0.014047  0.595654  1
  O  O43  1  0.733423  0.514401  0.595616  1
  O  O44  1  0.379008  0.445161  0.653955  1
  O  O45  1  0.121271  0.945165  0.654124  1
  O  O46  1  0.444808  0.084683  0.665486  1
  O  O47  1  0.055006  0.584614  0.665511  1
  O  O48  1  0.721828  0.243045  0.704406  1
  O  O49  1  0.778144  0.742874  0.704306  1
  O  O50  1  0.221681  0.243066  0.795582  1
  O  O51  1  0.277996  0.743073  0.795616  1
  O  O52  1  0.944949  0.084712  0.834599  1
  O  O53  1  0.555115  0.584707  0.834466  1
  O  O54  1  0.879165  0.444848  0.845640  1
  O  O55  1  0.621300  0.945052  0.845831  1
  O  O56  1  0.266991  0.014105  0.904571  1
  O  O57  1  0.233310  0.514435  0.904729  1
  O  O58  1  0.577604  0.138140  0.930562  1
  O  O59  1  0.922504  0.638030  0.930985  1
