# generated using pymatgen
data_Tb2DyHo9Co5Sn
_symmetry_space_group_name_H-M   'P 1'
_cell_length_a   8.26259439
_cell_length_b   8.26292932
_cell_length_c   8.26255625
_cell_angle_alpha   107.01421427
_cell_angle_beta   110.69280089
_cell_angle_gamma   110.73239983
_symmetry_Int_Tables_number   1
_chemical_formula_structural   Tb2DyHo9Co5Sn
_chemical_formula_sum   'Tb2 Dy1 Ho9 Co5 Sn1'
_cell_volume   433.66748595
_cell_formula_units_Z   1
loop_
 _symmetry_equiv_pos_site_id
 _symmetry_equiv_pos_as_xyz
  1  'x, y, z'
loop_
 _atom_site_type_symbol
 _atom_site_label
 _atom_site_symmetry_multiplicity
 _atom_site_fract_x
 _atom_site_fract_y
 _atom_site_fract_z
 _atom_site_occupancy
  Tb  Tb0  1  0.479046  0.292536  0.186652  1
  Tb  Tb1  1  0.106023  0.292592  0.813304  1
  Dy  Dy2  1  0.807507  0.207870  0.015580  1
  Ho  Ho3  1  0.893928  0.708302  0.185754  1
  Ho  Ho4  1  0.522274  0.707942  0.814191  1
  Ho  Ho5  1  0.306736  0.621115  0.314504  1
  Ho  Ho6  1  0.306334  0.992091  0.685429  1
  Ho  Ho7  1  0.693049  0.379682  0.686306  1
  Ho  Ho8  1  0.693104  0.006607  0.313625  1
  Ho  Ho9  1  0.192530  0.207708  0.400452  1
  Ho  Ho10  1  0.807469  0.791925  0.599606  1
  Ho  Ho11  1  0.192359  0.792097  0.984651  1
  Co  Co12  1  0.500915  0.613291  0.112407  1
  Co  Co13  1  0.500784  0.388590  0.887589  1
  Co  Co14  1  0.376725  0.999487  0.377315  1
  Co  Co15  1  0.622045  0.999323  0.622457  1
  Co  Co16  1  0.999026  0.998672  0.000014  1
  Sn  Sn17  1  0.000147  0.500170  0.500165  1
