# generated using pymatgen
data_Y12Zn2Co3Ru
_symmetry_space_group_name_H-M   'P 1'
_cell_length_a   8.34821251
_cell_length_b   8.34821273
_cell_length_c   8.34821200
_cell_angle_alpha   112.17446344
_cell_angle_beta   109.64620325
_cell_angle_gamma   106.64020834
_symmetry_Int_Tables_number   1
_chemical_formula_structural   Y12Zn2Co3Ru
_chemical_formula_sum   'Y12 Zn2 Co3 Ru1'
_cell_volume   446.83229666
_cell_formula_units_Z   1
loop_
 _symmetry_equiv_pos_site_id
 _symmetry_equiv_pos_as_xyz
  1  'x, y, z'
loop_
 _atom_site_type_symbol
 _atom_site_label
 _atom_site_symmetry_multiplicity
 _atom_site_fract_x
 _atom_site_fract_y
 _atom_site_fract_z
 _atom_site_occupancy
  Y  Y0  1  0.560519  0.251918  0.308601  1
  Y  Y1  1  0.959650  0.265918  0.693733  1
  Y  Y2  1  0.427817  0.734081  0.693733  1
  Y  Y3  1  0.056683  0.748081  0.308600  1
  Y  Y4  1  0.175504  0.223701  0.399206  1
  Y  Y5  1  0.818334  0.781392  0.599726  1
  Y  Y6  1  0.818334  0.218610  0.036942  1
  Y  Y7  1  0.175504  0.776299  0.951805  1
  Y  Y8  1  0.324448  0.510239  0.185557  1
  Y  Y9  1  0.324447  0.138893  0.814210  1
  Y  Y10  1  0.675319  0.861109  0.185557  1
  Y  Y11  1  0.675319  0.489763  0.814210  1
  Zn  Zn12  1  0.507305  0.000000  0.507305  1
  Zn  Zn13  1  0.986610  0.499999  0.486609  1
  Co  Co14  1  0.340108  0.499999  0.840107  1
  Co  Co15  1  0.111349  0.111821  0.999528  1
  Co  Co16  1  0.887706  0.888179  0.999528  1
  Ru  Ru17  1  0.675046  0.500001  0.175045  1
