# generated using pymatgen
data_KFe3Sb12Pt
_symmetry_space_group_name_H-M   'P 1'
_cell_length_a   8.05750257
_cell_length_b   8.05750270
_cell_length_c   8.05750292
_cell_angle_alpha   109.51072289
_cell_angle_beta   109.51072385
_cell_angle_gamma   109.51072519
_symmetry_Int_Tables_number   1
_chemical_formula_structural   KFe3Sb12Pt
_chemical_formula_sum   'K1 Fe3 Sb12 Pt1'
_cell_volume   402.10796571
_cell_formula_units_Z   1
loop_
 _symmetry_equiv_pos_site_id
 _symmetry_equiv_pos_as_xyz
  1  'x, y, z'
loop_
 _atom_site_type_symbol
 _atom_site_label
 _atom_site_symmetry_multiplicity
 _atom_site_fract_x
 _atom_site_fract_y
 _atom_site_fract_z
 _atom_site_occupancy
  K  K0  1  0.000000  0.000000  0.000000  1
  Fe  Fe1  1  0.500000  0.000000  0.000000  1
  Fe  Fe2  1  0.000000  0.500000  0.000000  1
  Fe  Fe3  1  0.000000  0.000000  0.500000  1
  Sb  Sb4  1  0.853123  0.668255  0.500751  1
  Sb  Sb5  1  0.146877  0.331745  0.499249  1
  Sb  Sb6  1  0.163076  0.665338  0.827338  1
  Sb  Sb7  1  0.836924  0.334662  0.172662  1
  Sb  Sb8  1  0.668255  0.500751  0.853123  1
  Sb  Sb9  1  0.331745  0.499249  0.146877  1
  Sb  Sb10  1  0.665338  0.827338  0.163076  1
  Sb  Sb11  1  0.334662  0.172662  0.836924  1
  Sb  Sb12  1  0.500751  0.853123  0.668255  1
  Sb  Sb13  1  0.499249  0.146877  0.331745  1
  Sb  Sb14  1  0.172662  0.836924  0.334662  1
  Sb  Sb15  1  0.827338  0.163076  0.665338  1
  Pt  Pt16  1  0.500000  0.500000  0.500000  1
