# generated using pymatgen
data_Zr4Mn5AlIr2
_symmetry_space_group_name_H-M   'P 1'
_cell_length_a   5.15769582
_cell_length_b   5.18752847
_cell_length_c   8.20721948
_cell_angle_alpha   90.00000058
_cell_angle_beta   90.58205345
_cell_angle_gamma   120.19154844
_symmetry_Int_Tables_number   1
_chemical_formula_structural   Zr4Mn5AlIr2
_chemical_formula_sum   'Zr4 Mn5 Al1 Ir2'
_cell_volume   189.78915859
_cell_formula_units_Z   1
loop_
 _symmetry_equiv_pos_site_id
 _symmetry_equiv_pos_as_xyz
  1  'x, y, z'
loop_
 _atom_site_type_symbol
 _atom_site_label
 _atom_site_symmetry_multiplicity
 _atom_site_fract_x
 _atom_site_fract_y
 _atom_site_fract_z
 _atom_site_occupancy
  Zr  Zr0  1  0.334502  0.662457  0.061195  1
  Zr  Zr1  1  0.666404  0.334337  0.565809  1
  Zr  Zr2  1  0.665498  0.327954  0.938805  1
  Zr  Zr3  1  0.333596  0.667934  0.434191  1
  Mn  Mn4  1  0.000000  0.987915  0.000000  1
  Mn  Mn5  1  0.827902  0.663400  0.242009  1
  Mn  Mn6  1  0.172098  0.835496  0.757991  1
  Mn  Mn7  1  0.667245  0.837028  0.758271  1
  Mn  Mn8  1  0.332755  0.169785  0.241729  1
  Al  Al9  1  0.000000  0.996676  0.500000  1
  Ir  Ir10  1  0.172219  0.344618  0.752068  1
  Ir  Ir11  1  0.827781  0.172401  0.247932  1
