# generated using pymatgen
data_NdBi7(Ru2O11)2
_symmetry_space_group_name_H-M   'P 1'
_cell_length_a   6.57531186
_cell_length_b   7.56580454
_cell_length_c   9.95053349
_cell_angle_alpha   101.01243359
_cell_angle_beta   91.35086829
_cell_angle_gamma   90.03594032
_symmetry_Int_Tables_number   1
_chemical_formula_structural   NdBi7(Ru2O11)2
_chemical_formula_sum   'Nd1 Bi7 Ru4 O22'
_cell_volume   485.75740581
_cell_formula_units_Z   1
loop_
 _symmetry_equiv_pos_site_id
 _symmetry_equiv_pos_as_xyz
  1  'x, y, z'
loop_
 _atom_site_type_symbol
 _atom_site_label
 _atom_site_symmetry_multiplicity
 _atom_site_fract_x
 _atom_site_fract_y
 _atom_site_fract_z
 _atom_site_occupancy
  Nd  Nd0  1  0.747957  0.368195  0.478517  1
  Bi  Bi1  1  0.242891  0.628842  0.519309  1
  Bi  Bi2  1  0.754283  0.872074  0.482928  1
  Bi  Bi3  1  0.243419  0.126875  0.517491  1
  Bi  Bi4  1  0.476844  0.954592  0.821136  1
  Bi  Bi5  1  0.523741  0.045159  0.179039  1
  Bi  Bi6  1  0.397443  0.454336  0.827393  1
  Bi  Bi7  1  0.603451  0.545585  0.171791  1
  Ru  Ru8  1  0.933960  0.704198  0.812517  1
  Ru  Ru9  1  0.067498  0.296218  0.187457  1
  Ru  Ru10  1  0.932423  0.203258  0.814057  1
  Ru  Ru11  1  0.068342  0.796175  0.185979  1
  O  O12  1  0.228117  0.724724  0.767955  1
  O  O13  1  0.770670  0.276279  0.233220  1
  O  O14  1  0.637274  0.672826  0.830675  1
  O  O15  1  0.363002  0.326814  0.168093  1
  O  O16  1  0.637481  0.245087  0.845389  1
  O  O17  1  0.362100  0.754461  0.153175  1
  O  O18  1  0.890644  0.173629  0.611047  1
  O  O19  1  0.109243  0.828089  0.389529  1
  O  O20  1  0.226310  0.158447  0.765417  1
  O  O21  1  0.774289  0.842330  0.235353  1
  O  O22  1  0.905089  0.637122  0.605355  1
  O  O23  1  0.098597  0.362136  0.394801  1
  O  O24  1  0.007337  0.544022  0.177691  1
  O  O25  1  0.993241  0.456314  0.822851  1
  O  O26  1  0.994921  0.780728  0.000063  1
  O  O27  1  0.003815  0.220091  0.000638  1
  O  O28  1  0.578299  0.607242  0.390956  1
  O  O29  1  0.426173  0.392376  0.608107  1
  O  O30  1  0.154619  0.053100  0.213804  1
  O  O31  1  0.846038  0.947238  0.787361  1
  O  O32  1  0.542432  0.094546  0.397726  1
  O  O33  1  0.458058  0.906894  0.603179  1
