# generated using pymatgen
data_Tm2Fe3P7IrRu8
_symmetry_space_group_name_H-M   'P 1'
_cell_length_a   9.32299174
_cell_length_b   9.26504757
_cell_length_c   3.85210400
_cell_angle_alpha   90.00000000
_cell_angle_beta   90.00000000
_cell_angle_gamma   119.95343669
_symmetry_Int_Tables_number   1
_chemical_formula_structural   Tm2Fe3P7IrRu8
_chemical_formula_sum   'Tm2 Fe3 P7 Ir1 Ru8'
_cell_volume   288.29371152
_cell_formula_units_Z   1
loop_
 _symmetry_equiv_pos_site_id
 _symmetry_equiv_pos_as_xyz
  1  'x, y, z'
loop_
 _atom_site_type_symbol
 _atom_site_label
 _atom_site_symmetry_multiplicity
 _atom_site_fract_x
 _atom_site_fract_y
 _atom_site_fract_z
 _atom_site_occupancy
  Tm  Tm0  1  0.333211  0.666798  0.000000  1
  Tm  Tm1  1  0.999885  0.999414  0.500000  1
  Fe  Fe2  1  0.933686  0.443262  0.000000  1
  Fe  Fe3  1  0.508067  0.063654  0.000000  1
  Fe  Fe4  1  0.556351  0.492535  0.000000  1
  P  P5  1  0.975725  0.227961  0.000000  1
  P  P6  1  0.253697  0.029461  0.000000  1
  P  P7  1  0.776465  0.743585  0.000000  1
  P  P8  1  0.063035  0.613337  0.500000  1
  P  P9  1  0.544027  0.934210  0.500000  1
  P  P10  1  0.385797  0.450381  0.500000  1
  P  P11  1  0.665885  0.333465  0.000000  1
  Ir  Ir12  1  0.733682  0.973909  0.000000  1
  Ru  Ru13  1  0.244823  0.272029  0.000000  1
  Ru  Ru14  1  0.027682  0.756410  0.000000  1
  Ru  Ru15  1  0.105893  0.386386  0.500000  1
  Ru  Ru16  1  0.278861  0.893699  0.500000  1
  Ru  Ru17  1  0.612783  0.721565  0.500000  1
  Ru  Ru18  1  0.753586  0.212807  0.500000  1
  Ru  Ru19  1  0.463072  0.246430  0.500000  1
  Ru  Ru20  1  0.783791  0.538699  0.500000  1
