# generated using pymatgen
data_Ho2Er(SnRh)3
_symmetry_space_group_name_H-M   'P 1'
_cell_length_a   7.65696557
_cell_length_b   7.66208006
_cell_length_c   3.72192600
_cell_angle_alpha   90.00000000
_cell_angle_beta   90.00000000
_cell_angle_gamma   120.02209652
_symmetry_Int_Tables_number   1
_chemical_formula_structural   Ho2Er(SnRh)3
_chemical_formula_sum   'Ho2 Er1 Sn3 Rh3'
_cell_volume   189.06232883
_cell_formula_units_Z   1
loop_
 _symmetry_equiv_pos_site_id
 _symmetry_equiv_pos_as_xyz
  1  'x, y, z'
loop_
 _atom_site_type_symbol
 _atom_site_label
 _atom_site_symmetry_multiplicity
 _atom_site_fract_x
 _atom_site_fract_y
 _atom_site_fract_z
 _atom_site_occupancy
  Ho  Ho0  1  0.595643  0.595674  0.000000  1
  Ho  Ho1  1  0.404357  0.000031  0.000000  1
  Er  Er2  1  0.000000  0.404205  0.000000  1
  Sn  Sn3  1  0.264531  0.265056  0.500000  1
  Sn  Sn4  1  0.000000  0.734604  0.500000  1
  Sn  Sn5  1  0.735469  0.000525  0.500000  1
  Rh  Rh6  1  0.666937  0.333407  0.500000  1
  Rh  Rh7  1  0.333063  0.666470  0.500000  1
  Rh  Rh8  1  0.000000  0.000028  0.000000  1
