# generated using pymatgen
data_Tb5(SiBi)2
_symmetry_space_group_name_H-M   'P 1'
_cell_length_a   8.68928122
_cell_length_b   8.68928173
_cell_length_c   7.94410600
_cell_angle_alpha   90.00000000
_cell_angle_beta   90.00000000
_cell_angle_gamma   125.64549024
_symmetry_Int_Tables_number   1
_chemical_formula_structural   Tb5(SiBi)2
_chemical_formula_sum   'Tb10 Si4 Bi4'
_cell_volume   487.42753905
_cell_formula_units_Z   2
loop_
 _symmetry_equiv_pos_site_id
 _symmetry_equiv_pos_as_xyz
  1  'x, y, z'
loop_
 _atom_site_type_symbol
 _atom_site_label
 _atom_site_symmetry_multiplicity
 _atom_site_fract_x
 _atom_site_fract_y
 _atom_site_fract_z
 _atom_site_occupancy
  Tb  Tb0  1  0.045586  0.291523  0.331601  1
  Tb  Tb1  1  0.954414  0.708477  0.668399  1
  Tb  Tb2  1  0.454414  0.208477  0.831601  1
  Tb  Tb3  1  0.791523  0.545586  0.168399  1
  Tb  Tb4  1  0.545586  0.791523  0.168399  1
  Tb  Tb5  1  0.208477  0.454414  0.831601  1
  Tb  Tb6  1  0.708477  0.954414  0.668399  1
  Tb  Tb7  1  0.291523  0.045586  0.331601  1
  Tb  Tb8  1  0.000000  0.000000  0.000000  1
  Tb  Tb9  1  0.500000  0.500000  0.500000  1
  Si  Si10  1  0.371078  0.371078  0.127702  1
  Si  Si11  1  0.628922  0.628922  0.872298  1
  Si  Si12  1  0.128922  0.128922  0.627702  1
  Si  Si13  1  0.871078  0.871078  0.372298  1
  Bi  Bi14  1  0.791264  0.208736  0.000000  1
  Bi  Bi15  1  0.208736  0.791264  0.000000  1
  Bi  Bi16  1  0.708736  0.291264  0.500000  1
  Bi  Bi17  1  0.291264  0.708736  0.500000  1
