# generated using pymatgen
data_Ho10In8Ir3Pd
_symmetry_space_group_name_H-M   'P 1'
_cell_length_a   3.62080800
_cell_length_b   8.07621150
_cell_length_c   18.24184614
_cell_angle_alpha   90.04042906
_cell_angle_beta   90.00000000
_cell_angle_gamma   90.00000000
_symmetry_Int_Tables_number   1
_chemical_formula_structural   Ho10In8Ir3Pd
_chemical_formula_sum   'Ho10 In8 Ir3 Pd1'
_cell_volume   533.43543327
_cell_formula_units_Z   1
loop_
 _symmetry_equiv_pos_site_id
 _symmetry_equiv_pos_as_xyz
  1  'x, y, z'
loop_
 _atom_site_type_symbol
 _atom_site_label
 _atom_site_symmetry_multiplicity
 _atom_site_fract_x
 _atom_site_fract_y
 _atom_site_fract_z
 _atom_site_occupancy
  Ho  Ho0  1  0.000000  0.500125  0.501100  1
  Ho  Ho1  1  0.000000  0.999782  0.999449  1
  Ho  Ho2  1  0.000000  0.728677  0.277449  1
  Ho  Ho3  1  0.000000  0.258934  0.722439  1
  Ho  Ho4  1  0.000000  0.758749  0.777438  1
  Ho  Ho5  1  0.000000  0.253309  0.219727  1
  Ho  Ho6  1  0.000000  0.614159  0.086860  1
  Ho  Ho7  1  0.000000  0.386002  0.910206  1
  Ho  Ho8  1  0.000000  0.885650  0.589791  1
  Ho  Ho9  1  0.000000  0.115234  0.415026  1
  In  In10  1  0.500000  0.708073  0.931684  1
  In  In11  1  0.500000  0.291358  0.067268  1
  In  In12  1  0.500000  0.790716  0.432713  1
  In  In13  1  0.500000  0.208173  0.568286  1
  In  In14  1  0.500000  0.573427  0.649306  1
  In  In15  1  0.500000  0.422351  0.351565  1
  In  In16  1  0.500000  0.923800  0.149584  1
  In  In17  1  0.500000  0.072859  0.850897  1
  Ir  Ir18  1  0.500000  0.519861  0.195404  1
  Ir  Ir19  1  0.500000  0.484650  0.803834  1
  Ir  Ir20  1  0.500000  0.985238  0.695761  1
  Pd  Pd21  1  0.500000  0.018874  0.304213  1
