# generated using pymatgen
data_Eu4VSb3O14
_symmetry_space_group_name_H-M   'P 1'
_cell_length_a   7.47296531
_cell_length_b   7.47296403
_cell_length_c   7.47296461
_cell_angle_alpha   60.35311272
_cell_angle_beta   60.35312597
_cell_angle_gamma   60.35311334
_symmetry_Int_Tables_number   1
_chemical_formula_structural   Eu4VSb3O14
_chemical_formula_sum   'Eu4 V1 Sb3 O14'
_cell_volume   297.45355373
_cell_formula_units_Z   1
loop_
 _symmetry_equiv_pos_site_id
 _symmetry_equiv_pos_as_xyz
  1  'x, y, z'
loop_
 _atom_site_type_symbol
 _atom_site_label
 _atom_site_symmetry_multiplicity
 _atom_site_fract_x
 _atom_site_fract_y
 _atom_site_fract_z
 _atom_site_occupancy
  Eu  Eu0  1  0.125000  0.125000  0.125000  1
  Eu  Eu1  1  0.625000  0.125000  0.125000  1
  Eu  Eu2  1  0.125000  0.625000  0.125000  1
  Eu  Eu3  1  0.125000  0.125000  0.625000  1
  V  V4  1  0.625000  0.625000  0.625000  1
  Sb  Sb5  1  0.125000  0.625000  0.625000  1
  Sb  Sb6  1  0.625000  0.125000  0.625000  1
  Sb  Sb7  1  0.625000  0.625000  0.125000  1
  O  O8  1  0.950220  0.547859  0.950220  1
  O  O9  1  0.702141  0.299780  0.299780  1
  O  O10  1  0.293388  0.700443  0.700443  1
  O  O11  1  0.700443  0.293388  0.700443  1
  O  O12  1  0.299780  0.299780  0.702141  1
  O  O13  1  0.700443  0.700443  0.293388  1
  O  O14  1  0.950220  0.950220  0.547859  1
  O  O15  1  0.547859  0.950220  0.950220  1
  O  O16  1  0.956612  0.549557  0.549557  1
  O  O17  1  0.549557  0.549557  0.956612  1
  O  O18  1  0.299780  0.702141  0.299780  1
  O  O19  1  0.549557  0.956612  0.549557  1
  O  O20  1  0.000547  0.000547  0.000547  1
  O  O21  1  0.249453  0.249453  0.249453  1
