# generated using pymatgen
data_Hf2Be8ReTc
_symmetry_space_group_name_H-M   'P 1'
_cell_length_a   4.57931700
_cell_length_b   4.57931701
_cell_length_c   7.40837900
_cell_angle_alpha   90.00000000
_cell_angle_beta   90.00000000
_cell_angle_gamma   120.00002160
_symmetry_Int_Tables_number   1
_chemical_formula_structural   Hf2Be8ReTc
_chemical_formula_sum   'Hf2 Be8 Re1 Tc1'
_cell_volume   134.54115349
_cell_formula_units_Z   1
loop_
 _symmetry_equiv_pos_site_id
 _symmetry_equiv_pos_as_xyz
  1  'x, y, z'
loop_
 _atom_site_type_symbol
 _atom_site_label
 _atom_site_symmetry_multiplicity
 _atom_site_fract_x
 _atom_site_fract_y
 _atom_site_fract_z
 _atom_site_occupancy
  Hf  Hf0  1  0.333333  0.666667  0.064230  1
  Hf  Hf1  1  0.666667  0.333333  0.567330  1
  Be  Be2  1  0.000000  0.000000  0.996174  1
  Be  Be3  1  0.000000  0.000000  0.496713  1
  Be  Be4  1  0.829753  0.659506  0.251235  1
  Be  Be5  1  0.170368  0.829632  0.749723  1
  Be  Be6  1  0.659265  0.829632  0.749723  1
  Be  Be7  1  0.340494  0.170247  0.251235  1
  Be  Be8  1  0.829753  0.170247  0.251235  1
  Be  Be9  1  0.170368  0.340735  0.749723  1
  Re  Re10  1  0.333333  0.666667  0.436342  1
  Tc  Tc11  1  0.666667  0.333333  0.936339  1
