# generated using pymatgen
data_Tm(ScCu6)2
_symmetry_space_group_name_H-M   'P 1'
_cell_length_a   4.86237090
_cell_length_b   4.86237087
_cell_length_c   10.47236926
_cell_angle_alpha   94.92669202
_cell_angle_beta   94.92668764
_cell_angle_gamma   119.79922016
_symmetry_Int_Tables_number   1
_chemical_formula_structural   Tm(ScCu6)2
_chemical_formula_sum   'Tm1 Sc2 Cu12'
_cell_volume   211.68202905
_cell_formula_units_Z   1
loop_
 _symmetry_equiv_pos_site_id
 _symmetry_equiv_pos_as_xyz
  1  'x, y, z'
loop_
 _atom_site_type_symbol
 _atom_site_label
 _atom_site_symmetry_multiplicity
 _atom_site_fract_x
 _atom_site_fract_y
 _atom_site_fract_z
 _atom_site_occupancy
  Tm  Tm0  1  0.000000  0.000000  0.000000  1
  Sc  Sc1  1  0.133449  0.133449  0.360875  1
  Sc  Sc2  1  0.866551  0.866551  0.639125  1
  Cu  Cu3  1  0.663966  0.336035  0.000000  1
  Cu  Cu4  1  0.336035  0.663966  0.000000  1
  Cu  Cu5  1  0.570052  0.069511  0.200542  1
  Cu  Cu6  1  0.069511  0.570052  0.200542  1
  Cu  Cu7  1  0.568881  0.568881  0.204312  1
  Cu  Cu8  1  0.806897  0.478813  0.408854  1
  Cu  Cu9  1  0.478813  0.806897  0.408854  1
  Cu  Cu10  1  0.521189  0.193104  0.591146  1
  Cu  Cu11  1  0.193104  0.521189  0.591146  1
  Cu  Cu12  1  0.431118  0.431118  0.795688  1
  Cu  Cu13  1  0.930488  0.429947  0.799459  1
  Cu  Cu14  1  0.429947  0.930488  0.799459  1
