# generated using pymatgen
data_Zr6In6OsPt5
_symmetry_space_group_name_H-M   'P 1'
_cell_length_a   7.63039900
_cell_length_b   7.63039929
_cell_length_c   7.07976500
_cell_angle_alpha   90.00000000
_cell_angle_beta   90.00000000
_cell_angle_gamma   120.00000191
_symmetry_Int_Tables_number   1
_chemical_formula_structural   Zr6In6OsPt5
_chemical_formula_sum   'Zr6 In6 Os1 Pt5'
_cell_volume   356.98007674
_cell_formula_units_Z   1
loop_
 _symmetry_equiv_pos_site_id
 _symmetry_equiv_pos_as_xyz
  1  'x, y, z'
loop_
 _atom_site_type_symbol
 _atom_site_label
 _atom_site_symmetry_multiplicity
 _atom_site_fract_x
 _atom_site_fract_y
 _atom_site_fract_z
 _atom_site_occupancy
  Zr  Zr0  1  0.014932  0.612033  0.743474  1
  Zr  Zr1  1  0.008468  0.609233  0.256606  1
  Zr  Zr2  1  0.600765  0.991532  0.256606  1
  Zr  Zr3  1  0.597102  0.985068  0.743474  1
  Zr  Zr4  1  0.390767  0.399235  0.256606  1
  Zr  Zr5  1  0.387967  0.402898  0.743474  1
  In  In6  1  0.994856  0.267928  0.500037  1
  In  In7  1  0.728789  0.722674  0.999980  1
  In  In8  1  0.993885  0.271211  0.999980  1
  In  In9  1  0.273072  0.005144  0.500037  1
  In  In10  1  0.277326  0.006115  0.999980  1
  In  In11  1  0.732072  0.726928  0.500037  1
  Os  Os12  1  0.333333  0.666667  0.496035  1
  Pt  Pt13  1  0.666667  0.333333  0.505631  1
  Pt  Pt14  1  0.666667  0.333333  0.990274  1
  Pt  Pt15  1  0.000000  0.000000  0.246446  1
  Pt  Pt16  1  0.000000  0.000000  0.753272  1
  Pt  Pt17  1  0.333333  0.666667  0.008051  1
