# generated using pymatgen
data_Dy5Sc3P12(Ir5Ru3)2
_symmetry_space_group_name_H-M   'P 1'
_cell_length_a   12.80989300
_cell_length_b   12.80989346
_cell_length_c   3.97731700
_cell_angle_alpha   90.00000000
_cell_angle_beta   90.00000000
_cell_angle_gamma   120.00000140
_symmetry_Int_Tables_number   1
_chemical_formula_structural   Dy5Sc3P12(Ir5Ru3)2
_chemical_formula_sum   'Dy5 Sc3 P12 Ir10 Ru6'
_cell_volume   565.21262231
_cell_formula_units_Z   1
loop_
 _symmetry_equiv_pos_site_id
 _symmetry_equiv_pos_as_xyz
  1  'x, y, z'
loop_
 _atom_site_type_symbol
 _atom_site_label
 _atom_site_symmetry_multiplicity
 _atom_site_fract_x
 _atom_site_fract_y
 _atom_site_fract_z
 _atom_site_occupancy
  Dy  Dy0  1  0.333333  0.666667  0.500000  1
  Dy  Dy1  1  0.666667  0.333333  0.500000  1
  Dy  Dy2  1  0.000000  0.812338  0.000000  1
  Dy  Dy3  1  0.187662  0.187662  0.000000  1
  Dy  Dy4  1  0.812338  0.000000  0.000000  1
  Sc  Sc5  1  0.000000  0.443301  0.500000  1
  Sc  Sc6  1  0.556699  0.556699  0.500000  1
  Sc  Sc7  1  0.443301  0.000000  0.500000  1
  P  P8  1  0.000000  0.645679  0.500000  1
  P  P9  1  0.354321  0.354321  0.500000  1
  P  P10  1  0.645679  0.000000  0.500000  1
  P  P11  1  0.520035  0.691515  0.000000  1
  P  P12  1  0.308485  0.828520  0.000000  1
  P  P13  1  0.171480  0.479965  0.000000  1
  P  P14  1  0.479965  0.171480  0.000000  1
  P  P15  1  0.691515  0.520035  0.000000  1
  P  P16  1  0.828520  0.308485  0.000000  1
  P  P17  1  0.000000  0.180558  0.500000  1
  P  P18  1  0.819442  0.819442  0.500000  1
  P  P19  1  0.180558  0.000000  0.500000  1
  Ir  Ir20  1  0.509761  0.870587  0.000000  1
  Ir  Ir21  1  0.129413  0.639175  0.000000  1
  Ir  Ir22  1  0.360825  0.490239  0.000000  1
  Ir  Ir23  1  0.490239  0.360825  0.000000  1
  Ir  Ir24  1  0.870587  0.509761  0.000000  1
  Ir  Ir25  1  0.639175  0.129413  0.000000  1
  Ir  Ir26  1  0.000000  0.277015  0.000000  1
  Ir  Ir27  1  0.722985  0.722985  0.000000  1
  Ir  Ir28  1  0.277015  0.000000  0.000000  1
  Ir  Ir29  1  0.000000  0.000000  0.500000  1
  Ru  Ru30  1  0.625525  0.805921  0.500000  1
  Ru  Ru31  1  0.194079  0.819605  0.500000  1
  Ru  Ru32  1  0.180395  0.374475  0.500000  1
  Ru  Ru33  1  0.374475  0.180395  0.500000  1
  Ru  Ru34  1  0.805921  0.625525  0.500000  1
  Ru  Ru35  1  0.819605  0.194079  0.500000  1
