# generated using pymatgen
data_NaY6PtI12
_symmetry_space_group_name_H-M   'P 1'
_cell_length_a   9.80335033
_cell_length_b   9.80335171
_cell_length_c   9.80335052
_cell_angle_alpha   107.12818109
_cell_angle_beta   107.12818247
_cell_angle_gamma   107.12819400
_symmetry_Int_Tables_number   1
_chemical_formula_structural   NaY6PtI12
_chemical_formula_sum   'Na1 Y6 Pt1 I12'
_cell_volume   781.87809529
_cell_formula_units_Z   1
loop_
 _symmetry_equiv_pos_site_id
 _symmetry_equiv_pos_as_xyz
  1  'x, y, z'
loop_
 _atom_site_type_symbol
 _atom_site_label
 _atom_site_symmetry_multiplicity
 _atom_site_fract_x
 _atom_site_fract_y
 _atom_site_fract_z
 _atom_site_occupancy
  Na  Na0  1  0.000000  0.000000  0.000000  1
  Y  Y1  1  0.400779  0.473023  0.192694  1
  Y  Y2  1  0.192694  0.400779  0.473023  1
  Y  Y3  1  0.473023  0.192694  0.400779  1
  Y  Y4  1  0.599221  0.526977  0.807306  1
  Y  Y5  1  0.807306  0.599221  0.526977  1
  Y  Y6  1  0.526977  0.807306  0.599221  1
  Pt  Pt7  1  0.500000  0.500000  0.500000  1
  I  I8  1  0.048785  0.358091  0.127274  1
  I  I9  1  0.127274  0.048785  0.358091  1
  I  I10  1  0.358091  0.127274  0.048785  1
  I  I11  1  0.951215  0.641909  0.872726  1
  I  I12  1  0.872726  0.951215  0.641909  1
  I  I13  1  0.641909  0.872726  0.951215  1
  I  I14  1  0.725070  0.575842  0.179159  1
  I  I15  1  0.179159  0.725070  0.575842  1
  I  I16  1  0.575842  0.179159  0.725070  1
  I  I17  1  0.274930  0.424158  0.820841  1
  I  I18  1  0.820841  0.274930  0.424158  1
  I  I19  1  0.424158  0.820841  0.274930  1
