# generated using pymatgen
data_GdEr5Tc2
_symmetry_space_group_name_H-M   'P 1'
_cell_length_a   6.21142800
_cell_length_b   7.37422000
_cell_length_c   9.07194200
_cell_angle_alpha   90.00000000
_cell_angle_beta   90.00000000
_cell_angle_gamma   90.00000000
_symmetry_Int_Tables_number   1
_chemical_formula_structural   GdEr5Tc2
_chemical_formula_sum   'Gd2 Er10 Tc4'
_cell_volume   415.53519205
_cell_formula_units_Z   2
loop_
 _symmetry_equiv_pos_site_id
 _symmetry_equiv_pos_as_xyz
  1  'x, y, z'
loop_
 _atom_site_type_symbol
 _atom_site_label
 _atom_site_symmetry_multiplicity
 _atom_site_fract_x
 _atom_site_fract_y
 _atom_site_fract_z
 _atom_site_occupancy
  Gd  Gd0  1  0.875285  0.541567  0.250000  1
  Gd  Gd1  1  0.624715  0.041567  0.250000  1
  Er  Er2  1  0.342354  0.676168  0.061825  1
  Er  Er3  1  0.157646  0.176168  0.438175  1
  Er  Er4  1  0.657942  0.324155  0.564206  1
  Er  Er5  1  0.842058  0.824155  0.935794  1
  Er  Er6  1  0.657942  0.324155  0.935794  1
  Er  Er7  1  0.842058  0.824155  0.564206  1
  Er  Er8  1  0.342354  0.676168  0.438175  1
  Er  Er9  1  0.157646  0.176168  0.061825  1
  Er  Er10  1  0.126430  0.460019  0.750000  1
  Er  Er11  1  0.373570  0.960019  0.750000  1
  Tc  Tc12  1  0.035271  0.882213  0.250000  1
  Tc  Tc13  1  0.464729  0.382213  0.250000  1
  Tc  Tc14  1  0.959083  0.115556  0.750000  1
  Tc  Tc15  1  0.540917  0.615556  0.750000  1
