# generated using pymatgen
data_Er12Co4CuPb
_symmetry_space_group_name_H-M   'P 1'
_cell_length_a   8.25278202
_cell_length_b   8.25278030
_cell_length_c   8.25278125
_cell_angle_alpha   110.49219102
_cell_angle_beta   111.17158292
_cell_angle_gamma   106.78361892
_symmetry_Int_Tables_number   1
_chemical_formula_structural   Er12Co4CuPb
_chemical_formula_sum   'Er12 Co4 Cu1 Pb1'
_cell_volume   431.96646900
_cell_formula_units_Z   1
loop_
 _symmetry_equiv_pos_site_id
 _symmetry_equiv_pos_as_xyz
  1  'x, y, z'
loop_
 _atom_site_type_symbol
 _atom_site_label
 _atom_site_symmetry_multiplicity
 _atom_site_fract_x
 _atom_site_fract_y
 _atom_site_fract_z
 _atom_site_occupancy
  Er  Er0  1  0.289688  0.184703  0.474391  1
  Er  Er1  1  0.710312  0.815297  0.525609  1
  Er  Er2  1  0.289688  0.815297  0.104984  1
  Er  Er3  1  0.710312  0.184703  0.895016  1
  Er  Er4  1  0.619540  0.313729  0.305810  1
  Er  Er5  1  0.380460  0.686271  0.694190  1
  Er  Er6  1  0.007921  0.313729  0.694190  1
  Er  Er7  1  0.992079  0.686271  0.305810  1
  Er  Er8  1  0.215300  0.415813  0.200513  1
  Er  Er9  1  0.784700  0.584187  0.799487  1
  Er  Er10  1  0.215300  0.014787  0.799487  1
  Er  Er11  1  0.784700  0.985213  0.200513  1
  Co  Co12  1  0.000000  0.376821  0.376821  1
  Co  Co13  1  0.000000  0.623179  0.623179  1
  Co  Co14  1  0.386841  0.886841  0.500000  1
  Co  Co15  1  0.613159  0.113159  0.500000  1
  Cu  Cu16  1  0.000000  0.000000  0.000000  1
  Pb  Pb17  1  0.500000  0.500000  0.000000  1
