# generated using pymatgen
data_Tb3Ho8In(Hg2Pd)4
_symmetry_space_group_name_H-M   'P 1'
_cell_length_a   13.03727206
_cell_length_b   13.03727195
_cell_length_c   3.69983100
_cell_angle_alpha   90.00000000
_cell_angle_beta   90.00000000
_cell_angle_gamma   112.21745624
_symmetry_Int_Tables_number   1
_chemical_formula_structural   Tb3Ho8In(Hg2Pd)4
_chemical_formula_sum   'Tb3 Ho8 In1 Hg8 Pd4'
_cell_volume   582.17239187
_cell_formula_units_Z   1
loop_
 _symmetry_equiv_pos_site_id
 _symmetry_equiv_pos_as_xyz
  1  'x, y, z'
loop_
 _atom_site_type_symbol
 _atom_site_label
 _atom_site_symmetry_multiplicity
 _atom_site_fract_x
 _atom_site_fract_y
 _atom_site_fract_z
 _atom_site_occupancy
  Tb  Tb0  1  0.298591  0.298591  0.000000  1
  Tb  Tb1  1  0.701409  0.701409  0.000000  1
  Tb  Tb2  1  0.000000  0.000000  0.000000  1
  Ho  Ho3  1  0.415171  0.075954  0.000000  1
  Ho  Ho4  1  0.584829  0.924046  0.000000  1
  Ho  Ho5  1  0.075954  0.415171  0.000000  1
  Ho  Ho6  1  0.924046  0.584829  0.000000  1
  Ho  Ho7  1  0.166625  0.833375  0.000000  1
  Ho  Ho8  1  0.833375  0.166625  0.000000  1
  Ho  Ho9  1  0.371226  0.628774  0.000000  1
  Ho  Ho10  1  0.628774  0.371226  0.000000  1
  In  In11  1  0.500000  0.500000  0.500000  1
  Hg  Hg12  1  0.369284  0.844941  0.500000  1
  Hg  Hg13  1  0.630716  0.155059  0.500000  1
  Hg  Hg14  1  0.844943  0.369284  0.500000  1
  Hg  Hg15  1  0.155057  0.630716  0.500000  1
  Hg  Hg16  1  0.213917  0.064253  0.500000  1
  Hg  Hg17  1  0.786083  0.935747  0.500000  1
  Hg  Hg18  1  0.064252  0.213916  0.500000  1
  Hg  Hg19  1  0.935748  0.786084  0.500000  1
  Pd  Pd20  1  0.448747  0.250383  0.500000  1
  Pd  Pd21  1  0.551253  0.749617  0.500000  1
  Pd  Pd22  1  0.250384  0.448747  0.500000  1
  Pd  Pd23  1  0.749616  0.551253  0.500000  1
