# generated using pymatgen
data_Pr11Dy(Si7Br3)2
_symmetry_space_group_name_H-M   'P 1'
_cell_length_a   4.09211000
_cell_length_b   11.82479400
_cell_length_c   16.61750600
_cell_angle_alpha   90.00000000
_cell_angle_beta   90.00000000
_cell_angle_gamma   90.00000000
_symmetry_Int_Tables_number   1
_chemical_formula_structural   Pr11Dy(Si7Br3)2
_chemical_formula_sum   'Pr11 Dy1 Si14 Br6'
_cell_volume   804.09382566
_cell_formula_units_Z   1
loop_
 _symmetry_equiv_pos_site_id
 _symmetry_equiv_pos_as_xyz
  1  'x, y, z'
loop_
 _atom_site_type_symbol
 _atom_site_label
 _atom_site_symmetry_multiplicity
 _atom_site_fract_x
 _atom_site_fract_y
 _atom_site_fract_z
 _atom_site_occupancy
  Pr  Pr0  1  0.500000  0.342606  0.500000  1
  Pr  Pr1  1  0.000000  0.658400  0.000000  1
  Pr  Pr2  1  0.500000  0.359417  0.755607  1
  Pr  Pr3  1  0.000000  0.641272  0.742517  1
  Pr  Pr4  1  0.500000  0.359417  0.244393  1
  Pr  Pr5  1  0.000000  0.641272  0.257483  1
  Pr  Pr6  1  0.500000  0.065245  0.880117  1
  Pr  Pr7  1  0.000000  0.933270  0.619311  1
  Pr  Pr8  1  0.500000  0.065245  0.119883  1
  Pr  Pr9  1  0.000000  0.933270  0.380689  1
  Pr  Pr10  1  0.500000  0.356074  0.000000  1
  Dy  Dy11  1  0.000000  0.644915  0.500000  1
  Si  Si12  1  0.000000  0.151480  0.000000  1
  Si  Si13  1  0.500000  0.845742  0.500000  1
  Si  Si14  1  0.500000  0.567483  0.876074  1
  Si  Si15  1  0.000000  0.435399  0.622010  1
  Si  Si16  1  0.500000  0.567483  0.123926  1
  Si  Si17  1  0.000000  0.435399  0.377990  1
  Si  Si18  1  0.000000  0.253508  0.873907  1
  Si  Si19  1  0.500000  0.744393  0.624015  1
  Si  Si20  1  0.000000  0.253508  0.126093  1
  Si  Si21  1  0.500000  0.744393  0.375985  1
  Si  Si22  1  0.000000  0.457974  0.876660  1
  Si  Si23  1  0.500000  0.543165  0.620044  1
  Si  Si24  1  0.500000  0.543165  0.379956  1
  Si  Si25  1  0.000000  0.457974  0.123340  1
  Br  Br26  1  0.500000  0.108947  0.692686  1
  Br  Br27  1  0.000000  0.890385  0.806881  1
  Br  Br28  1  0.000000  0.138789  0.500000  1
  Br  Br29  1  0.500000  0.861075  0.000000  1
  Br  Br30  1  0.500000  0.108947  0.307314  1
  Br  Br31  1  0.000000  0.890385  0.193119  1
