# generated using pymatgen
data_Ta3(Re12Mo)2
_symmetry_space_group_name_H-M   'P 1'
_cell_length_a   8.38107341
_cell_length_b   8.40059769
_cell_length_c   8.38107809
_cell_angle_alpha   109.42666867
_cell_angle_beta   109.45523775
_cell_angle_gamma   109.42664658
_symmetry_Int_Tables_number   1
_chemical_formula_structural   Ta3(Re12Mo)2
_chemical_formula_sum   'Ta3 Re24 Mo2'
_cell_volume   454.83081946
_cell_formula_units_Z   1
loop_
 _symmetry_equiv_pos_site_id
 _symmetry_equiv_pos_as_xyz
  1  'x, y, z'
loop_
 _atom_site_type_symbol
 _atom_site_label
 _atom_site_symmetry_multiplicity
 _atom_site_fract_x
 _atom_site_fract_y
 _atom_site_fract_z
 _atom_site_occupancy
  Ta  Ta0  1  0.006379  0.999804  0.006379  1
  Ta  Ta1  1  0.000885  0.000041  0.636901  1
  Ta  Ta2  1  0.636901  0.000041  0.000884  1
  Re  Re3  1  0.317492  0.319157  0.716051  1
  Re  Re4  1  0.396815  0.680876  0.998378  1
  Re  Re5  1  0.685160  0.402608  0.998576  1
  Re  Re6  1  0.599568  0.286159  0.599568  1
  Re  Re7  1  0.400113  0.000028  0.681878  1
  Re  Re8  1  0.998577  0.402608  0.685160  1
  Re  Re9  1  0.282443  0.597410  0.595957  1
  Re  Re10  1  0.716053  0.319157  0.317492  1
  Re  Re11  1  0.313302  0.713806  0.313301  1
  Re  Re12  1  0.681879  0.000028  0.400113  1
  Re  Re13  1  0.998379  0.680875  0.396815  1
  Re  Re14  1  0.595958  0.597411  0.282444  1
  Re  Re15  1  0.806037  0.806393  0.184835  1
  Re  Re16  1  0.378415  0.193588  0.999651  1
  Re  Re17  1  0.193265  0.374159  0.998983  1
  Re  Re18  1  0.623679  0.817311  0.623679  1
  Re  Re19  1  0.377173  0.000035  0.195299  1
  Re  Re20  1  0.998983  0.374159  0.193266  1
  Re  Re21  1  0.819159  0.625818  0.624817  1
  Re  Re22  1  0.184834  0.806393  0.806036  1
  Re  Re23  1  0.806404  0.182703  0.806405  1
  Re  Re24  1  0.195298  0.000034  0.377173  1
  Re  Re25  1  0.999651  0.193589  0.378415  1
  Re  Re26  1  0.624818  0.625818  0.819160  1
  Mo  Mo27  1  0.000358  0.638266  0.000359  1
  Mo  Mo28  1  0.362023  0.361724  0.362023  1
