# generated using pymatgen
data_La5Nd3(ZrIr3)2
_symmetry_space_group_name_H-M   'P 1'
_cell_length_a   11.29257116
_cell_length_b   11.30743262
_cell_length_c   6.39248121
_cell_angle_alpha   90.07901213
_cell_angle_beta   90.22776705
_cell_angle_gamma   90.04660003
_symmetry_Int_Tables_number   1
_chemical_formula_structural   La5Nd3(ZrIr3)2
_chemical_formula_sum   'La10 Nd6 Zr4 Ir12'
_cell_volume   816.24834582
_cell_formula_units_Z   2
loop_
 _symmetry_equiv_pos_site_id
 _symmetry_equiv_pos_as_xyz
  1  'x, y, z'
loop_
 _atom_site_type_symbol
 _atom_site_label
 _atom_site_symmetry_multiplicity
 _atom_site_fract_x
 _atom_site_fract_y
 _atom_site_fract_z
 _atom_site_occupancy
  La  La0  1  0.086504  0.286578  0.120105  1
  La  La1  1  0.786866  0.413913  0.120537  1
  La  La2  1  0.213469  0.587037  0.119441  1
  La  La3  1  0.913159  0.713584  0.120083  1
  La  La4  1  0.413311  0.786882  0.380728  1
  La  La5  1  0.587226  0.214415  0.380252  1
  La  La6  1  0.286037  0.086127  0.380468  1
  La  La7  1  0.713422  0.912346  0.380377  1
  La  La8  1  0.412228  0.212815  0.879146  1
  La  La9  1  0.713322  0.086265  0.878962  1
  Nd  Nd10  1  0.287072  0.912399  0.878793  1
  Nd  Nd11  1  0.585830  0.786393  0.878578  1
  Nd  Nd12  1  0.086161  0.712255  0.620730  1
  Nd  Nd13  1  0.914053  0.288116  0.620395  1
  Nd  Nd14  1  0.211790  0.414086  0.620018  1
  Nd  Nd15  1  0.787375  0.586202  0.621169  1
  Zr  Zr16  1  0.001261  0.999049  0.998785  1
  Zr  Zr17  1  0.500466  0.501451  0.998549  1
  Zr  Zr18  1  0.499880  0.500333  0.501732  1
  Zr  Zr19  1  0.000191  0.999996  0.501898  1
  Ir  Ir20  1  0.137772  0.862312  0.250569  1
  Ir  Ir21  1  0.362292  0.362001  0.249302  1
  Ir  Ir22  1  0.637601  0.637666  0.250355  1
  Ir  Ir23  1  0.862036  0.137454  0.249431  1
  Ir  Ir24  1  0.361202  0.638464  0.749458  1
  Ir  Ir25  1  0.138098  0.138470  0.750132  1
  Ir  Ir26  1  0.861788  0.860917  0.749121  1
  Ir  Ir27  1  0.639051  0.362428  0.749545  1
  Ir  Ir28  1  0.000147  0.499880  0.379211  1
  Ir  Ir29  1  0.499946  0.999262  0.120991  1
  Ir  Ir30  1  0.500485  0.000626  0.619758  1
  Ir  Ir31  1  0.999961  0.500280  0.881383  1
