# generated using pymatgen
data_Ti5Sn2BSb
_symmetry_space_group_name_H-M   'P 1'
_cell_length_a   8.11693500
_cell_length_b   8.11122334
_cell_length_c   5.42627500
_cell_angle_alpha   90.00000000
_cell_angle_beta   90.00000000
_cell_angle_gamma   119.97673149
_symmetry_Int_Tables_number   1
_chemical_formula_structural   Ti5Sn2BSb
_chemical_formula_sum   'Ti10 Sn4 B2 Sb2'
_cell_volume   309.46578519
_cell_formula_units_Z   2
loop_
 _symmetry_equiv_pos_site_id
 _symmetry_equiv_pos_as_xyz
  1  'x, y, z'
loop_
 _atom_site_type_symbol
 _atom_site_label
 _atom_site_symmetry_multiplicity
 _atom_site_fract_x
 _atom_site_fract_y
 _atom_site_fract_z
 _atom_site_occupancy
  Ti  Ti0  1  0.664563  0.331490  0.998685  1
  Ti  Ti1  1  0.335437  0.666927  0.998685  1
  Ti  Ti2  1  0.335437  0.666927  0.501315  1
  Ti  Ti3  1  0.664563  0.331490  0.501315  1
  Ti  Ti4  1  0.773363  0.774422  0.750000  1
  Ti  Ti5  1  0.226637  0.001059  0.750000  1
  Ti  Ti6  1  0.000000  0.225491  0.750000  1
  Ti  Ti7  1  0.228184  0.227973  0.250000  1
  Ti  Ti8  1  0.771816  0.999790  0.250000  1
  Ti  Ti9  1  0.000000  0.774365  0.250000  1
  Sn  Sn10  1  0.000000  0.601795  0.750000  1
  Sn  Sn11  1  0.604063  0.603076  0.250000  1
  Sn  Sn12  1  0.395937  0.999014  0.250000  1
  Sn  Sn13  1  0.000000  0.398298  0.250000  1
  B  B14  1  0.000000  0.999660  0.001965  1
  B  B15  1  0.000000  0.999660  0.498035  1
  Sb  Sb16  1  0.398447  0.398504  0.750000  1
  Sb  Sb17  1  0.601553  0.000057  0.750000  1
