# generated using pymatgen
data_ErZrCuNi2P3
_symmetry_space_group_name_H-M   'P 1'
_cell_length_a   3.74922000
_cell_length_b   10.29886200
_cell_length_c   12.37180400
_cell_angle_alpha   90.00000000
_cell_angle_beta   90.00000000
_cell_angle_gamma   90.00000000
_symmetry_Int_Tables_number   1
_chemical_formula_structural   ErZrCuNi2P3
_chemical_formula_sum   'Er4 Zr4 Cu4 Ni8 P12'
_cell_volume   477.70874873
_cell_formula_units_Z   4
loop_
 _symmetry_equiv_pos_site_id
 _symmetry_equiv_pos_as_xyz
  1  'x, y, z'
loop_
 _atom_site_type_symbol
 _atom_site_label
 _atom_site_symmetry_multiplicity
 _atom_site_fract_x
 _atom_site_fract_y
 _atom_site_fract_z
 _atom_site_occupancy
  Er  Er0  1  0.250000  0.070640  0.205188  1
  Er  Er1  1  0.750000  0.929360  0.794812  1
  Er  Er2  1  0.750000  0.570640  0.294812  1
  Er  Er3  1  0.250000  0.429360  0.705188  1
  Zr  Zr4  1  0.250000  0.160896  0.496755  1
  Zr  Zr5  1  0.750000  0.839104  0.503245  1
  Zr  Zr6  1  0.750000  0.660896  0.003245  1
  Zr  Zr7  1  0.250000  0.339104  0.996755  1
  Cu  Cu8  1  0.250000  0.729696  0.665745  1
  Cu  Cu9  1  0.750000  0.270304  0.334255  1
  Cu  Cu10  1  0.750000  0.229696  0.834255  1
  Cu  Cu11  1  0.250000  0.770304  0.165745  1
  Ni  Ni12  1  0.250000  0.364187  0.220119  1
  Ni  Ni13  1  0.750000  0.635813  0.779881  1
  Ni  Ni14  1  0.750000  0.864187  0.279881  1
  Ni  Ni15  1  0.250000  0.135813  0.720119  1
  Ni  Ni16  1  0.250000  0.602171  0.484831  1
  Ni  Ni17  1  0.750000  0.397829  0.515169  1
  Ni  Ni18  1  0.750000  0.102171  0.015169  1
  Ni  Ni19  1  0.250000  0.897829  0.984831  1
  P  P20  1  0.250000  0.949364  0.625158  1
  P  P21  1  0.750000  0.050636  0.374842  1
  P  P22  1  0.750000  0.449364  0.874842  1
  P  P23  1  0.250000  0.550636  0.125158  1
  P  P24  1  0.250000  0.399244  0.404638  1
  P  P25  1  0.750000  0.600756  0.595362  1
  P  P26  1  0.750000  0.899244  0.095362  1
  P  P27  1  0.250000  0.100756  0.904638  1
  P  P28  1  0.250000  0.768343  0.357661  1
  P  P29  1  0.750000  0.231657  0.642339  1
  P  P30  1  0.750000  0.268343  0.142339  1
  P  P31  1  0.250000  0.731657  0.857661  1
