# generated using pymatgen
data_Ti6AsPC4
_symmetry_space_group_name_H-M   'P 1'
_cell_length_a   3.14221800
_cell_length_b   3.14221884
_cell_length_c   16.87113900
_cell_angle_alpha   90.00000000
_cell_angle_beta   90.00000000
_cell_angle_gamma   120.00001226
_symmetry_Int_Tables_number   1
_chemical_formula_structural   Ti6AsPC4
_chemical_formula_sum   'Ti6 As1 P1 C4'
_cell_volume   144.26059576
_cell_formula_units_Z   1
loop_
 _symmetry_equiv_pos_site_id
 _symmetry_equiv_pos_as_xyz
  1  'x, y, z'
loop_
 _atom_site_type_symbol
 _atom_site_label
 _atom_site_symmetry_multiplicity
 _atom_site_fract_x
 _atom_site_fract_y
 _atom_site_fract_z
 _atom_site_occupancy
  Ti  Ti0  1  0.000000  0.000000  0.493917  1
  Ti  Ti1  1  0.000000  0.000000  0.006083  1
  Ti  Ti2  1  0.666667  0.333333  0.353758  1
  Ti  Ti3  1  0.333333  0.666667  0.633402  1
  Ti  Ti4  1  0.333333  0.666667  0.866598  1
  Ti  Ti5  1  0.666667  0.333333  0.146242  1
  As  As6  1  0.000000  0.000000  0.750000  1
  P  P7  1  0.000000  0.000000  0.250000  1
  C  C8  1  0.666667  0.333333  0.930436  1
  C  C9  1  0.333333  0.666667  0.080820  1
  C  C10  1  0.333333  0.666667  0.419180  1
  C  C11  1  0.666667  0.333333  0.569564  1
