# generated using pymatgen
data_Ho2ErThMgRh
_symmetry_space_group_name_H-M   'P 1'
_cell_length_a   9.75368166
_cell_length_b   9.75462404
_cell_length_c   9.75462405
_cell_angle_alpha   59.99361541
_cell_angle_beta   60.00318837
_cell_angle_gamma   60.00319186
_symmetry_Int_Tables_number   1
_chemical_formula_structural   Ho2ErThMgRh
_chemical_formula_sum   'Ho8 Er4 Th4 Mg4 Rh4'
_cell_volume   656.25802680
_cell_formula_units_Z   4
loop_
 _symmetry_equiv_pos_site_id
 _symmetry_equiv_pos_as_xyz
  1  'x, y, z'
loop_
 _atom_site_type_symbol
 _atom_site_label
 _atom_site_symmetry_multiplicity
 _atom_site_fract_x
 _atom_site_fract_y
 _atom_site_fract_z
 _atom_site_occupancy
  Ho  Ho0  1  0.813011  0.186989  0.186989  1
  Ho  Ho1  1  0.186989  0.813011  0.813011  1
  Ho  Ho2  1  0.186955  0.813045  0.186955  1
  Ho  Ho3  1  0.813045  0.186955  0.813045  1
  Ho  Ho4  1  0.186955  0.186955  0.813045  1
  Ho  Ho5  1  0.813045  0.813045  0.186955  1
  Ho  Ho6  1  0.933332  0.566668  0.566668  1
  Ho  Ho7  1  0.566668  0.933332  0.933332  1
  Er  Er8  1  0.566570  0.933430  0.566570  1
  Er  Er9  1  0.933430  0.566570  0.933430  1
  Er  Er10  1  0.566570  0.566570  0.933430  1
  Er  Er11  1  0.933430  0.933430  0.566570  1
  Th  Th12  1  0.348888  0.348794  0.348794  1
  Th  Th13  1  0.348794  0.348888  0.953521  1
  Th  Th14  1  0.348794  0.953521  0.348888  1
  Th  Th15  1  0.953521  0.348794  0.348794  1
  Mg  Mg16  1  0.580781  0.580836  0.580836  1
  Mg  Mg17  1  0.580836  0.580781  0.257545  1
  Mg  Mg18  1  0.580836  0.257545  0.580781  1
  Mg  Mg19  1  0.257545  0.580836  0.580836  1
  Rh  Rh20  1  0.143771  0.143857  0.143857  1
  Rh  Rh21  1  0.143857  0.143771  0.568514  1
  Rh  Rh22  1  0.143857  0.568514  0.143771  1
  Rh  Rh23  1  0.568514  0.143857  0.143857  1
