# generated using pymatgen
data_Nd2Y3Rh2
_symmetry_space_group_name_H-M   'P 1'
_cell_length_a   6.51913668
_cell_length_b   7.24270112
_cell_length_c   8.87130166
_cell_angle_alpha   97.10524641
_cell_angle_beta   111.55711653
_cell_angle_gamma   89.99999972
_symmetry_Int_Tables_number   1
_chemical_formula_structural   Nd2Y3Rh2
_chemical_formula_sum   'Nd4 Y6 Rh4'
_cell_volume   386.10898084
_cell_formula_units_Z   2
loop_
 _symmetry_equiv_pos_site_id
 _symmetry_equiv_pos_as_xyz
  1  'x, y, z'
loop_
 _atom_site_type_symbol
 _atom_site_label
 _atom_site_symmetry_multiplicity
 _atom_site_fract_x
 _atom_site_fract_y
 _atom_site_fract_z
 _atom_site_occupancy
  Nd  Nd0  1  0.982476  0.917402  0.193963  1
  Nd  Nd1  1  0.788513  0.582598  0.806037  1
  Nd  Nd2  1  0.017524  0.082598  0.806037  1
  Nd  Nd3  1  0.211487  0.417402  0.193963  1
  Y  Y4  1  0.640597  0.812627  0.432984  1
  Y  Y5  1  0.207612  0.687373  0.567016  1
  Y  Y6  1  0.359403  0.187373  0.567016  1
  Y  Y7  1  0.792388  0.312627  0.432984  1
  Y  Y8  1  0.426078  0.750000  0.000000  1
  Y  Y9  1  0.573922  0.250000  0.000000  1
  Rh  Rh10  1  0.812279  0.573659  0.225445  1
  Rh  Rh11  1  0.586833  0.926341  0.774555  1
  Rh  Rh12  1  0.187721  0.426341  0.774555  1
  Rh  Rh13  1  0.413167  0.073659  0.225445  1
