# generated using pymatgen
data_Ba2Ga(IrO3)6
_symmetry_space_group_name_H-M   'P 1'
_cell_length_a   6.90061947
_cell_length_b   7.15568883
_cell_length_c   7.68923414
_cell_angle_alpha   92.85622989
_cell_angle_beta   95.19049746
_cell_angle_gamma   115.38449633
_symmetry_Int_Tables_number   1
_chemical_formula_structural   Ba2Ga(IrO3)6
_chemical_formula_sum   'Ba2 Ga1 Ir6 O18'
_cell_volume   339.95884669
_cell_formula_units_Z   1
loop_
 _symmetry_equiv_pos_site_id
 _symmetry_equiv_pos_as_xyz
  1  'x, y, z'
loop_
 _atom_site_type_symbol
 _atom_site_label
 _atom_site_symmetry_multiplicity
 _atom_site_fract_x
 _atom_site_fract_y
 _atom_site_fract_z
 _atom_site_occupancy
  Ba  Ba0  1  0.314529  0.682839  0.628070  1
  Ba  Ba1  1  0.683026  0.316475  0.378206  1
  Ga  Ga2  1  0.393397  0.271158  0.881267  1
  Ir  Ir3  1  0.806222  0.126059  0.814322  1
  Ir  Ir4  1  0.192808  0.874117  0.183086  1
  Ir  Ir5  1  0.605797  0.720126  0.117074  1
  Ir  Ir6  1  0.997464  0.997151  0.500292  1
  Ir  Ir7  1  0.819713  0.618836  0.805609  1
  Ir  Ir8  1  0.175319  0.376967  0.194846  1
  O  O9  1  0.924625  0.725229  0.583093  1
  O  O10  1  0.286415  0.169619  0.111205  1
  O  O11  1  0.322732  0.513417  0.988346  1
  O  O12  1  0.469770  0.553397  0.309211  1
  O  O13  1  0.490051  0.920538  0.161951  1
  O  O14  1  0.902963  0.400527  0.725753  1
  O  O15  1  0.721922  0.834888  0.890230  1
  O  O16  1  0.912769  0.232566  0.050776  1
  O  O17  1  0.689777  0.500279  0.023425  1
  O  O18  1  0.073897  0.272365  0.418737  1
  O  O19  1  0.095135  0.136832  0.746931  1
  O  O20  1  0.725296  0.996543  0.571813  1
  O  O21  1  0.097760  0.599010  0.276410  1
  O  O22  1  0.902371  0.870444  0.251450  1
  O  O23  1  0.089008  0.767552  0.946154  1
  O  O24  1  0.506879  0.076841  0.823891  1
  O  O25  1  0.269697  0.998975  0.426535  1
  O  O26  1  0.530657  0.447252  0.691315  1
