# generated using pymatgen
data_Gd3Ag2Hg3Au
_symmetry_space_group_name_H-M   'P 1'
_cell_length_a   8.02323700
_cell_length_b   8.02323670
_cell_length_c   3.86936500
_cell_angle_alpha   90.00000000
_cell_angle_beta   90.00000000
_cell_angle_gamma   119.99999713
_symmetry_Int_Tables_number   1
_chemical_formula_structural   Gd3Ag2Hg3Au
_chemical_formula_sum   'Gd3 Ag2 Hg3 Au1'
_cell_volume   215.70964742
_cell_formula_units_Z   1
loop_
 _symmetry_equiv_pos_site_id
 _symmetry_equiv_pos_as_xyz
  1  'x, y, z'
loop_
 _atom_site_type_symbol
 _atom_site_label
 _atom_site_symmetry_multiplicity
 _atom_site_fract_x
 _atom_site_fract_y
 _atom_site_fract_z
 _atom_site_occupancy
  Gd  Gd0  1  0.603118  0.008935  0.000000  1
  Gd  Gd1  1  0.991065  0.594184  0.000000  1
  Gd  Gd2  1  0.405816  0.396882  0.000000  1
  Ag  Ag3  1  0.333333  0.666667  0.500000  1
  Ag  Ag4  1  0.000000  0.000000  0.000000  1
  Hg  Hg5  1  0.266691  0.991217  0.500000  1
  Hg  Hg6  1  0.008783  0.275473  0.500000  1
  Hg  Hg7  1  0.724527  0.733309  0.500000  1
  Au  Au8  1  0.666667  0.333333  0.500000  1
