# generated using pymatgen
data_Nb10Ga4Ge2N
_symmetry_space_group_name_H-M   'P 1'
_cell_length_a   7.74401732
_cell_length_b   7.75336358
_cell_length_c   5.34034306
_cell_angle_alpha   89.96626637
_cell_angle_beta   90.01689735
_cell_angle_gamma   120.03994046
_symmetry_Int_Tables_number   1
_chemical_formula_structural   Nb10Ga4Ge2N
_chemical_formula_sum   'Nb10 Ga4 Ge2 N1'
_cell_volume   277.57557556
_cell_formula_units_Z   1
loop_
 _symmetry_equiv_pos_site_id
 _symmetry_equiv_pos_as_xyz
  1  'x, y, z'
loop_
 _atom_site_type_symbol
 _atom_site_label
 _atom_site_symmetry_multiplicity
 _atom_site_fract_x
 _atom_site_fract_y
 _atom_site_fract_z
 _atom_site_occupancy
  Nb  Nb0  1  0.000000  0.764357  0.260492  1
  Nb  Nb1  1  0.235510  0.235556  0.260353  1
  Nb  Nb2  1  0.764490  0.000045  0.260353  1
  Nb  Nb3  1  0.000000  0.234694  0.739583  1
  Nb  Nb4  1  0.765973  0.766413  0.739944  1
  Nb  Nb5  1  0.234027  0.000440  0.739944  1
  Nb  Nb6  1  0.335276  0.667136  0.000080  1
  Nb  Nb7  1  0.664724  0.331859  0.000080  1
  Nb  Nb8  1  0.665497  0.332266  0.498969  1
  Nb  Nb9  1  0.334503  0.666770  0.498969  1
  Ga  Ga10  1  0.000000  0.402087  0.243289  1
  Ga  Ga11  1  0.600665  0.599639  0.244134  1
  Ga  Ga12  1  0.399335  0.998974  0.244134  1
  Ga  Ga13  1  0.000000  0.598049  0.756738  1
  Ge  Ge14  1  0.401593  0.401892  0.757273  1
  Ge  Ge15  1  0.598407  0.000299  0.757273  1
  N  N16  1  0.000000  0.999526  0.498391  1
