# generated using pymatgen
data_Hf18FeCoRe5Mo3
_symmetry_space_group_name_H-M   'P 1'
_cell_length_a   8.46255800
_cell_length_b   8.61317421
_cell_length_c   8.60897109
_cell_angle_alpha   120.01600392
_cell_angle_beta   90.00000000
_cell_angle_gamma   90.00000000
_symmetry_Int_Tables_number   1
_chemical_formula_structural   Hf18FeCoRe5Mo3
_chemical_formula_sum   'Hf18 Fe1 Co1 Re5 Mo3'
_cell_volume   543.34629666
_cell_formula_units_Z   1
loop_
 _symmetry_equiv_pos_site_id
 _symmetry_equiv_pos_as_xyz
  1  'x, y, z'
loop_
 _atom_site_type_symbol
 _atom_site_label
 _atom_site_symmetry_multiplicity
 _atom_site_fract_x
 _atom_site_fract_y
 _atom_site_fract_z
 _atom_site_occupancy
  Hf  Hf0  1  0.559585  0.799822  0.599644  1
  Hf  Hf1  1  0.558220  0.798785  0.200328  1
  Hf  Hf2  1  0.558217  0.401530  0.200323  1
  Hf  Hf3  1  0.439782  0.201463  0.402927  1
  Hf  Hf4  1  0.440406  0.201061  0.798669  1
  Hf  Hf5  1  0.440418  0.597624  0.798675  1
  Hf  Hf6  1  0.060218  0.201463  0.402927  1
  Hf  Hf7  1  0.059594  0.201061  0.798669  1
  Hf  Hf8  1  0.059582  0.597624  0.798675  1
  Hf  Hf9  1  0.940415  0.799822  0.599644  1
  Hf  Hf10  1  0.941780  0.798785  0.200328  1
  Hf  Hf11  1  0.941783  0.401530  0.200323  1
  Hf  Hf12  1  0.750000  0.458769  0.917545  1
  Hf  Hf13  1  0.750000  0.460518  0.542968  1
  Hf  Hf14  1  0.750000  0.082448  0.542969  1
  Hf  Hf15  1  0.250000  0.541177  0.082345  1
  Hf  Hf16  1  0.250000  0.542029  0.459064  1
  Hf  Hf17  1  0.250000  0.917037  0.459065  1
  Fe  Fe18  1  0.250000  0.333685  0.667351  1
  Co  Co19  1  0.750000  0.666516  0.333059  1
  Re  Re20  1  0.750000  0.111842  0.886445  1
  Re  Re21  1  0.750000  0.774596  0.886444  1
  Re  Re22  1  0.250000  0.888443  0.776870  1
  Re  Re23  1  0.250000  0.887904  0.111878  1
  Re  Re24  1  0.250000  0.223980  0.111876  1
  Mo  Mo25  1  0.750000  0.110927  0.221877  1
  Mo  Mo26  1  0.500516  0.999777  0.999556  1
  Mo  Mo27  1  0.999484  0.999777  0.999556  1
