# generated using pymatgen
data_Ho4Si4Ru3Rh
_symmetry_space_group_name_H-M   'P 1'
_cell_length_a   4.30172300
_cell_length_b   6.96127240
_cell_length_c   7.18871815
_cell_angle_alpha   90.11821393
_cell_angle_beta   90.00000000
_cell_angle_gamma   90.00000000
_symmetry_Int_Tables_number   1
_chemical_formula_structural   Ho4Si4Ru3Rh
_chemical_formula_sum   'Ho4 Si4 Ru3 Rh1'
_cell_volume   215.26905390
_cell_formula_units_Z   1
loop_
 _symmetry_equiv_pos_site_id
 _symmetry_equiv_pos_as_xyz
  1  'x, y, z'
loop_
 _atom_site_type_symbol
 _atom_site_label
 _atom_site_symmetry_multiplicity
 _atom_site_fract_x
 _atom_site_fract_y
 _atom_site_fract_z
 _atom_site_occupancy
  Ho  Ho0  1  0.250000  0.487388  0.687676  1
  Ho  Ho1  1  0.750000  0.511383  0.312934  1
  Ho  Ho2  1  0.250000  0.993508  0.812210  1
  Ho  Ho3  1  0.750000  0.009273  0.187040  1
  Si  Si4  1  0.250000  0.300143  0.106420  1
  Si  Si5  1  0.750000  0.697685  0.887945  1
  Si  Si6  1  0.250000  0.802082  0.399754  1
  Si  Si7  1  0.750000  0.197846  0.604227  1
  Ru  Ru8  1  0.750000  0.845489  0.567272  1
  Ru  Ru9  1  0.250000  0.154025  0.432479  1
  Ru  Ru10  1  0.750000  0.347306  0.935176  1
  Rh  Rh11  1  0.250000  0.653872  0.066867  1
