# generated using pymatgen
data_SrTh7(Si3Pd)4
_symmetry_space_group_name_H-M   'P 1'
_cell_length_a   8.25652424
_cell_length_b   8.25652528
_cell_length_c   8.54312300
_cell_angle_alpha   90.00000000
_cell_angle_beta   90.00000000
_cell_angle_gamma   119.77268506
_symmetry_Int_Tables_number   1
_chemical_formula_structural   SrTh7(Si3Pd)4
_chemical_formula_sum   'Sr1 Th7 Si12 Pd4'
_cell_volume   505.51273433
_cell_formula_units_Z   1
loop_
 _symmetry_equiv_pos_site_id
 _symmetry_equiv_pos_as_xyz
  1  'x, y, z'
loop_
 _atom_site_type_symbol
 _atom_site_label
 _atom_site_symmetry_multiplicity
 _atom_site_fract_x
 _atom_site_fract_y
 _atom_site_fract_z
 _atom_site_occupancy
  Sr  Sr0  1  0.499822  0.500178  0.750000  1
  Th  Th1  1  0.500146  0.499854  0.250000  1
  Th  Th2  1  0.000261  0.500165  0.750000  1
  Th  Th3  1  0.999743  0.499881  0.250000  1
  Th  Th4  1  0.499835  0.999739  0.750000  1
  Th  Th5  1  0.500119  0.000257  0.250000  1
  Th  Th6  1  0.000022  0.999978  0.750000  1
  Th  Th7  1  0.000005  0.999995  0.250000  1
  Si  Si8  1  0.834479  0.165521  0.000723  1
  Si  Si9  1  0.165529  0.834471  0.001247  1
  Si  Si10  1  0.330687  0.163629  0.000725  1
  Si  Si11  1  0.165529  0.834471  0.498753  1
  Si  Si12  1  0.669323  0.836372  0.001241  1
  Si  Si13  1  0.834479  0.165521  0.499277  1
  Si  Si14  1  0.836371  0.669313  0.000725  1
  Si  Si15  1  0.669323  0.836372  0.498759  1
  Si  Si16  1  0.163628  0.330677  0.001241  1
  Si  Si17  1  0.330687  0.163629  0.499275  1
  Si  Si18  1  0.163628  0.330677  0.498759  1
  Si  Si19  1  0.836371  0.669313  0.499275  1
  Pd  Pd20  1  0.666874  0.333126  0.001830  1
  Pd  Pd21  1  0.333131  0.666869  0.002442  1
  Pd  Pd22  1  0.333131  0.666869  0.497558  1
  Pd  Pd23  1  0.666874  0.333126  0.498170  1
