# generated using pymatgen
data_CaYTm2(B6Os)2
_symmetry_space_group_name_H-M   'P 1'
_cell_length_a   3.62984400
_cell_length_b   9.13080635
_cell_length_c   11.53684803
_cell_angle_alpha   89.84244655
_cell_angle_beta   90.00000000
_cell_angle_gamma   90.00000000
_symmetry_Int_Tables_number   1
_chemical_formula_structural   CaYTm2(B6Os)2
_chemical_formula_sum   'Ca2 Y2 Tm4 B24 Os4'
_cell_volume   382.36895391
_cell_formula_units_Z   2
loop_
 _symmetry_equiv_pos_site_id
 _symmetry_equiv_pos_as_xyz
  1  'x, y, z'
loop_
 _atom_site_type_symbol
 _atom_site_label
 _atom_site_symmetry_multiplicity
 _atom_site_fract_x
 _atom_site_fract_y
 _atom_site_fract_z
 _atom_site_occupancy
  Ca  Ca0  1  0.000000  0.323197  0.414689  1
  Ca  Ca1  1  0.000000  0.676803  0.585311  1
  Y  Y2  1  0.000000  0.821526  0.086232  1
  Y  Y3  1  0.000000  0.178474  0.913768  1
  Tm  Tm4  1  0.000000  0.942352  0.370362  1
  Tm  Tm5  1  0.000000  0.057648  0.629639  1
  Tm  Tm6  1  0.000000  0.443020  0.129948  1
  Tm  Tm7  1  0.000000  0.556980  0.870051  1
  B  B8  1  0.500000  0.554137  0.431974  1
  B  B9  1  0.500000  0.445863  0.568026  1
  B  B10  1  0.500000  0.053866  0.067020  1
  B  B11  1  0.500000  0.946134  0.932980  1
  B  B12  1  0.500000  0.748912  0.417249  1
  B  B13  1  0.500000  0.251088  0.582751  1
  B  B14  1  0.500000  0.249112  0.081567  1
  B  B15  1  0.500000  0.750888  0.918433  1
  B  B16  1  0.500000  0.791518  0.264661  1
  B  B17  1  0.500000  0.208482  0.735339  1
  B  B18  1  0.500000  0.290614  0.233897  1
  B  B19  1  0.500000  0.709385  0.766103  1
  B  B20  1  0.500000  0.630683  0.184905  1
  B  B21  1  0.500000  0.369317  0.815095  1
  B  B22  1  0.500000  0.129987  0.313909  1
  B  B23  1  0.500000  0.870013  0.686091  1
  B  B24  1  0.500000  0.982753  0.212057  1
  B  B25  1  0.500000  0.017247  0.787943  1
  B  B26  1  0.500000  0.483446  0.287265  1
  B  B27  1  0.500000  0.516554  0.712735  1
  B  B28  1  0.500000  0.601779  0.027943  1
  B  B29  1  0.500000  0.398221  0.972057  1
  B  B30  1  0.500000  0.097973  0.472943  1
  B  B31  1  0.500000  0.902027  0.527057  1
  Os  Os32  1  0.000000  0.640210  0.317935  1
  Os  Os33  1  0.000000  0.359790  0.682065  1
  Os  Os34  1  0.000000  0.137182  0.178269  1
  Os  Os35  1  0.000000  0.862818  0.821731  1
