# generated using pymatgen
data_Tb2YbDy3(CoSn6)2
_symmetry_space_group_name_H-M   'P 1'
_cell_length_a   8.47069036
_cell_length_b   8.47069102
_cell_length_c   13.13398801
_cell_angle_alpha   90.01450928
_cell_angle_beta   89.98548983
_cell_angle_gamma   148.53451784
_symmetry_Int_Tables_number   1
_chemical_formula_structural   Tb2YbDy3(CoSn6)2
_chemical_formula_sum   'Tb2 Yb1 Dy3 Co2 Sn12'
_cell_volume   491.91730649
_cell_formula_units_Z   1
loop_
 _symmetry_equiv_pos_site_id
 _symmetry_equiv_pos_as_xyz
  1  'x, y, z'
loop_
 _atom_site_type_symbol
 _atom_site_label
 _atom_site_symmetry_multiplicity
 _atom_site_fract_x
 _atom_site_fract_y
 _atom_site_fract_z
 _atom_site_occupancy
  Tb  Tb0  1  0.898535  0.101465  0.093991  1
  Tb  Tb1  1  0.101282  0.898718  0.594627  1
  Yb  Yb2  1  0.899279  0.100721  0.403636  1
  Dy  Dy3  1  0.900823  0.099177  0.752093  1
  Dy  Dy4  1  0.100864  0.899136  0.906358  1
  Dy  Dy5  1  0.099602  0.900398  0.249238  1
  Co  Co6  1  0.298951  0.701049  0.250246  1
  Co  Co7  1  0.700154  0.299846  0.749716  1
  Sn  Sn8  1  0.757552  0.242448  0.572103  1
  Sn  Sn9  1  0.428578  0.571422  0.576937  1
  Sn  Sn10  1  0.572657  0.427343  0.423649  1
  Sn  Sn11  1  0.734134  0.265866  0.249008  1
  Sn  Sn12  1  0.265341  0.734659  0.750406  1
  Sn  Sn13  1  0.243302  0.756698  0.071430  1
  Sn  Sn14  1  0.243763  0.756237  0.428756  1
  Sn  Sn15  1  0.571844  0.428156  0.075314  1
  Sn  Sn16  1  0.454116  0.545884  0.248410  1
  Sn  Sn17  1  0.545966  0.454034  0.750849  1
  Sn  Sn18  1  0.756226  0.243774  0.928112  1
  Sn  Sn19  1  0.427034  0.572966  0.925121  1
