# generated using pymatgen
data_Dy2Pa2Ge6Ir7
_symmetry_space_group_name_H-M   'P 1'
_cell_length_a   7.29716977
_cell_length_b   7.29716914
_cell_length_c   7.32813583
_cell_angle_alpha   109.40754916
_cell_angle_beta   109.40755213
_cell_angle_gamma   109.42721122
_symmetry_Int_Tables_number   1
_chemical_formula_structural   Dy2Pa2Ge6Ir7
_chemical_formula_sum   'Dy2 Pa2 Ge6 Ir7'
_cell_volume   301.02008766
_cell_formula_units_Z   1
loop_
 _symmetry_equiv_pos_site_id
 _symmetry_equiv_pos_as_xyz
  1  'x, y, z'
loop_
 _atom_site_type_symbol
 _atom_site_label
 _atom_site_symmetry_multiplicity
 _atom_site_fract_x
 _atom_site_fract_y
 _atom_site_fract_z
 _atom_site_occupancy
  Dy  Dy0  1  0.000000  0.500000  0.000000  1
  Dy  Dy1  1  0.500000  0.000000  0.000000  1
  Pa  Pa2  1  0.000000  0.000000  0.500000  1
  Pa  Pa3  1  0.500000  0.500000  0.500000  1
  Ge  Ge4  1  0.683392  0.683392  0.000000  1
  Ge  Ge5  1  0.317396  0.994795  0.312191  1
  Ge  Ge6  1  0.994795  0.317396  0.312191  1
  Ge  Ge7  1  0.316608  0.316608  0.000000  1
  Ge  Ge8  1  0.682604  0.005205  0.687809  1
  Ge  Ge9  1  0.005205  0.682604  0.687809  1
  Ir  Ir10  1  0.750000  0.250000  0.500000  1
  Ir  Ir11  1  0.749921  0.505110  0.255031  1
  Ir  Ir12  1  0.494890  0.250079  0.744969  1
  Ir  Ir13  1  0.250079  0.494890  0.744969  1
  Ir  Ir14  1  0.250000  0.750000  0.500000  1
  Ir  Ir15  1  0.505110  0.749921  0.255031  1
  Ir  Ir16  1  0.000000  0.000000  0.000000  1
