# generated using pymatgen
data_Th5GeSb3
_symmetry_space_group_name_H-M   'P 1'
_cell_length_a   9.52208000
_cell_length_b   9.52207898
_cell_length_c   6.52473300
_cell_angle_alpha   90.00000000
_cell_angle_beta   90.00000000
_cell_angle_gamma   120.00000354
_symmetry_Int_Tables_number   1
_chemical_formula_structural   Th5GeSb3
_chemical_formula_sum   'Th10 Ge2 Sb6'
_cell_volume   512.33846883
_cell_formula_units_Z   2
loop_
 _symmetry_equiv_pos_site_id
 _symmetry_equiv_pos_as_xyz
  1  'x, y, z'
loop_
 _atom_site_type_symbol
 _atom_site_label
 _atom_site_symmetry_multiplicity
 _atom_site_fract_x
 _atom_site_fract_y
 _atom_site_fract_z
 _atom_site_occupancy
  Th  Th0  1  0.666667  0.333333  0.000000  1
  Th  Th1  1  0.333333  0.666667  0.000000  1
  Th  Th2  1  0.333333  0.666667  0.500000  1
  Th  Th3  1  0.666667  0.333333  0.500000  1
  Th  Th4  1  0.736729  0.736729  0.750000  1
  Th  Th5  1  0.263271  0.000000  0.750000  1
  Th  Th6  1  0.000000  0.263271  0.750000  1
  Th  Th7  1  0.263271  0.263271  0.250000  1
  Th  Th8  1  0.736729  0.000000  0.250000  1
  Th  Th9  1  0.000000  0.736729  0.250000  1
  Ge  Ge10  1  0.000000  0.000000  0.000000  1
  Ge  Ge11  1  0.000000  0.000000  0.500000  1
  Sb  Sb12  1  0.387694  0.387694  0.750000  1
  Sb  Sb13  1  0.612306  0.000000  0.750000  1
  Sb  Sb14  1  0.000000  0.612306  0.750000  1
  Sb  Sb15  1  0.612306  0.612306  0.250000  1
  Sb  Sb16  1  0.387694  0.000000  0.250000  1
  Sb  Sb17  1  0.000000  0.387694  0.250000  1
