# generated using pymatgen
data_Al6CoCu2Ni
_symmetry_space_group_name_H-M   'P 1'
_cell_length_a   4.09464400
_cell_length_b   4.09464387
_cell_length_c   9.84712300
_cell_angle_alpha   90.00000000
_cell_angle_beta   90.00000000
_cell_angle_gamma   120.00001718
_symmetry_Int_Tables_number   1
_chemical_formula_structural   Al6CoCu2Ni
_chemical_formula_sum   'Al6 Co1 Cu2 Ni1'
_cell_volume   142.97898302
_cell_formula_units_Z   1
loop_
 _symmetry_equiv_pos_site_id
 _symmetry_equiv_pos_as_xyz
  1  'x, y, z'
loop_
 _atom_site_type_symbol
 _atom_site_label
 _atom_site_symmetry_multiplicity
 _atom_site_fract_x
 _atom_site_fract_y
 _atom_site_fract_z
 _atom_site_occupancy
  Al  Al0  1  0.666667  0.333333  0.185520  1
  Al  Al1  1  0.666667  0.333333  0.679372  1
  Al  Al2  1  0.000000  0.000000  0.328399  1
  Al  Al3  1  0.000000  0.000000  0.826698  1
  Al  Al4  1  0.333333  0.666667  0.988233  1
  Al  Al5  1  0.333333  0.666667  0.475024  1
  Co  Co6  1  0.666667  0.333333  0.431706  1
  Cu  Cu7  1  0.000000  0.000000  0.076524  1
  Cu  Cu8  1  0.000000  0.000000  0.577315  1
  Ni  Ni9  1  0.666667  0.333333  0.931207  1
