# generated using pymatgen
data_Se2IF18
_symmetry_space_group_name_H-M   'P 1'
_cell_length_a   9.16790102
_cell_length_b   9.16790006
_cell_length_c   5.43949200
_cell_angle_alpha   85.44756376
_cell_angle_beta   85.44756206
_cell_angle_gamma   60.91393340
_symmetry_Int_Tables_number   1
_chemical_formula_structural   Se2IF18
_chemical_formula_sum   'Se2 I1 F18'
_cell_volume   397.83799985
_cell_formula_units_Z   1
loop_
 _symmetry_equiv_pos_site_id
 _symmetry_equiv_pos_as_xyz
  1  'x, y, z'
loop_
 _atom_site_type_symbol
 _atom_site_label
 _atom_site_symmetry_multiplicity
 _atom_site_fract_x
 _atom_site_fract_y
 _atom_site_fract_z
 _atom_site_occupancy
  Se  Se0  1  0.331567  0.331567  0.590382  1
  Se  Se1  1  0.999994  0.999994  0.999757  1
  I  I2  1  0.668434  0.668434  0.409615  1
  F  F3  1  0.255605  0.520037  0.418569  1
  F  F4  1  0.932888  0.932888  0.271703  1
  F  F5  1  0.067161  0.067161  0.728316  1
  F  F6  1  0.805773  0.070212  0.879369  1
  F  F7  1  0.929887  0.194164  0.120762  1
  F  F8  1  0.194164  0.929887  0.120762  1
  F  F9  1  0.070212  0.805773  0.879369  1
  F  F10  1  0.459984  0.752519  0.599458  1
  F  F11  1  0.752519  0.459984  0.599458  1
  F  F12  1  0.254954  0.254954  0.380692  1
  F  F13  1  0.753144  0.753144  0.641581  1
  F  F14  1  0.408159  0.408159  0.799991  1
  F  F15  1  0.583696  0.583696  0.177849  1
  F  F16  1  0.407569  0.143103  0.762259  1
  F  F17  1  0.876805  0.584344  0.219640  1
  F  F18  1  0.584344  0.876805  0.219640  1
  F  F19  1  0.143103  0.407569  0.762259  1
  F  F20  1  0.520037  0.255605  0.418569  1
