# generated using pymatgen
data_Rb16HfZr3Se16
_symmetry_space_group_name_H-M   'P 1'
_cell_length_a   8.85160401
_cell_length_b   10.67285400
_cell_length_c   15.55298602
_cell_angle_alpha   90.00000000
_cell_angle_beta   89.99391571
_cell_angle_gamma   90.00000000
_symmetry_Int_Tables_number   1
_chemical_formula_structural   Rb16HfZr3Se16
_chemical_formula_sum   'Rb16 Hf1 Zr3 Se16'
_cell_volume   1469.31977869
_cell_formula_units_Z   1
loop_
 _symmetry_equiv_pos_site_id
 _symmetry_equiv_pos_as_xyz
  1  'x, y, z'
loop_
 _atom_site_type_symbol
 _atom_site_label
 _atom_site_symmetry_multiplicity
 _atom_site_fract_x
 _atom_site_fract_y
 _atom_site_fract_z
 _atom_site_occupancy
  Rb  Rb0  1  0.999998  0.000092  0.000009  1
  Rb  Rb1  1  0.500217  0.999800  0.500108  1
  Rb  Rb2  1  0.999998  0.499908  0.000009  1
  Rb  Rb3  1  0.500217  0.500200  0.500108  1
  Rb  Rb4  1  0.987732  0.750000  0.425354  1
  Rb  Rb5  1  0.487960  0.250000  0.074840  1
  Rb  Rb6  1  0.011832  0.250000  0.574904  1
  Rb  Rb7  1  0.512180  0.750000  0.925024  1
  Rb  Rb8  1  0.841237  0.053824  0.275481  1
  Rb  Rb9  1  0.341247  0.946157  0.224510  1
  Rb  Rb10  1  0.158732  0.554056  0.724407  1
  Rb  Rb11  1  0.658774  0.446296  0.775456  1
  Rb  Rb12  1  0.158732  0.945944  0.724407  1
  Rb  Rb13  1  0.658774  0.053704  0.775456  1
  Rb  Rb14  1  0.841237  0.446176  0.275481  1
  Rb  Rb15  1  0.341247  0.553843  0.224510  1
  Hf  Hf16  1  0.758164  0.750000  0.666312  1
  Zr  Zr17  1  0.241911  0.250000  0.333721  1
  Zr  Zr18  1  0.741908  0.750000  0.166289  1
  Zr  Zr19  1  0.258101  0.250000  0.833695  1
  Se  Se20  1  0.969173  0.250000  0.825543  1
  Se  Se21  1  0.530891  0.250000  0.325550  1
  Se  Se22  1  0.472020  0.750000  0.674462  1
  Se  Se23  1  0.030884  0.750000  0.174408  1
  Se  Se24  1  0.652367  0.553888  0.089313  1
  Se  Se25  1  0.152279  0.446070  0.410698  1
  Se  Se26  1  0.347587  0.053856  0.910677  1
  Se  Se27  1  0.846867  0.944200  0.590093  1
  Se  Se28  1  0.347587  0.446144  0.910677  1
  Se  Se29  1  0.846867  0.555800  0.590093  1
  Se  Se30  1  0.652367  0.946112  0.089313  1
  Se  Se31  1  0.152279  0.053930  0.410698  1
  Se  Se32  1  0.628340  0.750000  0.318370  1
  Se  Se33  1  0.128345  0.250000  0.181573  1
  Se  Se34  1  0.371523  0.250000  0.681553  1
  Se  Se35  1  0.870428  0.750000  0.816894  1
