# generated using pymatgen
data_Nd2Al20Re3Pd
_symmetry_space_group_name_H-M   'P 1'
_cell_length_a   6.94439440
_cell_length_b   6.95867671
_cell_length_c   9.27148175
_cell_angle_alpha   90.23487044
_cell_angle_beta   90.55003810
_cell_angle_gamma   96.65379344
_symmetry_Int_Tables_number   1
_chemical_formula_structural   Nd2Al20Re3Pd
_chemical_formula_sum   'Nd2 Al20 Re3 Pd1'
_cell_volume   444.98879175
_cell_formula_units_Z   1
loop_
 _symmetry_equiv_pos_site_id
 _symmetry_equiv_pos_as_xyz
  1  'x, y, z'
loop_
 _atom_site_type_symbol
 _atom_site_label
 _atom_site_symmetry_multiplicity
 _atom_site_fract_x
 _atom_site_fract_y
 _atom_site_fract_z
 _atom_site_occupancy
  Nd  Nd0  1  0.877703  0.130044  0.750106  1
  Nd  Nd1  1  0.122297  0.869956  0.249894  1
  Al  Al2  1  0.590891  0.858254  0.251766  1
  Al  Al3  1  0.781641  0.519148  0.248065  1
  Al  Al4  1  0.156619  0.837808  0.895846  1
  Al  Al5  1  0.409109  0.141746  0.748234  1
  Al  Al6  1  0.624309  0.384968  0.949551  1
  Al  Al7  1  0.839672  0.157872  0.400388  1
  Al  Al8  1  0.775529  0.772060  0.002294  1
  Al  Al9  1  0.860909  0.592391  0.748900  1
  Al  Al10  1  0.843381  0.162192  0.104154  1
  Al  Al11  1  0.218359  0.480852  0.751935  1
  Al  Al12  1  0.160328  0.842128  0.599612  1
  Al  Al13  1  0.775773  0.774641  0.497771  1
  Al  Al14  1  0.479982  0.222205  0.257423  1
  Al  Al15  1  0.624111  0.378036  0.545276  1
  Al  Al16  1  0.224227  0.225359  0.502229  1
  Al  Al17  1  0.375889  0.621964  0.454724  1
  Al  Al18  1  0.139091  0.407609  0.251100  1
  Al  Al19  1  0.520018  0.777795  0.742577  1
  Al  Al20  1  0.375691  0.615032  0.050449  1
  Al  Al21  1  0.224471  0.227940  0.997706  1
  Re  Re22  1  0.500000  0.000000  0.500000  1
  Re  Re23  1  0.000000  0.500000  0.000000  1
  Re  Re24  1  0.000000  0.500000  0.500000  1
  Pd  Pd25  1  0.500000  0.000000  0.000000  1
