# generated using pymatgen
data_HoEr9(Zn2Bi)2
_symmetry_space_group_name_H-M   'P 1'
_cell_length_a   8.55876721
_cell_length_b   8.55876728
_cell_length_c   8.56409004
_cell_angle_alpha   123.58103299
_cell_angle_beta   123.58103210
_cell_angle_gamma   83.86570540
_symmetry_Int_Tables_number   1
_chemical_formula_structural   HoEr9(Zn2Bi)2
_chemical_formula_sum   'Ho1 Er9 Zn4 Bi2'
_cell_volume   417.11870816
_cell_formula_units_Z   1
loop_
 _symmetry_equiv_pos_site_id
 _symmetry_equiv_pos_as_xyz
  1  'x, y, z'
loop_
 _atom_site_type_symbol
 _atom_site_label
 _atom_site_symmetry_multiplicity
 _atom_site_fract_x
 _atom_site_fract_y
 _atom_site_fract_z
 _atom_site_occupancy
  Ho  Ho0  1  0.509904  0.009904  0.804484  1
  Er  Er1  1  0.500067  0.500159  0.000091  1
  Er  Er2  1  0.000159  0.000067  0.000091  1
  Er  Er3  1  0.205509  0.705509  0.195554  1
  Er  Er4  1  0.009824  0.205715  0.499912  1
  Er  Er5  1  0.705715  0.509824  0.499912  1
  Er  Er6  1  0.489949  0.989949  0.195850  1
  Er  Er7  1  0.794321  0.294321  0.804325  1
  Er  Er8  1  0.990111  0.794155  0.499986  1
  Er  Er9  1  0.294155  0.490111  0.499986  1
  Zn  Zn10  1  0.139342  0.639342  0.778684  1
  Zn  Zn11  1  0.860859  0.360859  0.221620  1
  Zn  Zn12  1  0.639514  0.860612  0.499774  1
  Zn  Zn13  1  0.360612  0.139514  0.499774  1
  Bi  Bi14  1  0.249893  0.250065  0.999980  1
  Bi  Bi15  1  0.750065  0.749893  0.999980  1
