# generated using pymatgen
data_Np2Zn6Si2Ge
_symmetry_space_group_name_H-M   'P 1'
_cell_length_a   7.54958610
_cell_length_b   7.55595654
_cell_length_c   3.96577500
_cell_angle_alpha   90.00000000
_cell_angle_beta   90.00000000
_cell_angle_gamma   120.02790358
_symmetry_Int_Tables_number   1
_chemical_formula_structural   Np2Zn6Si2Ge
_chemical_formula_sum   'Np2 Zn6 Si2 Ge1'
_cell_volume   195.86151740
_cell_formula_units_Z   1
loop_
 _symmetry_equiv_pos_site_id
 _symmetry_equiv_pos_as_xyz
  1  'x, y, z'
loop_
 _atom_site_type_symbol
 _atom_site_label
 _atom_site_symmetry_multiplicity
 _atom_site_fract_x
 _atom_site_fract_y
 _atom_site_fract_z
 _atom_site_occupancy
  Np  Np0  1  0.662560  0.332233  0.000000  1
  Np  Np1  1  0.337440  0.669675  0.000000  1
  Zn  Zn2  1  0.709031  0.995533  0.500000  1
  Zn  Zn3  1  0.000000  0.720742  0.500000  1
  Zn  Zn4  1  0.194200  0.998702  0.000000  1
  Zn  Zn5  1  0.805800  0.804502  0.000000  1
  Zn  Zn6  1  0.290969  0.286502  0.500000  1
  Zn  Zn7  1  0.000000  0.189328  0.000000  1
  Si  Si8  1  0.389215  0.999926  0.500000  1
  Si  Si9  1  0.610785  0.610711  0.500000  1
  Ge  Ge10  1  0.000000  0.392144  0.500000  1
