# generated using pymatgen
data_Cs3PO4F
_symmetry_space_group_name_H-M   'P 1'
_cell_length_a   8.44667081
_cell_length_b   8.44666983
_cell_length_c   8.44666994
_cell_angle_alpha   122.39008555
_cell_angle_beta   122.39007859
_cell_angle_gamma   85.90782314
_symmetry_Int_Tables_number   1
_chemical_formula_structural   Cs3PO4F
_chemical_formula_sum   'Cs6 P2 O8 F2'
_cell_volume   409.59663092
_cell_formula_units_Z   2
loop_
 _symmetry_equiv_pos_site_id
 _symmetry_equiv_pos_as_xyz
  1  'x, y, z'
loop_
 _atom_site_type_symbol
 _atom_site_label
 _atom_site_symmetry_multiplicity
 _atom_site_fract_x
 _atom_site_fract_y
 _atom_site_fract_z
 _atom_site_occupancy
  Cs  Cs0  1  0.191511  0.691511  0.883021  1
  Cs  Cs1  1  0.750000  0.750000  0.000000  1
  Cs  Cs2  1  0.308489  0.191511  0.500000  1
  Cs  Cs3  1  0.808489  0.308489  0.116979  1
  Cs  Cs4  1  0.691511  0.808489  0.500000  1
  Cs  Cs5  1  0.250000  0.250000  0.000000  1
  P  P6  1  0.750000  0.250000  0.500000  1
  P  P7  1  0.250000  0.750000  0.500000  1
  O  O8  1  0.066339  0.782171  0.500000  1
  O  O9  1  0.433661  0.933661  0.715831  1
  O  O10  1  0.782171  0.282171  0.715831  1
  O  O11  1  0.217829  0.717829  0.284169  1
  O  O12  1  0.282171  0.566339  0.500000  1
  O  O13  1  0.566339  0.066339  0.284169  1
  O  O14  1  0.717829  0.433661  0.500000  1
  O  O15  1  0.933661  0.217829  0.500000  1
  F  F16  1  0.500000  0.500000  0.000000  1
  F  F17  1  0.000000  0.000000  0.000000  1
