# generated using pymatgen
data_DySc4P12Ir12Ru7
_symmetry_space_group_name_H-M   'P 1'
_cell_length_a   12.55277123
_cell_length_b   12.51190918
_cell_length_c   3.93245200
_cell_angle_alpha   90.00000000
_cell_angle_beta   90.00000000
_cell_angle_gamma   119.77053658
_symmetry_Int_Tables_number   1
_chemical_formula_structural   DySc4P12Ir12Ru7
_chemical_formula_sum   'Dy1 Sc4 P12 Ir12 Ru7'
_cell_volume   536.11358143
_cell_formula_units_Z   1
loop_
 _symmetry_equiv_pos_site_id
 _symmetry_equiv_pos_as_xyz
  1  'x, y, z'
loop_
 _atom_site_type_symbol
 _atom_site_label
 _atom_site_symmetry_multiplicity
 _atom_site_fract_x
 _atom_site_fract_y
 _atom_site_fract_z
 _atom_site_occupancy
  Dy  Dy0  1  0.333596  0.666993  0.000000  1
  Sc  Sc1  1  0.667903  0.331465  0.000000  1
  Sc  Sc2  1  0.816451  0.001825  0.500000  1
  Sc  Sc3  1  0.180418  0.182323  0.500000  1
  Sc  Sc4  1  0.000066  0.818204  0.500000  1
  P  P5  1  0.641794  0.004143  0.000000  1
  P  P6  1  0.361594  0.361562  0.000000  1
  P  P7  1  0.000202  0.638602  0.000000  1
  P  P8  1  0.689105  0.517706  0.500000  1
  P  P9  1  0.828983  0.307679  0.500000  1
  P  P10  1  0.313236  0.834526  0.500000  1
  P  P11  1  0.521111  0.686353  0.500000  1
  P  P12  1  0.178546  0.002607  0.000000  1
  P  P13  1  0.822456  0.821721  0.000000  1
  P  P14  1  0.995272  0.177413  0.000000  1
  P  P15  1  0.481379  0.168871  0.500000  1
  P  P16  1  0.166399  0.479509  0.500000  1
  Ir  Ir17  1  0.629803  0.810972  0.000000  1
  Ir  Ir18  1  0.181346  0.370452  0.000000  1
  Ir  Ir19  1  0.373330  0.182674  0.000000  1
  Ir  Ir20  1  0.189062  0.819914  0.000000  1
  Ir  Ir21  1  0.808994  0.625774  0.000000  1
  Ir  Ir22  1  0.867167  0.504379  0.500000  1
  Ir  Ir23  1  0.495023  0.360952  0.500000  1
  Ir  Ir24  1  0.637541  0.130200  0.500000  1
  Ir  Ir25  1  0.131138  0.641332  0.500000  1
  Ir  Ir26  1  0.359765  0.490027  0.500000  1
  Ir  Ir27  1  0.508248  0.867064  0.500000  1
  Ir  Ir28  1  0.999439  0.000102  0.000000  1
  Ru  Ru29  1  0.716145  0.714270  0.500000  1
  Ru  Ru30  1  0.000862  0.285334  0.500000  1
  Ru  Ru31  1  0.452923  0.996643  0.000000  1
  Ru  Ru32  1  0.545121  0.546138  0.000000  1
  Ru  Ru33  1  0.002172  0.455352  0.000000  1
  Ru  Ru34  1  0.818476  0.195106  0.000000  1
  Ru  Ru35  1  0.284933  0.001814  0.500000  1
