# generated using pymatgen
data_Ca3Tb4SmHg8
_symmetry_space_group_name_H-M   'P 1'
_cell_length_a   7.52006801
_cell_length_b   7.51079400
_cell_length_c   7.49742800
_cell_angle_alpha   90.00000000
_cell_angle_beta   90.00217905
_cell_angle_gamma   90.00000000
_symmetry_Int_Tables_number   1
_chemical_formula_structural   Ca3Tb4SmHg8
_chemical_formula_sum   'Ca3 Tb4 Sm1 Hg8'
_cell_volume   423.46734122
_cell_formula_units_Z   1
loop_
 _symmetry_equiv_pos_site_id
 _symmetry_equiv_pos_as_xyz
  1  'x, y, z'
loop_
 _atom_site_type_symbol
 _atom_site_label
 _atom_site_symmetry_multiplicity
 _atom_site_fract_x
 _atom_site_fract_y
 _atom_site_fract_z
 _atom_site_occupancy
  Ca  Ca0  1  0.249508  0.750000  0.499871  1
  Ca  Ca1  1  0.750489  0.250000  0.500134  1
  Ca  Ca2  1  0.250501  0.750000  0.999864  1
  Tb  Tb3  1  0.250927  0.250000  0.999998  1
  Tb  Tb4  1  0.749083  0.750000  0.999995  1
  Tb  Tb5  1  0.750903  0.750000  0.499986  1
  Tb  Tb6  1  0.249134  0.250000  0.500017  1
  Sm  Sm7  1  0.749415  0.250000  0.000125  1
  Hg  Hg8  1  0.999846  0.499836  0.248627  1
  Hg  Hg9  1  0.999846  0.000166  0.248627  1
  Hg  Hg10  1  0.500618  0.000458  0.251473  1
  Hg  Hg11  1  0.500618  0.499542  0.251473  1
  Hg  Hg12  1  0.500169  0.499826  0.748536  1
  Hg  Hg13  1  0.500169  0.000176  0.748536  1
  Hg  Hg14  1  0.999386  0.000438  0.751370  1
  Hg  Hg15  1  0.999386  0.499562  0.751370  1
