# generated using pymatgen
data_Sc5Ga(TeO6)3
_symmetry_space_group_name_H-M   'P 1'
_cell_length_a   8.78356200
_cell_length_b   8.79852391
_cell_length_c   4.83325900
_cell_angle_alpha   89.69249719
_cell_angle_beta   90.00000000
_cell_angle_gamma   119.94377128
_symmetry_Int_Tables_number   1
_chemical_formula_structural   Sc5Ga(TeO6)3
_chemical_formula_sum   'Sc5 Ga1 Te3 O18'
_cell_volume   323.65971775
_cell_formula_units_Z   1
loop_
 _symmetry_equiv_pos_site_id
 _symmetry_equiv_pos_as_xyz
  1  'x, y, z'
loop_
 _atom_site_type_symbol
 _atom_site_label
 _atom_site_symmetry_multiplicity
 _atom_site_fract_x
 _atom_site_fract_y
 _atom_site_fract_z
 _atom_site_occupancy
  Sc  Sc0  1  0.630343  0.000000  0.000000  1
  Sc  Sc1  1  0.708460  0.708838  0.500104  1
  Sc  Sc2  1  0.999402  0.627872  0.998873  1
  Sc  Sc3  1  0.371530  0.372128  0.001127  1
  Sc  Sc4  1  0.999622  0.291162  0.499896  1
  Ga  Ga5  1  0.298507  0.000000  0.500000  1
  Te  Te6  1  0.006246  0.000000  0.000000  1
  Te  Te7  1  0.661866  0.329572  0.496430  1
  Te  Te8  1  0.332293  0.670428  0.503570  1
  O  O9  1  0.881437  0.087157  0.222300  1
  O  O10  1  0.457815  0.583667  0.728569  1
  O  O11  1  0.221916  0.776183  0.284449  1
  O  O12  1  0.766095  0.221426  0.722429  1
  O  O13  1  0.544669  0.778574  0.277571  1
  O  O14  1  0.231823  0.458843  0.277361  1
  O  O15  1  0.122129  0.542327  0.728407  1
  O  O16  1  0.579802  0.457673  0.271593  1
  O  O17  1  0.537050  0.119062  0.272962  1
  O  O18  1  0.874148  0.416333  0.271431  1
  O  O19  1  0.445733  0.223817  0.715551  1
  O  O20  1  0.214019  0.115122  0.234664  1
  O  O21  1  0.907159  0.783369  0.207627  1
  O  O22  1  0.123791  0.216631  0.792373  1
  O  O23  1  0.794281  0.912843  0.777700  1
  O  O24  1  0.098898  0.884878  0.765336  1
  O  O25  1  0.417988  0.880938  0.727038  1
  O  O26  1  0.772979  0.541157  0.722639  1
