# generated using pymatgen
data_Al4NiOs2Pt
_symmetry_space_group_name_H-M   'P 1'
_cell_length_a   3.04637500
_cell_length_b   3.04637500
_cell_length_c   11.73016800
_cell_angle_alpha   90.00000000
_cell_angle_beta   90.00000000
_cell_angle_gamma   90.00000000
_symmetry_Int_Tables_number   1
_chemical_formula_structural   Al4NiOs2Pt
_chemical_formula_sum   'Al4 Ni1 Os2 Pt1'
_cell_volume   108.86065862
_cell_formula_units_Z   1
loop_
 _symmetry_equiv_pos_site_id
 _symmetry_equiv_pos_as_xyz
  1  'x, y, z'
loop_
 _atom_site_type_symbol
 _atom_site_label
 _atom_site_symmetry_multiplicity
 _atom_site_fract_x
 _atom_site_fract_y
 _atom_site_fract_z
 _atom_site_occupancy
  Al  Al0  1  0.000000  0.000000  0.863542  1
  Al  Al1  1  0.000000  0.000000  0.136458  1
  Al  Al2  1  0.000000  0.000000  0.379791  1
  Al  Al3  1  0.000000  0.000000  0.620209  1
  Ni  Ni4  1  0.500000  0.500000  0.500000  1
  Os  Os5  1  0.500000  0.500000  0.257816  1
  Os  Os6  1  0.500000  0.500000  0.742184  1
  Pt  Pt7  1  0.500000  0.500000  0.000000  1
