# generated using pymatgen
data_Tb15Pa(InIr)4
_symmetry_space_group_name_H-M   'P 1'
_cell_length_a   9.70846039
_cell_length_b   9.77382431
_cell_length_c   9.70847101
_cell_angle_alpha   60.21771243
_cell_angle_beta   59.99608931
_cell_angle_gamma   60.21789093
_symmetry_Int_Tables_number   1
_chemical_formula_structural   Tb15Pa(InIr)4
_chemical_formula_sum   'Tb15 Pa1 In4 Ir4'
_cell_volume   653.52126126
_cell_formula_units_Z   1
loop_
 _symmetry_equiv_pos_site_id
 _symmetry_equiv_pos_as_xyz
  1  'x, y, z'
loop_
 _atom_site_type_symbol
 _atom_site_label
 _atom_site_symmetry_multiplicity
 _atom_site_fract_x
 _atom_site_fract_y
 _atom_site_fract_z
 _atom_site_occupancy
  Tb  Tb0  1  0.940961  0.938548  0.560244  1
  Tb  Tb1  1  0.940634  0.556591  0.940632  1
  Tb  Tb2  1  0.309225  0.690690  0.309224  1
  Tb  Tb3  1  0.940647  0.556568  0.562146  1
  Tb  Tb4  1  0.311810  0.311983  0.688111  1
  Tb  Tb5  1  0.099363  0.100341  0.099363  1
  Tb  Tb6  1  0.562146  0.556569  0.940646  1
  Tb  Tb7  1  0.099370  0.100349  0.700940  1
  Tb  Tb8  1  0.688108  0.311983  0.688107  1
  Tb  Tb9  1  0.690850  0.690712  0.309224  1
  Tb  Tb10  1  0.688112  0.311983  0.311809  1
  Tb  Tb11  1  0.309226  0.690712  0.690849  1
  Tb  Tb12  1  0.560257  0.938534  0.560259  1
  Tb  Tb13  1  0.700941  0.100349  0.099370  1
  Tb  Tb14  1  0.560242  0.938548  0.940961  1
  Pa  Pa15  1  0.091716  0.724866  0.091715  1
  In  In16  1  0.330031  0.337256  0.330031  1
  In  In17  1  0.002668  0.337307  0.329901  1
  In  In18  1  0.333975  0.998228  0.333975  1
  In  In19  1  0.329901  0.337307  0.002667  1
  Ir  Ir20  1  0.898562  0.882296  0.898564  1
  Ir  Ir21  1  0.898598  0.882266  0.320583  1
  Ir  Ir22  1  0.320581  0.882262  0.898601  1
  Ir  Ir23  1  0.892076  0.323749  0.892077  1
