# generated using pymatgen
data_Yb3Se2(IO3)2
_symmetry_space_group_name_H-M   'P 1'
_cell_length_a   6.87054811
_cell_length_b   6.87054888
_cell_length_c   14.36293806
_cell_angle_alpha   87.50276711
_cell_angle_beta   87.50276576
_cell_angle_gamma   47.09666513
_symmetry_Int_Tables_number   1
_chemical_formula_structural   Yb3Se2(IO3)2
_chemical_formula_sum   'Yb6 Se4 I4 O12'
_cell_volume   496.07184804
_cell_formula_units_Z   2
loop_
 _symmetry_equiv_pos_site_id
 _symmetry_equiv_pos_as_xyz
  1  'x, y, z'
loop_
 _atom_site_type_symbol
 _atom_site_label
 _atom_site_symmetry_multiplicity
 _atom_site_fract_x
 _atom_site_fract_y
 _atom_site_fract_z
 _atom_site_occupancy
  Yb  Yb0  1  0.579171  0.420829  0.250000  1
  Yb  Yb1  1  0.420829  0.579171  0.750000  1
  Yb  Yb2  1  0.800660  0.780999  0.333440  1
  Yb  Yb3  1  0.219001  0.199340  0.166560  1
  Yb  Yb4  1  0.199340  0.219001  0.666560  1
  Yb  Yb5  1  0.780999  0.800660  0.833440  1
  Se  Se6  1  0.888589  0.914675  0.629498  1
  Se  Se7  1  0.085325  0.111411  0.870502  1
  Se  Se8  1  0.111411  0.085325  0.370502  1
  Se  Se9  1  0.914675  0.888589  0.129498  1
  I  I10  1  0.341956  0.366963  0.449445  1
  I  I11  1  0.633037  0.658044  0.050555  1
  I  I12  1  0.658044  0.633037  0.550555  1
  I  I13  1  0.366963  0.341956  0.949445  1
  O  O14  1  0.937856  0.376371  0.299248  1
  O  O15  1  0.623629  0.062144  0.200752  1
  O  O16  1  0.062144  0.623629  0.700752  1
  O  O17  1  0.376371  0.937856  0.799248  1
  O  O18  1  0.972765  0.086575  0.152170  1
  O  O19  1  0.913425  0.027235  0.347830  1
  O  O20  1  0.027235  0.913425  0.847830  1
  O  O21  1  0.086575  0.972765  0.652170  1
  O  O22  1  0.127046  0.606665  0.202936  1
  O  O23  1  0.393335  0.872954  0.297064  1
  O  O24  1  0.872954  0.393335  0.797064  1
  O  O25  1  0.606665  0.127046  0.702936  1
