# generated using pymatgen
data_Y7Th3(Sn3C)2
_symmetry_space_group_name_H-M   'P 1'
_cell_length_a   9.13305443
_cell_length_b   9.10830682
_cell_length_c   6.57658800
_cell_angle_alpha   90.00000000
_cell_angle_beta   90.00000000
_cell_angle_gamma   120.37152506
_symmetry_Int_Tables_number   1
_chemical_formula_structural   Y7Th3(Sn3C)2
_chemical_formula_sum   'Y7 Th3 Sn6 C2'
_cell_volume   472.00530307
_cell_formula_units_Z   1
loop_
 _symmetry_equiv_pos_site_id
 _symmetry_equiv_pos_as_xyz
  1  'x, y, z'
loop_
 _atom_site_type_symbol
 _atom_site_label
 _atom_site_symmetry_multiplicity
 _atom_site_fract_x
 _atom_site_fract_y
 _atom_site_fract_z
 _atom_site_occupancy
  Y  Y0  1  0.332935  0.666334  0.500511  1
  Y  Y1  1  0.666747  0.333296  0.500549  1
  Y  Y2  1  0.666747  0.333296  0.999451  1
  Y  Y3  1  0.332935  0.666334  0.999489  1
  Y  Y4  1  0.219506  0.002439  0.750000  1
  Y  Y5  1  0.779137  0.000433  0.250000  1
  Y  Y6  1  0.001594  0.218684  0.750000  1
  Th  Th7  1  0.998869  0.781368  0.250000  1
  Th  Th8  1  0.783982  0.784622  0.750000  1
  Th  Th9  1  0.216473  0.218316  0.250000  1
  Sn  Sn10  1  0.596218  0.002691  0.750000  1
  Sn  Sn11  1  0.409936  0.000914  0.250000  1
  Sn  Sn12  1  0.002570  0.595580  0.750000  1
  Sn  Sn13  1  0.997784  0.403763  0.250000  1
  Sn  Sn14  1  0.401306  0.401004  0.750000  1
  Sn  Sn15  1  0.593211  0.596770  0.250000  1
  C  C16  1  0.000025  0.997078  0.498220  1
  C  C17  1  0.000025  0.997078  0.001780  1
