# generated using pymatgen
data_Sr4Tb2NbPtO12
_symmetry_space_group_name_H-M   'P 1'
_cell_length_a   5.84258635
_cell_length_b   5.95018740
_cell_length_c   8.32503211
_cell_angle_alpha   90.22028448
_cell_angle_beta   90.27845057
_cell_angle_gamma   90.04026491
_symmetry_Int_Tables_number   1
_chemical_formula_structural   Sr4Tb2NbPtO12
_chemical_formula_sum   'Sr4 Tb2 Nb1 Pt1 O12'
_cell_volume   289.40981099
_cell_formula_units_Z   1
loop_
 _symmetry_equiv_pos_site_id
 _symmetry_equiv_pos_as_xyz
  1  'x, y, z'
loop_
 _atom_site_type_symbol
 _atom_site_label
 _atom_site_symmetry_multiplicity
 _atom_site_fract_x
 _atom_site_fract_y
 _atom_site_fract_z
 _atom_site_occupancy
  Sr  Sr0  1  0.488027  0.460790  0.246806  1
  Sr  Sr1  1  0.007506  0.956310  0.247404  1
  Sr  Sr2  1  0.992494  0.043675  0.752596  1
  Sr  Sr3  1  0.511973  0.539214  0.753187  1
  Tb  Tb4  1  0.500002  0.999995  0.000005  1
  Tb  Tb5  1  0.000010  0.500013  0.499997  1
  Nb  Nb6  1  0.499999  0.000042  0.500015  1
  Pt  Pt7  1  0.999997  0.499998  0.000007  1
  O  O8  1  0.273207  0.700564  0.040736  1
  O  O9  1  0.196183  0.226977  0.043299  1
  O  O10  1  0.919532  0.524658  0.235257  1
  O  O11  1  0.581373  0.025665  0.264626  1
  O  O12  1  0.309931  0.720966  0.453642  1
  O  O13  1  0.220787  0.192413  0.458614  1
  O  O14  1  0.779206  0.807582  0.541381  1
  O  O15  1  0.690073  0.279037  0.546360  1
  O  O16  1  0.418626  0.974330  0.735377  1
  O  O17  1  0.080467  0.475327  0.764743  1
  O  O18  1  0.803816  0.773012  0.956696  1
  O  O19  1  0.726792  0.299427  0.959257  1
