# generated using pymatgen
data_K7Al4TlS4(O4F3)4
_symmetry_space_group_name_H-M   'P 1'
_cell_length_a   6.96194000
_cell_length_b   8.47483800
_cell_length_c   11.12115000
_cell_angle_alpha   90.00000000
_cell_angle_beta   90.00000000
_cell_angle_gamma   90.00000000
_symmetry_Int_Tables_number   1
_chemical_formula_structural   K7Al4TlS4(O4F3)4
_chemical_formula_sum   'K7 Al4 Tl1 S4 O16 F12'
_cell_volume   656.16245947
_cell_formula_units_Z   1
loop_
 _symmetry_equiv_pos_site_id
 _symmetry_equiv_pos_as_xyz
  1  'x, y, z'
loop_
 _atom_site_type_symbol
 _atom_site_label
 _atom_site_symmetry_multiplicity
 _atom_site_fract_x
 _atom_site_fract_y
 _atom_site_fract_z
 _atom_site_occupancy
  K  K0  1  0.194996  0.327415  0.300161  1
  K  K1  1  0.303162  0.326783  0.698924  1
  K  K2  1  0.802575  0.174097  0.802328  1
  K  K3  1  0.303187  0.827001  0.801263  1
  K  K4  1  0.803588  0.672824  0.698479  1
  K  K5  1  0.696391  0.670997  0.300324  1
  K  K6  1  0.197976  0.824242  0.199670  1
  Al  Al7  1  0.497751  0.501593  0.998366  1
  Al  Al8  1  0.000964  0.999263  0.501687  1
  Al  Al9  1  0.500268  0.999718  0.501626  1
  Al  Al10  1  0.999789  0.500413  0.998033  1
  Tl  Tl11  1  0.699582  0.171221  0.196109  1
  S  S12  1  0.750635  0.308163  0.502996  1
  S  S13  1  0.248523  0.192335  0.998468  1
  S  S14  1  0.250447  0.691276  0.500935  1
  S  S15  1  0.751699  0.807095  0.998618  1
  O  O16  1  0.829126  0.404710  0.405291  1
  O  O17  1  0.322420  0.094913  0.097301  1
  O  O18  1  0.170465  0.100220  0.898223  1
  O  O19  1  0.672034  0.400690  0.602847  1
  O  O20  1  0.172025  0.596624  0.599653  1
  O  O21  1  0.673412  0.905289  0.902010  1
  O  O22  1  0.835534  0.896685  0.098843  1
  O  O23  1  0.328995  0.597410  0.401679  1
  O  O24  1  0.594199  0.203102  0.450400  1
  O  O25  1  0.094558  0.299312  0.050872  1
  O  O26  1  0.406855  0.297015  0.948376  1
  O  O27  1  0.906403  0.201483  0.553572  1
  O  O28  1  0.406009  0.797051  0.553355  1
  O  O29  1  0.904324  0.701125  0.943835  1
  O  O30  1  0.594335  0.703367  0.050650  1
  O  O31  1  0.094499  0.796916  0.448976  1
  F  F32  1  0.982809  0.051498  0.346516  1
  F  F33  1  0.471085  0.453917  0.153800  1
  F  F34  1  0.022652  0.445639  0.843524  1
  F  F35  1  0.522406  0.052305  0.656477  1
  F  F36  1  0.021577  0.945560  0.656158  1
  F  F37  1  0.518667  0.554245  0.843409  1
  F  F38  1  0.978211  0.554373  0.152842  1
  F  F39  1  0.477832  0.946232  0.346605  1
  F  F40  1  0.748488  0.418149  0.997378  1
  F  F41  1  0.250613  0.084784  0.502109  1
  F  F42  1  0.248470  0.587498  0.996888  1
  F  F43  1  0.750461  0.915452  0.500426  1
