# generated using pymatgen
data_Lu2Ga9PtRh2
_symmetry_space_group_name_H-M   'P 1'
_cell_length_a   7.57330623
_cell_length_b   7.57330630
_cell_length_c   9.41982100
_cell_angle_alpha   90.00000000
_cell_angle_beta   90.00000000
_cell_angle_gamma   119.88035142
_symmetry_Int_Tables_number   1
_chemical_formula_structural   Lu2Ga9PtRh2
_chemical_formula_sum   'Lu4 Ga18 Pt2 Rh4'
_cell_volume   468.45369738
_cell_formula_units_Z   2
loop_
 _symmetry_equiv_pos_site_id
 _symmetry_equiv_pos_as_xyz
  1  'x, y, z'
loop_
 _atom_site_type_symbol
 _atom_site_label
 _atom_site_symmetry_multiplicity
 _atom_site_fract_x
 _atom_site_fract_y
 _atom_site_fract_z
 _atom_site_occupancy
  Lu  Lu0  1  0.996743  0.673466  0.250000  1
  Lu  Lu1  1  0.003257  0.326534  0.750000  1
  Lu  Lu2  1  0.673466  0.996743  0.250000  1
  Lu  Lu3  1  0.326534  0.003257  0.750000  1
  Ga  Ga4  1  0.336089  0.550518  0.250000  1
  Ga  Ga5  1  0.663911  0.449482  0.750000  1
  Ga  Ga6  1  0.550518  0.336089  0.250000  1
  Ga  Ga7  1  0.449482  0.663911  0.750000  1
  Ga  Ga8  1  0.997683  0.339190  0.082369  1
  Ga  Ga9  1  0.002317  0.660810  0.917631  1
  Ga  Ga10  1  0.002317  0.660810  0.582369  1
  Ga  Ga11  1  0.339190  0.997683  0.417631  1
  Ga  Ga12  1  0.997683  0.339190  0.417631  1
  Ga  Ga13  1  0.660810  0.002317  0.582369  1
  Ga  Ga14  1  0.660810  0.002317  0.917631  1
  Ga  Ga15  1  0.339190  0.997683  0.082369  1
  Ga  Ga16  1  0.336091  0.336091  0.570377  1
  Ga  Ga17  1  0.663909  0.663909  0.429623  1
  Ga  Ga18  1  0.663909  0.663909  0.070377  1
  Ga  Ga19  1  0.336091  0.336091  0.929623  1
  Ga  Ga20  1  0.135801  0.135801  0.250000  1
  Ga  Ga21  1  0.864199  0.864199  0.750000  1
  Pt  Pt22  1  0.000000  0.000000  0.000000  1
  Pt  Pt23  1  0.000000  0.000000  0.500000  1
  Rh  Rh24  1  0.671109  0.328891  0.000000  1
  Rh  Rh25  1  0.328891  0.671109  0.000000  1
  Rh  Rh26  1  0.328891  0.671109  0.500000  1
  Rh  Rh27  1  0.671109  0.328891  0.500000  1
