# generated using pymatgen
data_Ca20TlGa11
_symmetry_space_group_name_H-M   'P 1'
_cell_length_a   8.04456800
_cell_length_b   8.04456800
_cell_length_c   14.68210700
_cell_angle_alpha   90.00000000
_cell_angle_beta   90.00000000
_cell_angle_gamma   90.00000000
_symmetry_Int_Tables_number   1
_chemical_formula_structural   Ca20TlGa11
_chemical_formula_sum   'Ca20 Tl1 Ga11'
_cell_volume   950.15364548
_cell_formula_units_Z   1
loop_
 _symmetry_equiv_pos_site_id
 _symmetry_equiv_pos_as_xyz
  1  'x, y, z'
loop_
 _atom_site_type_symbol
 _atom_site_label
 _atom_site_symmetry_multiplicity
 _atom_site_fract_x
 _atom_site_fract_y
 _atom_site_fract_z
 _atom_site_occupancy
  Ca  Ca0  1  0.670829  0.181090  0.106882  1
  Ca  Ca1  1  0.176568  0.675557  0.605038  1
  Ca  Ca2  1  0.329171  0.818910  0.106882  1
  Ca  Ca3  1  0.823432  0.324443  0.605038  1
  Ca  Ca4  1  0.818910  0.670829  0.106882  1
  Ca  Ca5  1  0.324443  0.176568  0.605038  1
  Ca  Ca6  1  0.181090  0.329171  0.106882  1
  Ca  Ca7  1  0.675557  0.823432  0.605038  1
  Ca  Ca8  1  0.818910  0.329171  0.893118  1
  Ca  Ca9  1  0.324443  0.823432  0.394962  1
  Ca  Ca10  1  0.181090  0.670829  0.893118  1
  Ca  Ca11  1  0.675557  0.176568  0.394962  1
  Ca  Ca12  1  0.670829  0.818910  0.893118  1
  Ca  Ca13  1  0.176568  0.324443  0.394962  1
  Ca  Ca14  1  0.329171  0.181090  0.893118  1
  Ca  Ca15  1  0.823432  0.675557  0.394962  1
  Ca  Ca16  1  0.500000  0.500000  0.747041  1
  Ca  Ca17  1  0.000000  0.000000  0.252779  1
  Ca  Ca18  1  0.000000  0.000000  0.747221  1
  Ca  Ca19  1  0.500000  0.500000  0.252959  1
  Tl  Tl20  1  0.000000  0.000000  0.000000  1
  Ga  Ga21  1  0.500000  0.500000  0.500000  1
  Ga  Ga22  1  0.500000  0.500000  0.000000  1
  Ga  Ga23  1  0.000000  0.000000  0.500000  1
  Ga  Ga24  1  0.611632  0.110064  0.749802  1
  Ga  Ga25  1  0.110064  0.611632  0.250198  1
  Ga  Ga26  1  0.889936  0.388368  0.250198  1
  Ga  Ga27  1  0.388368  0.889936  0.749802  1
  Ga  Ga28  1  0.889936  0.611632  0.749802  1
  Ga  Ga29  1  0.388368  0.110064  0.250198  1
  Ga  Ga30  1  0.110064  0.388368  0.749802  1
  Ga  Ga31  1  0.611632  0.889936  0.250198  1
