# generated using pymatgen
data_BaSiAu3
_symmetry_space_group_name_H-M   'P 1'
_cell_length_a   6.16204470
_cell_length_b   6.16204473
_cell_length_c   6.16204517
_cell_angle_alpha   134.67809178
_cell_angle_beta   134.67808903
_cell_angle_gamma   66.03078247
_symmetry_Int_Tables_number   1
_chemical_formula_structural   BaSiAu3
_chemical_formula_sum   'Ba1 Si1 Au3'
_cell_volume   116.49223038
_cell_formula_units_Z   1
loop_
 _symmetry_equiv_pos_site_id
 _symmetry_equiv_pos_as_xyz
  1  'x, y, z'
loop_
 _atom_site_type_symbol
 _atom_site_label
 _atom_site_symmetry_multiplicity
 _atom_site_fract_x
 _atom_site_fract_y
 _atom_site_fract_z
 _atom_site_occupancy
  Ba  Ba0  1  0.006958  0.006958  0.000000  1
  Si  Si1  1  0.356074  0.356074  0.000000  1
  Au  Au2  1  0.769741  0.269741  0.500000  1
  Au  Au3  1  0.269741  0.769741  0.500000  1
  Au  Au4  1  0.597488  0.597488  0.000000  1
