# generated using pymatgen
data_Hf18BeVFeRe7
_symmetry_space_group_name_H-M   'P 1'
_cell_length_a   8.45921900
_cell_length_b   8.54583993
_cell_length_c   8.54581600
_cell_angle_alpha   119.99934934
_cell_angle_beta   90.00026883
_cell_angle_gamma   89.99984124
_symmetry_Int_Tables_number   1
_chemical_formula_structural   Hf18BeVFeRe7
_chemical_formula_sum   'Hf18 Be1 V1 Fe1 Re7'
_cell_volume   535.02249156
_cell_formula_units_Z   1
loop_
 _symmetry_equiv_pos_site_id
 _symmetry_equiv_pos_as_xyz
  1  'x, y, z'
loop_
 _atom_site_type_symbol
 _atom_site_label
 _atom_site_symmetry_multiplicity
 _atom_site_fract_x
 _atom_site_fract_y
 _atom_site_fract_z
 _atom_site_occupancy
  Hf  Hf0  1  0.553598  0.803299  0.606594  1
  Hf  Hf1  1  0.553604  0.803301  0.196707  1
  Hf  Hf2  1  0.553594  0.393409  0.196705  1
  Hf  Hf3  1  0.443480  0.200463  0.400927  1
  Hf  Hf4  1  0.443474  0.200466  0.799530  1
  Hf  Hf5  1  0.443484  0.599070  0.799534  1
  Hf  Hf6  1  0.058158  0.201270  0.402551  1
  Hf  Hf7  1  0.058172  0.201277  0.798723  1
  Hf  Hf8  1  0.058165  0.597448  0.798726  1
  Hf  Hf9  1  0.945632  0.803991  0.607976  1
  Hf  Hf10  1  0.945618  0.803983  0.196013  1
  Hf  Hf11  1  0.945631  0.392021  0.196011  1
  Hf  Hf12  1  0.750488  0.460392  0.920791  1
  Hf  Hf13  1  0.750487  0.460404  0.539601  1
  Hf  Hf14  1  0.750488  0.079213  0.539615  1
  Hf  Hf15  1  0.249293  0.540545  0.081081  1
  Hf  Hf16  1  0.249285  0.540540  0.459460  1
  Hf  Hf17  1  0.249290  0.918917  0.459454  1
  Be  Be18  1  0.750100  0.666659  0.333338  1
  V  V19  1  0.499425  0.000001  0.999999  1
  Fe  Fe20  1  0.249660  0.333331  0.666659  1
  Re  Re21  1  0.746341  0.110386  0.220771  1
  Re  Re22  1  0.746342  0.110384  0.889618  1
  Re  Re23  1  0.746344  0.779231  0.889615  1
  Re  Re24  1  0.253504  0.889539  0.779072  1
  Re  Re25  1  0.253508  0.889536  0.110461  1
  Re  Re26  1  0.253502  0.220927  0.110462  1
  Re  Re27  1  0.999334  0.999996  0.000002  1
