# generated using pymatgen
data_Pr17Sm3Si15Se
_symmetry_space_group_name_H-M   'P 1'
_cell_length_a   7.93124858
_cell_length_b   7.88325220
_cell_length_c   15.33763495
_cell_angle_alpha   89.76373985
_cell_angle_beta   89.15697401
_cell_angle_gamma   90.01304356
_symmetry_Int_Tables_number   1
_chemical_formula_structural   Pr17Sm3Si15Se
_chemical_formula_sum   'Pr17 Sm3 Si15 Se1'
_cell_volume   958.85879760
_cell_formula_units_Z   1
loop_
 _symmetry_equiv_pos_site_id
 _symmetry_equiv_pos_as_xyz
  1  'x, y, z'
loop_
 _atom_site_type_symbol
 _atom_site_label
 _atom_site_symmetry_multiplicity
 _atom_site_fract_x
 _atom_site_fract_y
 _atom_site_fract_z
 _atom_site_occupancy
  Pr  Pr0  1  0.687622  0.689323  0.497310  1
  Pr  Pr1  1  0.379982  0.007098  0.443480  1
  Pr  Pr2  1  0.491120  0.875465  0.698958  1
  Pr  Pr3  1  0.510004  0.121039  0.196111  1
  Pr  Pr4  1  0.877108  0.486693  0.301282  1
  Pr  Pr5  1  0.123483  0.511106  0.803298  1
  Pr  Pr6  1  0.630311  0.986085  0.950032  1
  Pr  Pr7  1  0.000964  0.380111  0.548349  1
  Pr  Pr8  1  0.991122  0.622182  0.053407  1
  Pr  Pr9  1  0.137888  0.987785  0.873482  1
  Pr  Pr10  1  0.518701  0.629271  0.126152  1
  Pr  Pr11  1  0.476643  0.370220  0.631166  1
  Pr  Pr12  1  0.632528  0.521846  0.875806  1
  Pr  Pr13  1  0.370085  0.477736  0.373577  1
  Pr  Pr14  1  0.871011  0.019551  0.376549  1
  Pr  Pr15  1  0.982153  0.128680  0.124184  1
  Pr  Pr16  1  0.015880  0.867953  0.621765  1
  Sm  Sm17  1  0.312030  0.309775  0.000134  1
  Sm  Sm18  1  0.188069  0.808835  0.249136  1
  Sm  Sm19  1  0.801480  0.189924  0.752034  1
  Si  Si20  1  0.330293  0.695801  0.951877  1
  Si  Si21  1  0.663380  0.304324  0.454773  1
  Si  Si22  1  0.698644  0.333610  0.048568  1
  Si  Si23  1  0.303558  0.667617  0.548384  1
  Si  Si24  1  0.806192  0.831122  0.203172  1
  Si  Si25  1  0.168755  0.192785  0.296158  1
  Si  Si26  1  0.839237  0.806188  0.796435  1
  Si  Si27  1  0.286715  0.923061  0.059604  1
  Si  Si28  1  0.575386  0.786728  0.308116  1
  Si  Si29  1  0.450837  0.211016  0.824096  1
  Si  Si30  1  0.788965  0.576773  0.689729  1
  Si  Si31  1  0.212043  0.423910  0.189559  1
  Si  Si32  1  0.704554  0.077126  0.562438  1
  Si  Si33  1  0.928032  0.289301  0.939573  1
  Si  Si34  1  0.078767  0.712144  0.438507  1
  Se  Se35  1  0.166457  0.177815  0.692798  1
