# generated using pymatgen
data_LiPr3Pa3Co17P12
_symmetry_space_group_name_H-M   'P 1'
_cell_length_a   3.77607800
_cell_length_b   10.52965480
_cell_length_c   12.42278683
_cell_angle_alpha   90.33845666
_cell_angle_beta   90.00000000
_cell_angle_gamma   90.00000000
_symmetry_Int_Tables_number   1
_chemical_formula_structural   LiPr3Pa3Co17P12
_chemical_formula_sum   'Li1 Pr3 Pa3 Co17 P12'
_cell_volume   493.93129769
_cell_formula_units_Z   1
loop_
 _symmetry_equiv_pos_site_id
 _symmetry_equiv_pos_as_xyz
  1  'x, y, z'
loop_
 _atom_site_type_symbol
 _atom_site_label
 _atom_site_symmetry_multiplicity
 _atom_site_fract_x
 _atom_site_fract_y
 _atom_site_fract_z
 _atom_site_occupancy
  Li  Li0  1  0.500000  0.501305  0.148230  1
  Pr  Pr1  1  0.000000  0.500097  0.518292  1
  Pr  Pr2  1  0.500000  0.000458  0.480814  1
  Pr  Pr3  1  0.000000  0.314826  0.795854  1
  Pa  Pa4  1  0.500000  0.817259  0.208942  1
  Pa  Pa5  1  0.500000  0.182232  0.208545  1
  Pa  Pa6  1  0.000000  0.680924  0.791532  1
  Co  Co7  1  0.000000  0.999368  0.841915  1
  Co  Co8  1  0.500000  0.513859  0.711535  1
  Co  Co9  1  0.000000  0.999870  0.288550  1
  Co  Co10  1  0.000000  0.501129  0.986641  1
  Co  Co11  1  0.500000  0.997793  0.016942  1
  Co  Co12  1  0.500000  0.329185  0.998795  1
  Co  Co13  1  0.500000  0.671064  0.996998  1
  Co  Co14  1  0.000000  0.162504  0.006212  1
  Co  Co15  1  0.000000  0.833715  0.002608  1
  Co  Co16  1  0.500000  0.295868  0.427919  1
  Co  Co17  1  0.500000  0.704441  0.427398  1
  Co  Co18  1  0.000000  0.203855  0.569780  1
  Co  Co19  1  0.000000  0.799176  0.573251  1
  Co  Co20  1  0.500000  0.877304  0.715230  1
  Co  Co21  1  0.500000  0.116684  0.711283  1
  Co  Co22  1  0.000000  0.626281  0.286665  1
  Co  Co23  1  0.000000  0.372268  0.286666  1
  P  P24  1  0.500000  0.501330  0.889997  1
  P  P25  1  0.000000  0.998036  0.113453  1
  P  P26  1  0.500000  0.499928  0.338967  1
  P  P27  1  0.000000  0.001280  0.661681  1
  P  P28  1  0.500000  0.308520  0.614788  1
  P  P29  1  0.500000  0.695385  0.612797  1
  P  P30  1  0.000000  0.190960  0.386384  1
  P  P31  1  0.000000  0.809334  0.386614  1
  P  P32  1  0.500000  0.846642  0.894812  1
  P  P33  1  0.500000  0.146907  0.895351  1
  P  P34  1  0.000000  0.656853  0.102658  1
  P  P35  1  0.000000  0.343364  0.101901  1
