# generated using pymatgen
data_K3CuO3
_symmetry_space_group_name_H-M   'P 1'
_cell_length_a   6.28485700
_cell_length_b   6.51786197
_cell_length_c   11.77748700
_cell_angle_alpha   90.00263717
_cell_angle_beta   89.99804907
_cell_angle_gamma   91.16441878
_symmetry_Int_Tables_number   1
_chemical_formula_structural   K3CuO3
_chemical_formula_sum   'K12 Cu4 O12'
_cell_volume   482.35135187
_cell_formula_units_Z   4
loop_
 _symmetry_equiv_pos_site_id
 _symmetry_equiv_pos_as_xyz
  1  'x, y, z'
loop_
 _atom_site_type_symbol
 _atom_site_label
 _atom_site_symmetry_multiplicity
 _atom_site_fract_x
 _atom_site_fract_y
 _atom_site_fract_z
 _atom_site_occupancy
  K  K0  1  0.051953  0.142664  0.295163  1
  K  K1  1  0.948206  0.857085  0.704844  1
  K  K2  1  0.051677  0.642804  0.204814  1
  K  K3  1  0.947916  0.357162  0.795141  1
  K  K4  1  0.469011  0.491726  0.719526  1
  K  K5  1  0.469478  0.991829  0.780505  1
  K  K6  1  0.530350  0.508087  0.280494  1
  K  K7  1  0.530871  0.008151  0.219520  1
  K  K8  1  0.328250  0.663631  0.983144  1
  K  K9  1  0.328932  0.163693  0.516833  1
  K  K10  1  0.671709  0.836360  0.483133  1
  K  K11  1  0.671052  0.336203  0.016840  1
  Cu  Cu12  1  0.835842  0.840334  0.991274  1
  Cu  Cu13  1  0.164199  0.659678  0.491341  1
  Cu  Cu14  1  0.163564  0.159661  0.008706  1
  Cu  Cu15  1  0.836550  0.340609  0.508670  1
  O  O16  1  0.286719  0.810080  0.373574  1
  O  O17  1  0.713286  0.689919  0.873534  1
  O  O18  1  0.713788  0.190194  0.626384  1
  O  O19  1  0.286296  0.309907  0.126483  1
  O  O20  1  0.031486  0.989942  0.899055  1
  O  O21  1  0.968663  0.510172  0.399031  1
  O  O22  1  0.032326  0.489867  0.600997  1
  O  O23  1  0.967779  0.010124  0.100969  1
  O  O24  1  0.320293  0.793622  0.602946  1
  O  O25  1  0.680296  0.206735  0.397085  1
  O  O26  1  0.679724  0.706345  0.102882  1
  O  O27  1  0.319785  0.293418  0.897110  1
