# generated using pymatgen
data_Cs11K7(InBi4)2
_symmetry_space_group_name_H-M   'P 1'
_cell_length_a   11.39761300
_cell_length_b   11.43842479
_cell_length_c   11.99939169
_cell_angle_alpha   89.84577575
_cell_angle_beta   90.00000000
_cell_angle_gamma   119.88204591
_symmetry_Int_Tables_number   1
_chemical_formula_structural   Cs11K7(InBi4)2
_chemical_formula_sum   'Cs11 K7 In2 Bi8'
_cell_volume   1356.38464757
_cell_formula_units_Z   1
loop_
 _symmetry_equiv_pos_site_id
 _symmetry_equiv_pos_as_xyz
  1  'x, y, z'
loop_
 _atom_site_type_symbol
 _atom_site_label
 _atom_site_symmetry_multiplicity
 _atom_site_fract_x
 _atom_site_fract_y
 _atom_site_fract_z
 _atom_site_occupancy
  Cs  Cs0  1  0.791656  0.207921  0.041974  1
  Cs  Cs1  1  0.416263  0.207921  0.041974  1
  Cs  Cs2  1  0.581341  0.790134  0.542083  1
  Cs  Cs3  1  0.208793  0.790134  0.542083  1
  Cs  Cs4  1  0.791647  0.583294  0.458667  1
  Cs  Cs5  1  0.792623  0.208726  0.458338  1
  Cs  Cs6  1  0.791470  0.582942  0.042292  1
  Cs  Cs7  1  0.416101  0.208726  0.458338  1
  Cs  Cs8  1  0.583091  0.791813  0.958069  1
  Cs  Cs9  1  0.208311  0.416620  0.956696  1
  Cs  Cs10  1  0.208724  0.791813  0.958069  1
  K  K11  1  0.119755  0.239509  0.252063  1
  K  K12  1  0.882873  0.120797  0.749033  1
  K  K13  1  0.237923  0.120797  0.749033  1
  K  K14  1  0.761808  0.881273  0.250196  1
  K  K15  1  0.119467  0.881273  0.250196  1
  K  K16  1  0.881324  0.762648  0.749612  1
  K  K17  1  0.205693  0.411383  0.540282  1
  In  In18  1  0.333282  0.666566  0.251990  1
  In  In19  1  0.666350  0.332700  0.748002  1
  Bi  Bi20  1  0.480666  0.518043  0.252165  1
  Bi  Bi21  1  0.964201  0.481852  0.748287  1
  Bi  Bi22  1  0.518977  0.037955  0.750165  1
  Bi  Bi23  1  0.480974  0.961946  0.249694  1
  Bi  Bi24  1  0.037380  0.518043  0.252165  1
  Bi  Bi25  1  0.517649  0.481852  0.748287  1
  Bi  Bi26  1  0.999719  0.999439  0.000067  1
  Bi  Bi27  1  0.001940  0.003878  0.500176  1
