# generated using pymatgen
data_Ho2U(GaRu)3
_symmetry_space_group_name_H-M   'P 1'
_cell_length_a   6.88598303
_cell_length_b   6.88598270
_cell_length_c   3.97976700
_cell_angle_alpha   90.00000000
_cell_angle_beta   90.00000000
_cell_angle_gamma   116.27285886
_symmetry_Int_Tables_number   1
_chemical_formula_structural   Ho2U(GaRu)3
_chemical_formula_sum   'Ho2 U1 Ga3 Ru3'
_cell_volume   169.21344129
_cell_formula_units_Z   1
loop_
 _symmetry_equiv_pos_site_id
 _symmetry_equiv_pos_as_xyz
  1  'x, y, z'
loop_
 _atom_site_type_symbol
 _atom_site_label
 _atom_site_symmetry_multiplicity
 _atom_site_fract_x
 _atom_site_fract_y
 _atom_site_fract_z
 _atom_site_occupancy
  Ho  Ho0  1  0.413076  0.007934  0.500000  1
  Ho  Ho1  1  0.007934  0.413076  0.500000  1
  U  U2  1  0.616896  0.616896  0.500000  1
  Ga  Ga3  1  0.743982  0.032057  0.000000  1
  Ga  Ga4  1  0.032057  0.743982  0.000000  1
  Ga  Ga5  1  0.211772  0.211772  0.000000  1
  Ru  Ru6  1  0.379961  0.637130  0.000000  1
  Ru  Ru7  1  0.637130  0.379961  0.000000  1
  Ru  Ru8  1  0.957193  0.957193  0.500000  1
