# generated using pymatgen
data_Tb6Dy3HoSb6
_symmetry_space_group_name_H-M   'P 1'
_cell_length_a   9.00801800
_cell_length_b   9.00801713
_cell_length_c   6.27785200
_cell_angle_alpha   90.00000000
_cell_angle_beta   90.00000000
_cell_angle_gamma   119.99999585
_symmetry_Int_Tables_number   1
_chemical_formula_structural   Tb6Dy3HoSb6
_chemical_formula_sum   'Tb6 Dy3 Ho1 Sb6'
_cell_volume   441.16410755
_cell_formula_units_Z   1
loop_
 _symmetry_equiv_pos_site_id
 _symmetry_equiv_pos_as_xyz
  1  'x, y, z'
loop_
 _atom_site_type_symbol
 _atom_site_label
 _atom_site_symmetry_multiplicity
 _atom_site_fract_x
 _atom_site_fract_y
 _atom_site_fract_z
 _atom_site_occupancy
  Tb  Tb0  1  0.000165  0.753365  0.749890  1
  Tb  Tb1  1  0.000165  0.246799  0.250110  1
  Tb  Tb2  1  0.753201  0.753365  0.250110  1
  Tb  Tb3  1  0.753201  0.999835  0.749890  1
  Tb  Tb4  1  0.246635  0.246799  0.749890  1
  Tb  Tb5  1  0.246635  0.999835  0.250110  1
  Dy  Dy6  1  0.666667  0.333333  0.000000  1
  Dy  Dy7  1  0.666667  0.333333  0.500000  1
  Dy  Dy8  1  0.333333  0.666667  0.000000  1
  Ho  Ho9  1  0.333333  0.666667  0.500000  1
  Sb  Sb10  1  0.389214  0.999897  0.749965  1
  Sb  Sb11  1  0.389214  0.389316  0.250035  1
  Sb  Sb12  1  0.000103  0.610786  0.250035  1
  Sb  Sb13  1  0.000103  0.389316  0.749965  1
  Sb  Sb14  1  0.610684  0.610786  0.749965  1
  Sb  Sb15  1  0.610684  0.999897  0.250035  1
