# generated using pymatgen
data_Tb13Ho2Lu(InRh)4
_symmetry_space_group_name_H-M   'P 1'
_cell_length_a   9.68734066
_cell_length_b   9.68213397
_cell_length_c   9.67722145
_cell_angle_alpha   60.00171246
_cell_angle_beta   59.96776683
_cell_angle_gamma   59.84739834
_symmetry_Int_Tables_number   1
_chemical_formula_structural   Tb13Ho2Lu(InRh)4
_chemical_formula_sum   'Tb13 Ho2 Lu1 In4 Rh4'
_cell_volume   640.92603255
_cell_formula_units_Z   1
loop_
 _symmetry_equiv_pos_site_id
 _symmetry_equiv_pos_as_xyz
  1  'x, y, z'
loop_
 _atom_site_type_symbol
 _atom_site_label
 _atom_site_symmetry_multiplicity
 _atom_site_fract_x
 _atom_site_fract_y
 _atom_site_fract_z
 _atom_site_occupancy
  Tb  Tb0  1  0.647415  0.051900  0.648425  1
  Tb  Tb1  1  0.060483  0.060997  0.438811  1
  Tb  Tb2  1  0.437437  0.436652  0.062007  1
  Tb  Tb3  1  0.651936  0.651363  0.652061  1
  Tb  Tb4  1  0.813076  0.189018  0.187873  1
  Tb  Tb5  1  0.189554  0.812474  0.810713  1
  Tb  Tb6  1  0.051270  0.647349  0.648976  1
  Tb  Tb7  1  0.437766  0.061151  0.060032  1
  Tb  Tb8  1  0.436754  0.062022  0.438390  1
  Tb  Tb9  1  0.061431  0.436741  0.060931  1
  Tb  Tb10  1  0.648956  0.648379  0.050338  1
  Tb  Tb11  1  0.189317  0.812971  0.188385  1
  Tb  Tb12  1  0.061552  0.436342  0.438903  1
  Ho  Ho13  1  0.809975  0.810736  0.190572  1
  Ho  Ho14  1  0.811692  0.190101  0.810700  1
  Lu  Lu15  1  0.189262  0.189552  0.811276  1
  In  In16  1  0.417031  0.416913  0.417267  1
  In  In17  1  0.418114  0.417810  0.747910  1
  In  In18  1  0.417878  0.748236  0.417987  1
  In  In19  1  0.748114  0.417891  0.418237  1
  Rh  Rh20  1  0.860731  0.424590  0.857096  1
  Rh  Rh21  1  0.856752  0.858608  0.858942  1
  Rh  Rh22  1  0.857785  0.857321  0.426594  1
  Rh  Rh23  1  0.425719  0.860885  0.857576  1
