# generated using pymatgen
data_Sc3(Al3Fe)4
_symmetry_space_group_name_H-M   'P 1'
_cell_length_a   8.50871800
_cell_length_b   8.50871855
_cell_length_c   9.14704500
_cell_angle_alpha   90.00000000
_cell_angle_beta   90.00000000
_cell_angle_gamma   120.00000564
_symmetry_Int_Tables_number   1
_chemical_formula_structural   Sc3(Al3Fe)4
_chemical_formula_sum   'Sc6 Al24 Fe8'
_cell_volume   573.50830509
_cell_formula_units_Z   2
loop_
 _symmetry_equiv_pos_site_id
 _symmetry_equiv_pos_as_xyz
  1  'x, y, z'
loop_
 _atom_site_type_symbol
 _atom_site_label
 _atom_site_symmetry_multiplicity
 _atom_site_fract_x
 _atom_site_fract_y
 _atom_site_fract_z
 _atom_site_occupancy
  Sc  Sc0  1  0.806508  0.193492  0.750000  1
  Sc  Sc1  1  0.193492  0.806508  0.250000  1
  Sc  Sc2  1  0.386985  0.193492  0.750000  1
  Sc  Sc3  1  0.613015  0.806508  0.250000  1
  Sc  Sc4  1  0.806508  0.613015  0.750000  1
  Sc  Sc5  1  0.193492  0.386985  0.250000  1
  Al  Al6  1  0.666667  0.333333  0.979376  1
  Al  Al7  1  0.333333  0.666667  0.020624  1
  Al  Al8  1  0.333333  0.666667  0.479376  1
  Al  Al9  1  0.666667  0.333333  0.520624  1
  Al  Al10  1  0.838735  0.161265  0.424858  1
  Al  Al11  1  0.161265  0.838735  0.575142  1
  Al  Al12  1  0.322531  0.161265  0.424858  1
  Al  Al13  1  0.161265  0.838735  0.924858  1
  Al  Al14  1  0.677469  0.838735  0.575142  1
  Al  Al15  1  0.838735  0.161265  0.075142  1
  Al  Al16  1  0.838735  0.677469  0.424858  1
  Al  Al17  1  0.677469  0.838735  0.924858  1
  Al  Al18  1  0.161265  0.322531  0.575142  1
  Al  Al19  1  0.322531  0.161265  0.075142  1
  Al  Al20  1  0.161265  0.322531  0.924858  1
  Al  Al21  1  0.838735  0.677469  0.075142  1
  Al  Al22  1  0.445008  0.554992  0.750000  1
  Al  Al23  1  0.554992  0.445008  0.250000  1
  Al  Al24  1  0.109984  0.554992  0.750000  1
  Al  Al25  1  0.890016  0.445008  0.250000  1
  Al  Al26  1  0.445008  0.890016  0.750000  1
  Al  Al27  1  0.554992  0.109984  0.250000  1
  Al  Al28  1  0.000000  0.000000  0.750000  1
  Al  Al29  1  0.000000  0.000000  0.250000  1
  Fe  Fe30  1  0.500000  0.500000  0.000000  1
  Fe  Fe31  1  0.000000  0.500000  0.000000  1
  Fe  Fe32  1  0.500000  0.500000  0.500000  1
  Fe  Fe33  1  0.500000  0.000000  0.000000  1
  Fe  Fe34  1  0.000000  0.500000  0.500000  1
  Fe  Fe35  1  0.500000  0.000000  0.500000  1
  Fe  Fe36  1  0.000000  0.000000  0.000000  1
  Fe  Fe37  1  0.000000  0.000000  0.500000  1
