# generated using pymatgen
data_Dy3P6Rh8W
_symmetry_space_group_name_H-M   'P 1'
_cell_length_a   3.93979200
_cell_length_b   11.12520100
_cell_length_c   12.82771200
_cell_angle_alpha   90.00000000
_cell_angle_beta   90.00000000
_cell_angle_gamma   90.00000000
_symmetry_Int_Tables_number   1
_chemical_formula_structural   Dy3P6Rh8W
_chemical_formula_sum   'Dy6 P12 Rh16 W2'
_cell_volume   562.25116116
_cell_formula_units_Z   2
loop_
 _symmetry_equiv_pos_site_id
 _symmetry_equiv_pos_as_xyz
  1  'x, y, z'
loop_
 _atom_site_type_symbol
 _atom_site_label
 _atom_site_symmetry_multiplicity
 _atom_site_fract_x
 _atom_site_fract_y
 _atom_site_fract_z
 _atom_site_occupancy
  Dy  Dy0  1  0.000000  0.500000  0.521835  1
  Dy  Dy1  1  0.500000  0.000000  0.478165  1
  Dy  Dy2  1  0.500000  0.817010  0.202790  1
  Dy  Dy3  1  0.500000  0.182990  0.202790  1
  Dy  Dy4  1  0.000000  0.682990  0.797210  1
  Dy  Dy5  1  0.000000  0.317010  0.797210  1
  P  P6  1  0.500000  0.500000  0.874214  1
  P  P7  1  0.000000  0.000000  0.125786  1
  P  P8  1  0.500000  0.500000  0.345810  1
  P  P9  1  0.000000  0.000000  0.654190  1
  P  P10  1  0.500000  0.314801  0.617459  1
  P  P11  1  0.500000  0.685199  0.617459  1
  P  P12  1  0.000000  0.185199  0.382541  1
  P  P13  1  0.000000  0.814801  0.382541  1
  P  P14  1  0.500000  0.847584  0.886992  1
  P  P15  1  0.500000  0.152416  0.886992  1
  P  P16  1  0.000000  0.652416  0.113008  1
  P  P17  1  0.000000  0.347584  0.113008  1
  Rh  Rh18  1  0.500000  0.500000  0.697715  1
  Rh  Rh19  1  0.000000  0.000000  0.302285  1
  Rh  Rh20  1  0.000000  0.500000  0.989170  1
  Rh  Rh21  1  0.500000  0.000000  0.010830  1
  Rh  Rh22  1  0.500000  0.331719  0.983567  1
  Rh  Rh23  1  0.500000  0.668281  0.983567  1
  Rh  Rh24  1  0.000000  0.168281  0.016433  1
  Rh  Rh25  1  0.000000  0.831719  0.016433  1
  Rh  Rh26  1  0.500000  0.294810  0.431859  1
  Rh  Rh27  1  0.500000  0.705190  0.431859  1
  Rh  Rh28  1  0.000000  0.205190  0.568141  1
  Rh  Rh29  1  0.000000  0.794810  0.568141  1
  Rh  Rh30  1  0.500000  0.875197  0.708366  1
  Rh  Rh31  1  0.500000  0.124803  0.708366  1
  Rh  Rh32  1  0.000000  0.624803  0.291634  1
  Rh  Rh33  1  0.000000  0.375197  0.291634  1
  W  W34  1  0.500000  0.500000  0.156943  1
  W  W35  1  0.000000  0.000000  0.843057  1
