# generated using pymatgen
data_YbBe3InF9
_symmetry_space_group_name_H-M   'P 1'
_cell_length_a   6.94049100
_cell_length_b   6.94048980
_cell_length_c   10.11717400
_cell_angle_alpha   90.00000000
_cell_angle_beta   90.00000000
_cell_angle_gamma   119.99999143
_symmetry_Int_Tables_number   1
_chemical_formula_structural   YbBe3InF9
_chemical_formula_sum   'Yb2 Be6 In2 F18'
_cell_volume   422.05612194
_cell_formula_units_Z   2
loop_
 _symmetry_equiv_pos_site_id
 _symmetry_equiv_pos_as_xyz
  1  'x, y, z'
loop_
 _atom_site_type_symbol
 _atom_site_label
 _atom_site_symmetry_multiplicity
 _atom_site_fract_x
 _atom_site_fract_y
 _atom_site_fract_z
 _atom_site_occupancy
  Yb  Yb0  1  0.333333  0.666667  0.000000  1
  Yb  Yb1  1  0.333333  0.666667  0.500000  1
  Be  Be2  1  0.216674  0.953078  0.250000  1
  Be  Be3  1  0.216674  0.263595  0.750000  1
  Be  Be4  1  0.736405  0.953078  0.750000  1
  Be  Be5  1  0.046922  0.783326  0.750000  1
  Be  Be6  1  0.046922  0.263595  0.250000  1
  Be  Be7  1  0.736405  0.783326  0.250000  1
  In  In8  1  0.666667  0.333333  0.000000  1
  In  In9  1  0.666667  0.333333  0.500000  1
  F  F10  1  0.069536  0.669800  0.623998  1
  F  F11  1  0.600264  0.930464  0.623998  1
  F  F12  1  0.330200  0.399736  0.623998  1
  F  F13  1  0.330200  0.930464  0.376002  1
  F  F14  1  0.228984  0.188497  0.250000  1
  F  F15  1  0.959512  0.771016  0.250000  1
  F  F16  1  0.811503  0.040488  0.250000  1
  F  F17  1  0.811503  0.771016  0.750000  1
  F  F18  1  0.959512  0.188497  0.750000  1
  F  F19  1  0.228984  0.040488  0.750000  1
  F  F20  1  0.330200  0.930464  0.123997  1
  F  F21  1  0.600264  0.669800  0.376002  1
  F  F22  1  0.069536  0.399736  0.376002  1
  F  F23  1  0.069536  0.399736  0.123997  1
  F  F24  1  0.600264  0.669800  0.123997  1
  F  F25  1  0.069536  0.669800  0.876002  1
  F  F26  1  0.600264  0.930464  0.876002  1
  F  F27  1  0.330200  0.399736  0.876002  1
