# generated using pymatgen
data_Tb4Er12InNi4Ag3
_symmetry_space_group_name_H-M   'P 1'
_cell_length_a   9.43663244
_cell_length_b   9.42987180
_cell_length_c   9.42614368
_cell_angle_alpha   59.92425205
_cell_angle_beta   59.87584525
_cell_angle_gamma   59.98072412
_symmetry_Int_Tables_number   1
_chemical_formula_structural   Tb4Er12InNi4Ag3
_chemical_formula_sum   'Tb4 Er12 In1 Ni4 Ag3'
_cell_volume   592.13515242
_cell_formula_units_Z   1
loop_
 _symmetry_equiv_pos_site_id
 _symmetry_equiv_pos_as_xyz
  1  'x, y, z'
loop_
 _atom_site_type_symbol
 _atom_site_label
 _atom_site_symmetry_multiplicity
 _atom_site_fract_x
 _atom_site_fract_y
 _atom_site_fract_z
 _atom_site_occupancy
  Tb  Tb0  1  0.352682  0.348533  0.348712  1
  Tb  Tb1  1  0.352547  0.348749  0.950093  1
  Tb  Tb2  1  0.352676  0.950120  0.348671  1
  Tb  Tb3  1  0.946777  0.351059  0.351176  1
  Er  Er4  1  0.811691  0.188012  0.187798  1
  Er  Er5  1  0.186595  0.811614  0.811592  1
  Er  Er6  1  0.186553  0.811678  0.190085  1
  Er  Er7  1  0.811907  0.187806  0.812462  1
  Er  Er8  1  0.186618  0.190349  0.811378  1
  Er  Er9  1  0.811753  0.812382  0.187860  1
  Er  Er10  1  0.930106  0.565969  0.565694  1
  Er  Er11  1  0.564154  0.935032  0.935106  1
  Er  Er12  1  0.563923  0.935388  0.565418  1
  Er  Er13  1  0.929853  0.565781  0.938500  1
  Er  Er14  1  0.563997  0.565587  0.935363  1
  Er  Er15  1  0.930079  0.938446  0.565578  1
  In  In16  1  0.260460  0.579904  0.579446  1
  Ni  Ni17  1  0.142239  0.141235  0.141549  1
  Ni  Ni18  1  0.142629  0.141425  0.574441  1
  Ni  Ni19  1  0.142678  0.574682  0.141691  1
  Ni  Ni20  1  0.577303  0.141035  0.141357  1
  Ag  Ag21  1  0.584418  0.583380  0.583724  1
  Ag  Ag22  1  0.584042  0.583259  0.248992  1
  Ag  Ag23  1  0.584315  0.248580  0.583319  1
