# generated using pymatgen
data_Yb7SbN4
_symmetry_space_group_name_H-M   'P 1'
_cell_length_a   3.53819600
_cell_length_b   11.85518800
_cell_length_c   11.21080800
_cell_angle_alpha   90.00000000
_cell_angle_beta   90.00000000
_cell_angle_gamma   90.00000000
_symmetry_Int_Tables_number   1
_chemical_formula_structural   Yb7SbN4
_chemical_formula_sum   'Yb14 Sb2 N8'
_cell_volume   470.24831426
_cell_formula_units_Z   2
loop_
 _symmetry_equiv_pos_site_id
 _symmetry_equiv_pos_as_xyz
  1  'x, y, z'
loop_
 _atom_site_type_symbol
 _atom_site_label
 _atom_site_symmetry_multiplicity
 _atom_site_fract_x
 _atom_site_fract_y
 _atom_site_fract_z
 _atom_site_occupancy
  Yb  Yb0  1  0.500430  0.661728  0.248420  1
  Yb  Yb1  1  0.500430  0.338272  0.751580  1
  Yb  Yb2  1  0.499570  0.161728  0.251580  1
  Yb  Yb3  1  0.499570  0.838272  0.748420  1
  Yb  Yb4  1  0.499456  0.500000  0.000000  1
  Yb  Yb5  1  0.500544  0.000000  0.500000  1
  Yb  Yb6  1  0.999804  0.926324  0.260711  1
  Yb  Yb7  1  0.999804  0.073676  0.739289  1
  Yb  Yb8  1  0.000196  0.426324  0.239289  1
  Yb  Yb9  1  0.000196  0.573676  0.760711  1
  Yb  Yb10  1  0.000547  0.764201  0.483150  1
  Yb  Yb11  1  0.000547  0.235799  0.516850  1
  Yb  Yb12  1  0.999453  0.264201  0.016850  1
  Yb  Yb13  1  0.999453  0.735799  0.983150  1
  Sb  Sb14  1  0.506509  0.500000  0.500000  1
  Sb  Sb15  1  0.493491  0.000000  0.000000  1
  N  N16  1  0.000482  0.599961  0.132963  1
  N  N17  1  0.000482  0.400039  0.867037  1
  N  N18  1  0.999518  0.099961  0.367037  1
  N  N19  1  0.999518  0.900039  0.632963  1
  N  N20  1  0.500020  0.833248  0.359411  1
  N  N21  1  0.500020  0.166752  0.640589  1
  N  N22  1  0.499980  0.333248  0.140589  1
  N  N23  1  0.499980  0.666752  0.859411  1
