# generated using pymatgen
data_NaSrCr2F9
_symmetry_space_group_name_H-M   'P 1'
_cell_length_a   7.23354296
_cell_length_b   7.23354230
_cell_length_c   7.68745878
_cell_angle_alpha   88.25180518
_cell_angle_beta   88.25180146
_cell_angle_gamma   118.70693476
_symmetry_Int_Tables_number   1
_chemical_formula_structural   NaSrCr2F9
_chemical_formula_sum   'Na2 Sr2 Cr4 F18'
_cell_volume   352.16719615
_cell_formula_units_Z   2
loop_
 _symmetry_equiv_pos_site_id
 _symmetry_equiv_pos_as_xyz
  1  'x, y, z'
loop_
 _atom_site_type_symbol
 _atom_site_label
 _atom_site_symmetry_multiplicity
 _atom_site_fract_x
 _atom_site_fract_y
 _atom_site_fract_z
 _atom_site_occupancy
  Na  Na0  1  0.500000  0.000000  0.000000  1
  Na  Na1  1  0.000000  0.500000  0.500000  1
  Sr  Sr2  1  0.474039  0.525961  0.750000  1
  Sr  Sr3  1  0.525961  0.474039  0.250000  1
  Cr  Cr4  1  0.000000  0.000000  0.500000  1
  Cr  Cr5  1  0.000000  0.000000  0.000000  1
  Cr  Cr6  1  0.500000  0.000000  0.500000  1
  Cr  Cr7  1  0.000000  0.500000  0.000000  1
  F  F8  1  0.194302  0.889924  0.539146  1
  F  F9  1  0.805698  0.110076  0.460854  1
  F  F10  1  0.110076  0.805698  0.960854  1
  F  F11  1  0.889924  0.194302  0.039146  1
  F  F12  1  0.974273  0.025727  0.750000  1
  F  F13  1  0.025727  0.974273  0.250000  1
  F  F14  1  0.513737  0.892627  0.730269  1
  F  F15  1  0.486263  0.107373  0.269731  1
  F  F16  1  0.107373  0.486263  0.769731  1
  F  F17  1  0.892627  0.513737  0.230269  1
  F  F18  1  0.568748  0.278250  0.577268  1
  F  F19  1  0.431252  0.721750  0.422732  1
  F  F20  1  0.721750  0.431252  0.922732  1
  F  F21  1  0.278250  0.568748  0.077268  1
  F  F22  1  0.707564  0.782187  0.023582  1
  F  F23  1  0.292436  0.217813  0.976418  1
  F  F24  1  0.217813  0.292436  0.476418  1
  F  F25  1  0.782187  0.707564  0.523582  1
