# generated using pymatgen
data_Zr8Ta12Si15Ir
_symmetry_space_group_name_H-M   'P 1'
_cell_length_a   6.92156274
_cell_length_b   6.90165969
_cell_length_c   12.73475614
_cell_angle_alpha   89.86892130
_cell_angle_beta   89.81971111
_cell_angle_gamma   90.02624228
_symmetry_Int_Tables_number   1
_chemical_formula_structural   Zr8Ta12Si15Ir
_chemical_formula_sum   'Zr8 Ta12 Si15 Ir1'
_cell_volume   608.33807652
_cell_formula_units_Z   1
loop_
 _symmetry_equiv_pos_site_id
 _symmetry_equiv_pos_as_xyz
  1  'x, y, z'
loop_
 _atom_site_type_symbol
 _atom_site_label
 _atom_site_symmetry_multiplicity
 _atom_site_fract_x
 _atom_site_fract_y
 _atom_site_fract_z
 _atom_site_occupancy
  Zr  Zr0  1  0.999547  0.661233  0.030026  1
  Zr  Zr1  1  0.995389  0.331781  0.530820  1
  Zr  Zr2  1  0.660432  0.000905  0.970246  1
  Zr  Zr3  1  0.159392  0.499058  0.782614  1
  Zr  Zr4  1  0.836919  0.497562  0.278462  1
  Zr  Zr5  1  0.499962  0.158536  0.217248  1
  Zr  Zr6  1  0.499071  0.840976  0.719561  1
  Zr  Zr7  1  0.346712  0.004165  0.469051  1
  Ta  Ta8  1  0.351339  0.502691  0.374110  1
  Ta  Ta9  1  0.842061  0.999180  0.371582  1
  Ta  Ta10  1  0.004073  0.153945  0.126294  1
  Ta  Ta11  1  0.995503  0.848765  0.629166  1
  Ta  Ta12  1  0.652379  0.495115  0.876389  1
  Ta  Ta13  1  0.504074  0.349375  0.624656  1
  Ta  Ta14  1  0.494853  0.652605  0.123245  1
  Ta  Ta15  1  0.153081  0.004181  0.874198  1
  Ta  Ta16  1  0.668463  0.671048  0.500825  1
  Ta  Ta17  1  0.830003  0.169625  0.750262  1
  Ta  Ta18  1  0.171044  0.831913  0.249551  1
  Ta  Ta19  1  0.329190  0.329970  0.999763  1
  Si  Si20  1  0.954939  0.297967  0.936298  1
  Si  Si21  1  0.702802  0.043597  0.563626  1
  Si  Si22  1  0.200225  0.455869  0.186487  1
  Si  Si23  1  0.799601  0.544345  0.685802  1
  Si  Si24  1  0.456540  0.201128  0.813669  1
  Si  Si25  1  0.543592  0.798289  0.313264  1
  Si  Si26  1  0.298705  0.956134  0.064004  1
  Si  Si27  1  0.864037  0.792511  0.823847  1
  Si  Si28  1  0.136172  0.205983  0.323445  1
  Si  Si29  1  0.792082  0.864537  0.176653  1
  Si  Si30  1  0.293640  0.637233  0.571337  1
  Si  Si31  1  0.708281  0.366066  0.072652  1
  Si  Si32  1  0.635300  0.293386  0.427965  1
  Si  Si33  1  0.365357  0.708385  0.926823  1
  Si  Si34  1  0.209822  0.134703  0.677040  1
  Ir  Ir35  1  0.045416  0.697239  0.439019  1
