# generated using pymatgen
data_Dy4ReTc4Os3
_symmetry_space_group_name_H-M   'P 1'
_cell_length_a   5.31797769
_cell_length_b   5.26835711
_cell_length_c   9.03502700
_cell_angle_alpha   90.00000000
_cell_angle_beta   90.00000000
_cell_angle_gamma   119.08844049
_symmetry_Int_Tables_number   1
_chemical_formula_structural   Dy4ReTc4Os3
_chemical_formula_sum   'Dy4 Re1 Tc4 Os3'
_cell_volume   221.20664198
_cell_formula_units_Z   1
loop_
 _symmetry_equiv_pos_site_id
 _symmetry_equiv_pos_as_xyz
  1  'x, y, z'
loop_
 _atom_site_type_symbol
 _atom_site_label
 _atom_site_symmetry_multiplicity
 _atom_site_fract_x
 _atom_site_fract_y
 _atom_site_fract_z
 _atom_site_occupancy
  Dy  Dy0  1  0.330286  0.667013  0.435452  1
  Dy  Dy1  1  0.667019  0.333775  0.563334  1
  Dy  Dy2  1  0.667019  0.333775  0.936666  1
  Dy  Dy3  1  0.330286  0.667013  0.064548  1
  Re  Re4  1  0.836115  0.164866  0.250000  1
  Tc  Tc5  1  0.832139  0.656436  0.250000  1
  Tc  Tc6  1  0.172247  0.829858  0.750000  1
  Tc  Tc7  1  0.171446  0.342503  0.750000  1
  Tc  Tc8  1  0.657559  0.828559  0.750000  1
  Os  Os9  1  0.992118  0.002059  0.499846  1
  Os  Os10  1  0.992118  0.002059  0.000154  1
  Os  Os11  1  0.351648  0.172086  0.250000  1
