# generated using pymatgen
data_NaEu(Se2O5)2
_symmetry_space_group_name_H-M   'P 1'
_cell_length_a   7.10950912
_cell_length_b   7.10950801
_cell_length_c   6.37911400
_cell_angle_alpha   73.94273027
_cell_angle_beta   73.94274122
_cell_angle_gamma   108.74758103
_symmetry_Int_Tables_number   1
_chemical_formula_structural   NaEu(Se2O5)2
_chemical_formula_sum   'Na1 Eu1 Se4 O10'
_cell_volume   268.70711990
_cell_formula_units_Z   1
loop_
 _symmetry_equiv_pos_site_id
 _symmetry_equiv_pos_as_xyz
  1  'x, y, z'
loop_
 _atom_site_type_symbol
 _atom_site_label
 _atom_site_symmetry_multiplicity
 _atom_site_fract_x
 _atom_site_fract_y
 _atom_site_fract_z
 _atom_site_occupancy
  Na  Na0  1  0.411491  0.588509  0.750000  1
  Eu  Eu1  1  0.576887  0.423113  0.250000  1
  Se  Se2  1  0.298849  0.012225  0.865500  1
  Se  Se3  1  0.987775  0.701151  0.634500  1
  Se  Se4  1  0.722845  0.002321  0.117889  1
  Se  Se5  1  0.997679  0.277155  0.382111  1
  O  O6  1  0.087280  0.912720  0.750000  1
  O  O7  1  0.922309  0.077691  0.250000  1
  O  O8  1  0.406701  0.275835  0.670343  1
  O  O9  1  0.724165  0.593299  0.829657  1
  O  O10  1  0.596348  0.736765  0.305888  1
  O  O11  1  0.263235  0.403652  0.194112  1
  O  O12  1  0.901784  0.457092  0.280763  1
  O  O13  1  0.542908  0.098216  0.219237  1
  O  O14  1  0.074627  0.514884  0.725418  1
  O  O15  1  0.485116  0.925373  0.774582  1
