# generated using pymatgen
data_PrScFe3P7Ru9
_symmetry_space_group_name_H-M   'P 1'
_cell_length_a   9.32482400
_cell_length_b   9.32482396
_cell_length_c   3.85329900
_cell_angle_alpha   90.00000000
_cell_angle_beta   90.00000000
_cell_angle_gamma   119.99999919
_symmetry_Int_Tables_number   1
_chemical_formula_structural   PrScFe3P7Ru9
_chemical_formula_sum   'Pr1 Sc1 Fe3 P7 Ru9'
_cell_volume   290.16473538
_cell_formula_units_Z   1
loop_
 _symmetry_equiv_pos_site_id
 _symmetry_equiv_pos_as_xyz
  1  'x, y, z'
loop_
 _atom_site_type_symbol
 _atom_site_label
 _atom_site_symmetry_multiplicity
 _atom_site_fract_x
 _atom_site_fract_y
 _atom_site_fract_z
 _atom_site_occupancy
  Pr  Pr0  1  0.333333  0.666667  0.000000  1
  Sc  Sc1  1  0.666667  0.333333  0.500000  1
  Fe  Fe2  1  0.732218  0.890446  0.000000  1
  Fe  Fe3  1  0.109554  0.841771  0.000000  1
  Fe  Fe4  1  0.158229  0.267782  0.000000  1
  P  P5  1  0.608561  0.722783  0.500000  1
  P  P6  1  0.000000  0.000000  0.000000  1
  P  P7  1  0.277217  0.885778  0.500000  1
  P  P8  1  0.114222  0.391439  0.500000  1
  P  P9  1  0.889607  0.581449  0.000000  1
  P  P10  1  0.418551  0.308158  0.000000  1
  P  P11  1  0.691842  0.110393  0.000000  1
  Ru  Ru12  1  0.564552  0.954933  0.500000  1
  Ru  Ru13  1  0.390382  0.435448  0.500000  1
  Ru  Ru14  1  0.912010  0.114678  0.500000  1
  Ru  Ru15  1  0.202668  0.087990  0.500000  1
  Ru  Ru16  1  0.885322  0.797332  0.500000  1
  Ru  Ru17  1  0.421516  0.065765  0.000000  1
  Ru  Ru18  1  0.934235  0.355753  0.000000  1
  Ru  Ru19  1  0.644247  0.578484  0.000000  1
  Ru  Ru20  1  0.045067  0.609618  0.500000  1
