# generated using pymatgen
data_YHo5(B7Ru)2
_symmetry_space_group_name_H-M   'P 1'
_cell_length_a   8.02823706
_cell_length_b   8.02823794
_cell_length_c   9.31784700
_cell_angle_alpha   90.00000000
_cell_angle_beta   90.00000000
_cell_angle_gamma   154.75950428
_symmetry_Int_Tables_number   1
_chemical_formula_structural   YHo5(B7Ru)2
_chemical_formula_sum   'Y1 Ho5 B14 Ru2'
_cell_volume   256.08977706
_cell_formula_units_Z   1
loop_
 _symmetry_equiv_pos_site_id
 _symmetry_equiv_pos_as_xyz
  1  'x, y, z'
loop_
 _atom_site_type_symbol
 _atom_site_label
 _atom_site_symmetry_multiplicity
 _atom_site_fract_x
 _atom_site_fract_y
 _atom_site_fract_z
 _atom_site_occupancy
  Y  Y0  1  0.754849  0.245151  0.250000  1
  Ho  Ho1  1  0.105743  0.894257  0.059741  1
  Ho  Ho2  1  0.894104  0.105896  0.940018  1
  Ho  Ho3  1  0.244492  0.755508  0.750000  1
  Ho  Ho4  1  0.105743  0.894257  0.440259  1
  Ho  Ho5  1  0.894104  0.105896  0.559982  1
  B  B6  1  0.727355  0.272645  0.534515  1
  B  B7  1  0.272713  0.727287  0.466541  1
  B  B8  1  0.272713  0.727287  0.033459  1
  B  B9  1  0.727355  0.272645  0.965485  1
  B  B10  1  0.520720  0.479280  0.903757  1
  B  B11  1  0.479319  0.520681  0.096152  1
  B  B12  1  0.479319  0.520681  0.403848  1
  B  B13  1  0.520720  0.479280  0.596243  1
  B  B14  1  0.456784  0.543216  0.750000  1
  B  B15  1  0.543321  0.456679  0.250000  1
  B  B16  1  0.632052  0.367948  0.650913  1
  B  B17  1  0.368183  0.631817  0.349326  1
  B  B18  1  0.368183  0.631817  0.150674  1
  B  B19  1  0.632052  0.367948  0.849087  1
  Ru  Ru20  1  0.054111  0.945889  0.750000  1
  Ru  Ru21  1  0.946064  0.053936  0.250000  1
