# generated using pymatgen
data_La2UTc2
_symmetry_space_group_name_H-M   'P 1'
_cell_length_a   6.24326732
_cell_length_b   6.24326844
_cell_length_c   6.24326947
_cell_angle_alpha   140.64863766
_cell_angle_beta   124.97757138
_cell_angle_gamma   69.72490927
_symmetry_Int_Tables_number   1
_chemical_formula_structural   La2UTc2
_chemical_formula_sum   'La2 U1 Tc2'
_cell_volume   124.22099777
_cell_formula_units_Z   1
loop_
 _symmetry_equiv_pos_site_id
 _symmetry_equiv_pos_as_xyz
  1  'x, y, z'
loop_
 _atom_site_type_symbol
 _atom_site_label
 _atom_site_symmetry_multiplicity
 _atom_site_fract_x
 _atom_site_fract_y
 _atom_site_fract_z
 _atom_site_occupancy
  La  La0  1  0.697981  0.197982  0.500000  1
  La  La1  1  0.302018  0.802018  0.500000  1
  U  U2  1  0.000000  0.000000  0.000000  1
  Tc  Tc3  1  0.759079  0.500000  0.259079  1
  Tc  Tc4  1  0.240920  0.500000  0.740920  1
