# generated using pymatgen
data_Dy5VSi9(PIr6)3
_symmetry_space_group_name_H-M   'P 1'
_cell_length_a   12.81050444
_cell_length_b   12.84312410
_cell_length_c   3.95674000
_cell_angle_alpha   90.00000000
_cell_angle_beta   90.00000000
_cell_angle_gamma   120.08426591
_symmetry_Int_Tables_number   1
_chemical_formula_structural   Dy5VSi9(PIr6)3
_chemical_formula_sum   'Dy5 V1 Si9 P3 Ir18'
_cell_volume   563.29469480
_cell_formula_units_Z   1
loop_
 _symmetry_equiv_pos_site_id
 _symmetry_equiv_pos_as_xyz
  1  'x, y, z'
loop_
 _atom_site_type_symbol
 _atom_site_label
 _atom_site_symmetry_multiplicity
 _atom_site_fract_x
 _atom_site_fract_y
 _atom_site_fract_z
 _atom_site_occupancy
  Dy  Dy0  1  0.330534  0.664898  0.500000  1
  Dy  Dy1  1  0.669466  0.334363  0.500000  1
  Dy  Dy2  1  0.000000  0.811980  0.000000  1
  Dy  Dy3  1  0.186453  0.186077  0.000000  1
  Dy  Dy4  1  0.813547  0.999623  0.000000  1
  V  V5  1  0.000000  0.440036  0.500000  1
  Si  Si6  1  0.000000  0.631876  0.500000  1
  Si  Si7  1  0.367805  0.367221  0.500000  1
  Si  Si8  1  0.632195  0.999416  0.500000  1
  Si  Si9  1  0.516798  0.685791  0.000000  1
  Si  Si10  1  0.311978  0.832902  0.000000  1
  Si  Si11  1  0.165914  0.480544  0.000000  1
  Si  Si12  1  0.483202  0.168994  0.000000  1
  Si  Si13  1  0.688022  0.520923  0.000000  1
  Si  Si14  1  0.834086  0.314630  0.000000  1
  P  P15  1  0.000000  0.178121  0.500000  1
  P  P16  1  0.819857  0.821184  0.500000  1
  P  P17  1  0.180143  0.001327  0.500000  1
  Ir  Ir18  1  0.511420  0.872157  0.000000  1
  Ir  Ir19  1  0.126951  0.640364  0.000000  1
  Ir  Ir20  1  0.359730  0.485989  0.000000  1
  Ir  Ir21  1  0.488580  0.360735  0.000000  1
  Ir  Ir22  1  0.873049  0.513414  0.000000  1
  Ir  Ir23  1  0.640270  0.126259  0.000000  1
  Ir  Ir24  1  0.553100  0.553325  0.500000  1
  Ir  Ir25  1  0.446900  0.000226  0.500000  1
  Ir  Ir26  1  0.000000  0.276082  0.000000  1
  Ir  Ir27  1  0.719517  0.722444  0.000000  1
  Ir  Ir28  1  0.280483  0.002927  0.000000  1
  Ir  Ir29  1  0.624914  0.806262  0.500000  1
  Ir  Ir30  1  0.193123  0.822979  0.500000  1
  Ir  Ir31  1  0.179884  0.373197  0.500000  1
  Ir  Ir32  1  0.375086  0.181348  0.500000  1
  Ir  Ir33  1  0.806877  0.629856  0.500000  1
  Ir  Ir34  1  0.820116  0.193313  0.500000  1
  Ir  Ir35  1  0.000000  0.999213  0.500000  1
