# generated using pymatgen
data_NaP2RhO7
_symmetry_space_group_name_H-M   'P 1'
_cell_length_a   4.87118026
_cell_length_b   7.15062695
_cell_length_c   8.22752400
_cell_angle_alpha   89.99998241
_cell_angle_beta   89.99992295
_cell_angle_gamma   106.51345258
_symmetry_Int_Tables_number   1
_chemical_formula_structural   NaP2RhO7
_chemical_formula_sum   'Na2 P4 Rh2 O14'
_cell_volume   274.76045477
_cell_formula_units_Z   2
loop_
 _symmetry_equiv_pos_site_id
 _symmetry_equiv_pos_as_xyz
  1  'x, y, z'
loop_
 _atom_site_type_symbol
 _atom_site_label
 _atom_site_symmetry_multiplicity
 _atom_site_fract_x
 _atom_site_fract_y
 _atom_site_fract_z
 _atom_site_occupancy
  Na  Na0  1  0.219014  0.742559  0.918440  1
  Na  Na1  1  0.780984  0.257442  0.418438  1
  P  P2  1  0.384813  0.496814  0.193228  1
  P  P3  1  0.615187  0.503185  0.693228  1
  P  P4  1  0.224941  0.113758  0.764687  1
  P  P5  1  0.775057  0.886243  0.264689  1
  Rh  Rh6  1  0.776246  0.269906  0.998498  1
  Rh  Rh7  1  0.223754  0.730091  0.498496  1
  O  O8  1  0.041533  0.820266  0.299737  1
  O  O9  1  0.958465  0.179734  0.799738  1
  O  O10  1  0.136748  0.928423  0.662432  1
  O  O11  1  0.863250  0.071576  0.162433  1
  O  O12  1  0.164204  0.459611  0.056823  1
  O  O13  1  0.835798  0.540389  0.556823  1
  O  O14  1  0.263487  0.494858  0.366274  1
  O  O15  1  0.736514  0.505141  0.866274  1
  O  O16  1  0.415990  0.635117  0.693170  1
  O  O17  1  0.584015  0.364886  0.193169  1
  O  O18  1  0.605984  0.914073  0.417497  1
  O  O19  1  0.394017  0.085929  0.917494  1
  O  O20  1  0.565234  0.720565  0.149374  1
  O  O21  1  0.434764  0.279435  0.649372  1
