# generated using pymatgen
data_Dy20Tc3NiBi8
_symmetry_space_group_name_H-M   'P 1'
_cell_length_a   7.99097857
_cell_length_b   9.07393800
_cell_length_c   12.41007237
_cell_angle_alpha   90.00000000
_cell_angle_beta   90.24324668
_cell_angle_gamma   90.00000000
_symmetry_Int_Tables_number   1
_chemical_formula_structural   Dy20Tc3NiBi8
_chemical_formula_sum   'Dy20 Tc3 Ni1 Bi8'
_cell_volume   899.84182168
_cell_formula_units_Z   1
loop_
 _symmetry_equiv_pos_site_id
 _symmetry_equiv_pos_as_xyz
  1  'x, y, z'
loop_
 _atom_site_type_symbol
 _atom_site_label
 _atom_site_symmetry_multiplicity
 _atom_site_fract_x
 _atom_site_fract_y
 _atom_site_fract_z
 _atom_site_occupancy
  Dy  Dy0  1  0.839999  0.750000  0.791960  1
  Dy  Dy1  1  0.158571  0.250000  0.210140  1
  Dy  Dy2  1  0.342672  0.250000  0.709140  1
  Dy  Dy3  1  0.652153  0.750000  0.295900  1
  Dy  Dy4  1  0.378244  0.750000  0.692608  1
  Dy  Dy5  1  0.621012  0.250000  0.307163  1
  Dy  Dy6  1  0.877406  0.250000  0.806473  1
  Dy  Dy7  1  0.122408  0.750000  0.190693  1
  Dy  Dy8  1  0.946591  0.750000  0.504505  1
  Dy  Dy9  1  0.052867  0.250000  0.496044  1
  Dy  Dy10  1  0.449735  0.250000  0.996539  1
  Dy  Dy11  1  0.553577  0.750000  0.004727  1
  Dy  Dy12  1  0.675065  0.041156  0.564474  1
  Dy  Dy13  1  0.323070  0.959689  0.435260  1
  Dy  Dy14  1  0.176856  0.960403  0.934683  1
  Dy  Dy15  1  0.323070  0.540311  0.435260  1
  Dy  Dy16  1  0.824841  0.042383  0.063599  1
  Dy  Dy17  1  0.675065  0.458844  0.564474  1
  Dy  Dy18  1  0.824841  0.457617  0.063599  1
  Dy  Dy19  1  0.176856  0.539597  0.934683  1
  Tc  Tc20  1  0.579359  0.750000  0.514345  1
  Tc  Tc21  1  0.419423  0.250000  0.487953  1
  Tc  Tc22  1  0.078674  0.250000  0.988571  1
  Ni  Ni23  1  0.927944  0.750000  0.008733  1
  Bi  Bi24  1  0.571560  0.493706  0.828208  1
  Bi  Bi25  1  0.428997  0.507670  0.171563  1
  Bi  Bi26  1  0.071489  0.507210  0.673030  1
  Bi  Bi27  1  0.428997  0.992330  0.171563  1
  Bi  Bi28  1  0.927807  0.494528  0.326435  1
  Bi  Bi29  1  0.571560  0.006294  0.828208  1
  Bi  Bi30  1  0.927807  0.005472  0.326435  1
  Bi  Bi31  1  0.071489  0.992790  0.673030  1
