# generated using pymatgen
data_Hf16Co4SnMo3
_symmetry_space_group_name_H-M   'P 1'
_cell_length_a   8.73466252
_cell_length_b   8.73466295
_cell_length_c   8.73466328
_cell_angle_alpha   59.74820070
_cell_angle_beta   59.74818946
_cell_angle_gamma   59.74820078
_symmetry_Int_Tables_number   1
_chemical_formula_structural   Hf16Co4SnMo3
_chemical_formula_sum   'Hf16 Co4 Sn1 Mo3'
_cell_volume   468.52528917
_cell_formula_units_Z   1
loop_
 _symmetry_equiv_pos_site_id
 _symmetry_equiv_pos_as_xyz
  1  'x, y, z'
loop_
 _atom_site_type_symbol
 _atom_site_label
 _atom_site_symmetry_multiplicity
 _atom_site_fract_x
 _atom_site_fract_y
 _atom_site_fract_z
 _atom_site_occupancy
  Hf  Hf0  1  0.707783  0.094754  0.094754  1
  Hf  Hf1  1  0.094754  0.707783  0.094754  1
  Hf  Hf2  1  0.094754  0.094754  0.707783  1
  Hf  Hf3  1  0.101762  0.101762  0.101762  1
  Hf  Hf4  1  0.314120  0.314120  0.696341  1
  Hf  Hf5  1  0.685576  0.685576  0.315430  1
  Hf  Hf6  1  0.314120  0.696341  0.314120  1
  Hf  Hf7  1  0.685576  0.315430  0.685576  1
  Hf  Hf8  1  0.696341  0.314120  0.314120  1
  Hf  Hf9  1  0.315430  0.685576  0.685576  1
  Hf  Hf10  1  0.952485  0.952485  0.545910  1
  Hf  Hf11  1  0.557252  0.557252  0.937243  1
  Hf  Hf12  1  0.952485  0.545910  0.952485  1
  Hf  Hf13  1  0.557252  0.937243  0.557252  1
  Hf  Hf14  1  0.545910  0.952485  0.952485  1
  Hf  Hf15  1  0.937243  0.557252  0.557252  1
  Co  Co16  1  0.327108  0.890407  0.890407  1
  Co  Co17  1  0.890407  0.327108  0.890407  1
  Co  Co18  1  0.890407  0.890407  0.327108  1
  Co  Co19  1  0.889156  0.889156  0.889156  1
  Sn  Sn20  1  0.329505  0.329505  0.329505  1
  Mo  Mo21  1  0.994978  0.332796  0.332796  1
  Mo  Mo22  1  0.332796  0.994978  0.332796  1
  Mo  Mo23  1  0.332796  0.332796  0.994978  1
