# generated using pymatgen
data_CeNp9O20
_symmetry_space_group_name_H-M   'P 1'
_cell_length_a   6.61155067
_cell_length_b   7.64620815
_cell_length_c   8.54315732
_cell_angle_alpha   103.02919219
_cell_angle_beta   97.39012570
_cell_angle_gamma   106.76781242
_symmetry_Int_Tables_number   1
_chemical_formula_structural   CeNp9O20
_chemical_formula_sum   'Ce1 Np9 O20'
_cell_volume   394.09779027
_cell_formula_units_Z   1
loop_
 _symmetry_equiv_pos_site_id
 _symmetry_equiv_pos_as_xyz
  1  'x, y, z'
loop_
 _atom_site_type_symbol
 _atom_site_label
 _atom_site_symmetry_multiplicity
 _atom_site_fract_x
 _atom_site_fract_y
 _atom_site_fract_z
 _atom_site_occupancy
  Ce  Ce0  1  0.000000  0.500000  0.000000  1
  Np  Np1  1  0.200178  0.900084  0.400290  1
  Np  Np2  1  0.200046  0.400123  0.400585  1
  Np  Np3  1  0.599919  0.700107  0.199817  1
  Np  Np4  1  0.599412  0.199756  0.199727  1
  Np  Np5  1  0.000000  0.000000  0.000000  1
  Np  Np6  1  0.799822  0.099916  0.599710  1
  Np  Np7  1  0.799954  0.599877  0.599415  1
  Np  Np8  1  0.400081  0.299893  0.800183  1
  Np  Np9  1  0.400588  0.800244  0.800273  1
  O  O10  1  0.850433  0.325271  0.450326  1
  O  O11  1  0.149567  0.674729  0.549674  1
  O  O12  1  0.150375  0.174995  0.548799  1
  O  O13  1  0.849625  0.825005  0.451201  1
  O  O14  1  0.550998  0.474880  0.351162  1
  O  O15  1  0.551321  0.976164  0.350300  1
  O  O16  1  0.254824  0.627268  0.254703  1
  O  O17  1  0.949233  0.780628  0.152705  1
  O  O18  1  0.251912  0.125411  0.250370  1
  O  O19  1  0.949252  0.269907  0.153110  1
  O  O20  1  0.356574  0.576934  0.948503  1
  O  O21  1  0.351103  0.074610  0.950342  1
  O  O22  1  0.050767  0.219372  0.847295  1
  O  O23  1  0.648897  0.925390  0.049658  1
  O  O24  1  0.643426  0.423066  0.051497  1
  O  O25  1  0.050748  0.730093  0.846890  1
  O  O26  1  0.449002  0.525120  0.648838  1
  O  O27  1  0.448679  0.023836  0.649700  1
  O  O28  1  0.748088  0.874589  0.749630  1
  O  O29  1  0.745176  0.372732  0.745297  1
