# generated using pymatgen
data_Tm5Al2InC4
_symmetry_space_group_name_H-M   'P 1'
_cell_length_a   10.84684600
_cell_length_b   10.84684600
_cell_length_c   3.49061800
_cell_angle_alpha   90.00000000
_cell_angle_beta   90.00000000
_cell_angle_gamma   90.00000000
_symmetry_Int_Tables_number   1
_chemical_formula_structural   Tm5Al2InC4
_chemical_formula_sum   'Tm10 Al4 In2 C8'
_cell_volume   410.68540805
_cell_formula_units_Z   2
loop_
 _symmetry_equiv_pos_site_id
 _symmetry_equiv_pos_as_xyz
  1  'x, y, z'
loop_
 _atom_site_type_symbol
 _atom_site_label
 _atom_site_symmetry_multiplicity
 _atom_site_fract_x
 _atom_site_fract_y
 _atom_site_fract_z
 _atom_site_occupancy
  Tm  Tm0  1  0.550041  0.734657  0.500000  1
  Tm  Tm1  1  0.449959  0.265343  0.500000  1
  Tm  Tm2  1  0.050041  0.765343  0.500000  1
  Tm  Tm3  1  0.949959  0.234657  0.500000  1
  Tm  Tm4  1  0.265343  0.550041  0.500000  1
  Tm  Tm5  1  0.734657  0.449959  0.500000  1
  Tm  Tm6  1  0.234657  0.050041  0.500000  1
  Tm  Tm7  1  0.765343  0.949959  0.500000  1
  Tm  Tm8  1  0.500000  0.000000  0.000000  1
  Tm  Tm9  1  0.000000  0.500000  0.000000  1
  Al  Al10  1  0.703448  0.203448  0.000000  1
  Al  Al11  1  0.296552  0.796552  0.000000  1
  Al  Al12  1  0.203448  0.296552  0.000000  1
  Al  Al13  1  0.796552  0.703448  0.000000  1
  In  In14  1  0.500000  0.500000  0.000000  1
  In  In15  1  0.000000  0.000000  0.000000  1
  C  C16  1  0.629823  0.129823  0.500000  1
  C  C17  1  0.370177  0.870177  0.500000  1
  C  C18  1  0.129823  0.370177  0.500000  1
  C  C19  1  0.870177  0.629823  0.500000  1
  C  C20  1  0.161191  0.661191  0.000000  1
  C  C21  1  0.838809  0.338809  0.000000  1
  C  C22  1  0.661191  0.838809  0.000000  1
  C  C23  1  0.338809  0.161191  0.000000  1
