# generated using pymatgen
data_Pr10Si16Pb
_symmetry_space_group_name_H-M   'P 1'
_cell_length_a   11.61554031
_cell_length_b   11.51428332
_cell_length_c   11.61554044
_cell_angle_alpha   144.52576558
_cell_angle_beta   136.30557483
_cell_angle_gamma   57.65776120
_symmetry_Int_Tables_number   1
_chemical_formula_structural   Pr10Si16Pb
_chemical_formula_sum   'Pr10 Si16 Pb1'
_cell_volume   617.16689212
_cell_formula_units_Z   1
loop_
 _symmetry_equiv_pos_site_id
 _symmetry_equiv_pos_as_xyz
  1  'x, y, z'
loop_
 _atom_site_type_symbol
 _atom_site_label
 _atom_site_symmetry_multiplicity
 _atom_site_fract_x
 _atom_site_fract_y
 _atom_site_fract_z
 _atom_site_occupancy
  Pr  Pr0  1  0.754080  0.760022  0.515550  1
  Pr  Pr1  1  0.436040  0.975028  0.016249  1
  Pr  Pr2  1  0.847307  0.367091  0.017437  1
  Pr  Pr3  1  0.958779  0.975028  0.538987  1
  Pr  Pr4  1  0.148030  0.160607  0.509741  1
  Pr  Pr5  1  0.349653  0.367091  0.519785  1
  Pr  Pr6  1  0.244472  0.760022  0.005941  1
  Pr  Pr7  1  0.543781  0.552537  0.491288  1
  Pr  Pr8  1  0.061249  0.552537  0.008757  1
  Pr  Pr9  1  0.650865  0.160607  0.012576  1
  Si  Si10  1  0.196722  0.604524  0.407801  1
  Si  Si11  1  0.999097  0.087568  0.088472  1
  Si  Si12  1  0.699890  0.284497  0.584607  1
  Si  Si13  1  0.801356  0.198885  0.397529  1
  Si  Si14  1  0.897472  0.501577  0.604105  1
  Si  Si15  1  0.408809  0.850968  0.442158  1
  Si  Si16  1  0.101067  0.707155  0.606087  1
  Si  Si17  1  0.299781  0.890497  0.590716  1
  Si  Si18  1  0.587915  0.036058  0.448143  1
  Si  Si19  1  0.998612  0.427862  0.429250  1
  Si  Si20  1  0.888874  0.831317  0.942443  1
  Si  Si21  1  0.401146  0.501239  0.100091  1
  Si  Si22  1  0.107922  0.057835  0.949912  1
  Si  Si23  1  0.297173  0.229883  0.932712  1
  Si  Si24  1  0.498332  0.412302  0.913970  1
  Si  Si25  1  0.596079  0.705221  0.109142  1
  Pb  Pb26  1  0.725499  0.703547  0.978048  1
