# generated using pymatgen
data_Tb3Lu7CoAu3
_symmetry_space_group_name_H-M   'P 1'
_cell_length_a   9.25853800
_cell_length_b   9.25853964
_cell_length_c   9.31949300
_cell_angle_alpha   90.00000000
_cell_angle_beta   90.00000000
_cell_angle_gamma   119.99999415
_symmetry_Int_Tables_number   1
_chemical_formula_structural   Tb3Lu7CoAu3
_chemical_formula_sum   'Tb6 Lu14 Co2 Au6'
_cell_volume   691.84347181
_cell_formula_units_Z   2
loop_
 _symmetry_equiv_pos_site_id
 _symmetry_equiv_pos_as_xyz
  1  'x, y, z'
loop_
 _atom_site_type_symbol
 _atom_site_label
 _atom_site_symmetry_multiplicity
 _atom_site_fract_x
 _atom_site_fract_y
 _atom_site_fract_z
 _atom_site_occupancy
  Tb  Tb0  1  0.541518  0.458492  0.250000  1
  Tb  Tb1  1  0.541509  0.083031  0.250000  1
  Tb  Tb2  1  0.916994  0.458514  0.250000  1
  Tb  Tb3  1  0.458482  0.541508  0.750000  1
  Tb  Tb4  1  0.458491  0.916969  0.750000  1
  Tb  Tb5  1  0.083006  0.541486  0.750000  1
  Lu  Lu6  1  0.000000  0.000000  0.500000  1
  Lu  Lu7  1  0.000000  0.000000  0.000000  1
  Lu  Lu8  1  0.209406  0.790594  0.436896  1
  Lu  Lu9  1  0.209424  0.418862  0.436885  1
  Lu  Lu10  1  0.581151  0.790582  0.436870  1
  Lu  Lu11  1  0.790594  0.209406  0.563104  1
  Lu  Lu12  1  0.790576  0.581138  0.563115  1
  Lu  Lu13  1  0.418849  0.209418  0.563130  1
  Lu  Lu14  1  0.790594  0.209406  0.936896  1
  Lu  Lu15  1  0.790576  0.581138  0.936885  1
  Lu  Lu16  1  0.418849  0.209418  0.936870  1
  Lu  Lu17  1  0.209406  0.790594  0.063104  1
  Lu  Lu18  1  0.209424  0.418862  0.063115  1
  Lu  Lu19  1  0.581151  0.790582  0.063130  1
  Co  Co20  1  0.333325  0.666703  0.250000  1
  Co  Co21  1  0.666675  0.333297  0.750000  1
  Au  Au22  1  0.884015  0.115932  0.250000  1
  Au  Au23  1  0.884092  0.768137  0.250000  1
  Au  Au24  1  0.231873  0.115891  0.250000  1
  Au  Au25  1  0.115985  0.884068  0.750000  1
  Au  Au26  1  0.115908  0.231863  0.750000  1
  Au  Au27  1  0.768127  0.884109  0.750000  1
