# generated using pymatgen
data_Pa4V3TcC8
_symmetry_space_group_name_H-M   'P 1'
_cell_length_a   3.31074900
_cell_length_b   5.65547405
_cell_length_c   10.83994074
_cell_angle_alpha   90.04590143
_cell_angle_beta   90.00000000
_cell_angle_gamma   90.00000000
_symmetry_Int_Tables_number   1
_chemical_formula_structural   Pa4V3TcC8
_chemical_formula_sum   'Pa4 V3 Tc1 C8'
_cell_volume   202.96541416
_cell_formula_units_Z   1
loop_
 _symmetry_equiv_pos_site_id
 _symmetry_equiv_pos_as_xyz
  1  'x, y, z'
loop_
 _atom_site_type_symbol
 _atom_site_label
 _atom_site_symmetry_multiplicity
 _atom_site_fract_x
 _atom_site_fract_y
 _atom_site_fract_z
 _atom_site_occupancy
  Pa  Pa0  1  0.250000  0.082954  0.859596  1
  Pa  Pa1  1  0.250000  0.581780  0.641807  1
  Pa  Pa2  1  0.750000  0.917889  0.142161  1
  Pa  Pa3  1  0.750000  0.418760  0.357362  1
  V  V4  1  0.250000  0.418157  0.101751  1
  V  V5  1  0.250000  0.918309  0.399140  1
  V  V6  1  0.750000  0.579554  0.899638  1
  Tc  Tc7  1  0.750000  0.080164  0.600757  1
  C  C8  1  0.250000  0.165176  0.245216  1
  C  C9  1  0.250000  0.666790  0.252503  1
  C  C10  1  0.750000  0.833734  0.754347  1
  C  C11  1  0.750000  0.339022  0.750830  1
  C  C12  1  0.250000  0.725063  0.987479  1
  C  C13  1  0.250000  0.231309  0.507502  1
  C  C14  1  0.750000  0.275941  0.013294  1
  C  C15  1  0.750000  0.765399  0.486618  1
