# generated using pymatgen
data_Y2Ga9Co2Ni
_symmetry_space_group_name_H-M   'P 1'
_cell_length_a   7.39282625
_cell_length_b   7.39282371
_cell_length_c   9.39230300
_cell_angle_alpha   90.00000000
_cell_angle_beta   90.00000000
_cell_angle_gamma   119.78564327
_symmetry_Int_Tables_number   1
_chemical_formula_structural   Y2Ga9Co2Ni
_chemical_formula_sum   'Y4 Ga18 Co4 Ni2'
_cell_volume   445.51015289
_cell_formula_units_Z   2
loop_
 _symmetry_equiv_pos_site_id
 _symmetry_equiv_pos_as_xyz
  1  'x, y, z'
loop_
 _atom_site_type_symbol
 _atom_site_label
 _atom_site_symmetry_multiplicity
 _atom_site_fract_x
 _atom_site_fract_y
 _atom_site_fract_z
 _atom_site_occupancy
  Y  Y0  1  0.668993  0.996679  0.750000  1
  Y  Y1  1  0.331007  0.003321  0.250000  1
  Y  Y2  1  0.996679  0.668993  0.750000  1
  Y  Y3  1  0.003321  0.331007  0.250000  1
  Ga  Ga4  1  0.001226  0.663294  0.072511  1
  Ga  Ga5  1  0.663295  0.001226  0.427489  1
  Ga  Ga6  1  0.001089  0.663237  0.427492  1
  Ga  Ga7  1  0.998911  0.336763  0.927492  1
  Ga  Ga8  1  0.663237  0.001089  0.072508  1
  Ga  Ga9  1  0.336705  0.998774  0.927489  1
  Ga  Ga10  1  0.663916  0.663871  0.558946  1
  Ga  Ga11  1  0.336084  0.336129  0.058946  1
  Ga  Ga12  1  0.663870  0.663915  0.941054  1
  Ga  Ga13  1  0.336130  0.336085  0.441054  1
  Ga  Ga14  1  0.124241  0.124241  0.750000  1
  Ga  Ga15  1  0.875759  0.875759  0.250000  1
  Ga  Ga16  1  0.664575  0.450149  0.250050  1
  Ga  Ga17  1  0.335425  0.549851  0.750050  1
  Ga  Ga18  1  0.450149  0.664575  0.249950  1
  Ga  Ga19  1  0.549851  0.335425  0.749950  1
  Ga  Ga20  1  0.336763  0.998911  0.572508  1
  Ga  Ga21  1  0.998774  0.336706  0.572511  1
  Co  Co22  1  0.670614  0.329386  0.000000  1
  Co  Co23  1  0.329386  0.670614  0.500000  1
  Co  Co24  1  0.329397  0.670603  0.000000  1
  Co  Co25  1  0.670603  0.329397  0.500000  1
  Ni  Ni26  1  0.999997  0.000002  0.000000  1
  Ni  Ni27  1  0.000003  0.999998  0.500000  1
