# generated using pymatgen
data_Sm8Lu12Si15Ag
_symmetry_space_group_name_H-M   'P 1'
_cell_length_a   7.39545040
_cell_length_b   7.65209832
_cell_length_c   14.59325171
_cell_angle_alpha   89.86789701
_cell_angle_beta   89.59033593
_cell_angle_gamma   90.20329088
_symmetry_Int_Tables_number   1
_chemical_formula_structural   Sm8Lu12Si15Ag
_chemical_formula_sum   'Sm8 Lu12 Si15 Ag1'
_cell_volume   825.81397598
_cell_formula_units_Z   1
loop_
 _symmetry_equiv_pos_site_id
 _symmetry_equiv_pos_as_xyz
  1  'x, y, z'
loop_
 _atom_site_type_symbol
 _atom_site_label
 _atom_site_symmetry_multiplicity
 _atom_site_fract_x
 _atom_site_fract_y
 _atom_site_fract_z
 _atom_site_occupancy
  Sm  Sm0  1  0.014237  0.176612  0.098764  1
  Sm  Sm1  1  0.985490  0.825279  0.903270  1
  Sm  Sm2  1  0.485335  0.676666  0.903099  1
  Sm  Sm3  1  0.987786  0.831430  0.598357  1
  Sm  Sm4  1  0.513607  0.323521  0.097337  1
  Sm  Sm5  1  0.010465  0.171379  0.398207  1
  Sm  Sm6  1  0.514407  0.321856  0.398985  1
  Sm  Sm7  1  0.491803  0.678843  0.600846  1
  Lu  Lu8  1  0.164033  0.505907  0.752171  1
  Lu  Lu9  1  0.836923  0.494183  0.250948  1
  Lu  Lu10  1  0.336758  0.004462  0.248464  1
  Lu  Lu11  1  0.666302  0.992255  0.751655  1
  Lu  Lu12  1  0.339732  0.173641  0.625201  1
  Lu  Lu13  1  0.666011  0.823452  0.375461  1
  Lu  Lu14  1  0.168168  0.674211  0.374057  1
  Lu  Lu15  1  0.671430  0.824164  0.122940  1
  Lu  Lu16  1  0.826021  0.326156  0.623233  1
  Lu  Lu17  1  0.327384  0.175655  0.877565  1
  Lu  Lu18  1  0.828667  0.322243  0.877799  1
  Lu  Lu19  1  0.170376  0.676516  0.123415  1
  Si  Si20  1  0.036971  0.120283  0.750369  1
  Si  Si21  1  0.964487  0.884056  0.249183  1
  Si  Si22  1  0.465258  0.614851  0.248271  1
  Si  Si23  1  0.536472  0.386414  0.752307  1
  Si  Si24  1  0.283971  0.875663  0.751072  1
  Si  Si25  1  0.713830  0.126127  0.248127  1
  Si  Si26  1  0.216458  0.372495  0.248569  1
  Si  Si27  1  0.786203  0.625784  0.752569  1
  Si  Si28  1  0.837197  0.536431  0.459050  1
  Si  Si29  1  0.339232  0.962997  0.461336  1
  Si  Si30  1  0.845390  0.534425  0.038684  1
  Si  Si31  1  0.658025  0.034701  0.537721  1
  Si  Si32  1  0.153206  0.465995  0.961928  1
  Si  Si33  1  0.654812  0.033251  0.960526  1
  Si  Si34  1  0.344562  0.966107  0.039702  1
  Ag  Ag35  1  0.158989  0.461991  0.538809  1
