# generated using pymatgen
data_Mg2Sc2As6Ru7
_symmetry_space_group_name_H-M   'P 1'
_cell_length_a   7.10454585
_cell_length_b   7.00329392
_cell_length_c   7.00329475
_cell_angle_alpha   108.88923593
_cell_angle_beta   109.46988856
_cell_angle_gamma   109.46987640
_symmetry_Int_Tables_number   1
_chemical_formula_structural   Mg2Sc2As6Ru7
_chemical_formula_sum   'Mg2 Sc2 As6 Ru7'
_cell_volume   270.14850222
_cell_formula_units_Z   1
loop_
 _symmetry_equiv_pos_site_id
 _symmetry_equiv_pos_as_xyz
  1  'x, y, z'
loop_
 _atom_site_type_symbol
 _atom_site_label
 _atom_site_symmetry_multiplicity
 _atom_site_fract_x
 _atom_site_fract_y
 _atom_site_fract_z
 _atom_site_occupancy
  Mg  Mg0  1  0.500000  0.000000  0.000000  1
  Mg  Mg1  1  0.500000  0.500000  0.500000  1
  Sc  Sc2  1  0.000000  0.000000  0.500000  1
  Sc  Sc3  1  0.000000  0.500000  0.000000  1
  As  As4  1  0.310580  0.001173  0.309407  1
  As  As5  1  0.000000  0.309517  0.309517  1
  As  As6  1  0.000000  0.690483  0.690483  1
  As  As7  1  0.310580  0.309407  0.001173  1
  As  As8  1  0.689420  0.690593  0.998827  1
  As  As9  1  0.689420  0.998827  0.690593  1
  Ru  Ru10  1  0.748016  0.497908  0.250108  1
  Ru  Ru11  1  0.500000  0.750000  0.250000  1
  Ru  Ru12  1  0.500000  0.250000  0.750000  1
  Ru  Ru13  1  0.748016  0.250108  0.497908  1
  Ru  Ru14  1  0.251984  0.749892  0.502092  1
  Ru  Ru15  1  0.251984  0.502092  0.749892  1
  Ru  Ru16  1  0.000000  0.000000  0.000000  1
