# generated using pymatgen
data_Dy4FeB16Ir3
_symmetry_space_group_name_H-M   'P 1'
_cell_length_a   3.53180600
_cell_length_b   5.95497848
_cell_length_c   11.54292954
_cell_angle_alpha   89.84485294
_cell_angle_beta   90.00000000
_cell_angle_gamma   90.00000000
_symmetry_Int_Tables_number   1
_chemical_formula_structural   Dy4FeB16Ir3
_chemical_formula_sum   'Dy4 Fe1 B16 Ir3'
_cell_volume   242.76802698
_cell_formula_units_Z   1
loop_
 _symmetry_equiv_pos_site_id
 _symmetry_equiv_pos_as_xyz
  1  'x, y, z'
loop_
 _atom_site_type_symbol
 _atom_site_label
 _atom_site_symmetry_multiplicity
 _atom_site_fract_x
 _atom_site_fract_y
 _atom_site_fract_z
 _atom_site_occupancy
  Dy  Dy0  1  0.000000  0.629977  0.354861  1
  Dy  Dy1  1  0.000000  0.373118  0.647685  1
  Dy  Dy2  1  0.000000  0.130719  0.149250  1
  Dy  Dy3  1  0.000000  0.869175  0.845595  1
  Fe  Fe4  1  0.000000  0.860585  0.593756  1
  B  B5  1  0.500000  0.790195  0.188575  1
  B  B6  1  0.500000  0.210114  0.810595  1
  B  B7  1  0.500000  0.289627  0.314399  1
  B  B8  1  0.500000  0.715625  0.683661  1
  B  B9  1  0.500000  0.863772  0.029688  1
  B  B10  1  0.500000  0.135966  0.968849  1
  B  B11  1  0.500000  0.363902  0.470498  1
  B  B12  1  0.500000  0.639373  0.533043  1
  B  B13  1  0.500000  0.886137  0.456310  1
  B  B14  1  0.500000  0.110052  0.547589  1
  B  B15  1  0.500000  0.387695  0.046430  1
  B  B16  1  0.500000  0.612924  0.952085  1
  B  B17  1  0.500000  0.971844  0.309585  1
  B  B18  1  0.500000  0.021971  0.689760  1
  B  B19  1  0.500000  0.472177  0.192948  1
  B  B20  1  0.500000  0.527241  0.805960  1
  Ir  Ir21  1  0.000000  0.644136  0.097121  1
  Ir  Ir22  1  0.000000  0.357088  0.904201  1
  Ir  Ir23  1  0.000000  0.136585  0.407556  1
