# generated using pymatgen
data_Dy6Ho6Tc3Ru
_symmetry_space_group_name_H-M   'P 1'
_cell_length_a   6.26812208
_cell_length_b   7.38061143
_cell_length_c   9.13121911
_cell_angle_alpha   90.00077642
_cell_angle_beta   90.01771736
_cell_angle_gamma   89.96345776
_symmetry_Int_Tables_number   1
_chemical_formula_structural   Dy6Ho6Tc3Ru
_chemical_formula_sum   'Dy6 Ho6 Tc3 Ru1'
_cell_volume   422.43358842
_cell_formula_units_Z   1
loop_
 _symmetry_equiv_pos_site_id
 _symmetry_equiv_pos_as_xyz
  1  'x, y, z'
loop_
 _atom_site_type_symbol
 _atom_site_label
 _atom_site_symmetry_multiplicity
 _atom_site_fract_x
 _atom_site_fract_y
 _atom_site_fract_z
 _atom_site_occupancy
  Dy  Dy0  1  0.334831  0.676593  0.063339  1
  Dy  Dy1  1  0.162611  0.175578  0.437326  1
  Dy  Dy2  1  0.873328  0.540276  0.250012  1
  Dy  Dy3  1  0.625973  0.039054  0.249987  1
  Dy  Dy4  1  0.131129  0.458881  0.749995  1
  Dy  Dy5  1  0.373276  0.957955  0.750004  1
  Ho  Ho6  1  0.663071  0.324516  0.562968  1
  Ho  Ho7  1  0.835993  0.824171  0.937459  1
  Ho  Ho8  1  0.663106  0.324443  0.937033  1
  Ho  Ho9  1  0.835962  0.824100  0.562534  1
  Ho  Ho10  1  0.334880  0.676584  0.436701  1
  Ho  Ho11  1  0.162563  0.175553  0.062627  1
  Tc  Tc12  1  0.040022  0.884541  0.250015  1
  Tc  Tc13  1  0.462056  0.386697  0.249986  1
  Tc  Tc14  1  0.961617  0.115140  0.750082  1
  Ru  Ru15  1  0.539584  0.615917  0.749932  1
