# generated using pymatgen
data_Pr11YFe2I17
_symmetry_space_group_name_H-M   'P 1'
_cell_length_a   10.07718196
_cell_length_b   12.10482015
_cell_length_c   12.10849917
_cell_angle_alpha   93.64137999
_cell_angle_beta   104.56396341
_cell_angle_gamma   114.37586364
_symmetry_Int_Tables_number   1
_chemical_formula_structural   Pr11YFe2I17
_chemical_formula_sum   'Pr11 Y1 Fe2 I17'
_cell_volume   1278.46930341
_cell_formula_units_Z   1
loop_
 _symmetry_equiv_pos_site_id
 _symmetry_equiv_pos_as_xyz
  1  'x, y, z'
loop_
 _atom_site_type_symbol
 _atom_site_label
 _atom_site_symmetry_multiplicity
 _atom_site_fract_x
 _atom_site_fract_y
 _atom_site_fract_z
 _atom_site_occupancy
  Pr  Pr0  1  0.990820  0.809719  0.585732  1
  Pr  Pr1  1  0.656329  0.242650  0.281977  1
  Pr  Pr2  1  0.012371  0.191189  0.418443  1
  Pr  Pr3  1  0.222078  0.671875  0.986784  1
  Pr  Pr4  1  0.257662  0.983044  0.890930  1
  Pr  Pr5  1  0.352338  0.759923  0.716685  1
  Pr  Pr6  1  0.946392  0.493874  0.678687  1
  Pr  Pr7  1  0.740616  0.013181  0.107885  1
  Pr  Pr8  1  0.140708  0.288221  0.153521  1
  Pr  Pr9  1  0.776428  0.330896  0.011428  1
  Pr  Pr10  1  0.853054  0.713140  0.849864  1
  Y  Y11  1  0.050943  0.502471  0.319033  1
  Fe  Fe12  1  0.104778  0.738866  0.786508  1
  Fe  Fe13  1  0.895800  0.262080  0.214270  1
  I  I14  1  0.792841  0.529407  0.414680  1
  I  I15  1  0.642318  0.419942  0.759231  1
  I  I16  1  0.843865  0.897019  0.325818  1
  I  I17  1  0.325543  0.213773  0.368164  1
  I  I18  1  0.158065  0.104848  0.675584  1
  I  I19  1  0.589477  0.053341  0.843761  1
  I  I20  1  0.757023  0.185590  0.537897  1
  I  I21  1  0.548601  0.707499  0.953794  1
  I  I22  1  0.347960  0.580607  0.245982  1
  I  I23  1  0.214350  0.475054  0.574016  1
  I  I24  1  0.055611  0.368326  0.897615  1
  I  I25  1  0.451572  0.291929  0.048055  1
  I  I26  1  0.001183  0.001798  0.001256  1
  I  I27  1  0.235372  0.802123  0.455429  1
  I  I28  1  0.414208  0.949192  0.157450  1
  I  I29  1  0.674686  0.786814  0.631483  1
  I  I30  1  0.947009  0.631608  0.108038  1
