# generated using pymatgen
data_Er4Ga4Ir2PdRh
_symmetry_space_group_name_H-M   'P 1'
_cell_length_a   4.31937800
_cell_length_b   6.80481248
_cell_length_c   7.77692301
_cell_angle_alpha   90.25299088
_cell_angle_beta   90.00000000
_cell_angle_gamma   90.00000000
_symmetry_Int_Tables_number   1
_chemical_formula_structural   Er4Ga4Ir2PdRh
_chemical_formula_sum   'Er4 Ga4 Ir2 Pd1 Rh1'
_cell_volume   228.58142720
_cell_formula_units_Z   1
loop_
 _symmetry_equiv_pos_site_id
 _symmetry_equiv_pos_as_xyz
  1  'x, y, z'
loop_
 _atom_site_type_symbol
 _atom_site_label
 _atom_site_symmetry_multiplicity
 _atom_site_fract_x
 _atom_site_fract_y
 _atom_site_fract_z
 _atom_site_occupancy
  Er  Er0  1  0.250000  0.977606  0.313389  1
  Er  Er1  1  0.250000  0.476716  0.193941  1
  Er  Er2  1  0.750000  0.021737  0.683173  1
  Er  Er3  1  0.750000  0.532559  0.810969  1
  Ga  Ga4  1  0.250000  0.347035  0.567193  1
  Ga  Ga5  1  0.250000  0.840638  0.932264  1
  Ga  Ga6  1  0.750000  0.654744  0.431359  1
  Ga  Ga7  1  0.750000  0.153085  0.068476  1
  Ir  Ir8  1  0.250000  0.733582  0.612984  1
  Ir  Ir9  1  0.750000  0.265954  0.387218  1
  Pd  Pd10  1  0.250000  0.230735  0.888375  1
  Rh  Rh11  1  0.750000  0.765610  0.110658  1
