# generated using pymatgen
data_ErBi2WO7
_symmetry_space_group_name_H-M   'P 1'
_cell_length_a   6.44654424
_cell_length_b   6.81970709
_cell_length_c   7.64526647
_cell_angle_alpha   106.48731261
_cell_angle_beta   89.80442341
_cell_angle_gamma   99.00160609
_symmetry_Int_Tables_number   1
_chemical_formula_structural   ErBi2WO7
_chemical_formula_sum   'Er2 Bi4 W2 O14'
_cell_volume   318.02523973
_cell_formula_units_Z   2
loop_
 _symmetry_equiv_pos_site_id
 _symmetry_equiv_pos_as_xyz
  1  'x, y, z'
loop_
 _atom_site_type_symbol
 _atom_site_label
 _atom_site_symmetry_multiplicity
 _atom_site_fract_x
 _atom_site_fract_y
 _atom_site_fract_z
 _atom_site_occupancy
  Er  Er0  1  0.544923  0.992988  0.747137  1
  Er  Er1  1  0.455077  0.007012  0.252863  1
  Bi  Bi2  1  0.253098  0.513760  0.881237  1
  Bi  Bi3  1  0.746902  0.486240  0.118763  1
  Bi  Bi4  1  0.728416  0.457716  0.610662  1
  Bi  Bi5  1  0.271584  0.542284  0.389338  1
  W  W6  1  0.000000  0.000000  0.500000  1
  W  W7  1  0.000000  0.000000  0.000000  1
  O  O8  1  0.459893  0.662282  0.178947  1
  O  O9  1  0.540107  0.337718  0.821053  1
  O  O10  1  0.288282  0.952414  0.948239  1
  O  O11  1  0.711718  0.047586  0.051761  1
  O  O12  1  0.292769  0.918987  0.511097  1
  O  O13  1  0.707231  0.081013  0.488903  1
  O  O14  1  0.525235  0.349112  0.347604  1
  O  O15  1  0.474765  0.650888  0.652396  1
  O  O16  1  0.915786  0.683267  0.952725  1
  O  O17  1  0.084214  0.316733  0.047275  1
  O  O18  1  0.100404  0.297128  0.614277  1
  O  O19  1  0.899596  0.702872  0.385723  1
  O  O20  1  0.897121  0.952961  0.737633  1
  O  O21  1  0.102879  0.047039  0.262367  1
