# generated using pymatgen
data_Cs8Mn3Cr5N16
_symmetry_space_group_name_H-M   'P 1'
_cell_length_a   5.80394044
_cell_length_b   8.21329723
_cell_length_c   11.59867400
_cell_angle_alpha   90.00000000
_cell_angle_beta   90.00000000
_cell_angle_gamma   89.94644113
_symmetry_Int_Tables_number   1
_chemical_formula_structural   Cs8Mn3Cr5N16
_chemical_formula_sum   'Cs8 Mn3 Cr5 N16'
_cell_volume   552.90260838
_cell_formula_units_Z   1
loop_
 _symmetry_equiv_pos_site_id
 _symmetry_equiv_pos_as_xyz
  1  'x, y, z'
loop_
 _atom_site_type_symbol
 _atom_site_label
 _atom_site_symmetry_multiplicity
 _atom_site_fract_x
 _atom_site_fract_y
 _atom_site_fract_z
 _atom_site_occupancy
  Cs  Cs0  1  0.750163  0.124426  0.998628  1
  Cs  Cs1  1  0.250078  0.875112  0.499329  1
  Cs  Cs2  1  0.250078  0.875112  0.000671  1
  Cs  Cs3  1  0.750163  0.124426  0.501372  1
  Cs  Cs4  1  0.741921  0.373379  0.250000  1
  Cs  Cs5  1  0.241770  0.626355  0.250000  1
  Cs  Cs6  1  0.257844  0.625181  0.750000  1
  Cs  Cs7  1  0.757898  0.376246  0.750000  1
  Mn  Mn8  1  0.244612  0.121925  0.250000  1
  Mn  Mn9  1  0.744713  0.879620  0.250000  1
  Mn  Mn10  1  0.755489  0.873840  0.750000  1
  Cr  Cr11  1  0.250070  0.373506  0.001514  1
  Cr  Cr12  1  0.749928  0.627829  0.498819  1
  Cr  Cr13  1  0.749928  0.627829  0.001181  1
  Cr  Cr14  1  0.250070  0.373506  0.498486  1
  Cr  Cr15  1  0.255205  0.121711  0.750000  1
  N  N16  1  0.993049  0.002031  0.250000  1
  N  N17  1  0.491973  0.997580  0.250000  1
  N  N18  1  0.007112  0.996123  0.750000  1
  N  N19  1  0.508125  0.000840  0.750000  1
  N  N20  1  0.248035  0.248441  0.375127  1
  N  N21  1  0.748046  0.752988  0.124356  1
  N  N22  1  0.751968  0.751132  0.874565  1
  N  N23  1  0.251931  0.248303  0.624483  1
  N  N24  1  0.751968  0.751132  0.625435  1
  N  N25  1  0.251931  0.248303  0.875517  1
  N  N26  1  0.248035  0.248441  0.124873  1
  N  N27  1  0.748046  0.752988  0.375644  1
  N  N28  1  0.499554  0.500424  0.498779  1
  N  N29  1  0.000371  0.500426  0.001257  1
  N  N30  1  0.499554  0.500424  0.001221  1
  N  N31  1  0.000371  0.500426  0.498743  1
