# generated using pymatgen
data_Li6ZnNi6
_symmetry_space_group_name_H-M   'P 1'
_cell_length_a   4.78157110
_cell_length_b   4.78157078
_cell_length_c   8.89796613
_cell_angle_alpha   74.41374616
_cell_angle_beta   74.41373675
_cell_angle_gamma   59.99999220
_symmetry_Int_Tables_number   1
_chemical_formula_structural   Li6ZnNi6
_chemical_formula_sum   'Li6 Zn1 Ni6'
_cell_volume   167.48839842
_cell_formula_units_Z   1
loop_
 _symmetry_equiv_pos_site_id
 _symmetry_equiv_pos_as_xyz
  1  'x, y, z'
loop_
 _atom_site_type_symbol
 _atom_site_label
 _atom_site_symmetry_multiplicity
 _atom_site_fract_x
 _atom_site_fract_y
 _atom_site_fract_z
 _atom_site_occupancy
  Li  Li0  1  0.166203  0.166203  0.501389  1
  Li  Li1  1  0.833797  0.833797  0.498611  1
  Li  Li2  1  0.348757  0.348757  0.953729  1
  Li  Li3  1  0.651243  0.651243  0.046271  1
  Li  Li4  1  0.447880  0.447880  0.656362  1
  Li  Li5  1  0.552120  0.552120  0.343638  1
  Zn  Zn6  1  0.000000  0.000000  0.000000  1
  Ni  Ni7  1  0.584180  0.090068  0.235683  1
  Ni  Ni8  1  0.090068  0.090068  0.235683  1
  Ni  Ni9  1  0.090068  0.584180  0.235683  1
  Ni  Ni10  1  0.415820  0.909932  0.764317  1
  Ni  Ni11  1  0.909932  0.909932  0.764317  1
  Ni  Ni12  1  0.909932  0.415820  0.764317  1
