# generated using pymatgen
data_NaTa6FeS12
_symmetry_space_group_name_H-M   'P 1'
_cell_length_a   5.77072800
_cell_length_b   5.77072796
_cell_length_c   13.34697100
_cell_angle_alpha   90.00000000
_cell_angle_beta   90.00000000
_cell_angle_gamma   120.00000023
_symmetry_Int_Tables_number   1
_chemical_formula_structural   NaTa6FeS12
_chemical_formula_sum   'Na1 Ta6 Fe1 S12'
_cell_volume   384.92361308
_cell_formula_units_Z   1
loop_
 _symmetry_equiv_pos_site_id
 _symmetry_equiv_pos_as_xyz
  1  'x, y, z'
loop_
 _atom_site_type_symbol
 _atom_site_label
 _atom_site_symmetry_multiplicity
 _atom_site_fract_x
 _atom_site_fract_y
 _atom_site_fract_z
 _atom_site_occupancy
  Na  Na0  1  0.333333  0.666667  0.250000  1
  Ta  Ta1  1  0.000000  0.000000  0.535350  1
  Ta  Ta2  1  0.000000  0.000000  0.964650  1
  Ta  Ta3  1  0.333333  0.666667  0.536048  1
  Ta  Ta4  1  0.666667  0.333333  0.531575  1
  Ta  Ta5  1  0.666667  0.333333  0.968425  1
  Ta  Ta6  1  0.333333  0.666667  0.963952  1
  Fe  Fe7  1  0.666667  0.333333  0.750000  1
  S  S8  1  0.330875  0.333159  0.083941  1
  S  S9  1  0.666841  0.997717  0.083941  1
  S  S10  1  0.002283  0.669125  0.083941  1
  S  S11  1  0.336868  0.332981  0.849282  1
  S  S12  1  0.996113  0.663132  0.849282  1
  S  S13  1  0.667019  0.003887  0.849282  1
  S  S14  1  0.667019  0.663132  0.650718  1
  S  S15  1  0.336868  0.003887  0.650718  1
  S  S16  1  0.996113  0.332981  0.650718  1
  S  S17  1  0.666841  0.669125  0.416059  1
  S  S18  1  0.002283  0.333159  0.416059  1
  S  S19  1  0.330875  0.997717  0.416059  1
