# generated using pymatgen
data_Eu2Sc3Si4
_symmetry_space_group_name_H-M   'P 1'
_cell_length_a   7.20150100
_cell_length_b   7.58878800
_cell_length_c   14.54823200
_cell_angle_alpha   90.00000000
_cell_angle_beta   90.00000000
_cell_angle_gamma   90.00000000
_symmetry_Int_Tables_number   1
_chemical_formula_structural   Eu2Sc3Si4
_chemical_formula_sum   'Eu8 Sc12 Si16'
_cell_volume   795.07054422
_cell_formula_units_Z   4
loop_
 _symmetry_equiv_pos_site_id
 _symmetry_equiv_pos_as_xyz
  1  'x, y, z'
loop_
 _atom_site_type_symbol
 _atom_site_label
 _atom_site_symmetry_multiplicity
 _atom_site_fract_x
 _atom_site_fract_y
 _atom_site_fract_z
 _atom_site_occupancy
  Eu  Eu0  1  0.008714  0.171639  0.093616  1
  Eu  Eu1  1  0.991286  0.828361  0.906384  1
  Eu  Eu2  1  0.491286  0.671639  0.906384  1
  Eu  Eu3  1  0.991286  0.828361  0.593616  1
  Eu  Eu4  1  0.508714  0.328361  0.093616  1
  Eu  Eu5  1  0.008714  0.171639  0.406384  1
  Eu  Eu6  1  0.508714  0.328361  0.406384  1
  Eu  Eu7  1  0.491286  0.671639  0.593616  1
  Sc  Sc8  1  0.159728  0.506118  0.750000  1
  Sc  Sc9  1  0.840272  0.493882  0.250000  1
  Sc  Sc10  1  0.340272  0.006118  0.250000  1
  Sc  Sc11  1  0.659728  0.993882  0.750000  1
  Sc  Sc12  1  0.327424  0.174744  0.624017  1
  Sc  Sc13  1  0.672576  0.825256  0.375983  1
  Sc  Sc14  1  0.172576  0.674744  0.375983  1
  Sc  Sc15  1  0.672576  0.825256  0.124017  1
  Sc  Sc16  1  0.827424  0.325256  0.624017  1
  Sc  Sc17  1  0.327424  0.174744  0.875983  1
  Sc  Sc18  1  0.827424  0.325256  0.875983  1
  Sc  Sc19  1  0.172576  0.674744  0.124017  1
  Si  Si20  1  0.035534  0.121642  0.750000  1
  Si  Si21  1  0.964466  0.878358  0.250000  1
  Si  Si22  1  0.464466  0.621642  0.250000  1
  Si  Si23  1  0.535534  0.378358  0.750000  1
  Si  Si24  1  0.281159  0.891661  0.750000  1
  Si  Si25  1  0.718841  0.108339  0.250000  1
  Si  Si26  1  0.218841  0.391661  0.250000  1
  Si  Si27  1  0.781159  0.608339  0.750000  1
  Si  Si28  1  0.144473  0.461456  0.539803  1
  Si  Si29  1  0.855527  0.538544  0.460197  1
  Si  Si30  1  0.355527  0.961456  0.460197  1
  Si  Si31  1  0.855527  0.538544  0.039803  1
  Si  Si32  1  0.644473  0.038544  0.539803  1
  Si  Si33  1  0.144473  0.461456  0.960197  1
  Si  Si34  1  0.644473  0.038544  0.960197  1
  Si  Si35  1  0.355527  0.961456  0.039803  1
