# generated using pymatgen
data_Ho4MnRuC4
_symmetry_space_group_name_H-M   'P 1'
_cell_length_a   5.04475800
_cell_length_b   6.39324100
_cell_length_c   9.68496600
_cell_angle_alpha   90.00000000
_cell_angle_beta   90.00000000
_cell_angle_gamma   90.00000000
_symmetry_Int_Tables_number   1
_chemical_formula_structural   Ho4MnRuC4
_chemical_formula_sum   'Ho8 Mn2 Ru2 C8'
_cell_volume   312.36294882
_cell_formula_units_Z   2
loop_
 _symmetry_equiv_pos_site_id
 _symmetry_equiv_pos_as_xyz
  1  'x, y, z'
loop_
 _atom_site_type_symbol
 _atom_site_label
 _atom_site_symmetry_multiplicity
 _atom_site_fract_x
 _atom_site_fract_y
 _atom_site_fract_z
 _atom_site_occupancy
  Ho  Ho0  1  0.250000  0.476114  0.783856  1
  Ho  Ho1  1  0.750000  0.023886  0.283856  1
  Ho  Ho2  1  0.250000  0.972796  0.714084  1
  Ho  Ho3  1  0.750000  0.527204  0.214084  1
  Ho  Ho4  1  0.250000  0.823169  0.054687  1
  Ho  Ho5  1  0.750000  0.676831  0.554687  1
  Ho  Ho6  1  0.250000  0.315911  0.444283  1
  Ho  Ho7  1  0.750000  0.184089  0.944283  1
  Mn  Mn8  1  0.250000  0.274485  0.138697  1
  Mn  Mn9  1  0.750000  0.225515  0.638697  1
  Ru  Ru10  1  0.250000  0.774305  0.361735  1
  Ru  Ru11  1  0.750000  0.725695  0.861735  1
  C  C12  1  0.250000  0.187808  0.960534  1
  C  C13  1  0.750000  0.825072  0.050946  1
  C  C14  1  0.250000  0.674928  0.550946  1
  C  C15  1  0.750000  0.312192  0.460534  1
  C  C16  1  0.250000  0.049812  0.254915  1
  C  C17  1  0.750000  0.450188  0.754915  1
  C  C18  1  0.250000  0.530094  0.236261  1
  C  C19  1  0.750000  0.969906  0.736261  1
