# generated using pymatgen
data_CePuP4Ir3Ru
_symmetry_space_group_name_H-M   'P 1'
_cell_length_a   4.16915000
_cell_length_b   4.17958200
_cell_length_c   9.47735700
_cell_angle_alpha   90.00000000
_cell_angle_beta   90.00000000
_cell_angle_gamma   90.00000000
_symmetry_Int_Tables_number   1
_chemical_formula_structural   CePuP4Ir3Ru
_chemical_formula_sum   'Ce1 Pu1 P4 Ir3 Ru1'
_cell_volume   165.14582964
_cell_formula_units_Z   1
loop_
 _symmetry_equiv_pos_site_id
 _symmetry_equiv_pos_as_xyz
  1  'x, y, z'
loop_
 _atom_site_type_symbol
 _atom_site_label
 _atom_site_symmetry_multiplicity
 _atom_site_fract_x
 _atom_site_fract_y
 _atom_site_fract_z
 _atom_site_occupancy
  Ce  Ce0  1  0.500000  0.000000  0.757162  1
  Pu  Pu1  1  0.000000  0.500000  0.241377  1
  P  P2  1  0.000000  0.000000  0.000665  1
  P  P3  1  0.500000  0.500000  0.001873  1
  P  P4  1  0.000000  0.500000  0.633337  1
  P  P5  1  0.500000  0.000000  0.365292  1
  Ir  Ir6  1  0.500000  0.500000  0.500081  1
  Ir  Ir7  1  0.000000  0.500000  0.885073  1
  Ir  Ir8  1  0.500000  0.000000  0.114519  1
  Ru  Ru9  1  0.000000  0.000000  0.500620  1
