# generated using pymatgen
data_Tb2DyTm3Ru2
_symmetry_space_group_name_H-M   'P 1'
_cell_length_a   6.29174055
_cell_length_b   7.29267900
_cell_length_c   9.13555500
_cell_angle_alpha   90.00000000
_cell_angle_beta   90.20056212
_cell_angle_gamma   90.00000000
_symmetry_Int_Tables_number   1
_chemical_formula_structural   Tb2DyTm3Ru2
_chemical_formula_sum   'Tb4 Dy2 Tm6 Ru4'
_cell_volume   419.16998673
_cell_formula_units_Z   2
loop_
 _symmetry_equiv_pos_site_id
 _symmetry_equiv_pos_as_xyz
  1  'x, y, z'
loop_
 _atom_site_type_symbol
 _atom_site_label
 _atom_site_symmetry_multiplicity
 _atom_site_fract_x
 _atom_site_fract_y
 _atom_site_fract_z
 _atom_site_occupancy
  Tb  Tb0  1  0.865966  0.539608  0.250286  1
  Tb  Tb1  1  0.634034  0.039608  0.249714  1
  Tb  Tb2  1  0.132592  0.460212  0.749923  1
  Tb  Tb3  1  0.367408  0.960212  0.750077  1
  Dy  Dy4  1  0.330823  0.677021  0.064663  1
  Dy  Dy5  1  0.169177  0.177021  0.435337  1
  Tm  Tm6  1  0.668970  0.323825  0.565543  1
  Tm  Tm7  1  0.831030  0.823825  0.934457  1
  Tm  Tm8  1  0.669276  0.323338  0.934356  1
  Tm  Tm9  1  0.830724  0.823338  0.565644  1
  Tm  Tm10  1  0.331330  0.675988  0.435538  1
  Tm  Tm11  1  0.168670  0.175988  0.064462  1
  Ru  Ru12  1  0.041383  0.884643  0.249938  1
  Ru  Ru13  1  0.458617  0.384643  0.250062  1
  Ru  Ru14  1  0.957137  0.115366  0.751157  1
  Ru  Ru15  1  0.542863  0.615366  0.748843  1
