# generated using pymatgen
data_Tb7Th(InOs)2
_symmetry_space_group_name_H-M   'P 1'
_cell_length_a   9.65821897
_cell_length_b   9.65851642
_cell_length_c   9.71165200
_cell_angle_alpha   59.76947510
_cell_angle_beta   59.76889999
_cell_angle_gamma   59.87679444
_symmetry_Int_Tables_number   1
_chemical_formula_structural   Tb7Th(InOs)2
_chemical_formula_sum   'Tb14 Th2 In4 Os4'
_cell_volume   637.76169534
_cell_formula_units_Z   2
loop_
 _symmetry_equiv_pos_site_id
 _symmetry_equiv_pos_as_xyz
  1  'x, y, z'
loop_
 _atom_site_type_symbol
 _atom_site_label
 _atom_site_symmetry_multiplicity
 _atom_site_fract_x
 _atom_site_fract_y
 _atom_site_fract_z
 _atom_site_occupancy
  Tb  Tb0  1  0.349662  0.948617  0.349800  1
  Tb  Tb1  1  0.948926  0.350226  0.350207  1
  Tb  Tb2  1  0.809762  0.189967  0.192895  1
  Tb  Tb3  1  0.191071  0.810119  0.808394  1
  Tb  Tb4  1  0.189904  0.810181  0.193005  1
  Tb  Tb5  1  0.810704  0.190513  0.807813  1
  Tb  Tb6  1  0.191007  0.190057  0.809657  1
  Tb  Tb7  1  0.808773  0.808960  0.192008  1
  Tb  Tb8  1  0.941791  0.559722  0.557962  1
  Tb  Tb9  1  0.559205  0.941316  0.940541  1
  Tb  Tb10  1  0.560013  0.941943  0.558586  1
  Tb  Tb11  1  0.941431  0.558301  0.940397  1
  Tb  Tb12  1  0.559604  0.559149  0.941030  1
  Tb  Tb13  1  0.942880  0.941942  0.557025  1
  Th  Th14  1  0.345591  0.347258  0.351352  1
  Th  Th15  1  0.345577  0.347806  0.956340  1
  In  In16  1  0.582449  0.582392  0.580431  1
  In  In17  1  0.582335  0.581609  0.255346  1
  In  In18  1  0.582348  0.255336  0.580423  1
  In  In19  1  0.255594  0.583054  0.579698  1
  Os  Os20  1  0.139793  0.139321  0.138251  1
  Os  Os21  1  0.137995  0.139125  0.582435  1
  Os  Os22  1  0.141940  0.581130  0.138348  1
  Os  Os23  1  0.581643  0.141955  0.138056  1
