# generated using pymatgen
data_Sr10MgFeRu3O20
_symmetry_space_group_name_H-M   'P 1'
_cell_length_a   8.90769576
_cell_length_b   8.90769497
_cell_length_c   8.94620878
_cell_angle_alpha   120.68031688
_cell_angle_beta   121.20645498
_cell_angle_gamma   88.11938647
_symmetry_Int_Tables_number   1
_chemical_formula_structural   Sr10MgFeRu3O20
_chemical_formula_sum   'Sr10 Mg1 Fe1 Ru3 O20'
_cell_volume   495.61436592
_cell_formula_units_Z   1
loop_
 _symmetry_equiv_pos_site_id
 _symmetry_equiv_pos_as_xyz
  1  'x, y, z'
loop_
 _atom_site_type_symbol
 _atom_site_label
 _atom_site_symmetry_multiplicity
 _atom_site_fract_x
 _atom_site_fract_y
 _atom_site_fract_z
 _atom_site_occupancy
  Sr  Sr0  1  0.753912  0.142440  0.185051  1
  Sr  Sr1  1  0.357418  0.346679  0.995882  1
  Sr  Sr2  1  0.947974  0.563269  0.804542  1
  Sr  Sr3  1  0.562785  0.767525  0.620347  1
  Sr  Sr4  1  0.151717  0.952521  0.395322  1
  Sr  Sr5  1  0.649202  0.638464  0.995882  1
  Sr  Sr6  1  0.241272  0.856569  0.804542  1
  Sr  Sr7  1  0.852823  0.057562  0.620347  1
  Sr  Sr8  1  0.442802  0.243604  0.395322  1
  Sr  Sr9  1  0.042611  0.431140  0.185051  1
  Mg  Mg10  1  0.000292  0.000742  0.001034  1
  Fe  Fe11  1  0.603012  0.197463  0.800475  1
  Ru  Ru12  1  0.198731  0.401023  0.599753  1
  Ru  Ru13  1  0.797311  0.602347  0.399660  1
  Ru  Ru14  1  0.402877  0.797905  0.200781  1
  O  O15  1  0.559389  0.958770  0.200685  1
  O  O16  1  0.171072  0.167065  0.002311  1
  O  O17  1  0.758614  0.363372  0.796768  1
  O  O18  1  0.357362  0.558829  0.599255  1
  O  O19  1  0.959490  0.759181  0.400293  1
  O  O20  1  0.835246  0.831239  0.002311  1
  O  O21  1  0.433396  0.038154  0.796768  1
  O  O22  1  0.040425  0.241892  0.599255  1
  O  O23  1  0.641112  0.440804  0.400293  1
  O  O24  1  0.241915  0.641296  0.200685  1
  O  O25  1  0.700125  0.402643  0.102768  1
  O  O26  1  0.299472  0.600420  0.899892  1
  O  O27  1  0.899613  0.794581  0.694194  1
  O  O28  1  0.496037  0.995782  0.491819  1
  O  O29  1  0.103829  0.207219  0.311049  1
  O  O30  1  0.995463  0.501465  0.496928  1
  O  O31  1  0.602569  0.699871  0.302441  1
  O  O32  1  0.208473  0.895268  0.103740  1
  O  O33  1  0.797125  0.100033  0.897158  1
  O  O34  1  0.394532  0.302863  0.697394  1
