# generated using pymatgen
data_NaSrMnCo3As4
_symmetry_space_group_name_H-M   'P 1'
_cell_length_a   6.73523197
_cell_length_b   6.72654452
_cell_length_c   5.45820000
_cell_angle_alpha   90.00000000
_cell_angle_beta   90.00000000
_cell_angle_gamma   132.17623036
_symmetry_Int_Tables_number   1
_chemical_formula_structural   NaSrMnCo3As4
_chemical_formula_sum   'Na1 Sr1 Mn1 Co3 As4'
_cell_volume   183.25717717
_cell_formula_units_Z   1
loop_
 _symmetry_equiv_pos_site_id
 _symmetry_equiv_pos_as_xyz
  1  'x, y, z'
loop_
 _atom_site_type_symbol
 _atom_site_label
 _atom_site_symmetry_multiplicity
 _atom_site_fract_x
 _atom_site_fract_y
 _atom_site_fract_z
 _atom_site_occupancy
  Na  Na0  1  0.000000  0.000000  0.000819  1
  Sr  Sr1  1  0.500000  0.500000  0.497822  1
  Mn  Mn2  1  0.000000  0.500000  0.751524  1
  Co  Co3  1  0.500000  0.000000  0.750954  1
  Co  Co4  1  0.000000  0.500000  0.248859  1
  Co  Co5  1  0.500000  0.000000  0.249232  1
  As  As6  1  0.359100  0.644643  0.001848  1
  As  As7  1  0.853917  0.141688  0.498548  1
  As  As8  1  0.146083  0.858312  0.498548  1
  As  As9  1  0.640900  0.355357  0.001848  1
