# generated using pymatgen
data_Ti6CrAs6Ru5
_symmetry_space_group_name_H-M   'P 1'
_cell_length_a   7.49595527
_cell_length_b   7.44655780
_cell_length_c   7.46679142
_cell_angle_alpha   128.03086786
_cell_angle_beta   121.41336692
_cell_angle_gamma   82.11673554
_symmetry_Int_Tables_number   1
_chemical_formula_structural   Ti6CrAs6Ru5
_chemical_formula_sum   'Ti6 Cr1 As6 Ru5'
_cell_volume   269.48311291
_cell_formula_units_Z   1
loop_
 _symmetry_equiv_pos_site_id
 _symmetry_equiv_pos_as_xyz
  1  'x, y, z'
loop_
 _atom_site_type_symbol
 _atom_site_label
 _atom_site_symmetry_multiplicity
 _atom_site_fract_x
 _atom_site_fract_y
 _atom_site_fract_z
 _atom_site_occupancy
  Ti  Ti0  1  0.472314  0.247242  0.281792  1
  Ti  Ti1  1  0.530323  0.805809  0.778399  1
  Ti  Ti2  1  0.746175  0.661029  0.408126  1
  Ti  Ti3  1  0.254292  0.666886  0.916396  1
  Ti  Ti4  1  0.049287  0.841697  0.287978  1
  Ti  Ti5  1  0.941106  0.243387  0.792293  1
  Cr  Cr6  1  0.658735  0.493447  0.903514  1
  As  As7  1  0.833045  0.579427  0.750919  1
  As  As8  1  0.161848  0.914381  0.743870  1
  As  As9  1  0.670150  0.906050  0.243886  1
  As  As10  1  0.330107  0.578215  0.242378  1
  As  As11  1  0.288760  0.291879  0.510741  1
  As  As12  1  0.717843  0.220789  0.997660  1
  Ru  Ru13  1  0.337042  0.245746  0.834155  1
  Ru  Ru14  1  0.913573  0.249045  0.409955  1
  Ru  Ru15  1  0.084381  0.498618  0.331245  1
  Ru  Ru16  1  0.008341  0.000214  0.008161  1
  Ru  Ru17  1  0.502678  0.996536  0.498934  1
