# generated using pymatgen
data_Ac7Ho(InSi2)4
_symmetry_space_group_name_H-M   'P 1'
_cell_length_a   4.52224800
_cell_length_b   7.99966006
_cell_length_c   15.21395868
_cell_angle_alpha   90.79638044
_cell_angle_beta   90.00000000
_cell_angle_gamma   90.00000000
_symmetry_Int_Tables_number   1
_chemical_formula_structural   Ac7Ho(InSi2)4
_chemical_formula_sum   'Ac7 Ho1 In4 Si8'
_cell_volume   550.33380011
_cell_formula_units_Z   1
loop_
 _symmetry_equiv_pos_site_id
 _symmetry_equiv_pos_as_xyz
  1  'x, y, z'
loop_
 _atom_site_type_symbol
 _atom_site_label
 _atom_site_symmetry_multiplicity
 _atom_site_fract_x
 _atom_site_fract_y
 _atom_site_fract_z
 _atom_site_occupancy
  Ac  Ac0  1  0.500000  0.742300  0.031889  1
  Ac  Ac1  1  0.500000  0.241115  0.959555  1
  Ac  Ac2  1  0.500000  0.255982  0.469722  1
  Ac  Ac3  1  0.500000  0.758322  0.538512  1
  Ac  Ac4  1  0.500000  0.618530  0.284113  1
  Ac  Ac5  1  0.500000  0.385678  0.721229  1
  Ac  Ac6  1  0.500000  0.119052  0.214149  1
  Ho  Ho7  1  0.500000  0.885922  0.783569  1
  In  In8  1  0.000000  0.940341  0.374824  1
  In  In9  1  0.000000  0.049074  0.633520  1
  In  In10  1  0.000000  0.438613  0.124445  1
  In  In11  1  0.000000  0.577569  0.871177  1
  Si  Si12  1  0.000000  0.555279  0.427274  1
  Si  Si13  1  0.000000  0.465816  0.580473  1
  Si  Si14  1  0.000000  0.040140  0.068304  1
  Si  Si15  1  0.000000  0.928113  0.915529  1
  Si  Si16  1  0.000000  0.829856  0.181522  1
  Si  Si17  1  0.000000  0.145671  0.810208  1
  Si  Si18  1  0.000000  0.330552  0.319367  1
  Si  Si19  1  0.000000  0.692076  0.690620  1
