# generated using pymatgen
data_Pr3Sm7C4Cl17
_symmetry_space_group_name_H-M   'P 1'
_cell_length_a   8.84650556
_cell_length_b   9.48495772
_cell_length_c   11.92917400
_cell_angle_alpha   104.58188440
_cell_angle_beta   96.15377391
_cell_angle_gamma   110.90705257
_symmetry_Int_Tables_number   1
_chemical_formula_structural   Pr3Sm7C4Cl17
_chemical_formula_sum   'Pr3 Sm7 C4 Cl17'
_cell_volume   883.18544045
_cell_formula_units_Z   1
loop_
 _symmetry_equiv_pos_site_id
 _symmetry_equiv_pos_as_xyz
  1  'x, y, z'
loop_
 _atom_site_type_symbol
 _atom_site_label
 _atom_site_symmetry_multiplicity
 _atom_site_fract_x
 _atom_site_fract_y
 _atom_site_fract_z
 _atom_site_occupancy
  Pr  Pr0  1  0.654141  0.486066  0.438609  1
  Pr  Pr1  1  0.346359  0.514217  0.562168  1
  Pr  Pr2  1  0.077013  0.424568  0.268097  1
  Sm  Sm3  1  0.918226  0.575418  0.731175  1
  Sm  Sm4  1  0.409501  0.369431  0.136914  1
  Sm  Sm5  1  0.588824  0.630165  0.862473  1
  Sm  Sm6  1  0.492138  0.780726  0.340667  1
  Sm  Sm7  1  0.509529  0.219844  0.659503  1
  Sm  Sm8  1  0.210534  0.100432  0.308384  1
  Sm  Sm9  1  0.790655  0.899642  0.692093  1
  C  C10  1  0.396896  0.526750  0.340361  1
  C  C11  1  0.605127  0.473595  0.660094  1
  C  C12  1  0.327318  0.364540  0.335114  1
  C  C13  1  0.674802  0.636029  0.665483  1
  Cl  Cl14  1  0.108752  0.348295  0.037750  1
  Cl  Cl15  1  0.891968  0.649832  0.957311  1
  Cl  Cl16  1  0.807902  0.824176  0.447390  1
  Cl  Cl17  1  0.192974  0.176023  0.553212  1
  Cl  Cl18  1  0.999272  0.500822  0.503285  1
  Cl  Cl19  1  0.298092  0.047225  0.097027  1
  Cl  Cl20  1  0.701696  0.952696  0.902840  1
  Cl  Cl21  1  0.907619  0.100420  0.249504  1
  Cl  Cl22  1  0.090270  0.892460  0.750667  1
  Cl  Cl23  1  0.539588  0.130461  0.413799  1
  Cl  Cl24  1  0.461539  0.870160  0.586568  1
  Cl  Cl25  1  0.735049  0.412847  0.208372  1
  Cl  Cl26  1  0.261149  0.587300  0.790887  1
  Cl  Cl27  1  0.171317  0.761517  0.287703  1
  Cl  Cl28  1  0.831545  0.244417  0.712911  1
  Cl  Cl29  1  0.535001  0.682633  0.111950  1
  Cl  Cl30  1  0.465210  0.317297  0.887686  1
