# generated using pymatgen
data_Tb5(Ho5Bi4)3
_symmetry_space_group_name_H-M   'P 1'
_cell_length_a   8.27384654
_cell_length_b   9.51792802
_cell_length_c   12.03777082
_cell_angle_alpha   89.99180722
_cell_angle_beta   90.04143907
_cell_angle_gamma   89.99999546
_symmetry_Int_Tables_number   1
_chemical_formula_structural   Tb5(Ho5Bi4)3
_chemical_formula_sum   'Tb5 Ho15 Bi12'
_cell_volume   947.97269993
_cell_formula_units_Z   1
loop_
 _symmetry_equiv_pos_site_id
 _symmetry_equiv_pos_as_xyz
  1  'x, y, z'
loop_
 _atom_site_type_symbol
 _atom_site_label
 _atom_site_symmetry_multiplicity
 _atom_site_fract_x
 _atom_site_fract_y
 _atom_site_fract_z
 _atom_site_occupancy
  Tb  Tb0  1  0.193429  0.563916  0.441226  1
  Tb  Tb1  1  0.312611  0.250010  0.219105  1
  Tb  Tb2  1  0.812716  0.249990  0.280874  1
  Tb  Tb3  1  0.687380  0.750013  0.780939  1
  Tb  Tb4  1  0.187395  0.750150  0.719230  1
  Ho  Ho5  1  0.353023  0.750227  0.215619  1
  Ho  Ho6  1  0.852518  0.750266  0.284099  1
  Ho  Ho7  1  0.647351  0.249983  0.784347  1
  Ho  Ho8  1  0.147367  0.250122  0.715685  1
  Ho  Ho9  1  0.693448  0.564426  0.058778  1
  Ho  Ho10  1  0.193255  0.935829  0.441186  1
  Ho  Ho11  1  0.306551  0.064438  0.941239  1
  Ho  Ho12  1  0.806748  0.435478  0.558721  1
  Ho  Ho13  1  0.306562  0.435495  0.941229  1
  Ho  Ho14  1  0.806496  0.064400  0.558774  1
  Ho  Ho15  1  0.693527  0.935567  0.058751  1
  Ho  Ho16  1  0.475169  0.249989  0.488314  1
  Ho  Ho17  1  0.974997  0.250161  0.011578  1
  Ho  Ho18  1  0.525410  0.750087  0.511751  1
  Ho  Ho19  1  0.025034  0.749924  0.988390  1
  Bi  Bi20  1  0.407628  0.749986  0.957856  1
  Bi  Bi21  1  0.907122  0.750411  0.542312  1
  Bi  Bi22  1  0.592353  0.249997  0.042095  1
  Bi  Bi23  1  0.091984  0.248833  0.458064  1
  Bi  Bi24  1  0.565086  0.994770  0.325388  1
  Bi  Bi25  1  0.064934  0.505311  0.174341  1
  Bi  Bi26  1  0.434907  0.494733  0.674740  1
  Bi  Bi27  1  0.934855  0.005377  0.825464  1
  Bi  Bi28  1  0.434941  0.005379  0.674567  1
  Bi  Bi29  1  0.934805  0.494715  0.825538  1
  Bi  Bi30  1  0.565361  0.505270  0.325297  1
  Bi  Bi31  1  0.065038  0.994746  0.174503  1
