# generated using pymatgen
data_Sm4Co16Si7Tc4P5
_symmetry_space_group_name_H-M   'P 1'
_cell_length_a   3.75731300
_cell_length_b   10.52170052
_cell_length_c   11.98187958
_cell_angle_alpha   89.96415527
_cell_angle_beta   90.00000000
_cell_angle_gamma   90.00000000
_symmetry_Int_Tables_number   1
_chemical_formula_structural   Sm4Co16Si7Tc4P5
_chemical_formula_sum   'Sm4 Co16 Si7 Tc4 P5'
_cell_volume   473.68341266
_cell_formula_units_Z   1
loop_
 _symmetry_equiv_pos_site_id
 _symmetry_equiv_pos_as_xyz
  1  'x, y, z'
loop_
 _atom_site_type_symbol
 _atom_site_label
 _atom_site_symmetry_multiplicity
 _atom_site_fract_x
 _atom_site_fract_y
 _atom_site_fract_z
 _atom_site_occupancy
  Sm  Sm0  1  0.250000  0.582564  0.702581  1
  Sm  Sm1  1  0.250000  0.919816  0.202912  1
  Sm  Sm2  1  0.750000  0.420383  0.297257  1
  Sm  Sm3  1  0.750000  0.080740  0.796930  1
  Co  Co4  1  0.250000  0.410995  0.490874  1
  Co  Co5  1  0.250000  0.090278  0.989900  1
  Co  Co6  1  0.750000  0.594174  0.512292  1
  Co  Co7  1  0.750000  0.909072  0.008123  1
  Co  Co8  1  0.250000  0.213342  0.172851  1
  Co  Co9  1  0.250000  0.286385  0.672656  1
  Co  Co10  1  0.750000  0.785137  0.823359  1
  Co  Co11  1  0.750000  0.714173  0.328039  1
  Co  Co12  1  0.250000  0.882545  0.700948  1
  Co  Co13  1  0.250000  0.615539  0.202114  1
  Co  Co14  1  0.750000  0.115005  0.298163  1
  Co  Co15  1  0.750000  0.385052  0.797626  1
  Co  Co16  1  0.250000  0.468575  0.932344  1
  Co  Co17  1  0.250000  0.030239  0.433329  1
  Co  Co18  1  0.750000  0.531553  0.067542  1
  Co  Co19  1  0.750000  0.964301  0.569201  1
  Si  Si20  1  0.250000  0.416958  0.111829  1
  Si  Si21  1  0.250000  0.083138  0.612046  1
  Si  Si22  1  0.750000  0.582395  0.888218  1
  Si  Si23  1  0.750000  0.917359  0.387891  1
  Si  Si24  1  0.250000  0.272861  0.865516  1
  Si  Si25  1  0.250000  0.226902  0.366042  1
  Si  Si26  1  0.750000  0.727432  0.134191  1
  Tc  Tc27  1  0.250000  0.706758  0.988464  1
  Tc  Tc28  1  0.250000  0.792565  0.490214  1
  Tc  Tc29  1  0.750000  0.293532  0.010532  1
  Tc  Tc30  1  0.750000  0.206264  0.511046  1
  P  P31  1  0.750000  0.773516  0.635404  1
  P  P32  1  0.250000  0.601418  0.392678  1
  P  P33  1  0.250000  0.898977  0.892856  1
  P  P34  1  0.750000  0.398859  0.607301  1
  P  P35  1  0.750000  0.101200  0.106729  1
