# generated using pymatgen
data_Y8Ho9Sc3Pb16
_symmetry_space_group_name_H-M   'P 1'
_cell_length_a   8.12303800
_cell_length_b   8.21255341
_cell_length_c   15.55733500
_cell_angle_alpha   90.00000000
_cell_angle_beta   90.00000000
_cell_angle_gamma   89.98186081
_symmetry_Int_Tables_number   1
_chemical_formula_structural   Y8Ho9Sc3Pb16
_chemical_formula_sum   'Y8 Ho9 Sc3 Pb16'
_cell_volume   1037.84350980
_cell_formula_units_Z   1
loop_
 _symmetry_equiv_pos_site_id
 _symmetry_equiv_pos_as_xyz
  1  'x, y, z'
loop_
 _atom_site_type_symbol
 _atom_site_label
 _atom_site_symmetry_multiplicity
 _atom_site_fract_x
 _atom_site_fract_y
 _atom_site_fract_z
 _atom_site_occupancy
  Y  Y0  1  0.534627  0.323116  0.900660  1
  Y  Y1  1  0.034841  0.176779  0.599858  1
  Y  Y2  1  0.465978  0.675908  0.401123  1
  Y  Y3  1  0.964686  0.822652  0.098990  1
  Y  Y4  1  0.465978  0.675908  0.098877  1
  Y  Y5  1  0.964686  0.822652  0.401010  1
  Y  Y6  1  0.534627  0.323116  0.599340  1
  Y  Y7  1  0.034841  0.176779  0.900142  1
  Ho  Ho8  1  0.375734  0.842763  0.877471  1
  Ho  Ho9  1  0.875861  0.657374  0.622035  1
  Ho  Ho10  1  0.625316  0.158117  0.379047  1
  Ho  Ho11  1  0.123739  0.342778  0.121171  1
  Ho  Ho12  1  0.625316  0.158117  0.120953  1
  Ho  Ho13  1  0.123739  0.342778  0.378829  1
  Ho  Ho14  1  0.375734  0.842763  0.622529  1
  Ho  Ho15  1  0.875861  0.657374  0.877965  1
  Ho  Ho16  1  0.292986  0.004511  0.250000  1
  Sc  Sc17  1  0.207577  0.505005  0.750000  1
  Sc  Sc18  1  0.707542  0.994806  0.750000  1
  Sc  Sc19  1  0.792270  0.494725  0.250000  1
  Pb  Pb20  1  0.283162  0.034367  0.042545  1
  Pb  Pb21  1  0.783165  0.466731  0.455357  1
  Pb  Pb22  1  0.717142  0.966623  0.545311  1
  Pb  Pb23  1  0.217068  0.533594  0.954647  1
  Pb  Pb24  1  0.717142  0.966623  0.954689  1
  Pb  Pb25  1  0.217068  0.533594  0.545353  1
  Pb  Pb26  1  0.283162  0.034367  0.457455  1
  Pb  Pb27  1  0.783165  0.466731  0.044643  1
  Pb  Pb28  1  0.567497  0.626201  0.750000  1
  Pb  Pb29  1  0.067361  0.873373  0.750000  1
  Pb  Pb30  1  0.434155  0.376573  0.250000  1
  Pb  Pb31  1  0.927680  0.129818  0.250000  1
  Pb  Pb32  1  0.347064  0.157567  0.750000  1
  Pb  Pb33  1  0.846610  0.343302  0.750000  1
  Pb  Pb34  1  0.656536  0.841058  0.250000  1
  Pb  Pb35  1  0.150081  0.651453  0.250000  1
