# generated using pymatgen
data_Sc20Si12F
_symmetry_space_group_name_H-M   'P 1'
_cell_length_a   13.72274000
_cell_length_b   5.80215551
_cell_length_c   7.89279325
_cell_angle_alpha   89.99038513
_cell_angle_beta   90.00000000
_cell_angle_gamma   90.00000000
_symmetry_Int_Tables_number   1
_chemical_formula_structural   Sc20Si12F
_chemical_formula_sum   'Sc20 Si12 F1'
_cell_volume   628.43580354
_cell_formula_units_Z   1
loop_
 _symmetry_equiv_pos_site_id
 _symmetry_equiv_pos_as_xyz
  1  'x, y, z'
loop_
 _atom_site_type_symbol
 _atom_site_label
 _atom_site_symmetry_multiplicity
 _atom_site_fract_x
 _atom_site_fract_y
 _atom_site_fract_z
 _atom_site_occupancy
  Sc  Sc0  1  0.667639  0.500000  0.500000  1
  Sc  Sc1  1  0.167290  0.500000  0.000000  1
  Sc  Sc2  1  0.832710  0.500000  0.000000  1
  Sc  Sc3  1  0.332361  0.500000  0.500000  1
  Sc  Sc4  1  0.833340  0.000000  0.000000  1
  Sc  Sc5  1  0.333823  0.000000  0.500000  1
  Sc  Sc6  1  0.666177  0.000000  0.500000  1
  Sc  Sc7  1  0.166660  0.000000  0.000000  1
  Sc  Sc8  1  0.500000  0.249769  0.757653  1
  Sc  Sc9  1  0.000000  0.248697  0.253696  1
  Sc  Sc10  1  0.620547  0.249874  0.121703  1
  Sc  Sc11  1  0.122698  0.244218  0.623129  1
  Sc  Sc12  1  0.877302  0.244218  0.623129  1
  Sc  Sc13  1  0.379453  0.249874  0.121703  1
  Sc  Sc14  1  0.000000  0.751303  0.746304  1
  Sc  Sc15  1  0.500000  0.750231  0.242347  1
  Sc  Sc16  1  0.877302  0.755782  0.376871  1
  Sc  Sc17  1  0.379453  0.750126  0.878297  1
  Sc  Sc18  1  0.620547  0.750126  0.878297  1
  Sc  Sc19  1  0.122698  0.755782  0.376871  1
  Si  Si20  1  0.000000  0.250016  0.894723  1
  Si  Si21  1  0.500000  0.251037  0.394991  1
  Si  Si22  1  0.802967  0.247038  0.303654  1
  Si  Si23  1  0.302700  0.248689  0.803340  1
  Si  Si24  1  0.697300  0.248689  0.803340  1
  Si  Si25  1  0.197033  0.247038  0.303654  1
  Si  Si26  1  0.500000  0.748963  0.605009  1
  Si  Si27  1  0.000000  0.749984  0.105277  1
  Si  Si28  1  0.697300  0.751311  0.196660  1
  Si  Si29  1  0.197033  0.752962  0.696346  1
  Si  Si30  1  0.802967  0.752962  0.696346  1
  Si  Si31  1  0.302700  0.751311  0.196660  1
  F  F32  1  0.000000  0.500000  0.500000  1
