# generated using pymatgen
data_Mn4AlGePd10
_symmetry_space_group_name_H-M   'P 1'
_cell_length_a   4.08973900
_cell_length_b   5.49351506
_cell_length_c   10.75298810
_cell_angle_alpha   89.98378488
_cell_angle_beta   90.00000000
_cell_angle_gamma   90.00000000
_symmetry_Int_Tables_number   1
_chemical_formula_structural   Mn4AlGePd10
_chemical_formula_sum   'Mn4 Al1 Ge1 Pd10'
_cell_volume   241.58783402
_cell_formula_units_Z   1
loop_
 _symmetry_equiv_pos_site_id
 _symmetry_equiv_pos_as_xyz
  1  'x, y, z'
loop_
 _atom_site_type_symbol
 _atom_site_label
 _atom_site_symmetry_multiplicity
 _atom_site_fract_x
 _atom_site_fract_y
 _atom_site_fract_z
 _atom_site_occupancy
  Mn  Mn0  1  0.500000  0.179491  0.362117  1
  Mn  Mn1  1  0.500000  0.820509  0.637883  1
  Mn  Mn2  1  0.500000  0.674312  0.141653  1
  Mn  Mn3  1  0.500000  0.325688  0.858347  1
  Al  Al4  1  0.000000  0.500000  0.500000  1
  Ge  Ge5  1  0.000000  0.000000  0.000000  1
  Pd  Pd6  1  0.500000  0.186938  0.106916  1
  Pd  Pd7  1  0.500000  0.813062  0.893084  1
  Pd  Pd8  1  0.500000  0.687178  0.392623  1
  Pd  Pd9  1  0.500000  0.312822  0.607377  1
  Pd  Pd10  1  0.000000  0.000000  0.500000  1
  Pd  Pd11  1  0.000000  0.500000  0.000000  1
  Pd  Pd12  1  0.000000  0.924502  0.239988  1
  Pd  Pd13  1  0.000000  0.075498  0.760012  1
  Pd  Pd14  1  0.000000  0.424348  0.260684  1
  Pd  Pd15  1  0.000000  0.575652  0.739316  1
