# generated using pymatgen
data_Tb3ErPa2(Co3P2)6
_symmetry_space_group_name_H-M   'P 1'
_cell_length_a   3.71762400
_cell_length_b   10.52407702
_cell_length_c   12.15793602
_cell_angle_alpha   90.00631732
_cell_angle_beta   90.00000000
_cell_angle_gamma   90.00000000
_symmetry_Int_Tables_number   1
_chemical_formula_structural   Tb3ErPa2(Co3P2)6
_chemical_formula_sum   'Tb3 Er1 Pa2 Co18 P12'
_cell_volume   475.67391005
_cell_formula_units_Z   1
loop_
 _symmetry_equiv_pos_site_id
 _symmetry_equiv_pos_as_xyz
  1  'x, y, z'
loop_
 _atom_site_type_symbol
 _atom_site_label
 _atom_site_symmetry_multiplicity
 _atom_site_fract_x
 _atom_site_fract_y
 _atom_site_fract_z
 _atom_site_occupancy
  Tb  Tb0  1  0.500000  0.185088  0.205346  1
  Tb  Tb1  1  0.000000  0.685459  0.794612  1
  Tb  Tb2  1  0.000000  0.314668  0.795111  1
  Er  Er3  1  0.500000  0.814886  0.205220  1
  Pa  Pa4  1  0.000000  0.499829  0.528318  1
  Pa  Pa5  1  0.500000  0.999479  0.471237  1
  Co  Co6  1  0.500000  0.500345  0.158256  1
  Co  Co7  1  0.000000  0.999558  0.841759  1
  Co  Co8  1  0.500000  0.500095  0.695772  1
  Co  Co9  1  0.000000  0.999338  0.303777  1
  Co  Co10  1  0.000000  0.500620  0.984897  1
  Co  Co11  1  0.500000  0.999405  0.016353  1
  Co  Co12  1  0.500000  0.334217  0.994022  1
  Co  Co13  1  0.500000  0.666526  0.994312  1
  Co  Co14  1  0.000000  0.165400  0.006594  1
  Co  Co15  1  0.000000  0.834122  0.007013  1
  Co  Co16  1  0.500000  0.301412  0.431579  1
  Co  Co17  1  0.500000  0.698516  0.430532  1
  Co  Co18  1  0.000000  0.198241  0.568512  1
  Co  Co19  1  0.000000  0.801588  0.567658  1
  Co  Co20  1  0.500000  0.880615  0.710190  1
  Co  Co21  1  0.500000  0.119318  0.710757  1
  Co  Co22  1  0.000000  0.620344  0.288527  1
  Co  Co23  1  0.000000  0.380861  0.289675  1
  P  P24  1  0.500000  0.500343  0.879395  1
  P  P25  1  0.000000  0.999076  0.121609  1
  P  P26  1  0.500000  0.499995  0.342965  1
  P  P27  1  0.000000  0.999939  0.656784  1
  P  P28  1  0.500000  0.306539  0.616643  1
  P  P29  1  0.500000  0.693396  0.615900  1
  P  P30  1  0.000000  0.192999  0.383519  1
  P  P31  1  0.000000  0.806706  0.382065  1
  P  P32  1  0.500000  0.848160  0.894988  1
  P  P33  1  0.500000  0.151696  0.895523  1
  P  P34  1  0.000000  0.653265  0.105550  1
  P  P35  1  0.000000  0.347955  0.105031  1
