# generated using pymatgen
data_Yb3MnVC6
_symmetry_space_group_name_H-M   'P 1'
_cell_length_a   8.13106600
_cell_length_b   8.13106625
_cell_length_c   5.02720000
_cell_angle_alpha   90.00000000
_cell_angle_beta   90.00000000
_cell_angle_gamma   120.00000605
_symmetry_Int_Tables_number   1
_chemical_formula_structural   Yb3MnVC6
_chemical_formula_sum   'Yb6 Mn2 V2 C12'
_cell_volume   287.84040313
_cell_formula_units_Z   2
loop_
 _symmetry_equiv_pos_site_id
 _symmetry_equiv_pos_as_xyz
  1  'x, y, z'
loop_
 _atom_site_type_symbol
 _atom_site_label
 _atom_site_symmetry_multiplicity
 _atom_site_fract_x
 _atom_site_fract_y
 _atom_site_fract_z
 _atom_site_occupancy
  Yb  Yb0  1  0.606848  0.682243  0.750000  1
  Yb  Yb1  1  0.924604  0.606848  0.250000  1
  Yb  Yb2  1  0.682243  0.075396  0.250000  1
  Yb  Yb3  1  0.317757  0.924604  0.750000  1
  Yb  Yb4  1  0.075396  0.393152  0.750000  1
  Yb  Yb5  1  0.393152  0.317757  0.250000  1
  Mn  Mn6  1  0.666667  0.333333  0.750000  1
  Mn  Mn7  1  0.333333  0.666667  0.250000  1
  V  V8  1  0.000000  0.000000  0.500000  1
  V  V9  1  0.000000  0.000000  0.000000  1
  C  C10  1  0.952328  0.768093  0.750000  1
  C  C11  1  0.184236  0.952328  0.250000  1
  C  C12  1  0.768093  0.815764  0.250000  1
  C  C13  1  0.231907  0.184236  0.750000  1
  C  C14  1  0.815764  0.047672  0.750000  1
  C  C15  1  0.047672  0.231907  0.250000  1
  C  C16  1  0.855760  0.576291  0.750000  1
  C  C17  1  0.279468  0.855760  0.250000  1
  C  C18  1  0.576291  0.720532  0.250000  1
  C  C19  1  0.423709  0.279468  0.750000  1
  C  C20  1  0.144240  0.423709  0.250000  1
  C  C21  1  0.720532  0.144240  0.750000  1
