# generated using pymatgen
data_LuU2(SnRh)3
_symmetry_space_group_name_H-M   'P 1'
_cell_length_a   7.44505778
_cell_length_b   7.44505827
_cell_length_c   3.98920600
_cell_angle_alpha   90.00000000
_cell_angle_beta   90.00000000
_cell_angle_gamma   121.22120961
_symmetry_Int_Tables_number   1
_chemical_formula_structural   LuU2(SnRh)3
_chemical_formula_sum   'Lu1 U2 Sn3 Rh3'
_cell_volume   189.09338357
_cell_formula_units_Z   1
loop_
 _symmetry_equiv_pos_site_id
 _symmetry_equiv_pos_as_xyz
  1  'x, y, z'
loop_
 _atom_site_type_symbol
 _atom_site_label
 _atom_site_symmetry_multiplicity
 _atom_site_fract_x
 _atom_site_fract_y
 _atom_site_fract_z
 _atom_site_occupancy
  Lu  Lu0  1  0.409344  0.409344  0.500000  1
  U  U1  1  0.582750  0.000221  0.500000  1
  U  U2  1  0.000221  0.582750  0.500000  1
  Sn  Sn3  1  0.738037  0.738037  0.000000  1
  Sn  Sn4  1  0.254644  0.006778  0.000000  1
  Sn  Sn5  1  0.006778  0.254644  0.000000  1
  Rh  Rh6  1  0.679538  0.331884  0.000000  1
  Rh  Rh7  1  0.331884  0.679538  0.000000  1
  Rh  Rh8  1  0.996804  0.996804  0.500000  1
