# generated using pymatgen
data_NdTh2(GaPd)3
_symmetry_space_group_name_H-M   'P 1'
_cell_length_a   7.35187003
_cell_length_b   7.35186966
_cell_length_c   4.13548500
_cell_angle_alpha   90.00000000
_cell_angle_beta   90.00000000
_cell_angle_gamma   120.17954971
_symmetry_Int_Tables_number   1
_chemical_formula_structural   NdTh2(GaPd)3
_chemical_formula_sum   'Nd1 Th2 Ga3 Pd3'
_cell_volume   193.22534987
_cell_formula_units_Z   1
loop_
 _symmetry_equiv_pos_site_id
 _symmetry_equiv_pos_as_xyz
  1  'x, y, z'
loop_
 _atom_site_type_symbol
 _atom_site_label
 _atom_site_symmetry_multiplicity
 _atom_site_fract_x
 _atom_site_fract_y
 _atom_site_fract_z
 _atom_site_occupancy
  Nd  Nd0  1  0.413351  0.413351  0.500000  1
  Th  Th1  1  0.585270  0.001463  0.500000  1
  Th  Th2  1  0.001463  0.585270  0.500000  1
  Ga  Ga3  1  0.753213  0.753213  0.000000  1
  Ga  Ga4  1  0.240905  0.006123  0.000000  1
  Ga  Ga5  1  0.006123  0.240905  0.000000  1
  Pd  Pd6  1  0.676610  0.332483  0.000000  1
  Pd  Pd7  1  0.332483  0.676610  0.000000  1
  Pd  Pd8  1  0.990582  0.990582  0.500000  1
