# generated using pymatgen
data_Ce8Ta9Si16W3
_symmetry_space_group_name_H-M   'P 1'
_cell_length_a   6.90668365
_cell_length_b   7.08261932
_cell_length_c   13.38018100
_cell_angle_alpha   90.00000000
_cell_angle_beta   90.00000000
_cell_angle_gamma   89.97769319
_symmetry_Int_Tables_number   1
_chemical_formula_structural   Ce8Ta9Si16W3
_chemical_formula_sum   'Ce8 Ta9 Si16 W3'
_cell_volume   654.52376407
_cell_formula_units_Z   1
loop_
 _symmetry_equiv_pos_site_id
 _symmetry_equiv_pos_as_xyz
  1  'x, y, z'
loop_
 _atom_site_type_symbol
 _atom_site_label
 _atom_site_symmetry_multiplicity
 _atom_site_fract_x
 _atom_site_fract_y
 _atom_site_fract_z
 _atom_site_occupancy
  Ce  Ce0  1  0.501616  0.668108  0.593243  1
  Ce  Ce1  1  0.001198  0.832158  0.906314  1
  Ce  Ce2  1  0.498950  0.332096  0.093933  1
  Ce  Ce3  1  0.999072  0.167166  0.405951  1
  Ce  Ce4  1  0.498950  0.332096  0.406067  1
  Ce  Ce5  1  0.999072  0.167166  0.094049  1
  Ce  Ce6  1  0.501616  0.668108  0.906757  1
  Ce  Ce7  1  0.001198  0.832158  0.593686  1
  Ta  Ta8  1  0.662128  0.170594  0.625891  1
  Ta  Ta9  1  0.163723  0.328703  0.874126  1
  Ta  Ta10  1  0.336898  0.829309  0.126710  1
  Ta  Ta11  1  0.836579  0.670646  0.372888  1
  Ta  Ta12  1  0.336898  0.829309  0.373290  1
  Ta  Ta13  1  0.836579  0.670646  0.127112  1
  Ta  Ta14  1  0.662128  0.170594  0.874109  1
  Ta  Ta15  1  0.163723  0.328703  0.625874  1
  Ta  Ta16  1  0.837286  0.493927  0.750000  1
  Si  Si17  1  0.661278  0.958059  0.455835  1
  Si  Si18  1  0.160726  0.541774  0.044380  1
  Si  Si19  1  0.338220  0.041943  0.956468  1
  Si  Si20  1  0.839049  0.458176  0.542516  1
  Si  Si21  1  0.338220  0.041943  0.543532  1
  Si  Si22  1  0.839049  0.458176  0.957484  1
  Si  Si23  1  0.661278  0.958059  0.044165  1
  Si  Si24  1  0.160726  0.541774  0.455620  1
  Si  Si25  1  0.459772  0.376391  0.750000  1
  Si  Si26  1  0.962344  0.122490  0.750000  1
  Si  Si27  1  0.537573  0.622898  0.250000  1
  Si  Si28  1  0.038360  0.876425  0.250000  1
  Si  Si29  1  0.698567  0.874096  0.750000  1
  Si  Si30  1  0.201692  0.629242  0.750000  1
  Si  Si31  1  0.301950  0.128356  0.250000  1
  Si  Si32  1  0.801829  0.371189  0.250000  1
  W  W33  1  0.337975  0.008047  0.750000  1
  W  W34  1  0.161768  0.507135  0.250000  1
  W  W35  1  0.662010  0.992337  0.250000  1
