# generated using pymatgen
data_Mn3Tl4PdF28
_symmetry_space_group_name_H-M   'P 1'
_cell_length_a   5.36959046
_cell_length_b   8.55762856
_cell_length_c   11.57380800
_cell_angle_alpha   62.85455726
_cell_angle_beta   90.02361364
_cell_angle_gamma   90.03965051
_symmetry_Int_Tables_number   1
_chemical_formula_structural   Mn3Tl4PdF28
_chemical_formula_sum   'Mn3 Tl4 Pd1 F28'
_cell_volume   473.24731936
_cell_formula_units_Z   1
loop_
 _symmetry_equiv_pos_site_id
 _symmetry_equiv_pos_as_xyz
  1  'x, y, z'
loop_
 _atom_site_type_symbol
 _atom_site_label
 _atom_site_symmetry_multiplicity
 _atom_site_fract_x
 _atom_site_fract_y
 _atom_site_fract_z
 _atom_site_occupancy
  Mn  Mn0  1  0.760347  0.724536  0.044582  1
  Mn  Mn1  1  0.238184  0.274589  0.955139  1
  Mn  Mn2  1  0.262141  0.276405  0.454387  1
  Tl  Tl3  1  0.262984  0.813204  0.260989  1
  Tl  Tl4  1  0.737902  0.185042  0.737271  1
  Tl  Tl5  1  0.763641  0.190254  0.235043  1
  Tl  Tl6  1  0.234525  0.811984  0.764529  1
  Pd  Pd7  1  0.739300  0.726623  0.544330  1
  F  F8  1  0.914714  0.693065  0.411767  1
  F  F9  1  0.081920  0.300529  0.578646  1
  F  F10  1  0.416989  0.298296  0.079859  1
  F  F11  1  0.578788  0.699563  0.921699  1
  F  F12  1  0.467628  0.720207  0.129188  1
  F  F13  1  0.532150  0.276670  0.872325  1
  F  F14  1  0.970436  0.285535  0.367466  1
  F  F15  1  0.057511  0.714564  0.628814  1
  F  F16  1  0.936996  0.737321  0.177849  1
  F  F17  1  0.063938  0.262669  0.819934  1
  F  F18  1  0.436138  0.263575  0.319555  1
  F  F19  1  0.574099  0.739224  0.690261  1
  F  F20  1  0.783359  0.482826  0.139241  1
  F  F21  1  0.216862  0.516472  0.860995  1
  F  F22  1  0.291269  0.518411  0.359933  1
  F  F23  1  0.702163  0.473620  0.647250  1
  F  F24  1  0.939696  0.277572  0.033607  1
  F  F25  1  0.058199  0.721708  0.965482  1
  F  F26  1  0.418426  0.726657  0.466476  1
  F  F27  1  0.560448  0.275938  0.534775  1
  F  F28  1  0.748738  0.979646  0.456284  1
  F  F29  1  0.255658  0.037527  0.541156  1
  F  F30  1  0.241419  0.035493  0.041293  1
  F  F31  1  0.757798  0.963469  0.957780  1
  F  F32  1  0.614998  0.961561  0.224389  1
  F  F33  1  0.383860  0.037033  0.778804  1
  F  F34  1  0.112202  0.036788  0.277430  1
  F  F35  1  0.884571  0.961425  0.721474  1
