# generated using pymatgen
data_RbAl(CO3)2
_symmetry_space_group_name_H-M   'P 1'
_cell_length_a   6.58349727
_cell_length_b   6.58349712
_cell_length_c   6.58349825
_cell_angle_alpha   43.66342933
_cell_angle_beta   43.66343211
_cell_angle_gamma   43.66342821
_symmetry_Int_Tables_number   1
_chemical_formula_structural   RbAl(CO3)2
_chemical_formula_sum   'Rb1 Al1 C2 O6'
_cell_volume   123.45547384
_cell_formula_units_Z   1
loop_
 _symmetry_equiv_pos_site_id
 _symmetry_equiv_pos_as_xyz
  1  'x, y, z'
loop_
 _atom_site_type_symbol
 _atom_site_label
 _atom_site_symmetry_multiplicity
 _atom_site_fract_x
 _atom_site_fract_y
 _atom_site_fract_z
 _atom_site_occupancy
  Rb  Rb0  1  0.000000  0.000000  0.000000  1
  Al  Al1  1  0.500000  0.500000  0.500000  1
  C  C2  1  0.227340  0.227340  0.227340  1
  C  C3  1  0.772660  0.772660  0.772660  1
  O  O4  1  0.617257  0.617257  0.074525  1
  O  O5  1  0.925475  0.382743  0.382743  1
  O  O6  1  0.382743  0.925475  0.382743  1
  O  O7  1  0.617257  0.074525  0.617257  1
  O  O8  1  0.074525  0.617257  0.617257  1
  O  O9  1  0.382743  0.382743  0.925475  1
