# generated using pymatgen
data_GdBe12Cu
_symmetry_space_group_name_H-M   'P 1'
_cell_length_a   7.27198477
_cell_length_b   7.29616415
_cell_length_c   7.25447437
_cell_angle_alpha   59.96488272
_cell_angle_beta   59.94173062
_cell_angle_gamma   59.70850030
_symmetry_Int_Tables_number   1
_chemical_formula_structural   GdBe12Cu
_chemical_formula_sum   'Gd2 Be24 Cu2'
_cell_volume   271.37325891
_cell_formula_units_Z   2
loop_
 _symmetry_equiv_pos_site_id
 _symmetry_equiv_pos_as_xyz
  1  'x, y, z'
loop_
 _atom_site_type_symbol
 _atom_site_label
 _atom_site_symmetry_multiplicity
 _atom_site_fract_x
 _atom_site_fract_y
 _atom_site_fract_z
 _atom_site_occupancy
  Gd  Gd0  1  0.252468  0.247533  0.252464  1
  Gd  Gd1  1  0.747532  0.752467  0.747536  1
  Be  Be2  1  0.500000  0.500000  0.500000  1
  Be  Be3  1  0.000000  0.000000  0.000000  1
  Be  Be4  1  0.563128  0.793153  0.436861  1
  Be  Be5  1  0.436872  0.206847  0.563139  1
  Be  Be6  1  0.290474  0.936179  0.709547  1
  Be  Be7  1  0.709526  0.063821  0.290453  1
  Be  Be8  1  0.934260  0.284799  0.065715  1
  Be  Be9  1  0.065740  0.715201  0.934285  1
  Be  Be10  1  0.208479  0.796057  0.559987  1
  Be  Be11  1  0.791521  0.203943  0.440013  1
  Be  Be12  1  0.440004  0.564525  0.791449  1
  Be  Be13  1  0.559996  0.435475  0.208551  1
  Be  Be14  1  0.710242  0.289125  0.936677  1
  Be  Be15  1  0.289758  0.710875  0.063323  1
  Be  Be16  1  0.063329  0.936031  0.289679  1
  Be  Be17  1  0.936671  0.063969  0.710321  1
  Be  Be18  1  0.566639  0.206337  0.791234  1
  Be  Be19  1  0.433361  0.793663  0.208766  1
  Be  Be20  1  0.791224  0.435811  0.566626  1
  Be  Be21  1  0.208776  0.564189  0.433374  1
  Be  Be22  1  0.937597  0.711492  0.291342  1
  Be  Be23  1  0.062403  0.288508  0.708658  1
  Be  Be24  1  0.291357  0.059537  0.937580  1
  Be  Be25  1  0.708643  0.940463  0.062420  1
  Cu  Cu26  1  0.797581  0.560947  0.202449  1
  Cu  Cu27  1  0.202419  0.439053  0.797551  1
