# generated using pymatgen
data_CaY2Tm(Al8Pt3)3
_symmetry_space_group_name_H-M   'P 1'
_cell_length_a   7.52786325
_cell_length_b   7.54672190
_cell_length_c   13.20553847
_cell_angle_alpha   84.60432437
_cell_angle_beta   79.12035012
_cell_angle_gamma   59.92965748
_symmetry_Int_Tables_number   1
_chemical_formula_structural   CaY2Tm(Al8Pt3)3
_chemical_formula_sum   'Ca1 Y2 Tm1 Al24 Pt9'
_cell_volume   637.57511461
_cell_formula_units_Z   1
loop_
 _symmetry_equiv_pos_site_id
 _symmetry_equiv_pos_as_xyz
  1  'x, y, z'
loop_
 _atom_site_type_symbol
 _atom_site_label
 _atom_site_symmetry_multiplicity
 _atom_site_fract_x
 _atom_site_fract_y
 _atom_site_fract_z
 _atom_site_occupancy
  Ca  Ca0  1  0.394045  0.168128  0.807778  1
  Y  Y1  1  0.604954  0.832553  0.192322  1
  Y  Y2  1  0.733542  0.498480  0.808294  1
  Tm  Tm3  1  0.266413  0.500530  0.193433  1
  Al  Al4  1  0.684337  0.834154  0.945829  1
  Al  Al5  1  0.315368  0.167001  0.056217  1
  Al  Al6  1  0.147003  0.832444  0.560089  1
  Al  Al7  1  0.853593  0.167884  0.437390  1
  Al  Al8  1  0.480383  0.166647  0.557973  1
  Al  Al9  1  0.520239  0.833663  0.440347  1
  Al  Al10  1  0.217729  0.165556  0.328622  1
  Al  Al11  1  0.782394  0.835594  0.668755  1
  Al  Al12  1  0.437687  0.505385  0.668465  1
  Al  Al13  1  0.563015  0.493308  0.328915  1
  Al  Al14  1  0.111315  0.160104  0.667294  1
  Al  Al15  1  0.890760  0.839692  0.330280  1
  Al  Al16  1  0.351080  0.499710  0.946605  1
  Al  Al17  1  0.645403  0.501126  0.057226  1
  Al  Al18  1  0.014914  0.167157  0.956189  1
  Al  Al19  1  0.984197  0.830999  0.049115  1
  Al  Al20  1  0.187027  0.499169  0.440317  1
  Al  Al21  1  0.813742  0.500222  0.557934  1
  Al  Al22  1  0.733276  0.165717  0.183828  1
  Al  Al23  1  0.267216  0.832363  0.816708  1
  Al  Al24  1  0.058628  0.632696  0.815756  1
  Al  Al25  1  0.939312  0.369117  0.185008  1
  Al  Al26  1  0.857259  0.042922  0.816263  1
  Al  Al27  1  0.144768  0.957584  0.184272  1
  Pt  Pt28  1  0.119981  0.493248  0.637164  1
  Pt  Pt29  1  0.880597  0.508122  0.361106  1
  Pt  Pt30  1  0.657199  0.171327  0.001315  1
  Pt  Pt31  1  0.341883  0.828388  0.001674  1
  Pt  Pt32  1  0.537766  0.167238  0.360847  1
  Pt  Pt33  1  0.461923  0.832448  0.637063  1
  Pt  Pt34  1  0.780711  0.174101  0.635670  1
  Pt  Pt35  1  0.221398  0.824541  0.362146  1
  Pt  Pt36  1  0.998943  0.500684  0.001789  1
