# generated using pymatgen
data_Y8Ho5Tm7Pb16
_symmetry_space_group_name_H-M   'P 1'
_cell_length_a   8.18214032
_cell_length_b   8.25342679
_cell_length_c   15.57485200
_cell_angle_alpha   90.01227356
_cell_angle_beta   89.91352558
_cell_angle_gamma   90.09184108
_symmetry_Int_Tables_number   1
_chemical_formula_structural   Y8Ho5Tm7Pb16
_chemical_formula_sum   'Y8 Ho5 Tm7 Pb16'
_cell_volume   1051.77802440
_cell_formula_units_Z   1
loop_
 _symmetry_equiv_pos_site_id
 _symmetry_equiv_pos_as_xyz
  1  'x, y, z'
loop_
 _atom_site_type_symbol
 _atom_site_label
 _atom_site_symmetry_multiplicity
 _atom_site_fract_x
 _atom_site_fract_y
 _atom_site_fract_z
 _atom_site_occupancy
  Y  Y0  1  0.534926  0.323488  0.900573  1
  Y  Y1  1  0.035212  0.176558  0.599336  1
  Y  Y2  1  0.465042  0.676877  0.400978  1
  Y  Y3  1  0.964777  0.823512  0.099243  1
  Y  Y4  1  0.465530  0.676921  0.098950  1
  Y  Y5  1  0.965678  0.823404  0.401280  1
  Y  Y6  1  0.534597  0.323504  0.599139  1
  Y  Y7  1  0.034679  0.176051  0.900285  1
  Ho  Ho8  1  0.124878  0.341956  0.121057  1
  Ho  Ho9  1  0.624099  0.158613  0.121513  1
  Ho  Ho10  1  0.124111  0.341837  0.378766  1
  Ho  Ho11  1  0.375849  0.841759  0.621649  1
  Ho  Ho12  1  0.876010  0.658145  0.878438  1
  Tm  Tm13  1  0.374908  0.842443  0.877757  1
  Tm  Tm14  1  0.874687  0.657486  0.621814  1
  Tm  Tm15  1  0.625192  0.157422  0.378762  1
  Tm  Tm16  1  0.207493  0.505200  0.749976  1
  Tm  Tm17  1  0.707555  0.994976  0.749809  1
  Tm  Tm18  1  0.792217  0.494939  0.250483  1
  Tm  Tm19  1  0.292656  0.005037  0.250081  1
  Pb  Pb20  1  0.283358  0.034062  0.042365  1
  Pb  Pb21  1  0.782954  0.464735  0.457514  1
  Pb  Pb22  1  0.717364  0.964385  0.543049  1
  Pb  Pb23  1  0.217447  0.536064  0.956440  1
  Pb  Pb24  1  0.715158  0.964635  0.956500  1
  Pb  Pb25  1  0.215107  0.535308  0.543554  1
  Pb  Pb26  1  0.284974  0.035300  0.456875  1
  Pb  Pb27  1  0.783421  0.465342  0.043246  1
  Pb  Pb28  1  0.570101  0.626724  0.750223  1
  Pb  Pb29  1  0.069923  0.873075  0.749717  1
  Pb  Pb30  1  0.430139  0.373517  0.250727  1
  Pb  Pb31  1  0.929345  0.126132  0.250120  1
  Pb  Pb32  1  0.347219  0.154443  0.750027  1
  Pb  Pb33  1  0.847045  0.345508  0.749653  1
  Pb  Pb34  1  0.653278  0.845836  0.250197  1
  Pb  Pb35  1  0.153070  0.654805  0.249907  1
