# generated using pymatgen
data_VCu3Pt4
_symmetry_space_group_name_H-M   'P 1'
_cell_length_a   3.93553700
_cell_length_b   3.93553700
_cell_length_c   7.21176800
_cell_angle_alpha   90.00000000
_cell_angle_beta   90.00000000
_cell_angle_gamma   90.00000000
_symmetry_Int_Tables_number   1
_chemical_formula_structural   VCu3Pt4
_chemical_formula_sum   'V1 Cu3 Pt4'
_cell_volume   111.69911874
_cell_formula_units_Z   1
loop_
 _symmetry_equiv_pos_site_id
 _symmetry_equiv_pos_as_xyz
  1  'x, y, z'
loop_
 _atom_site_type_symbol
 _atom_site_label
 _atom_site_symmetry_multiplicity
 _atom_site_fract_x
 _atom_site_fract_y
 _atom_site_fract_z
 _atom_site_occupancy
  V  V0  1  0.000000  0.000000  0.000000  1
  Cu  Cu1  1  0.000000  0.000000  0.500000  1
  Cu  Cu2  1  0.500000  0.500000  0.000000  1
  Cu  Cu3  1  0.500000  0.500000  0.500000  1
  Pt  Pt4  1  0.500000  0.000000  0.244568  1
  Pt  Pt5  1  0.500000  0.000000  0.755432  1
  Pt  Pt6  1  0.000000  0.500000  0.244568  1
  Pt  Pt7  1  0.000000  0.500000  0.755432  1
