# generated using pymatgen
data_Tb4MgAl19Pt12
_symmetry_space_group_name_H-M   'P 1'
_cell_length_a   4.09252000
_cell_length_b   7.46893369
_cell_length_c   20.59663983
_cell_angle_alpha   90.09860780
_cell_angle_beta   90.00000000
_cell_angle_gamma   90.00000000
_symmetry_Int_Tables_number   1
_chemical_formula_structural   Tb4MgAl19Pt12
_chemical_formula_sum   'Tb4 Mg1 Al19 Pt12'
_cell_volume   629.57162470
_cell_formula_units_Z   1
loop_
 _symmetry_equiv_pos_site_id
 _symmetry_equiv_pos_as_xyz
  1  'x, y, z'
loop_
 _atom_site_type_symbol
 _atom_site_label
 _atom_site_symmetry_multiplicity
 _atom_site_fract_x
 _atom_site_fract_y
 _atom_site_fract_z
 _atom_site_occupancy
  Tb  Tb0  1  0.250000  0.117371  0.639502  1
  Tb  Tb1  1  0.750000  0.883348  0.359562  1
  Tb  Tb2  1  0.250000  0.385937  0.138344  1
  Tb  Tb3  1  0.750000  0.613994  0.860549  1
  Mg  Mg4  1  0.750000  0.358722  0.383149  1
  Al  Al5  1  0.750000  0.884409  0.983841  1
  Al  Al6  1  0.750000  0.686502  0.199994  1
  Al  Al7  1  0.250000  0.868567  0.495176  1
  Al  Al8  1  0.250000  0.630710  0.990903  1
  Al  Al9  1  0.250000  0.314600  0.799547  1
  Al  Al10  1  0.750000  0.071139  0.209391  1
  Al  Al11  1  0.250000  0.642142  0.618241  1
  Al  Al12  1  0.250000  0.569781  0.290979  1
  Al  Al13  1  0.250000  0.184308  0.299296  1
  Al  Al14  1  0.750000  0.145315  0.882107  1
  Al  Al15  1  0.250000  0.927501  0.790897  1
  Al  Al16  1  0.750000  0.369272  0.008311  1
  Al  Al17  1  0.750000  0.619617  0.485256  1
  Al  Al18  1  0.750000  0.128846  0.509669  1
  Al  Al19  1  0.250000  0.115821  0.015949  1
  Al  Al20  1  0.250000  0.855351  0.117614  1
  Al  Al21  1  0.250000  0.384814  0.512969  1
  Al  Al22  1  0.750000  0.427046  0.708694  1
  Al  Al23  1  0.750000  0.814931  0.701222  1
  Pt  Pt24  1  0.750000  0.381172  0.254800  1
  Pt  Pt25  1  0.250000  0.878634  0.240676  1
  Pt  Pt26  1  0.250000  0.618722  0.741197  1
  Pt  Pt27  1  0.750000  0.119841  0.759148  1
  Pt  Pt28  1  0.250000  0.146732  0.428225  1
  Pt  Pt29  1  0.750000  0.417373  0.584895  1
  Pt  Pt30  1  0.750000  0.081744  0.085683  1
  Pt  Pt31  1  0.250000  0.918502  0.914471  1
  Pt  Pt32  1  0.750000  0.840033  0.575286  1
  Pt  Pt33  1  0.250000  0.339738  0.926424  1
  Pt  Pt34  1  0.750000  0.659985  0.073244  1
  Pt  Pt35  1  0.250000  0.597478  0.414788  1
