# generated using pymatgen
data_Ta9SiB4MoP
_symmetry_space_group_name_H-M   'P 1'
_cell_length_a   7.25117538
_cell_length_b   7.25117454
_cell_length_c   7.25117477
_cell_angle_alpha   129.48439784
_cell_angle_beta   129.48438986
_cell_angle_gamma   74.23239957
_symmetry_Int_Tables_number   1
_chemical_formula_structural   Ta9SiB4MoP
_chemical_formula_sum   'Ta9 Si1 B4 Mo1 P1'
_cell_volume   221.41011461
_cell_formula_units_Z   1
loop_
 _symmetry_equiv_pos_site_id
 _symmetry_equiv_pos_as_xyz
  1  'x, y, z'
loop_
 _atom_site_type_symbol
 _atom_site_label
 _atom_site_symmetry_multiplicity
 _atom_site_fract_x
 _atom_site_fract_y
 _atom_site_fract_z
 _atom_site_occupancy
  Ta  Ta0  1  0.807781  0.973564  0.501580  1
  Ta  Ta1  1  0.306201  0.807781  0.834216  1
  Ta  Ta2  1  0.190028  0.024257  0.494061  1
  Ta  Ta3  1  0.530196  0.695968  0.505939  1
  Ta  Ta4  1  0.024257  0.530196  0.834228  1
  Ta  Ta5  1  0.695968  0.190028  0.165772  1
  Ta  Ta6  1  0.973564  0.471984  0.165784  1
  Ta  Ta7  1  0.499485  0.499485  0.000000  1
  Ta  Ta8  1  0.471984  0.306201  0.498420  1
  Si  Si9  1  0.252735  0.252735  0.000000  1
  B  B10  1  0.381728  0.881615  0.263252  1
  B  B11  1  0.881615  0.618364  0.499886  1
  B  B12  1  0.618364  0.118477  0.736748  1
  B  B13  1  0.118477  0.381728  0.500114  1
  Mo  Mo14  1  0.001302  0.001302  0.000000  1
  P  P15  1  0.746314  0.746314  0.000000  1
