# generated using pymatgen
data_NdHoPa4(Ni3Bi4)2
_symmetry_space_group_name_H-M   'P 1'
_cell_length_a   8.37182704
_cell_length_b   8.37182744
_cell_length_c   8.37182701
_cell_angle_alpha   109.65342608
_cell_angle_beta   109.38019558
_cell_angle_gamma   109.38019760
_symmetry_Int_Tables_number   1
_chemical_formula_structural   NdHoPa4(Ni3Bi4)2
_chemical_formula_sum   'Nd1 Ho1 Pa4 Ni6 Bi8'
_cell_volume   451.68488330
_cell_formula_units_Z   1
loop_
 _symmetry_equiv_pos_site_id
 _symmetry_equiv_pos_as_xyz
  1  'x, y, z'
loop_
 _atom_site_type_symbol
 _atom_site_label
 _atom_site_symmetry_multiplicity
 _atom_site_fract_x
 _atom_site_fract_y
 _atom_site_fract_z
 _atom_site_occupancy
  Nd  Nd0  1  0.750000  0.375000  0.625000  1
  Ho  Ho1  1  0.250000  0.125000  0.875000  1
  Pa  Pa2  1  0.127466  0.877275  0.250071  1
  Pa  Pa3  1  0.372534  0.622605  0.749809  1
  Pa  Pa4  1  0.872796  0.250191  0.122725  1
  Pa  Pa5  1  0.627204  0.749929  0.377395  1
  Ni  Ni6  1  0.628272  0.379697  0.246536  1
  Ni  Ni7  1  0.871728  0.118264  0.751425  1
  Ni  Ni8  1  0.366839  0.248575  0.620303  1
  Ni  Ni9  1  0.133161  0.753464  0.881736  1
  Ni  Ni10  1  0.250000  0.625000  0.375000  1
  Ni  Ni11  1  0.750000  0.875000  0.125000  1
  Bi  Bi12  1  0.333215  0.332641  0.331113  1
  Bi  Bi13  1  0.166785  0.497897  0.999427  1
  Bi  Bi14  1  0.999444  0.165146  0.501888  1
  Bi  Bi15  1  0.836741  0.834300  0.834854  1
  Bi  Bi16  1  0.500556  0.002442  0.165700  1
  Bi  Bi17  1  0.663259  0.498112  0.997558  1
  Bi  Bi18  1  0.498469  0.000573  0.667359  1
  Bi  Bi19  1  0.001531  0.668887  0.502103  1
