# generated using pymatgen
data_PrScB6Os
_symmetry_space_group_name_H-M   'P 1'
_cell_length_a   3.63034300
_cell_length_b   9.08557400
_cell_length_c   11.54788800
_cell_angle_alpha   90.00000000
_cell_angle_beta   90.00000000
_cell_angle_gamma   90.00000000
_symmetry_Int_Tables_number   1
_chemical_formula_structural   PrScB6Os
_chemical_formula_sum   'Pr4 Sc4 B24 Os4'
_cell_volume   380.89265050
_cell_formula_units_Z   4
loop_
 _symmetry_equiv_pos_site_id
 _symmetry_equiv_pos_as_xyz
  1  'x, y, z'
loop_
 _atom_site_type_symbol
 _atom_site_label
 _atom_site_symmetry_multiplicity
 _atom_site_fract_x
 _atom_site_fract_y
 _atom_site_fract_z
 _atom_site_occupancy
  Pr  Pr0  1  0.000000  0.321216  0.414854  1
  Pr  Pr1  1  0.000000  0.678784  0.585146  1
  Pr  Pr2  1  0.000000  0.821216  0.085146  1
  Pr  Pr3  1  0.000000  0.178784  0.914854  1
  Sc  Sc4  1  0.000000  0.945678  0.373790  1
  Sc  Sc5  1  0.000000  0.054322  0.626210  1
  Sc  Sc6  1  0.000000  0.445678  0.126210  1
  Sc  Sc7  1  0.000000  0.554322  0.873790  1
  B  B8  1  0.500000  0.557574  0.429081  1
  B  B9  1  0.500000  0.442426  0.570919  1
  B  B10  1  0.500000  0.057574  0.070919  1
  B  B11  1  0.500000  0.942426  0.929081  1
  B  B12  1  0.500000  0.754304  0.416039  1
  B  B13  1  0.500000  0.245696  0.583961  1
  B  B14  1  0.500000  0.254304  0.083961  1
  B  B15  1  0.500000  0.745696  0.916039  1
  B  B16  1  0.500000  0.793672  0.266245  1
  B  B17  1  0.500000  0.206328  0.733755  1
  B  B18  1  0.500000  0.293672  0.233755  1
  B  B19  1  0.500000  0.706328  0.766245  1
  B  B20  1  0.500000  0.628468  0.183060  1
  B  B21  1  0.500000  0.371532  0.816940  1
  B  B22  1  0.500000  0.128468  0.316940  1
  B  B23  1  0.500000  0.871532  0.683060  1
  B  B24  1  0.500000  0.984182  0.216255  1
  B  B25  1  0.500000  0.015818  0.783745  1
  B  B26  1  0.500000  0.484182  0.283745  1
  B  B27  1  0.500000  0.515818  0.716255  1
  B  B28  1  0.500000  0.596870  0.025845  1
  B  B29  1  0.500000  0.403130  0.974155  1
  B  B30  1  0.500000  0.096870  0.474155  1
  B  B31  1  0.500000  0.903130  0.525845  1
  Os  Os32  1  0.000000  0.641461  0.316806  1
  Os  Os33  1  0.000000  0.358539  0.683194  1
  Os  Os34  1  0.000000  0.141461  0.183194  1
  Os  Os35  1  0.000000  0.858539  0.816806  1
