# generated using pymatgen
data_Sc4NbGe(B2Ru5)2
_symmetry_space_group_name_H-M   'P 1'
_cell_length_a   9.46571800
_cell_length_b   9.46571800
_cell_length_c   3.04442000
_cell_angle_alpha   90.00000000
_cell_angle_beta   90.00000000
_cell_angle_gamma   90.00000000
_symmetry_Int_Tables_number   1
_chemical_formula_structural   Sc4NbGe(B2Ru5)2
_chemical_formula_sum   'Sc4 Nb1 Ge1 B4 Ru10'
_cell_volume   272.77947565
_cell_formula_units_Z   1
loop_
 _symmetry_equiv_pos_site_id
 _symmetry_equiv_pos_as_xyz
  1  'x, y, z'
loop_
 _atom_site_type_symbol
 _atom_site_label
 _atom_site_symmetry_multiplicity
 _atom_site_fract_x
 _atom_site_fract_y
 _atom_site_fract_z
 _atom_site_occupancy
  Sc  Sc0  1  0.823952  0.673248  0.000000  1
  Sc  Sc1  1  0.176048  0.326752  0.000000  1
  Sc  Sc2  1  0.326752  0.823952  0.000000  1
  Sc  Sc3  1  0.673248  0.176048  0.000000  1
  Nb  Nb4  1  0.000000  0.000000  0.000000  1
  Ge  Ge5  1  0.500000  0.500000  0.000000  1
  B  B6  1  0.616621  0.873449  0.000000  1
  B  B7  1  0.383379  0.126551  0.000000  1
  B  B8  1  0.126551  0.616621  0.000000  1
  B  B9  1  0.873449  0.383379  0.000000  1
  Ru  Ru10  1  0.500000  0.000000  0.500000  1
  Ru  Ru11  1  0.000000  0.500000  0.500000  1
  Ru  Ru12  1  0.568534  0.712879  0.500000  1
  Ru  Ru13  1  0.431466  0.287121  0.500000  1
  Ru  Ru14  1  0.073435  0.780767  0.500000  1
  Ru  Ru15  1  0.926565  0.219233  0.500000  1
  Ru  Ru16  1  0.287121  0.568534  0.500000  1
  Ru  Ru17  1  0.712879  0.431466  0.500000  1
  Ru  Ru18  1  0.219233  0.073435  0.500000  1
  Ru  Ru19  1  0.780767  0.926565  0.500000  1
