# generated using pymatgen
data_Nd3In3NiPdPt
_symmetry_space_group_name_H-M   'P 1'
_cell_length_a   7.71432500
_cell_length_b   7.71432575
_cell_length_c   4.01605000
_cell_angle_alpha   90.00000000
_cell_angle_beta   90.00000000
_cell_angle_gamma   120.00000107
_symmetry_Int_Tables_number   1
_chemical_formula_structural   Nd3In3NiPdPt
_chemical_formula_sum   'Nd3 In3 Ni1 Pd1 Pt1'
_cell_volume   206.97869449
_cell_formula_units_Z   1
loop_
 _symmetry_equiv_pos_site_id
 _symmetry_equiv_pos_as_xyz
  1  'x, y, z'
loop_
 _atom_site_type_symbol
 _atom_site_label
 _atom_site_symmetry_multiplicity
 _atom_site_fract_x
 _atom_site_fract_y
 _atom_site_fract_z
 _atom_site_occupancy
  Nd  Nd0  1  0.407524  0.410888  0.500000  1
  Nd  Nd1  1  0.589112  0.996635  0.500000  1
  Nd  Nd2  1  0.003365  0.592476  0.500000  1
  In  In3  1  0.758529  0.757845  0.000000  1
  In  In4  1  0.242155  0.000684  0.000000  1
  In  In5  1  0.999316  0.241471  0.000000  1
  Ni  Ni6  1  0.000000  0.000000  0.500000  1
  Pd  Pd7  1  0.666667  0.333333  0.000000  1
  Pt  Pt8  1  0.333333  0.666667  0.000000  1
