# generated using pymatgen
data_Sc6Cu16Si7H3
_symmetry_space_group_name_H-M   'P 1'
_cell_length_a   8.30674026
_cell_length_b   8.30697110
_cell_length_c   8.30949600
_cell_angle_alpha   120.42843378
_cell_angle_beta   120.21963410
_cell_angle_gamma   89.41972123
_symmetry_Int_Tables_number   1
_chemical_formula_structural   Sc6Cu16Si7H3
_chemical_formula_sum   'Sc6 Cu16 Si7 H3'
_cell_volume   403.50743272
_cell_formula_units_Z   1
loop_
 _symmetry_equiv_pos_site_id
 _symmetry_equiv_pos_as_xyz
  1  'x, y, z'
loop_
 _atom_site_type_symbol
 _atom_site_label
 _atom_site_symmetry_multiplicity
 _atom_site_fract_x
 _atom_site_fract_y
 _atom_site_fract_z
 _atom_site_occupancy
  Sc  Sc0  1  0.804267  0.199103  0.001141  1
  Sc  Sc1  1  0.803958  0.802784  0.604517  1
  Sc  Sc2  1  0.790874  0.787192  0.003843  1
  Sc  Sc3  1  0.201762  0.796356  0.001377  1
  Sc  Sc4  1  0.202290  0.201022  0.406846  1
  Sc  Sc5  1  0.210048  0.209960  0.000022  1
  Cu  Cu6  1  0.483494  0.825335  0.658024  1
  Cu  Cu7  1  0.171721  0.825436  0.346188  1
  Cu  Cu8  1  0.170346  0.827934  0.662390  1
  Cu  Cu9  1  0.170198  0.507834  0.342132  1
  Cu  Cu10  1  0.509319  0.168294  0.341146  1
  Cu  Cu11  1  0.827459  0.169926  0.657803  1
  Cu  Cu12  1  0.829505  0.165950  0.337251  1
  Cu  Cu13  1  0.829277  0.492213  0.663362  1
  Cu  Cu14  1  0.856053  0.616166  0.239990  1
  Cu  Cu15  1  0.381808  0.617153  0.764737  1
  Cu  Cu16  1  0.384477  0.622101  0.242741  1
  Cu  Cu17  1  0.384470  0.141788  0.762410  1
  Cu  Cu18  1  0.143125  0.382000  0.761805  1
  Cu  Cu19  1  0.623379  0.381992  0.240764  1
  Cu  Cu20  1  0.617565  0.377961  0.764505  1
  Cu  Cu21  1  0.617517  0.853225  0.239802  1
  Si  Si22  1  0.496012  0.492016  0.495723  1
  Si  Si23  1  0.496082  0.000295  0.004092  1
  Si  Si24  1  0.500002  0.000105  0.499985  1
  Si  Si25  1  0.000293  0.999975  0.505544  1
  Si  Si26  1  0.000193  0.494890  0.000373  1
  Si  Si27  1  0.999648  0.498420  0.501229  1
  Si  Si28  1  0.498993  0.497852  0.001311  1
  H  H29  1  0.008000  0.042155  0.963107  1
  H  H30  1  0.736376  0.905538  0.830521  1
  H  H31  1  0.071285  0.916828  0.155323  1
