# generated using pymatgen
data_Na5Lu(BrCl3)2
_symmetry_space_group_name_H-M   'P 1'
_cell_length_a   7.11345100
_cell_length_b   7.11344987
_cell_length_c   8.26161900
_cell_angle_alpha   90.00000000
_cell_angle_beta   90.00000000
_cell_angle_gamma   106.79957138
_symmetry_Int_Tables_number   1
_chemical_formula_structural   Na5Lu(BrCl3)2
_chemical_formula_sum   'Na5 Lu1 Br2 Cl6'
_cell_volume   400.20606656
_cell_formula_units_Z   1
loop_
 _symmetry_equiv_pos_site_id
 _symmetry_equiv_pos_as_xyz
  1  'x, y, z'
loop_
 _atom_site_type_symbol
 _atom_site_label
 _atom_site_symmetry_multiplicity
 _atom_site_fract_x
 _atom_site_fract_y
 _atom_site_fract_z
 _atom_site_occupancy
  Na  Na0  1  0.500000  0.000000  0.245815  1
  Na  Na1  1  0.000000  0.500000  0.754185  1
  Na  Na2  1  0.500000  0.000000  0.754185  1
  Na  Na3  1  0.000000  0.500000  0.245815  1
  Na  Na4  1  0.500000  0.500000  0.000000  1
  Lu  Lu5  1  0.500000  0.500000  0.500000  1
  Br  Br6  1  0.245873  0.754127  0.000000  1
  Br  Br7  1  0.754127  0.245873  0.000000  1
  Cl  Cl8  1  0.287231  0.287231  0.275410  1
  Cl  Cl9  1  0.712769  0.712769  0.275410  1
  Cl  Cl10  1  0.270171  0.729829  0.500000  1
  Cl  Cl11  1  0.287231  0.287231  0.724590  1
  Cl  Cl12  1  0.712769  0.712769  0.724590  1
  Cl  Cl13  1  0.729829  0.270171  0.500000  1
