# generated using pymatgen
data_Ta5Nb7Ga8(PdC)4
_symmetry_space_group_name_H-M   'P 1'
_cell_length_a   8.37398451
_cell_length_b   8.37332487
_cell_length_c   8.37777718
_cell_angle_alpha   59.99262329
_cell_angle_beta   59.97576205
_cell_angle_gamma   59.96428284
_symmetry_Int_Tables_number   1
_chemical_formula_structural   Ta5Nb7Ga8(PdC)4
_chemical_formula_sum   'Ta5 Nb7 Ga8 Pd4 C4'
_cell_volume   415.16694261
_cell_formula_units_Z   1
loop_
 _symmetry_equiv_pos_site_id
 _symmetry_equiv_pos_as_xyz
  1  'x, y, z'
loop_
 _atom_site_type_symbol
 _atom_site_label
 _atom_site_symmetry_multiplicity
 _atom_site_fract_x
 _atom_site_fract_y
 _atom_site_fract_z
 _atom_site_occupancy
  Ta  Ta0  1  0.932800  0.567333  0.567601  1
  Ta  Ta1  1  0.567727  0.932281  0.932717  1
  Ta  Ta2  1  0.932524  0.932041  0.567899  1
  Ta  Ta3  1  0.682475  0.317826  0.682300  1
  Ta  Ta4  1  0.932069  0.568045  0.932005  1
  Nb  Nb5  1  0.567314  0.932731  0.567113  1
  Nb  Nb6  1  0.317630  0.682630  0.682770  1
  Nb  Nb7  1  0.682908  0.317396  0.317289  1
  Nb  Nb8  1  0.316869  0.683421  0.316492  1
  Nb  Nb9  1  0.683586  0.683361  0.316718  1
  Nb  Nb10  1  0.317306  0.317042  0.682995  1
  Nb  Nb11  1  0.566421  0.566067  0.933972  1
  Ga  Ga12  1  0.915240  0.912668  0.913962  1
  Ga  Ga13  1  0.991237  0.336323  0.335231  1
  Ga  Ga14  1  0.336409  0.991237  0.337337  1
  Ga  Ga15  1  0.335237  0.337135  0.991577  1
  Ga  Ga16  1  0.913956  0.258477  0.915046  1
  Ga  Ga17  1  0.913075  0.914990  0.258180  1
  Ga  Ga18  1  0.258524  0.913819  0.912866  1
  Ga  Ga19  1  0.337257  0.334977  0.336236  1
  Pd  Pd20  1  0.125941  0.124602  0.125235  1
  Pd  Pd21  1  0.626020  0.124642  0.120844  1
  Pd  Pd22  1  0.123106  0.624785  0.126761  1
  Pd  Pd23  1  0.120021  0.127627  0.625471  1
  C  C24  1  0.627717  0.622903  0.625375  1
  C  C25  1  0.122720  0.625780  0.625943  1
  C  C26  1  0.627191  0.123567  0.626983  1
  C  C27  1  0.626720  0.626292  0.123086  1
