# generated using pymatgen
data_HoV(Ni7B2)3
_symmetry_space_group_name_H-M   'P 1'
_cell_length_a   7.44390093
_cell_length_b   7.44390063
_cell_length_c   7.44390000
_cell_angle_alpha   59.99999391
_cell_angle_beta   59.99999525
_cell_angle_gamma   59.99999550
_symmetry_Int_Tables_number   1
_chemical_formula_structural   HoV(Ni7B2)3
_chemical_formula_sum   'Ho1 V1 Ni21 B6'
_cell_volume   291.66655610
_cell_formula_units_Z   1
loop_
 _symmetry_equiv_pos_site_id
 _symmetry_equiv_pos_as_xyz
  1  'x, y, z'
loop_
 _atom_site_type_symbol
 _atom_site_label
 _atom_site_symmetry_multiplicity
 _atom_site_fract_x
 _atom_site_fract_y
 _atom_site_fract_z
 _atom_site_occupancy
  Ho  Ho0  1  0.250000  0.250000  0.250000  1
  V  V1  1  0.750000  0.750000  0.750000  1
  Ni  Ni2  1  0.341279  0.997665  0.997665  1
  Ni  Ni3  1  0.663391  0.997665  0.997665  1
  Ni  Ni4  1  0.997665  0.341279  0.663391  1
  Ni  Ni5  1  0.997665  0.663391  0.341279  1
  Ni  Ni6  1  0.997665  0.341279  0.997665  1
  Ni  Ni7  1  0.663391  0.997665  0.341279  1
  Ni  Ni8  1  0.997665  0.663391  0.997665  1
  Ni  Ni9  1  0.341279  0.997665  0.663391  1
  Ni  Ni10  1  0.997665  0.997665  0.341279  1
  Ni  Ni11  1  0.997665  0.997665  0.663391  1
  Ni  Ni12  1  0.663391  0.341279  0.997665  1
  Ni  Ni13  1  0.341279  0.663391  0.997665  1
  Ni  Ni14  1  0.393022  0.393022  0.393022  1
  Ni  Ni15  1  0.622854  0.622854  0.622854  1
  Ni  Ni16  1  0.393022  0.393022  0.820936  1
  Ni  Ni17  1  0.393022  0.820936  0.393022  1
  Ni  Ni18  1  0.622854  0.622854  0.131437  1
  Ni  Ni19  1  0.622854  0.131437  0.622854  1
  Ni  Ni20  1  0.820936  0.393022  0.393022  1
  Ni  Ni21  1  0.131437  0.622854  0.622854  1
  Ni  Ni22  1  0.000000  0.000000  0.000000  1
  B  B23  1  0.731681  0.268319  0.268319  1
  B  B24  1  0.268319  0.731681  0.731681  1
  B  B25  1  0.268319  0.731681  0.268319  1
  B  B26  1  0.731681  0.268319  0.731681  1
  B  B27  1  0.268319  0.268319  0.731681  1
  B  B28  1  0.731681  0.731681  0.268319  1
