# generated using pymatgen
data_YbHoGa3Ru
_symmetry_space_group_name_H-M   'P 1'
_cell_length_a   5.45423400
_cell_length_b   5.45423432
_cell_length_c   8.71132700
_cell_angle_alpha   90.00000000
_cell_angle_beta   90.00000000
_cell_angle_gamma   120.00001016
_symmetry_Int_Tables_number   1
_chemical_formula_structural   YbHoGa3Ru
_chemical_formula_sum   'Yb2 Ho2 Ga6 Ru2'
_cell_volume   224.43080231
_cell_formula_units_Z   2
loop_
 _symmetry_equiv_pos_site_id
 _symmetry_equiv_pos_as_xyz
  1  'x, y, z'
loop_
 _atom_site_type_symbol
 _atom_site_label
 _atom_site_symmetry_multiplicity
 _atom_site_fract_x
 _atom_site_fract_y
 _atom_site_fract_z
 _atom_site_occupancy
  Yb  Yb0  1  0.333333  0.666666  0.554656  1
  Yb  Yb1  1  0.333333  0.666666  0.945344  1
  Ho  Ho2  1  0.666666  0.333333  0.049542  1
  Ho  Ho3  1  0.666666  0.333333  0.450459  1
  Ga  Ga4  1  0.163975  0.327950  0.250000  1
  Ga  Ga5  1  0.163975  0.836025  0.250000  1
  Ga  Ga6  1  0.672050  0.836025  0.250000  1
  Ga  Ga7  1  0.327347  0.163673  0.750000  1
  Ga  Ga8  1  0.836325  0.163673  0.750000  1
  Ga  Ga9  1  0.836326  0.672653  0.750000  1
  Ru  Ru10  1  0.000000  0.000000  0.998432  1
  Ru  Ru11  1  0.000000  0.000000  0.501568  1
