# generated using pymatgen
data_CaHoReTcB8
_symmetry_space_group_name_H-M   'P 1'
_cell_length_a   3.59002200
_cell_length_b   5.98453959
_cell_length_c   11.57453257
_cell_angle_alpha   90.05979937
_cell_angle_beta   90.00000000
_cell_angle_gamma   90.00000000
_symmetry_Int_Tables_number   1
_chemical_formula_structural   CaHoReTcB8
_chemical_formula_sum   'Ca2 Ho2 Re2 Tc2 B16'
_cell_volume   248.67440032
_cell_formula_units_Z   2
loop_
 _symmetry_equiv_pos_site_id
 _symmetry_equiv_pos_as_xyz
  1  'x, y, z'
loop_
 _atom_site_type_symbol
 _atom_site_label
 _atom_site_symmetry_multiplicity
 _atom_site_fract_x
 _atom_site_fract_y
 _atom_site_fract_z
 _atom_site_occupancy
  Ca  Ca0  1  0.000000  0.627419  0.150223  1
  Ca  Ca1  1  0.000000  0.372581  0.849777  1
  Ho  Ho2  1  0.000000  0.127300  0.349498  1
  Ho  Ho3  1  0.000000  0.872700  0.650502  1
  Re  Re4  1  0.000000  0.130611  0.084694  1
  Re  Re5  1  0.000000  0.869389  0.915306  1
  Tc  Tc6  1  0.000000  0.632479  0.415034  1
  Tc  Tc7  1  0.000000  0.367521  0.584966  1
  B  B8  1  0.500000  0.978210  0.192759  1
  B  B9  1  0.500000  0.021790  0.807241  1
  B  B10  1  0.500000  0.477046  0.307880  1
  B  B11  1  0.500000  0.522954  0.692120  1
  B  B12  1  0.500000  0.785837  0.315356  1
  B  B13  1  0.500000  0.214163  0.684644  1
  B  B14  1  0.500000  0.286269  0.185048  1
  B  B15  1  0.500000  0.713731  0.814952  1
  B  B16  1  0.500000  0.864247  0.468515  1
  B  B17  1  0.500000  0.135753  0.531485  1
  B  B18  1  0.500000  0.364929  0.032252  1
  B  B19  1  0.500000  0.635071  0.967748  1
  B  B20  1  0.500000  0.886196  0.047304  1
  B  B21  1  0.500000  0.113804  0.952696  1
  B  B22  1  0.500000  0.387034  0.452471  1
  B  B23  1  0.500000  0.612966  0.547529  1
