# generated using pymatgen
data_Er3Tm5Tc(B8Ru)3
_symmetry_space_group_name_H-M   'P 1'
_cell_length_a   3.63008500
_cell_length_b   9.07605171
_cell_length_c   11.45747901
_cell_angle_alpha   89.91429757
_cell_angle_beta   90.00000000
_cell_angle_gamma   90.00000000
_symmetry_Int_Tables_number   1
_chemical_formula_structural   Er3Tm5Tc(B8Ru)3
_chemical_formula_sum   'Er3 Tm5 Tc1 B24 Ru3'
_cell_volume   377.48729607
_cell_formula_units_Z   1
loop_
 _symmetry_equiv_pos_site_id
 _symmetry_equiv_pos_as_xyz
  1  'x, y, z'
loop_
 _atom_site_type_symbol
 _atom_site_label
 _atom_site_symmetry_multiplicity
 _atom_site_fract_x
 _atom_site_fract_y
 _atom_site_fract_z
 _atom_site_occupancy
  Er  Er0  1  0.000000  0.323764  0.413271  1
  Er  Er1  1  0.000000  0.677418  0.583386  1
  Er  Er2  1  0.000000  0.820012  0.087969  1
  Tm  Tm3  1  0.000000  0.177569  0.915126  1
  Tm  Tm4  1  0.000000  0.943351  0.372394  1
  Tm  Tm5  1  0.000000  0.057173  0.628155  1
  Tm  Tm6  1  0.000000  0.444073  0.128023  1
  Tm  Tm7  1  0.000000  0.556710  0.871567  1
  Tc  Tc8  1  0.000000  0.637852  0.320889  1
  B  B9  1  0.500000  0.552922  0.433370  1
  B  B10  1  0.500000  0.446318  0.567250  1
  B  B11  1  0.500000  0.053749  0.066687  1
  B  B12  1  0.500000  0.946351  0.933430  1
  B  B13  1  0.500000  0.749081  0.419625  1
  B  B14  1  0.500000  0.251327  0.580413  1
  B  B15  1  0.500000  0.248684  0.079947  1
  B  B16  1  0.500000  0.751138  0.919707  1
  B  B17  1  0.500000  0.792028  0.265772  1
  B  B18  1  0.500000  0.208469  0.734473  1
  B  B19  1  0.500000  0.291338  0.233417  1
  B  B20  1  0.500000  0.708976  0.765747  1
  B  B21  1  0.500000  0.631156  0.185077  1
  B  B22  1  0.500000  0.368301  0.815428  1
  B  B23  1  0.500000  0.131329  0.314742  1
  B  B24  1  0.500000  0.869149  0.684863  1
  B  B25  1  0.500000  0.982716  0.212720  1
  B  B26  1  0.500000  0.017615  0.787842  1
  B  B27  1  0.500000  0.481725  0.287152  1
  B  B28  1  0.500000  0.517141  0.712787  1
  B  B29  1  0.500000  0.605835  0.028613  1
  B  B30  1  0.500000  0.393322  0.970261  1
  B  B31  1  0.500000  0.106602  0.470940  1
  B  B32  1  0.500000  0.894984  0.529657  1
  Ru  Ru33  1  0.000000  0.361607  0.679836  1
  Ru  Ru34  1  0.000000  0.137841  0.178475  1
  Ru  Ru35  1  0.000000  0.862375  0.820990  1
