# generated using pymatgen
data_K3Rb3Er2F12
_symmetry_space_group_name_H-M   'P 1'
_cell_length_a   6.72485567
_cell_length_b   6.50637632
_cell_length_c   11.29209371
_cell_angle_alpha   55.25119000
_cell_angle_beta   90.04229776
_cell_angle_gamma   89.98924562
_symmetry_Int_Tables_number   1
_chemical_formula_structural   K3Rb3Er2F12
_chemical_formula_sum   'K3 Rb3 Er2 F12'
_cell_volume   405.96433444
_cell_formula_units_Z   1
loop_
 _symmetry_equiv_pos_site_id
 _symmetry_equiv_pos_as_xyz
  1  'x, y, z'
loop_
 _atom_site_type_symbol
 _atom_site_label
 _atom_site_symmetry_multiplicity
 _atom_site_fract_x
 _atom_site_fract_y
 _atom_site_fract_z
 _atom_site_occupancy
  K  K0  1  0.499933  0.498778  0.001845  1
  K  K1  1  0.998433  0.500197  0.498987  1
  K  K2  1  0.450087  0.732662  0.254758  1
  Rb  Rb3  1  0.049313  0.731851  0.753073  1
  Rb  Rb4  1  0.951802  0.263765  0.247697  1
  Rb  Rb5  1  0.546307  0.266842  0.747860  1
  Er  Er6  1  0.499376  0.002731  0.496963  1
  Er  Er7  1  0.999920  0.997701  0.002530  1
  F  F8  1  0.765086  0.773101  0.555930  1
  F  F9  1  0.237992  0.238268  0.438883  1
  F  F10  1  0.261980  0.233268  0.941862  1
  F  F11  1  0.732291  0.769375  0.064879  1
  F  F12  1  0.460429  0.872033  0.720838  1
  F  F13  1  0.540760  0.113072  0.277074  1
  F  F14  1  0.956550  0.126022  0.779327  1
  F  F15  1  0.056795  0.869119  0.223958  1
  F  F16  1  0.317996  0.690846  0.540775  1
  F  F17  1  0.673837  0.322190  0.449692  1
  F  F18  1  0.821261  0.310269  0.960993  1
  F  F19  1  0.179851  0.687909  0.042074  1
