# generated using pymatgen
data_Dy8Er3Tm9(CoBi2)4
_symmetry_space_group_name_H-M   'P 1'
_cell_length_a   7.91191011
_cell_length_b   8.87595000
_cell_length_c   12.37765115
_cell_angle_alpha   90.00000000
_cell_angle_beta   89.93350348
_cell_angle_gamma   90.00000000
_symmetry_Int_Tables_number   1
_chemical_formula_structural   Dy8Er3Tm9(CoBi2)4
_chemical_formula_sum   'Dy8 Er3 Tm9 Co4 Bi8'
_cell_volume   869.22886014
_cell_formula_units_Z   1
loop_
 _symmetry_equiv_pos_site_id
 _symmetry_equiv_pos_as_xyz
  1  'x, y, z'
loop_
 _atom_site_type_symbol
 _atom_site_label
 _atom_site_symmetry_multiplicity
 _atom_site_fract_x
 _atom_site_fract_y
 _atom_site_fract_z
 _atom_site_occupancy
  Dy  Dy0  1  0.346596  0.250000  0.300544  1
  Dy  Dy1  1  0.153701  0.250000  0.800208  1
  Dy  Dy2  1  0.846597  0.750000  0.199860  1
  Dy  Dy3  1  0.119141  0.750000  0.813712  1
  Dy  Dy4  1  0.880594  0.250000  0.186308  1
  Dy  Dy5  1  0.619343  0.250000  0.686275  1
  Dy  Dy6  1  0.380379  0.750000  0.313514  1
  Dy  Dy7  1  0.554136  0.750000  0.997018  1
  Er  Er8  1  0.446029  0.250000  0.002629  1
  Er  Er9  1  0.054594  0.250000  0.503030  1
  Er  Er10  1  0.944938  0.750000  0.497404  1
  Tm  Tm11  1  0.653224  0.750000  0.698916  1
  Tm  Tm12  1  0.826836  0.462948  0.936024  1
  Tm  Tm13  1  0.173153  0.536665  0.063814  1
  Tm  Tm14  1  0.327064  0.537357  0.564076  1
  Tm  Tm15  1  0.173153  0.963335  0.063814  1
  Tm  Tm16  1  0.673176  0.463265  0.436347  1
  Tm  Tm17  1  0.826836  0.037052  0.936024  1
  Tm  Tm18  1  0.673176  0.036735  0.436347  1
  Tm  Tm19  1  0.327064  0.962643  0.564076  1
  Co  Co20  1  0.936648  0.750000  0.993152  1
  Co  Co21  1  0.063829  0.250000  0.006868  1
  Co  Co22  1  0.436259  0.250000  0.507067  1
  Co  Co23  1  0.563904  0.750000  0.493338  1
  Bi  Bi24  1  0.931963  0.007376  0.673039  1
  Bi  Bi25  1  0.067490  0.992247  0.327127  1
  Bi  Bi26  1  0.432949  0.991909  0.826542  1
  Bi  Bi27  1  0.067490  0.507753  0.327127  1
  Bi  Bi28  1  0.567414  0.008071  0.173109  1
  Bi  Bi29  1  0.931963  0.492624  0.673039  1
  Bi  Bi30  1  0.567414  0.491929  0.173109  1
  Bi  Bi31  1  0.432949  0.508091  0.826542  1
