# generated using pymatgen
data_Y12Ru7
_symmetry_space_group_name_H-M   'P 1'
_cell_length_a   11.39594759
_cell_length_b   8.40942766
_cell_length_c   11.28925545
_cell_angle_alpha   56.53835615
_cell_angle_beta   90.00482187
_cell_angle_gamma   89.98411518
_symmetry_Int_Tables_number   1
_chemical_formula_structural   Y12Ru7
_chemical_formula_sum   'Y24 Ru14'
_cell_volume   902.57028470
_cell_formula_units_Z   2
loop_
 _symmetry_equiv_pos_site_id
 _symmetry_equiv_pos_as_xyz
  1  'x, y, z'
loop_
 _atom_site_type_symbol
 _atom_site_label
 _atom_site_symmetry_multiplicity
 _atom_site_fract_x
 _atom_site_fract_y
 _atom_site_fract_z
 _atom_site_occupancy
  Y  Y0  1  0.705760  0.243295  0.530557  1
  Y  Y1  1  0.205835  0.756749  0.969337  1
  Y  Y2  1  0.844554  0.508408  0.655115  1
  Y  Y3  1  0.344526  0.491625  0.845030  1
  Y  Y4  1  0.155444  0.491768  0.345060  1
  Y  Y5  1  0.655270  0.507931  0.155156  1
  Y  Y6  1  0.006836  0.853398  0.360330  1
  Y  Y7  1  0.506816  0.146853  0.139645  1
  Y  Y8  1  0.992953  0.146621  0.639763  1
  Y  Y9  1  0.493009  0.853516  0.860180  1
  Y  Y10  1  0.794325  0.243295  0.030910  1
  Y  Y11  1  0.294319  0.756785  0.469231  1
  Y  Y12  1  0.931393  0.777552  0.089490  1
  Y  Y13  1  0.431386  0.222611  0.410382  1
  Y  Y14  1  0.068774  0.222556  0.910556  1
  Y  Y15  1  0.568592  0.777585  0.589478  1
  Y  Y16  1  0.300355  0.241222  0.675698  1
  Y  Y17  1  0.800318  0.759105  0.824110  1
  Y  Y18  1  0.699482  0.759007  0.324258  1
  Y  Y19  1  0.199701  0.241012  0.175824  1
  Y  Y20  1  0.926219  0.281289  0.292983  1
  Y  Y21  1  0.426075  0.718774  0.206979  1
  Y  Y22  1  0.073728  0.718709  0.707101  1
  Y  Y23  1  0.573868  0.281254  0.792883  1
  Ru  Ru24  1  0.500110  0.499700  0.499893  1
  Ru  Ru25  1  0.000190  0.500178  0.000040  1
  Ru  Ru26  1  0.649063  0.924731  0.031930  1
  Ru  Ru27  1  0.149182  0.074887  0.468172  1
  Ru  Ru28  1  0.351059  0.074826  0.967914  1
  Ru  Ru29  1  0.851017  0.925232  0.531818  1
  Ru  Ru30  1  0.398919  0.484599  0.102241  1
  Ru  Ru31  1  0.899078  0.515309  0.397739  1
  Ru  Ru32  1  0.600933  0.515336  0.897743  1
  Ru  Ru33  1  0.100716  0.484479  0.602385  1
  Ru  Ru34  1  0.817389  0.096567  0.850477  1
  Ru  Ru35  1  0.317361  0.903171  0.649724  1
  Ru  Ru36  1  0.182741  0.903218  0.149671  1
  Ru  Ru37  1  0.682711  0.096846  0.350196  1
