# generated using pymatgen
data_Rb3BiF6
_symmetry_space_group_name_H-M   'P 1'
_cell_length_a   6.92385345
_cell_length_b   6.68469479
_cell_length_c   11.58529000
_cell_angle_alpha   55.35552652
_cell_angle_beta   90.02061335
_cell_angle_gamma   89.92956347
_symmetry_Int_Tables_number   1
_chemical_formula_structural   Rb3BiF6
_chemical_formula_sum   'Rb6 Bi2 F12'
_cell_volume   441.13825084
_cell_formula_units_Z   2
loop_
 _symmetry_equiv_pos_site_id
 _symmetry_equiv_pos_as_xyz
  1  'x, y, z'
loop_
 _atom_site_type_symbol
 _atom_site_label
 _atom_site_symmetry_multiplicity
 _atom_site_fract_x
 _atom_site_fract_y
 _atom_site_fract_z
 _atom_site_occupancy
  Rb  Rb0  1  0.500020  0.500299  0.000077  1
  Rb  Rb1  1  0.999808  0.499974  0.499850  1
  Rb  Rb2  1  0.447969  0.730988  0.253754  1
  Rb  Rb3  1  0.051747  0.731378  0.754076  1
  Rb  Rb4  1  0.949109  0.267015  0.246425  1
  Rb  Rb5  1  0.549193  0.267859  0.746779  1
  Bi  Bi6  1  0.499886  0.999350  0.499857  1
  Bi  Bi7  1  0.999677  0.000421  0.000116  1
  F  F8  1  0.771818  0.764539  0.567681  1
  F  F9  1  0.229373  0.238322  0.431022  1
  F  F10  1  0.270666  0.238098  0.930753  1
  F  F11  1  0.728841  0.764420  0.068590  1
  F  F12  1  0.447051  0.888972  0.723322  1
  F  F13  1  0.555506  0.110265  0.276196  1
  F  F14  1  0.943392  0.111983  0.776942  1
  F  F15  1  0.056557  0.887910  0.224093  1
  F  F16  1  0.323455  0.670138  0.551272  1
  F  F17  1  0.675724  0.327646  0.448653  1
  F  F18  1  0.825495  0.328955  0.951252  1
  F  F19  1  0.174712  0.671468  0.049290  1
