# generated using pymatgen
data_TbHo11Tc3Ru
_symmetry_space_group_name_H-M   'P 1'
_cell_length_a   6.25770100
_cell_length_b   7.36121140
_cell_length_c   9.10454900
_cell_angle_alpha   90.00000000
_cell_angle_beta   90.00000000
_cell_angle_gamma   89.96420753
_symmetry_Int_Tables_number   1
_chemical_formula_structural   TbHo11Tc3Ru
_chemical_formula_sum   'Tb1 Ho11 Tc3 Ru1'
_cell_volume   419.39422977
_cell_formula_units_Z   1
loop_
 _symmetry_equiv_pos_site_id
 _symmetry_equiv_pos_as_xyz
  1  'x, y, z'
loop_
 _atom_site_type_symbol
 _atom_site_label
 _atom_site_symmetry_multiplicity
 _atom_site_fract_x
 _atom_site_fract_y
 _atom_site_fract_z
 _atom_site_occupancy
  Tb  Tb0  1  0.130660  0.458592  0.750000  1
  Ho  Ho1  1  0.335232  0.676607  0.063634  1
  Ho  Ho2  1  0.162249  0.175399  0.437153  1
  Ho  Ho3  1  0.662520  0.324399  0.562686  1
  Ho  Ho4  1  0.836346  0.824160  0.937528  1
  Ho  Ho5  1  0.662520  0.324399  0.937314  1
  Ho  Ho6  1  0.836346  0.824160  0.562472  1
  Ho  Ho7  1  0.335232  0.676607  0.436366  1
  Ho  Ho8  1  0.162249  0.175399  0.062847  1
  Ho  Ho9  1  0.873507  0.540370  0.250000  1
  Ho  Ho10  1  0.626009  0.039431  0.250000  1
  Ho  Ho11  1  0.373494  0.957819  0.750000  1
  Tc  Tc12  1  0.040086  0.884606  0.250000  1
  Tc  Tc13  1  0.461949  0.386763  0.250000  1
  Tc  Tc14  1  0.961820  0.115126  0.750000  1
  Ru  Ru15  1  0.539781  0.616162  0.750000  1
