# generated using pymatgen
data_LiGa2O2F3
_symmetry_space_group_name_H-M   'P 1'
_cell_length_a   3.10993400
_cell_length_b   8.01450700
_cell_length_c   8.12625600
_cell_angle_alpha   90.00000000
_cell_angle_beta   90.00000000
_cell_angle_gamma   90.00000000
_symmetry_Int_Tables_number   1
_chemical_formula_structural   LiGa2O2F3
_chemical_formula_sum   'Li2 Ga4 O4 F6'
_cell_volume   202.54358126
_cell_formula_units_Z   2
loop_
 _symmetry_equiv_pos_site_id
 _symmetry_equiv_pos_as_xyz
  1  'x, y, z'
loop_
 _atom_site_type_symbol
 _atom_site_label
 _atom_site_symmetry_multiplicity
 _atom_site_fract_x
 _atom_site_fract_y
 _atom_site_fract_z
 _atom_site_occupancy
  Li  Li0  1  0.000000  0.395628  0.172107  1
  Li  Li1  1  0.000000  0.604372  0.672107  1
  Ga  Ga2  1  0.500000  0.763971  0.991036  1
  Ga  Ga3  1  0.000000  0.900587  0.327878  1
  Ga  Ga4  1  0.000000  0.099413  0.827878  1
  Ga  Ga5  1  0.500000  0.236029  0.491036  1
  O  O6  1  0.500000  0.863888  0.211088  1
  O  O7  1  0.000000  0.887337  0.916043  1
  O  O8  1  0.000000  0.112663  0.416043  1
  O  O9  1  0.500000  0.136112  0.711088  1
  F  F10  1  0.000000  0.757162  0.502749  1
  F  F11  1  0.000000  0.242838  0.002749  1
  F  F12  1  0.500000  0.379886  0.302349  1
  F  F13  1  0.000000  0.385650  0.576951  1
  F  F14  1  0.000000  0.614350  0.076951  1
  F  F15  1  0.500000  0.620114  0.802349  1
