# generated using pymatgen
data_ReIrRh7
_symmetry_space_group_name_H-M   'P 1'
_cell_length_a   6.12419858
_cell_length_b   6.12419618
_cell_length_c   6.11805700
_cell_angle_alpha   95.64443956
_cell_angle_beta   95.64442794
_cell_angle_gamma   143.46448858
_symmetry_Int_Tables_number   1
_chemical_formula_structural   ReIrRh7
_chemical_formula_sum   'Re1 Ir1 Rh7'
_cell_volume   129.70510613
_cell_formula_units_Z   1
loop_
 _symmetry_equiv_pos_site_id
 _symmetry_equiv_pos_as_xyz
  1  'x, y, z'
loop_
 _atom_site_type_symbol
 _atom_site_label
 _atom_site_symmetry_multiplicity
 _atom_site_fract_x
 _atom_site_fract_y
 _atom_site_fract_z
 _atom_site_occupancy
  Re  Re0  1  0.001818  0.998182  0.000000  1
  Ir  Ir1  1  0.661561  0.338438  0.000000  1
  Rh  Rh2  1  0.336759  0.663240  0.000000  1
  Rh  Rh3  1  0.662329  0.662789  0.325119  1
  Rh  Rh4  1  0.329391  0.997554  0.326946  1
  Rh  Rh5  1  0.999340  0.330859  0.330199  1
  Rh  Rh6  1  0.669141  0.000660  0.669801  1
  Rh  Rh7  1  0.002446  0.670609  0.673054  1
  Rh  Rh8  1  0.337211  0.337671  0.674881  1
