# generated using pymatgen
data_SrTc5O8
_symmetry_space_group_name_H-M   'P 1'
_cell_length_a   7.38020407
_cell_length_b   8.95734700
_cell_length_c   9.74074200
_cell_angle_alpha   90.00000000
_cell_angle_beta   109.33076160
_cell_angle_gamma   90.00000000
_symmetry_Int_Tables_number   1
_chemical_formula_structural   SrTc5O8
_chemical_formula_sum   'Sr4 Tc20 O32'
_cell_volume   607.62900391
_cell_formula_units_Z   4
loop_
 _symmetry_equiv_pos_site_id
 _symmetry_equiv_pos_as_xyz
  1  'x, y, z'
loop_
 _atom_site_type_symbol
 _atom_site_label
 _atom_site_symmetry_multiplicity
 _atom_site_fract_x
 _atom_site_fract_y
 _atom_site_fract_z
 _atom_site_occupancy
  Sr  Sr0  1  0.249019  0.002469  0.044630  1
  Sr  Sr1  1  0.750980  0.502469  0.455370  1
  Sr  Sr2  1  0.249019  0.497531  0.544629  1
  Sr  Sr3  1  0.750982  0.997531  0.955371  1
  Tc  Tc4  1  0.409791  0.377463  0.009085  1
  Tc  Tc5  1  0.985371  0.621015  0.082575  1
  Tc  Tc6  1  0.834811  0.361079  0.115071  1
  Tc  Tc7  1  0.393694  0.620795  0.171499  1
  Tc  Tc8  1  0.197355  0.379662  0.203999  1
  Tc  Tc9  1  0.802645  0.879661  0.296000  1
  Tc  Tc10  1  0.606305  0.120794  0.328501  1
  Tc  Tc11  1  0.165189  0.861079  0.384930  1
  Tc  Tc12  1  0.014629  0.121014  0.417424  1
  Tc  Tc13  1  0.590209  0.877463  0.490915  1
  Tc  Tc14  1  0.409791  0.122537  0.509085  1
  Tc  Tc15  1  0.985371  0.878985  0.582576  1
  Tc  Tc16  1  0.834811  0.138920  0.615070  1
  Tc  Tc17  1  0.393695  0.879205  0.671498  1
  Tc  Tc18  1  0.197355  0.120338  0.704000  1
  Tc  Tc19  1  0.802645  0.620338  0.796001  1
  Tc  Tc20  1  0.606305  0.379206  0.828502  1
  Tc  Tc21  1  0.165190  0.638921  0.884929  1
  Tc  Tc22  1  0.014629  0.378985  0.917424  1
  Tc  Tc23  1  0.590209  0.622537  0.990914  1
  O  O24  1  0.383493  0.765889  0.009872  1
  O  O25  1  0.020237  0.221717  0.068327  1
  O  O26  1  0.787974  0.757161  0.118543  1
  O  O27  1  0.603448  0.000676  0.159111  1
  O  O28  1  0.624546  0.486935  0.168534  1
  O  O29  1  0.401872  0.246585  0.174955  1
  O  O30  1  0.193811  0.752025  0.207100  1
  O  O31  1  0.996118  0.003469  0.235895  1
  O  O32  1  0.003882  0.503469  0.264105  1
  O  O33  1  0.806190  0.252026  0.292901  1
  O  O34  1  0.598128  0.746584  0.325045  1
  O  O35  1  0.375455  0.986935  0.331466  1
  O  O36  1  0.396552  0.500676  0.340889  1
  O  O37  1  0.212026  0.257161  0.381457  1
  O  O38  1  0.979763  0.721718  0.431674  1
  O  O39  1  0.616508  0.265889  0.490128  1
  O  O40  1  0.383493  0.734111  0.509872  1
  O  O41  1  0.020237  0.278283  0.568326  1
  O  O42  1  0.787974  0.742839  0.618543  1
  O  O43  1  0.603448  0.499324  0.659111  1
  O  O44  1  0.624546  0.013065  0.668534  1
  O  O45  1  0.401872  0.253415  0.674955  1
  O  O46  1  0.193810  0.747975  0.707100  1
  O  O47  1  0.996117  0.496531  0.735894  1
  O  O48  1  0.003882  0.996530  0.764105  1
  O  O49  1  0.806191  0.247974  0.792900  1
  O  O50  1  0.598128  0.753416  0.825045  1
  O  O51  1  0.375455  0.513065  0.831465  1
  O  O52  1  0.396551  0.999324  0.840888  1
  O  O53  1  0.212027  0.242839  0.881456  1
  O  O54  1  0.979763  0.778283  0.931674  1
  O  O55  1  0.616508  0.234111  0.990128  1
