# generated using pymatgen
data_Zr2Co12SiP6
_symmetry_space_group_name_H-M   'P 1'
_cell_length_a   8.92453200
_cell_length_b   8.92453076
_cell_length_c   3.56004100
_cell_angle_alpha   90.00000000
_cell_angle_beta   90.00000000
_cell_angle_gamma   120.00000459
_symmetry_Int_Tables_number   1
_chemical_formula_structural   Zr2Co12SiP6
_chemical_formula_sum   'Zr2 Co12 Si1 P6'
_cell_volume   245.55933763
_cell_formula_units_Z   1
loop_
 _symmetry_equiv_pos_site_id
 _symmetry_equiv_pos_as_xyz
  1  'x, y, z'
loop_
 _atom_site_type_symbol
 _atom_site_label
 _atom_site_symmetry_multiplicity
 _atom_site_fract_x
 _atom_site_fract_y
 _atom_site_fract_z
 _atom_site_occupancy
  Zr  Zr0  1  0.333333  0.666667  0.000000  1
  Zr  Zr1  1  0.666667  0.333333  0.500000  1
  Co  Co2  1  0.437333  0.063654  0.000000  1
  Co  Co3  1  0.936346  0.373680  0.000000  1
  Co  Co4  1  0.626320  0.562667  0.000000  1
  Co  Co5  1  0.386877  0.438762  0.500000  1
  Co  Co6  1  0.561238  0.948114  0.500000  1
  Co  Co7  1  0.051886  0.613123  0.500000  1
  Co  Co8  1  0.161736  0.284796  0.000000  1
  Co  Co9  1  0.715204  0.876940  0.000000  1
  Co  Co10  1  0.123060  0.838264  0.000000  1
  Co  Co11  1  0.232655  0.100346  0.500000  1
  Co  Co12  1  0.899654  0.132308  0.500000  1
  Co  Co13  1  0.867692  0.767345  0.500000  1
  Si  Si14  1  0.000000  0.000000  0.000000  1
  P  P15  1  0.116666  0.405781  0.500000  1
  P  P16  1  0.594219  0.710884  0.500000  1
  P  P17  1  0.289116  0.883334  0.500000  1
  P  P18  1  0.408892  0.292820  0.000000  1
  P  P19  1  0.707180  0.116074  0.000000  1
  P  P20  1  0.883926  0.591108  0.000000  1
