# generated using pymatgen
data_DyY3B16Os3Ru
_symmetry_space_group_name_H-M   'P 1'
_cell_length_a   3.57206000
_cell_length_b   5.97457005
_cell_length_c   11.55828900
_cell_angle_alpha   89.99203901
_cell_angle_beta   90.00000000
_cell_angle_gamma   90.00000000
_symmetry_Int_Tables_number   1
_chemical_formula_structural   DyY3B16Os3Ru
_chemical_formula_sum   'Dy1 Y3 B16 Os3 Ru1'
_cell_volume   246.67148465
_cell_formula_units_Z   1
loop_
 _symmetry_equiv_pos_site_id
 _symmetry_equiv_pos_as_xyz
  1  'x, y, z'
loop_
 _atom_site_type_symbol
 _atom_site_label
 _atom_site_symmetry_multiplicity
 _atom_site_fract_x
 _atom_site_fract_y
 _atom_site_fract_z
 _atom_site_occupancy
  Dy  Dy0  1  0.000000  0.628659  0.350146  1
  Y  Y1  1  0.000000  0.371329  0.649750  1
  Y  Y2  1  0.000000  0.128870  0.150448  1
  Y  Y3  1  0.000000  0.871034  0.849536  1
  B  B4  1  0.500000  0.789302  0.186047  1
  B  B5  1  0.500000  0.210506  0.814125  1
  B  B6  1  0.500000  0.289660  0.314470  1
  B  B7  1  0.500000  0.710606  0.685470  1
  B  B8  1  0.500000  0.863620  0.029908  1
  B  B9  1  0.500000  0.136368  0.969979  1
  B  B10  1  0.500000  0.363980  0.469801  1
  B  B11  1  0.500000  0.636198  0.530296  1
  B  B12  1  0.500000  0.887852  0.453296  1
  B  B13  1  0.500000  0.111966  0.546635  1
  B  B14  1  0.500000  0.387928  0.046753  1
  B  B15  1  0.500000  0.612132  0.953129  1
  B  B16  1  0.500000  0.976195  0.308519  1
  B  B17  1  0.500000  0.023196  0.691616  1
  B  B18  1  0.500000  0.476358  0.191658  1
  B  B19  1  0.500000  0.524170  0.808324  1
  Os  Os20  1  0.000000  0.641699  0.093123  1
  Os  Os21  1  0.000000  0.358374  0.907069  1
  Os  Os22  1  0.000000  0.140780  0.407066  1
  Ru  Ru23  1  0.000000  0.859219  0.592835  1
