# generated using pymatgen
data_NaSm6BeBr12
_symmetry_space_group_name_H-M   'P 1'
_cell_length_a   9.39038174
_cell_length_b   9.38432266
_cell_length_c   9.32347410
_cell_angle_alpha   106.49797082
_cell_angle_beta   107.14052437
_cell_angle_gamma   107.24616377
_symmetry_Int_Tables_number   1
_chemical_formula_structural   NaSm6BeBr12
_chemical_formula_sum   'Na1 Sm6 Be1 Br12'
_cell_volume   684.93180952
_cell_formula_units_Z   1
loop_
 _symmetry_equiv_pos_site_id
 _symmetry_equiv_pos_as_xyz
  1  'x, y, z'
loop_
 _atom_site_type_symbol
 _atom_site_label
 _atom_site_symmetry_multiplicity
 _atom_site_fract_x
 _atom_site_fract_y
 _atom_site_fract_z
 _atom_site_occupancy
  Na  Na0  1  0.500000  0.500000  0.500000  1
  Sm  Sm1  1  0.107840  0.319096  0.029775  1
  Sm  Sm2  1  0.317439  0.026975  0.109090  1
  Sm  Sm3  1  0.026734  0.112797  0.318629  1
  Sm  Sm4  1  0.973267  0.887203  0.681372  1
  Sm  Sm5  1  0.682561  0.973026  0.890910  1
  Sm  Sm6  1  0.892160  0.680904  0.970225  1
  Be  Be7  1  0.000000  0.000000  0.000000  1
  Br  Br8  1  0.220793  0.682940  0.077276  1
  Br  Br9  1  0.449273  0.366090  0.146405  1
  Br  Br10  1  0.680590  0.070903  0.219492  1
  Br  Br11  1  0.926254  0.782796  0.315798  1
  Br  Br12  1  0.152426  0.454317  0.371396  1
  Br  Br13  1  0.365954  0.148417  0.450887  1
  Br  Br14  1  0.634046  0.851583  0.549114  1
  Br  Br15  1  0.847575  0.545683  0.628604  1
  Br  Br16  1  0.073747  0.217204  0.684203  1
  Br  Br17  1  0.319411  0.929098  0.780508  1
  Br  Br18  1  0.550727  0.633910  0.853596  1
  Br  Br19  1  0.779207  0.317060  0.922724  1
