# generated using pymatgen
data_ScFe4P3Rh
_symmetry_space_group_name_H-M   'P 1'
_cell_length_a   3.66957200
_cell_length_b   10.18260100
_cell_length_c   11.75602200
_cell_angle_alpha   90.00000000
_cell_angle_beta   90.00000000
_cell_angle_gamma   90.00000000
_symmetry_Int_Tables_number   1
_chemical_formula_structural   ScFe4P3Rh
_chemical_formula_sum   'Sc4 Fe16 P12 Rh4'
_cell_volume   439.27302009
_cell_formula_units_Z   4
loop_
 _symmetry_equiv_pos_site_id
 _symmetry_equiv_pos_as_xyz
  1  'x, y, z'
loop_
 _atom_site_type_symbol
 _atom_site_label
 _atom_site_symmetry_multiplicity
 _atom_site_fract_x
 _atom_site_fract_y
 _atom_site_fract_z
 _atom_site_occupancy
  Sc  Sc0  1  0.250000  0.579496  0.704604  1
  Sc  Sc1  1  0.250000  0.920504  0.204604  1
  Sc  Sc2  1  0.750000  0.420504  0.295396  1
  Sc  Sc3  1  0.750000  0.079496  0.795396  1
  Fe  Fe4  1  0.250000  0.406458  0.485749  1
  Fe  Fe5  1  0.250000  0.093542  0.985749  1
  Fe  Fe6  1  0.750000  0.593542  0.514251  1
  Fe  Fe7  1  0.750000  0.906458  0.014251  1
  Fe  Fe8  1  0.250000  0.224214  0.171285  1
  Fe  Fe9  1  0.250000  0.275787  0.671285  1
  Fe  Fe10  1  0.750000  0.775787  0.828715  1
  Fe  Fe11  1  0.750000  0.724213  0.328715  1
  Fe  Fe12  1  0.250000  0.878148  0.705384  1
  Fe  Fe13  1  0.250000  0.621852  0.205384  1
  Fe  Fe14  1  0.750000  0.121852  0.294616  1
  Fe  Fe15  1  0.750000  0.378148  0.794616  1
  Fe  Fe16  1  0.250000  0.460708  0.932087  1
  Fe  Fe17  1  0.250000  0.039292  0.432087  1
  Fe  Fe18  1  0.750000  0.539292  0.067913  1
  Fe  Fe19  1  0.750000  0.960708  0.567913  1
  P  P20  1  0.250000  0.428651  0.118186  1
  P  P21  1  0.250000  0.071349  0.618186  1
  P  P22  1  0.750000  0.571349  0.881814  1
  P  P23  1  0.750000  0.928651  0.381814  1
  P  P24  1  0.250000  0.263556  0.858835  1
  P  P25  1  0.250000  0.236444  0.358835  1
  P  P26  1  0.750000  0.736444  0.141165  1
  P  P27  1  0.750000  0.763556  0.641165  1
  P  P28  1  0.250000  0.593518  0.390914  1
  P  P29  1  0.250000  0.906482  0.890914  1
  P  P30  1  0.750000  0.406482  0.609086  1
  P  P31  1  0.750000  0.093518  0.109086  1
  Rh  Rh32  1  0.250000  0.710574  0.990549  1
  Rh  Rh33  1  0.250000  0.789426  0.490549  1
  Rh  Rh34  1  0.750000  0.289426  0.009451  1
  Rh  Rh35  1  0.750000  0.210574  0.509451  1
