# generated using pymatgen
data_Nd3In2Ni3Sn
_symmetry_space_group_name_H-M   'P 1'
_cell_length_a   7.55202574
_cell_length_b   7.55202603
_cell_length_c   3.94095000
_cell_angle_alpha   90.00000000
_cell_angle_beta   90.00000000
_cell_angle_gamma   120.12834295
_symmetry_Int_Tables_number   1
_chemical_formula_structural   Nd3In2Ni3Sn
_chemical_formula_sum   'Nd3 In2 Ni3 Sn1'
_cell_volume   194.39960713
_cell_formula_units_Z   1
loop_
 _symmetry_equiv_pos_site_id
 _symmetry_equiv_pos_as_xyz
  1  'x, y, z'
loop_
 _atom_site_type_symbol
 _atom_site_label
 _atom_site_symmetry_multiplicity
 _atom_site_fract_x
 _atom_site_fract_y
 _atom_site_fract_z
 _atom_site_occupancy
  Nd  Nd0  1  0.412100  0.412100  0.500000  1
  Nd  Nd1  1  0.587439  0.000128  0.500000  1
  Nd  Nd2  1  0.000128  0.587439  0.500000  1
  In  In3  1  0.250276  0.000679  0.000000  1
  In  In4  1  0.000679  0.250276  0.000000  1
  Ni  Ni5  1  0.992639  0.992639  0.500000  1
  Ni  Ni6  1  0.666898  0.337655  0.000000  1
  Ni  Ni7  1  0.337655  0.666898  0.000000  1
  Sn  Sn8  1  0.752186  0.752186  0.000000  1
