# generated using pymatgen
data_Tm3Lu(AlRu)4
_symmetry_space_group_name_H-M   'P 1'
_cell_length_a   3.96674700
_cell_length_b   6.99052744
_cell_length_c   8.04152169
_cell_angle_alpha   90.09515438
_cell_angle_beta   90.00000000
_cell_angle_gamma   90.00000000
_symmetry_Int_Tables_number   1
_chemical_formula_structural   Tm3Lu(AlRu)4
_chemical_formula_sum   'Tm3 Lu1 Al4 Ru4'
_cell_volume   222.98830446
_cell_formula_units_Z   1
loop_
 _symmetry_equiv_pos_site_id
 _symmetry_equiv_pos_as_xyz
  1  'x, y, z'
loop_
 _atom_site_type_symbol
 _atom_site_label
 _atom_site_symmetry_multiplicity
 _atom_site_fract_x
 _atom_site_fract_y
 _atom_site_fract_z
 _atom_site_occupancy
  Tm  Tm0  1  0.750000  0.533657  0.822810  1
  Tm  Tm1  1  0.250000  0.466759  0.177330  1
  Tm  Tm2  1  0.750000  0.033324  0.676536  1
  Lu  Lu3  1  0.250000  0.965869  0.323244  1
  Al  Al4  1  0.750000  0.636943  0.441183  1
  Al  Al5  1  0.750000  0.136341  0.058560  1
  Al  Al6  1  0.250000  0.363058  0.558029  1
  Al  Al7  1  0.250000  0.863533  0.942113  1
  Ru  Ru8  1  0.750000  0.768864  0.128838  1
  Ru  Ru9  1  0.750000  0.265982  0.371995  1
  Ru  Ru10  1  0.250000  0.232927  0.871995  1
  Ru  Ru11  1  0.250000  0.732744  0.627368  1
