# generated using pymatgen
data_SrNd3(AsPt)4
_symmetry_space_group_name_H-M   'P 1'
_cell_length_a   4.34576200
_cell_length_b   4.34576125
_cell_length_c   16.62195000
_cell_angle_alpha   90.00000000
_cell_angle_beta   90.00000000
_cell_angle_gamma   119.99999050
_symmetry_Int_Tables_number   1
_chemical_formula_structural   SrNd3(AsPt)4
_chemical_formula_sum   'Sr1 Nd3 As4 Pt4'
_cell_volume   271.85945746
_cell_formula_units_Z   1
loop_
 _symmetry_equiv_pos_site_id
 _symmetry_equiv_pos_as_xyz
  1  'x, y, z'
loop_
 _atom_site_type_symbol
 _atom_site_label
 _atom_site_symmetry_multiplicity
 _atom_site_fract_x
 _atom_site_fract_y
 _atom_site_fract_z
 _atom_site_occupancy
  Sr  Sr0  1  0.000000  0.000000  0.000000  1
  Nd  Nd1  1  0.000000  0.000000  0.500000  1
  Nd  Nd2  1  0.000000  0.000000  0.256802  1
  Nd  Nd3  1  0.000000  0.000000  0.743198  1
  As  As4  1  0.333333  0.666667  0.868302  1
  As  As5  1  0.666667  0.333333  0.385520  1
  As  As6  1  0.666667  0.333333  0.131698  1
  As  As7  1  0.333333  0.666667  0.614480  1
  Pt  Pt8  1  0.333333  0.666667  0.374805  1
  Pt  Pt9  1  0.666667  0.333333  0.857241  1
  Pt  Pt10  1  0.666667  0.333333  0.625195  1
  Pt  Pt11  1  0.333333  0.666667  0.142759  1
