# generated using pymatgen
data_Dy5Er7Ni4
_symmetry_space_group_name_H-M   'P 1'
_cell_length_a   6.30791579
_cell_length_b   6.78007514
_cell_length_c   9.45548668
_cell_angle_alpha   89.99491774
_cell_angle_beta   90.17932850
_cell_angle_gamma   89.97727776
_symmetry_Int_Tables_number   1
_chemical_formula_structural   Dy5Er7Ni4
_chemical_formula_sum   'Dy5 Er7 Ni4'
_cell_volume   404.39159242
_cell_formula_units_Z   1
loop_
 _symmetry_equiv_pos_site_id
 _symmetry_equiv_pos_as_xyz
  1  'x, y, z'
loop_
 _atom_site_type_symbol
 _atom_site_label
 _atom_site_symmetry_multiplicity
 _atom_site_fract_x
 _atom_site_fract_y
 _atom_site_fract_z
 _atom_site_occupancy
  Dy  Dy0  1  0.320327  0.677231  0.065407  1
  Dy  Dy1  1  0.862348  0.530589  0.250551  1
  Dy  Dy2  1  0.638154  0.030987  0.249749  1
  Dy  Dy3  1  0.137912  0.468424  0.749509  1
  Dy  Dy4  1  0.362552  0.969238  0.749908  1
  Er  Er5  1  0.179650  0.177543  0.434572  1
  Er  Er6  1  0.679200  0.321753  0.565049  1
  Er  Er7  1  0.821106  0.822192  0.933693  1
  Er  Er8  1  0.679970  0.322327  0.933691  1
  Er  Er9  1  0.820938  0.822351  0.565342  1
  Er  Er10  1  0.320882  0.677895  0.435439  1
  Er  Er11  1  0.179114  0.177979  0.065566  1
  Ni  Ni12  1  0.054082  0.892585  0.250206  1
  Ni  Ni13  1  0.444156  0.390884  0.252636  1
  Ni  Ni14  1  0.943818  0.109185  0.750265  1
  Ni  Ni15  1  0.555792  0.608836  0.748416  1
