# generated using pymatgen
data_ErMn4P3W
_symmetry_space_group_name_H-M   'P 1'
_cell_length_a   3.65037500
_cell_length_b   10.76181400
_cell_length_c   12.27453400
_cell_angle_alpha   90.00000000
_cell_angle_beta   90.00000000
_cell_angle_gamma   90.00000000
_symmetry_Int_Tables_number   1
_chemical_formula_structural   ErMn4P3W
_chemical_formula_sum   'Er4 Mn16 P12 W4'
_cell_volume   482.20085533
_cell_formula_units_Z   4
loop_
 _symmetry_equiv_pos_site_id
 _symmetry_equiv_pos_as_xyz
  1  'x, y, z'
loop_
 _atom_site_type_symbol
 _atom_site_label
 _atom_site_symmetry_multiplicity
 _atom_site_fract_x
 _atom_site_fract_y
 _atom_site_fract_z
 _atom_site_occupancy
  Er  Er0  1  0.250000  0.587505  0.706226  1
  Er  Er1  1  0.250000  0.912495  0.206226  1
  Er  Er2  1  0.750000  0.412495  0.293774  1
  Er  Er3  1  0.750000  0.087505  0.793774  1
  Mn  Mn4  1  0.250000  0.411040  0.493729  1
  Mn  Mn5  1  0.250000  0.088961  0.993729  1
  Mn  Mn6  1  0.750000  0.588960  0.506271  1
  Mn  Mn7  1  0.750000  0.911040  0.006271  1
  Mn  Mn8  1  0.250000  0.210448  0.183168  1
  Mn  Mn9  1  0.250000  0.289552  0.683168  1
  Mn  Mn10  1  0.750000  0.789552  0.816832  1
  Mn  Mn11  1  0.750000  0.710448  0.316832  1
  Mn  Mn12  1  0.250000  0.884831  0.691919  1
  Mn  Mn13  1  0.250000  0.615169  0.191919  1
  Mn  Mn14  1  0.750000  0.115169  0.308081  1
  Mn  Mn15  1  0.750000  0.384831  0.808081  1
  Mn  Mn16  1  0.250000  0.466248  0.934863  1
  Mn  Mn17  1  0.250000  0.033752  0.434863  1
  Mn  Mn18  1  0.750000  0.533752  0.065137  1
  Mn  Mn19  1  0.750000  0.966248  0.565137  1
  P  P20  1  0.250000  0.412918  0.118835  1
  P  P21  1  0.250000  0.087082  0.618835  1
  P  P22  1  0.750000  0.587082  0.881165  1
  P  P23  1  0.750000  0.912918  0.381165  1
  P  P24  1  0.250000  0.263697  0.872697  1
  P  P25  1  0.250000  0.236303  0.372697  1
  P  P26  1  0.750000  0.736303  0.127303  1
  P  P27  1  0.750000  0.763697  0.627303  1
  P  P28  1  0.250000  0.588498  0.381973  1
  P  P29  1  0.250000  0.911502  0.881973  1
  P  P30  1  0.750000  0.411502  0.618027  1
  P  P31  1  0.750000  0.088498  0.118027  1
  W  W32  1  0.250000  0.710971  0.982032  1
  W  W33  1  0.250000  0.789029  0.482032  1
  W  W34  1  0.750000  0.289029  0.017968  1
  W  W35  1  0.750000  0.210971  0.517968  1
