# generated using pymatgen
data_Lu2Zr2Al17SiIr6
_symmetry_space_group_name_H-M   'P 1'
_cell_length_a   7.50879927
_cell_length_b   7.49244084
_cell_length_c   9.28518700
_cell_angle_alpha   90.00000000
_cell_angle_beta   90.00000000
_cell_angle_gamma   119.72296037
_symmetry_Int_Tables_number   1
_chemical_formula_structural   Lu2Zr2Al17SiIr6
_chemical_formula_sum   'Lu2 Zr2 Al17 Si1 Ir6'
_cell_volume   453.64981502
_cell_formula_units_Z   1
loop_
 _symmetry_equiv_pos_site_id
 _symmetry_equiv_pos_as_xyz
  1  'x, y, z'
loop_
 _atom_site_type_symbol
 _atom_site_label
 _atom_site_symmetry_multiplicity
 _atom_site_fract_x
 _atom_site_fract_y
 _atom_site_fract_z
 _atom_site_occupancy
  Lu  Lu0  1  0.675542  0.992506  0.250000  1
  Lu  Lu1  1  0.330398  0.005433  0.750000  1
  Zr  Zr2  1  0.992862  0.675050  0.250000  1
  Zr  Zr3  1  0.004841  0.329539  0.750000  1
  Al  Al4  1  0.875686  0.876987  0.750000  1
  Al  Al5  1  0.998966  0.337926  0.074836  1
  Al  Al6  1  0.000325  0.664085  0.925352  1
  Al  Al7  1  0.000325  0.664085  0.574648  1
  Al  Al8  1  0.334829  0.998862  0.421699  1
  Al  Al9  1  0.998966  0.337926  0.425164  1
  Al  Al10  1  0.667258  0.000814  0.576972  1
  Al  Al11  1  0.667258  0.000814  0.923028  1
  Al  Al12  1  0.334829  0.998862  0.078301  1
  Al  Al13  1  0.330748  0.332503  0.560603  1
  Al  Al14  1  0.665852  0.664158  0.443323  1
  Al  Al15  1  0.665852  0.664158  0.056677  1
  Al  Al16  1  0.330748  0.332503  0.939397  1
  Al  Al17  1  0.330810  0.548175  0.250000  1
  Al  Al18  1  0.666373  0.452850  0.750000  1
  Al  Al19  1  0.553526  0.339260  0.250000  1
  Al  Al20  1  0.447955  0.658782  0.750000  1
  Si  Si21  1  0.129876  0.128521  0.250000  1
  Ir  Ir22  1  0.669702  0.325340  0.000219  1
  Ir  Ir23  1  0.327283  0.671640  0.000929  1
  Ir  Ir24  1  0.327283  0.671640  0.499071  1
  Ir  Ir25  1  0.669702  0.325340  0.499781  1
  Ir  Ir26  1  0.001103  0.001120  0.007286  1
  Ir  Ir27  1  0.001103  0.001120  0.492714  1
