# generated using pymatgen
data_Hf3TaCr8
_symmetry_space_group_name_H-M   'P 1'
_cell_length_a   8.67484833
_cell_length_b   8.67484838
_cell_length_c   8.67484822
_cell_angle_alpha   33.30376275
_cell_angle_beta   33.30376037
_cell_angle_gamma   33.30376783
_symmetry_Int_Tables_number   1
_chemical_formula_structural   Hf3TaCr8
_chemical_formula_sum   'Hf3 Ta1 Cr8'
_cell_volume   175.23295585
_cell_formula_units_Z   1
loop_
 _symmetry_equiv_pos_site_id
 _symmetry_equiv_pos_as_xyz
  1  'x, y, z'
loop_
 _atom_site_type_symbol
 _atom_site_label
 _atom_site_symmetry_multiplicity
 _atom_site_fract_x
 _atom_site_fract_y
 _atom_site_fract_z
 _atom_site_occupancy
  Hf  Hf0  1  0.625072  0.625072  0.625072  1
  Hf  Hf1  1  0.000593  0.000593  0.000593  1
  Hf  Hf2  1  0.499498  0.499498  0.499498  1
  Ta  Ta3  1  0.124937  0.124937  0.124937  1
  Cr  Cr4  1  0.563372  0.063054  0.563372  1
  Cr  Cr5  1  0.061907  0.561409  0.061907  1
  Cr  Cr6  1  0.063054  0.563372  0.563372  1
  Cr  Cr7  1  0.561409  0.061907  0.061907  1
  Cr  Cr8  1  0.812380  0.812380  0.812380  1
  Cr  Cr9  1  0.312500  0.312500  0.312500  1
  Cr  Cr10  1  0.563372  0.563372  0.063054  1
  Cr  Cr11  1  0.061907  0.061907  0.561409  1
