# generated using pymatgen
data_La3VWC6
_symmetry_space_group_name_H-M   'P 1'
_cell_length_a   8.66726600
_cell_length_b   8.66726540
_cell_length_c   5.19064800
_cell_angle_alpha   90.00000000
_cell_angle_beta   90.00000000
_cell_angle_gamma   119.99998702
_symmetry_Int_Tables_number   1
_chemical_formula_structural   La3VWC6
_chemical_formula_sum   'La6 V2 W2 C12'
_cell_volume   337.68866850
_cell_formula_units_Z   2
loop_
 _symmetry_equiv_pos_site_id
 _symmetry_equiv_pos_as_xyz
  1  'x, y, z'
loop_
 _atom_site_type_symbol
 _atom_site_label
 _atom_site_symmetry_multiplicity
 _atom_site_fract_x
 _atom_site_fract_y
 _atom_site_fract_z
 _atom_site_occupancy
  La  La0  1  0.618067  0.698688  0.750000  1
  La  La1  1  0.919380  0.618067  0.250000  1
  La  La2  1  0.698688  0.080620  0.250000  1
  La  La3  1  0.301312  0.919380  0.750000  1
  La  La4  1  0.080620  0.381933  0.750000  1
  La  La5  1  0.381933  0.301312  0.250000  1
  V  V6  1  0.000000  0.000000  0.500000  1
  V  V7  1  0.000000  0.000000  0.000000  1
  W  W8  1  0.666667  0.333333  0.750000  1
  W  W9  1  0.333333  0.666667  0.250000  1
  C  C10  1  0.949876  0.773973  0.750000  1
  C  C11  1  0.175903  0.949876  0.250000  1
  C  C12  1  0.773973  0.824097  0.250000  1
  C  C13  1  0.226027  0.175903  0.750000  1
  C  C14  1  0.824097  0.050124  0.750000  1
  C  C15  1  0.050124  0.226027  0.250000  1
  C  C16  1  0.855186  0.589452  0.750000  1
  C  C17  1  0.265734  0.855186  0.250000  1
  C  C18  1  0.589452  0.734266  0.250000  1
  C  C19  1  0.410548  0.265734  0.750000  1
  C  C20  1  0.144814  0.410548  0.250000  1
  C  C21  1  0.734266  0.144814  0.750000  1
