# generated using pymatgen
data_Ti2Nb2AsP2
_symmetry_space_group_name_H-M   'P 1'
_cell_length_a   7.28420900
_cell_length_b   7.28420875
_cell_length_c   18.59447200
_cell_angle_alpha   90.00000000
_cell_angle_beta   90.00000000
_cell_angle_gamma   152.67123199
_symmetry_Int_Tables_number   1
_chemical_formula_structural   Ti2Nb2AsP2
_chemical_formula_sum   'Ti8 Nb8 As4 P8'
_cell_volume   452.95163042
_cell_formula_units_Z   4
loop_
 _symmetry_equiv_pos_site_id
 _symmetry_equiv_pos_as_xyz
  1  'x, y, z'
loop_
 _atom_site_type_symbol
 _atom_site_label
 _atom_site_symmetry_multiplicity
 _atom_site_fract_x
 _atom_site_fract_y
 _atom_site_fract_z
 _atom_site_occupancy
  Ti  Ti0  1  0.735718  0.264282  0.153624  1
  Ti  Ti1  1  0.264282  0.735718  0.846376  1
  Ti  Ti2  1  0.264282  0.735718  0.653624  1
  Ti  Ti3  1  0.735718  0.264282  0.346376  1
  Ti  Ti4  1  0.533011  0.466989  0.119215  1
  Ti  Ti5  1  0.466989  0.533011  0.880785  1
  Ti  Ti6  1  0.466989  0.533011  0.619215  1
  Ti  Ti7  1  0.533011  0.466989  0.380785  1
  Nb  Nb8  1  0.668658  0.331342  0.972576  1
  Nb  Nb9  1  0.331342  0.668658  0.027424  1
  Nb  Nb10  1  0.331342  0.668658  0.472576  1
  Nb  Nb11  1  0.668658  0.331342  0.527424  1
  Nb  Nb12  1  0.000000  0.000000  0.000000  1
  Nb  Nb13  1  0.000000  0.000000  0.500000  1
  Nb  Nb14  1  0.061319  0.938681  0.750000  1
  Nb  Nb15  1  0.938681  0.061319  0.250000  1
  As  As16  1  0.705393  0.294607  0.750000  1
  As  As17  1  0.294607  0.705393  0.250000  1
  As  As18  1  0.413846  0.586154  0.750000  1
  As  As19  1  0.586154  0.413846  0.250000  1
  P  P20  1  0.902380  0.097620  0.117621  1
  P  P21  1  0.097620  0.902380  0.882379  1
  P  P22  1  0.097620  0.902380  0.617621  1
  P  P23  1  0.902380  0.097620  0.382379  1
  P  P24  1  0.844572  0.155428  0.922889  1
  P  P25  1  0.155428  0.844572  0.077111  1
  P  P26  1  0.155428  0.844572  0.422889  1
  P  P27  1  0.844572  0.155428  0.577111  1
