# generated using pymatgen
data_Zr4Sc6SnSb5
_symmetry_space_group_name_H-M   'P 1'
_cell_length_a   8.54094474
_cell_length_b   8.54094475
_cell_length_c   5.86006900
_cell_angle_alpha   90.00000000
_cell_angle_beta   90.00000000
_cell_angle_gamma   120.12077100
_symmetry_Int_Tables_number   1
_chemical_formula_structural   Zr4Sc6SnSb5
_chemical_formula_sum   'Zr4 Sc6 Sn1 Sb5'
_cell_volume   369.75612429
_cell_formula_units_Z   1
loop_
 _symmetry_equiv_pos_site_id
 _symmetry_equiv_pos_as_xyz
  1  'x, y, z'
loop_
 _atom_site_type_symbol
 _atom_site_label
 _atom_site_symmetry_multiplicity
 _atom_site_fract_x
 _atom_site_fract_y
 _atom_site_fract_z
 _atom_site_occupancy
  Zr  Zr0  1  0.667597  0.332842  0.999913  1
  Zr  Zr1  1  0.332842  0.667597  0.999913  1
  Zr  Zr2  1  0.332842  0.667597  0.500087  1
  Zr  Zr3  1  0.667597  0.332842  0.500087  1
  Sc  Sc4  1  0.748946  0.748946  0.750000  1
  Sc  Sc5  1  0.252105  0.001265  0.750000  1
  Sc  Sc6  1  0.001265  0.252105  0.750000  1
  Sc  Sc7  1  0.249960  0.249960  0.250000  1
  Sc  Sc8  1  0.747514  0.998809  0.250000  1
  Sc  Sc9  1  0.998809  0.747514  0.250000  1
  Sn  Sn10  1  0.387896  0.387896  0.750000  1
  Sb  Sb11  1  0.615340  0.999986  0.750000  1
  Sb  Sb12  1  0.999986  0.615340  0.750000  1
  Sb  Sb13  1  0.611754  0.611754  0.250000  1
  Sb  Sb14  1  0.385075  0.000472  0.250000  1
  Sb  Sb15  1  0.000472  0.385075  0.250000  1
