# generated using pymatgen
data_Dy6Ho6TcOs3
_symmetry_space_group_name_H-M   'P 1'
_cell_length_a   6.27807744
_cell_length_b   7.42023428
_cell_length_c   9.07105957
_cell_angle_alpha   90.05022666
_cell_angle_beta   90.11706660
_cell_angle_gamma   90.04415867
_symmetry_Int_Tables_number   1
_chemical_formula_structural   Dy6Ho6TcOs3
_chemical_formula_sum   'Dy6 Ho6 Tc1 Os3'
_cell_volume   422.57237492
_cell_formula_units_Z   1
loop_
 _symmetry_equiv_pos_site_id
 _symmetry_equiv_pos_as_xyz
  1  'x, y, z'
loop_
 _atom_site_type_symbol
 _atom_site_label
 _atom_site_symmetry_multiplicity
 _atom_site_fract_x
 _atom_site_fract_y
 _atom_site_fract_z
 _atom_site_occupancy
  Dy  Dy0  1  0.335177  0.674930  0.063139  1
  Dy  Dy1  1  0.165563  0.175782  0.436738  1
  Dy  Dy2  1  0.872645  0.539725  0.250084  1
  Dy  Dy3  1  0.625495  0.039911  0.249972  1
  Dy  Dy4  1  0.128654  0.460079  0.749940  1
  Dy  Dy5  1  0.371108  0.961042  0.749955  1
  Ho  Ho6  1  0.668071  0.324788  0.563274  1
  Ho  Ho7  1  0.834071  0.825227  0.936327  1
  Ho  Ho8  1  0.668180  0.324409  0.936612  1
  Ho  Ho9  1  0.833721  0.824812  0.563698  1
  Ho  Ho10  1  0.335485  0.674418  0.437269  1
  Ho  Ho11  1  0.165386  0.175507  0.063055  1
  Tc  Tc12  1  0.037468  0.883061  0.250140  1
  Os  Os13  1  0.460201  0.382996  0.249793  1
  Os  Os14  1  0.957747  0.117321  0.750845  1
  Os  Os15  1  0.541027  0.615990  0.749159  1
