# generated using pymatgen
data_Y2Ho(Si3Pd10)2
_symmetry_space_group_name_H-M   'P 1'
_cell_length_a   8.71225238
_cell_length_b   8.71225298
_cell_length_c   8.71225200
_cell_angle_alpha   60.00000372
_cell_angle_beta   60.00000146
_cell_angle_gamma   60.00000104
_symmetry_Int_Tables_number   1
_chemical_formula_structural   Y2Ho(Si3Pd10)2
_chemical_formula_sum   'Y2 Ho1 Si6 Pd20'
_cell_volume   467.60201826
_cell_formula_units_Z   1
loop_
 _symmetry_equiv_pos_site_id
 _symmetry_equiv_pos_as_xyz
  1  'x, y, z'
loop_
 _atom_site_type_symbol
 _atom_site_label
 _atom_site_symmetry_multiplicity
 _atom_site_fract_x
 _atom_site_fract_y
 _atom_site_fract_z
 _atom_site_occupancy
  Y  Y0  1  0.250000  0.250000  0.250000  1
  Y  Y1  1  0.750000  0.750000  0.750000  1
  Ho  Ho2  1  0.000000  0.000000  0.000000  1
  Si  Si3  1  0.732363  0.267637  0.267637  1
  Si  Si4  1  0.267637  0.732363  0.732363  1
  Si  Si5  1  0.267637  0.732363  0.267637  1
  Si  Si6  1  0.732363  0.267637  0.732363  1
  Si  Si7  1  0.267637  0.267637  0.732363  1
  Si  Si8  1  0.732363  0.732363  0.267637  1
  Pd  Pd9  1  0.383641  0.383641  0.383641  1
  Pd  Pd10  1  0.616359  0.616359  0.616359  1
  Pd  Pd11  1  0.383641  0.383641  0.849078  1
  Pd  Pd12  1  0.383641  0.849078  0.383641  1
  Pd  Pd13  1  0.616359  0.616359  0.150922  1
  Pd  Pd14  1  0.616359  0.150922  0.616359  1
  Pd  Pd15  1  0.849078  0.383641  0.383641  1
  Pd  Pd16  1  0.150922  0.616359  0.616359  1
  Pd  Pd17  1  0.345038  0.000000  0.000000  1
  Pd  Pd18  1  0.654962  0.000000  0.000000  1
  Pd  Pd19  1  0.000000  0.345038  0.654962  1
  Pd  Pd20  1  0.000000  0.654962  0.345038  1
  Pd  Pd21  1  0.000000  0.345038  0.000000  1
  Pd  Pd22  1  0.654962  0.000000  0.345038  1
  Pd  Pd23  1  0.000000  0.654962  0.000000  1
  Pd  Pd24  1  0.345038  0.000000  0.654962  1
  Pd  Pd25  1  0.000000  0.000000  0.345038  1
  Pd  Pd26  1  0.000000  0.000000  0.654962  1
  Pd  Pd27  1  0.654962  0.345038  0.000000  1
  Pd  Pd28  1  0.345038  0.654962  0.000000  1
