# generated using pymatgen
data_LiCr2(TcP)4
_symmetry_space_group_name_H-M   'P 1'
_cell_length_a   7.45467345
_cell_length_b   7.45467276
_cell_length_c   3.06895800
_cell_angle_alpha   90.00000000
_cell_angle_beta   90.00000000
_cell_angle_gamma   120.31095940
_symmetry_Int_Tables_number   1
_chemical_formula_structural   LiCr2(TcP)4
_chemical_formula_sum   'Li1 Cr2 Tc4 P4'
_cell_volume   147.23443897
_cell_formula_units_Z   1
loop_
 _symmetry_equiv_pos_site_id
 _symmetry_equiv_pos_as_xyz
  1  'x, y, z'
loop_
 _atom_site_type_symbol
 _atom_site_label
 _atom_site_symmetry_multiplicity
 _atom_site_fract_x
 _atom_site_fract_y
 _atom_site_fract_z
 _atom_site_occupancy
  Li  Li0  1  0.998990  0.001010  0.000000  1
  Cr  Cr1  1  0.545240  0.086894  0.000000  1
  Cr  Cr2  1  0.913106  0.454760  0.000000  1
  Tc  Tc3  1  0.196015  0.803985  0.500000  1
  Tc  Tc4  1  0.193039  0.392123  0.500000  1
  Tc  Tc5  1  0.548743  0.451257  0.000000  1
  Tc  Tc6  1  0.607877  0.806961  0.500000  1
  P  P7  1  0.827156  0.172844  0.500000  1
  P  P8  1  0.338920  0.168780  0.500000  1
  P  P9  1  0.333028  0.666972  0.000000  1
  P  P10  1  0.831220  0.661080  0.500000  1
