# generated using pymatgen
data_Ti6PdPtO2
_symmetry_space_group_name_H-M   'P 1'
_cell_length_a   5.85668337
_cell_length_b   5.85668303
_cell_length_c   5.85668302
_cell_angle_alpha   121.65845087
_cell_angle_beta   121.65844695
_cell_angle_gamma   87.15070742
_symmetry_Int_Tables_number   1
_chemical_formula_structural   Ti6PdPtO2
_chemical_formula_sum   'Ti6 Pd1 Pt1 O2'
_cell_volume   138.30289489
_cell_formula_units_Z   1
loop_
 _symmetry_equiv_pos_site_id
 _symmetry_equiv_pos_as_xyz
  1  'x, y, z'
loop_
 _atom_site_type_symbol
 _atom_site_label
 _atom_site_symmetry_multiplicity
 _atom_site_fract_x
 _atom_site_fract_y
 _atom_site_fract_z
 _atom_site_occupancy
  Ti  Ti0  1  0.207275  0.707275  0.914588  1
  Ti  Ti1  1  0.707314  0.792725  0.500000  1
  Ti  Ti2  1  0.250000  0.250000  0.000000  1
  Ti  Ti3  1  0.292725  0.207314  0.500000  1
  Ti  Ti4  1  0.792686  0.292686  0.085412  1
  Ti  Ti5  1  0.750000  0.750000  0.000000  1
  Pd  Pd6  1  0.250000  0.750000  0.500000  1
  Pt  Pt7  1  0.750000  0.250000  0.500000  1
  O  O8  1  0.500000  0.500000  0.000000  1
  O  O9  1  0.000000  0.000000  0.000000  1
