# generated using pymatgen
data_Tb3TmTl4
_symmetry_space_group_name_H-M   'P 1'
_cell_length_a   6.57927190
_cell_length_b   6.57927397
_cell_length_c   10.82751900
_cell_angle_alpha   90.00000000
_cell_angle_beta   90.00000000
_cell_angle_gamma   108.95095469
_symmetry_Int_Tables_number   1
_chemical_formula_structural   Tb3TmTl4
_chemical_formula_sum   'Tb6 Tm2 Tl8'
_cell_volume   443.28461074
_cell_formula_units_Z   2
loop_
 _symmetry_equiv_pos_site_id
 _symmetry_equiv_pos_as_xyz
  1  'x, y, z'
loop_
 _atom_site_type_symbol
 _atom_site_label
 _atom_site_symmetry_multiplicity
 _atom_site_fract_x
 _atom_site_fract_y
 _atom_site_fract_z
 _atom_site_occupancy
  Tb  Tb0  1  0.508036  0.508036  0.250000  1
  Tb  Tb1  1  0.491964  0.491964  0.750000  1
  Tb  Tb2  1  0.248046  0.751954  0.500000  1
  Tb  Tb3  1  0.248046  0.751954  0.000000  1
  Tb  Tb4  1  0.751954  0.248046  0.500000  1
  Tb  Tb5  1  0.751954  0.248046  0.000000  1
  Tm  Tm6  1  0.996134  0.996134  0.250000  1
  Tm  Tm7  1  0.003866  0.003866  0.750000  1
  Tl  Tl8  1  0.249707  0.249707  0.003674  1
  Tl  Tl9  1  0.750293  0.750293  0.996326  1
  Tl  Tl10  1  0.249707  0.249707  0.496326  1
  Tl  Tl11  1  0.750293  0.750293  0.503674  1
  Tl  Tl12  1  0.497259  0.004541  0.250000  1
  Tl  Tl13  1  0.995459  0.502741  0.750000  1
  Tl  Tl14  1  0.502741  0.995459  0.750000  1
  Tl  Tl15  1  0.004541  0.497259  0.250000  1
