# generated using pymatgen
data_Ho5Tm5(SiSb)4
_symmetry_space_group_name_H-M   'P 1'
_cell_length_a   8.43993344
_cell_length_b   8.44497770
_cell_length_c   7.79161598
_cell_angle_alpha   89.98349615
_cell_angle_beta   89.96461587
_cell_angle_gamma   125.24679412
_symmetry_Int_Tables_number   1
_chemical_formula_structural   Ho5Tm5(SiSb)4
_chemical_formula_sum   'Ho5 Tm5 Si4 Sb4'
_cell_volume   453.53780920
_cell_formula_units_Z   1
loop_
 _symmetry_equiv_pos_site_id
 _symmetry_equiv_pos_as_xyz
  1  'x, y, z'
loop_
 _atom_site_type_symbol
 _atom_site_label
 _atom_site_symmetry_multiplicity
 _atom_site_fract_x
 _atom_site_fract_y
 _atom_site_fract_z
 _atom_site_occupancy
  Ho  Ho0  1  0.540354  0.791408  0.165509  1
  Ho  Ho1  1  0.291739  0.040367  0.334515  1
  Ho  Ho2  1  0.208580  0.459662  0.834527  1
  Ho  Ho3  1  0.959739  0.708404  0.665399  1
  Ho  Ho4  1  0.708403  0.959617  0.665427  1
  Tm  Tm5  1  0.459446  0.209443  0.835013  1
  Tm  Tm6  1  0.790722  0.540628  0.165089  1
  Tm  Tm7  1  0.040671  0.290729  0.334893  1
  Tm  Tm8  1  0.499791  0.499634  0.499860  1
  Tm  Tm9  1  0.000229  0.000012  0.000274  1
  Si  Si10  1  0.632823  0.632111  0.868565  1
  Si  Si11  1  0.133520  0.133149  0.631830  1
  Si  Si12  1  0.867336  0.867049  0.367611  1
  Si  Si13  1  0.367188  0.367191  0.131796  1
  Sb  Sb14  1  0.293476  0.704868  0.499439  1
  Sb  Sb15  1  0.205705  0.794460  0.999910  1
  Sb  Sb16  1  0.706386  0.294356  0.499625  1
  Sb  Sb17  1  0.793891  0.206911  0.000718  1
