# generated using pymatgen
data_Tb7YAlPd24
_symmetry_space_group_name_H-M   'P 1'
_cell_length_a   8.35810514
_cell_length_b   8.35810495
_cell_length_c   8.35810433
_cell_angle_alpha   89.99085550
_cell_angle_beta   90.00914696
_cell_angle_gamma   90.00915125
_symmetry_Int_Tables_number   1
_chemical_formula_structural   Tb7YAlPd24
_chemical_formula_sum   'Tb7 Y1 Al1 Pd24'
_cell_volume   583.87976058
_cell_formula_units_Z   1
loop_
 _symmetry_equiv_pos_site_id
 _symmetry_equiv_pos_as_xyz
  1  'x, y, z'
loop_
 _atom_site_type_symbol
 _atom_site_label
 _atom_site_symmetry_multiplicity
 _atom_site_fract_x
 _atom_site_fract_y
 _atom_site_fract_z
 _atom_site_occupancy
  Tb  Tb0  1  0.251431  0.251751  0.251751  1
  Tb  Tb1  1  0.748265  0.748135  0.748135  1
  Tb  Tb2  1  0.748249  0.748569  0.251751  1
  Tb  Tb3  1  0.748249  0.251751  0.748569  1
  Tb  Tb4  1  0.251865  0.251735  0.748135  1
  Tb  Tb5  1  0.251865  0.748135  0.251735  1
  Tb  Tb6  1  0.251917  0.748083  0.748083  1
  Y  Y7  1  0.748082  0.251918  0.251918  1
  Al  Al8  1  0.000216  0.999784  0.999784  1
  Pd  Pd9  1  0.260335  0.499813  0.999922  1
  Pd  Pd10  1  0.739754  0.500090  0.000341  1
  Pd  Pd11  1  0.999659  0.260246  0.500090  1
  Pd  Pd12  1  0.499910  0.260246  0.000341  1
  Pd  Pd13  1  0.000078  0.739665  0.499813  1
  Pd  Pd14  1  0.500187  0.739665  0.999922  1
  Pd  Pd15  1  0.499910  0.000341  0.260246  1
  Pd  Pd16  1  0.260335  0.999922  0.499813  1
  Pd  Pd17  1  0.500187  0.999922  0.739665  1
  Pd  Pd18  1  0.739754  0.000341  0.500090  1
  Pd  Pd19  1  0.999659  0.500090  0.260246  1
  Pd  Pd20  1  0.000078  0.499813  0.739665  1
  Pd  Pd21  1  0.253455  0.499839  0.499839  1
  Pd  Pd22  1  0.746392  0.500268  0.500268  1
  Pd  Pd23  1  0.499732  0.253608  0.500268  1
  Pd  Pd24  1  0.500161  0.746545  0.499839  1
  Pd  Pd25  1  0.499732  0.500268  0.253608  1
  Pd  Pd26  1  0.500161  0.499839  0.746545  1
  Pd  Pd27  1  0.290127  0.999902  0.999902  1
  Pd  Pd28  1  0.710396  0.000168  0.000168  1
  Pd  Pd29  1  0.999832  0.289604  0.000168  1
  Pd  Pd30  1  0.000098  0.709873  0.999902  1
  Pd  Pd31  1  0.999832  0.000168  0.289604  1
  Pd  Pd32  1  0.000098  0.999902  0.709873  1
