# generated using pymatgen
data_Tb2Ho14MgAg3Rh4
_symmetry_space_group_name_H-M   'P 1'
_cell_length_a   9.52439521
_cell_length_b   9.54124448
_cell_length_c   9.51813400
_cell_angle_alpha   60.08009925
_cell_angle_beta   60.02175073
_cell_angle_gamma   60.10017778
_symmetry_Int_Tables_number   1
_chemical_formula_structural   Tb2Ho14MgAg3Rh4
_chemical_formula_sum   'Tb2 Ho14 Mg1 Ag3 Rh4'
_cell_volume   612.54939459
_cell_formula_units_Z   1
loop_
 _symmetry_equiv_pos_site_id
 _symmetry_equiv_pos_as_xyz
  1  'x, y, z'
loop_
 _atom_site_type_symbol
 _atom_site_label
 _atom_site_symmetry_multiplicity
 _atom_site_fract_x
 _atom_site_fract_y
 _atom_site_fract_z
 _atom_site_occupancy
  Tb  Tb0  1  0.563552  0.565159  0.935645  1
  Tb  Tb1  1  0.933553  0.936775  0.564836  1
  Ho  Ho2  1  0.351843  0.349615  0.349684  1
  Ho  Ho3  1  0.351843  0.349615  0.948857  1
  Ho  Ho4  1  0.351937  0.949164  0.349449  1
  Ho  Ho5  1  0.936134  0.354983  0.354441  1
  Ho  Ho6  1  0.811247  0.187715  0.187998  1
  Ho  Ho7  1  0.185716  0.813426  0.814033  1
  Ho  Ho8  1  0.185716  0.813426  0.186825  1
  Ho  Ho9  1  0.811247  0.187715  0.813040  1
  Ho  Ho10  1  0.185679  0.186561  0.813880  1
  Ho  Ho11  1  0.811095  0.812248  0.188329  1
  Ho  Ho12  1  0.933661  0.564345  0.564441  1
  Ho  Ho13  1  0.563550  0.935944  0.935876  1
  Ho  Ho14  1  0.563550  0.935944  0.564631  1
  Ho  Ho15  1  0.933661  0.564345  0.937553  1
  Mg  Mg16  1  0.284759  0.571863  0.571689  1
  Ag  Ag17  1  0.582545  0.584309  0.583774  1
  Ag  Ag18  1  0.582545  0.584309  0.249374  1
  Ag  Ag19  1  0.582113  0.249597  0.584146  1
  Rh  Rh20  1  0.141169  0.144843  0.143564  1
  Rh  Rh21  1  0.141169  0.144843  0.570421  1
  Rh  Rh22  1  0.141172  0.569990  0.144418  1
  Rh  Rh23  1  0.570543  0.143264  0.143097  1
