# generated using pymatgen
data_Dy3Tm5Cd2IrPt
_symmetry_space_group_name_H-M   'P 1'
_cell_length_a   9.56629864
_cell_length_b   9.56629921
_cell_length_c   9.55762400
_cell_angle_alpha   60.02999386
_cell_angle_beta   60.02999190
_cell_angle_gamma   60.16743138
_symmetry_Int_Tables_number   1
_chemical_formula_structural   Dy3Tm5Cd2IrPt
_chemical_formula_sum   'Dy6 Tm10 Cd4 Ir2 Pt2'
_cell_volume   619.53607665
_cell_formula_units_Z   2
loop_
 _symmetry_equiv_pos_site_id
 _symmetry_equiv_pos_as_xyz
  1  'x, y, z'
loop_
 _atom_site_type_symbol
 _atom_site_label
 _atom_site_symmetry_multiplicity
 _atom_site_fract_x
 _atom_site_fract_y
 _atom_site_fract_z
 _atom_site_occupancy
  Dy  Dy0  1  0.188600  0.813234  0.810788  1
  Dy  Dy1  1  0.813234  0.188600  0.187378  1
  Dy  Dy2  1  0.813234  0.188600  0.810788  1
  Dy  Dy3  1  0.188600  0.813234  0.187378  1
  Dy  Dy4  1  0.812434  0.812434  0.187566  1
  Dy  Dy5  1  0.188127  0.188127  0.811873  1
  Tm  Tm6  1  0.600321  0.600321  0.596487  1
  Tm  Tm7  1  0.600321  0.600321  0.202872  1
  Tm  Tm8  1  0.604905  0.196248  0.599424  1
  Tm  Tm9  1  0.196248  0.604905  0.599424  1
  Tm  Tm10  1  0.057472  0.438834  0.440380  1
  Tm  Tm11  1  0.438834  0.057472  0.063315  1
  Tm  Tm12  1  0.438834  0.057472  0.440380  1
  Tm  Tm13  1  0.057472  0.438834  0.063315  1
  Tm  Tm14  1  0.440681  0.440681  0.059319  1
  Tm  Tm15  1  0.061882  0.061882  0.438118  1
  Cd  Cd16  1  0.830974  0.830974  0.830760  1
  Cd  Cd17  1  0.830974  0.830974  0.507293  1
  Cd  Cd18  1  0.830783  0.506927  0.831145  1
  Cd  Cd19  1  0.506927  0.830783  0.831145  1
  Ir  Ir20  1  0.391546  0.823485  0.392485  1
  Ir  Ir21  1  0.823485  0.391546  0.392485  1
  Pt  Pt22  1  0.392057  0.392057  0.393932  1
  Pt  Pt23  1  0.392057  0.392057  0.821956  1
