# generated using pymatgen
data_SrPrMnNbO6
_symmetry_space_group_name_H-M   'P 1'
_cell_length_a   8.18572579
_cell_length_b   8.18572930
_cell_length_c   9.89916780
_cell_angle_alpha   66.53866480
_cell_angle_beta   66.53865906
_cell_angle_gamma   91.91996614
_symmetry_Int_Tables_number   1
_chemical_formula_structural   SrPrMnNbO6
_chemical_formula_sum   'Sr4 Pr4 Mn4 Nb4 O24'
_cell_volume   543.44117912
_cell_formula_units_Z   4
loop_
 _symmetry_equiv_pos_site_id
 _symmetry_equiv_pos_as_xyz
  1  'x, y, z'
loop_
 _atom_site_type_symbol
 _atom_site_label
 _atom_site_symmetry_multiplicity
 _atom_site_fract_x
 _atom_site_fract_y
 _atom_site_fract_z
 _atom_site_occupancy
  Sr  Sr0  1  0.391858  0.351696  0.248667  1
  Sr  Sr1  1  0.891856  0.851696  0.248666  1
  Sr  Sr2  1  0.101699  0.641858  0.748665  1
  Sr  Sr3  1  0.601694  0.141859  0.748669  1
  Pr  Pr4  1  0.414378  0.854571  0.245600  1
  Pr  Pr5  1  0.914373  0.354573  0.245603  1
  Pr  Pr6  1  0.104573  0.164373  0.745601  1
  Pr  Pr7  1  0.604568  0.664370  0.745604  1
  Mn  Mn8  1  0.998863  0.504887  0.497950  1
  Mn  Mn9  1  0.254847  0.248839  0.997965  1
  Mn  Mn10  1  0.498878  0.004906  0.497917  1
  Mn  Mn11  1  0.754878  0.748866  0.997945  1
  Nb  Nb12  1  0.747758  0.253397  0.999471  1
  Nb  Nb13  1  0.247765  0.753396  0.999469  1
  Nb  Nb14  1  0.003399  0.997769  0.499470  1
  Nb  Nb15  1  0.503403  0.497767  0.499470  1
  O  O16  1  0.349075  0.813604  0.760317  1
  O  O17  1  0.849078  0.313606  0.760316  1
  O  O18  1  0.563608  0.599077  0.260316  1
  O  O19  1  0.063602  0.099074  0.260318  1
  O  O20  1  0.758923  0.987750  0.050392  1
  O  O21  1  0.258921  0.487749  0.050395  1
  O  O22  1  0.237752  0.508922  0.550390  1
  O  O23  1  0.737751  0.008919  0.550396  1
  O  O24  1  0.559524  0.759202  0.460483  1
  O  O25  1  0.059524  0.259201  0.460483  1
  O  O26  1  0.009203  0.309523  0.960482  1
  O  O27  1  0.509202  0.809522  0.960480  1
  O  O28  1  0.484274  0.171474  0.051284  1
  O  O29  1  0.984274  0.671476  0.051282  1
  O  O30  1  0.921477  0.734274  0.551284  1
  O  O31  1  0.421477  0.234274  0.551283  1
  O  O32  1  0.263065  0.967352  0.446369  1
  O  O33  1  0.763067  0.467353  0.446369  1
  O  O34  1  0.717354  0.513064  0.946369  1
  O  O35  1  0.217355  0.013065  0.946368  1
  O  O36  1  0.949189  0.919163  0.739473  1
  O  O37  1  0.449184  0.419163  0.739474  1
  O  O38  1  0.169166  0.699189  0.239470  1
  O  O39  1  0.669165  0.199184  0.239472  1
