# generated using pymatgen
data_Tb4Er11Sc5Bi12
_symmetry_space_group_name_H-M   'P 1'
_cell_length_a   8.09676206
_cell_length_b   9.37556600
_cell_length_c   11.87119754
_cell_angle_alpha   90.00000000
_cell_angle_beta   90.05853197
_cell_angle_gamma   90.00000000
_symmetry_Int_Tables_number   1
_chemical_formula_structural   Tb4Er11Sc5Bi12
_chemical_formula_sum   'Tb4 Er11 Sc5 Bi12'
_cell_volume   901.16263777
_cell_formula_units_Z   1
loop_
 _symmetry_equiv_pos_site_id
 _symmetry_equiv_pos_as_xyz
  1  'x, y, z'
loop_
 _atom_site_type_symbol
 _atom_site_label
 _atom_site_symmetry_multiplicity
 _atom_site_fract_x
 _atom_site_fract_y
 _atom_site_fract_z
 _atom_site_occupancy
  Tb  Tb0  1  0.316247  0.250000  0.219152  1
  Tb  Tb1  1  0.817705  0.250000  0.282272  1
  Tb  Tb2  1  0.684483  0.750000  0.780890  1
  Tb  Tb3  1  0.183756  0.750000  0.718998  1
  Er  Er4  1  0.352014  0.750000  0.217503  1
  Er  Er5  1  0.852090  0.750000  0.282205  1
  Er  Er6  1  0.647513  0.250000  0.782326  1
  Er  Er7  1  0.693634  0.565501  0.059600  1
  Er  Er8  1  0.193336  0.934554  0.439727  1
  Er  Er9  1  0.305556  0.066459  0.937564  1
  Er  Er10  1  0.806583  0.434493  0.561087  1
  Er  Er11  1  0.305556  0.433541  0.937564  1
  Er  Er12  1  0.806583  0.065507  0.561087  1
  Er  Er13  1  0.693634  0.934499  0.059600  1
  Er  Er14  1  0.193336  0.565446  0.439727  1
  Sc  Sc15  1  0.148633  0.250000  0.719273  1
  Sc  Sc16  1  0.478278  0.250000  0.488106  1
  Sc  Sc17  1  0.978534  0.250000  0.011632  1
  Sc  Sc18  1  0.520810  0.750000  0.512798  1
  Sc  Sc19  1  0.021236  0.750000  0.987018  1
  Bi  Bi20  1  0.399382  0.750000  0.959613  1
  Bi  Bi21  1  0.899479  0.750000  0.540114  1
  Bi  Bi22  1  0.599737  0.250000  0.040112  1
  Bi  Bi23  1  0.101059  0.250000  0.466167  1
  Bi  Bi24  1  0.565236  0.994963  0.331219  1
  Bi  Bi25  1  0.065272  0.504824  0.168686  1
  Bi  Bi26  1  0.432638  0.493262  0.669000  1
  Bi  Bi27  1  0.937268  0.008128  0.829028  1
  Bi  Bi28  1  0.432638  0.006738  0.669000  1
  Bi  Bi29  1  0.937268  0.491872  0.829028  1
  Bi  Bi30  1  0.565236  0.505037  0.331219  1
  Bi  Bi31  1  0.065272  0.995176  0.168686  1
