# generated using pymatgen
data_TbYFe14(SiC)3
_symmetry_space_group_name_H-M   'P 1'
_cell_length_a   6.44722526
_cell_length_b   6.44722463
_cell_length_c   6.44722388
_cell_angle_alpha   83.57260707
_cell_angle_beta   83.57260698
_cell_angle_gamma   83.57258813
_symmetry_Int_Tables_number   1
_chemical_formula_structural   TbYFe14(SiC)3
_chemical_formula_sum   'Tb1 Y1 Fe14 Si3 C3'
_cell_volume   263.28709272
_cell_formula_units_Z   1
loop_
 _symmetry_equiv_pos_site_id
 _symmetry_equiv_pos_as_xyz
  1  'x, y, z'
loop_
 _atom_site_type_symbol
 _atom_site_label
 _atom_site_symmetry_multiplicity
 _atom_site_fract_x
 _atom_site_fract_y
 _atom_site_fract_z
 _atom_site_occupancy
  Tb  Tb0  1  0.652441  0.652441  0.652441  1
  Y  Y1  1  0.347570  0.347570  0.347570  1
  Fe  Fe2  1  0.715341  0.284659  0.000045  1
  Fe  Fe3  1  0.000045  0.715341  0.284659  1
  Fe  Fe4  1  0.284659  0.000045  0.715341  1
  Fe  Fe5  1  0.000045  0.284659  0.715341  1
  Fe  Fe6  1  0.715341  0.000045  0.284659  1
  Fe  Fe7  1  0.284659  0.715341  0.000045  1
  Fe  Fe8  1  0.339935  0.339935  0.863158  1
  Fe  Fe9  1  0.863158  0.339935  0.339935  1
  Fe  Fe10  1  0.339935  0.863158  0.339935  1
  Fe  Fe11  1  0.660053  0.660053  0.136833  1
  Fe  Fe12  1  0.136833  0.660053  0.660053  1
  Fe  Fe13  1  0.660053  0.136833  0.660053  1
  Fe  Fe14  1  0.903091  0.903091  0.903091  1
  Fe  Fe15  1  0.096842  0.096842  0.096842  1
  Si  Si16  1  0.999988  0.999988  0.500007  1
  Si  Si17  1  0.500007  0.999988  0.999988  1
  Si  Si18  1  0.999988  0.500007  0.999988  1
  C  C19  1  0.499857  0.499857  0.000300  1
  C  C20  1  0.000300  0.499857  0.499857  1
  C  C21  1  0.499857  0.000300  0.499857  1
