# generated using pymatgen
data_HfBr37
_symmetry_space_group_name_H-M   'P 1'
_cell_length_a   14.20848141
_cell_length_b   15.29732181
_cell_length_c   14.42416200
_cell_angle_alpha   103.00376457
_cell_angle_beta   48.80056783
_cell_angle_gamma   81.50743146
_symmetry_Int_Tables_number   1
_chemical_formula_structural   HfBr37
_chemical_formula_sum   'Hf1 Br37'
_cell_volume   2102.91272627
_cell_formula_units_Z   1
loop_
 _symmetry_equiv_pos_site_id
 _symmetry_equiv_pos_as_xyz
  1  'x, y, z'
loop_
 _atom_site_type_symbol
 _atom_site_label
 _atom_site_symmetry_multiplicity
 _atom_site_fract_x
 _atom_site_fract_y
 _atom_site_fract_z
 _atom_site_occupancy
  Hf  Hf0  1  0.500000  0.000000  0.000000  1
  Br  Br1  1  0.790374  0.302195  0.136469  1
  Br  Br2  1  0.209626  0.697805  0.863531  1
  Br  Br3  1  0.745902  0.081884  0.361127  1
  Br  Br4  1  0.254098  0.918116  0.638873  1
  Br  Br5  1  0.109056  0.353208  0.172252  1
  Br  Br6  1  0.890944  0.646792  0.827748  1
  Br  Br7  1  0.861837  0.535353  0.249195  1
  Br  Br8  1  0.138163  0.464647  0.750805  1
  Br  Br9  1  0.686751  0.274682  0.521374  1
  Br  Br10  1  0.313249  0.725318  0.478626  1
  Br  Br11  1  0.041024  0.152155  0.476441  1
  Br  Br12  1  0.958976  0.847845  0.523559  1
  Br  Br13  1  0.980208  0.008340  0.282990  1
  Br  Br14  1  0.019792  0.991660  0.717010  1
  Br  Br15  1  0.949812  0.340518  0.599329  1
  Br  Br16  1  0.050188  0.659482  0.400671  1
  Br  Br17  1  0.580641  0.428769  0.234444  1
  Br  Br18  1  0.419359  0.571231  0.765556  1
  Br  Br19  1  0.178337  0.474973  0.268230  1
  Br  Br20  1  0.821663  0.525027  0.731770  1
  Br  Br21  1  0.000000  0.500000  0.000000  1
  Br  Br22  1  0.626270  0.947923  0.064823  1
  Br  Br23  1  0.373730  0.052077  0.935177  1
  Br  Br24  1  0.318123  0.047356  0.272966  1
  Br  Br25  1  0.681877  0.952644  0.727034  1
  Br  Br26  1  0.533968  0.128735  0.410064  1
  Br  Br27  1  0.466032  0.871265  0.589936  1
  Br  Br28  1  0.071217  0.225993  0.080196  1
  Br  Br29  1  0.928783  0.774007  0.919804  1
  Br  Br30  1  0.661372  0.695813  0.404580  1
  Br  Br31  1  0.338628  0.304187  0.595420  1
  Br  Br32  1  0.900905  0.147666  0.923786  1
  Br  Br33  1  0.099095  0.852334  0.076214  1
  Br  Br34  1  0.506879  0.168098  0.050095  1
  Br  Br35  1  0.493121  0.831902  0.949905  1
  Br  Br36  1  0.651200  0.429863  0.649395  1
  Br  Br37  1  0.348800  0.570137  0.350605  1
