# generated using pymatgen
data_TbYU6(PS)8
_symmetry_space_group_name_H-M   'P 1'
_cell_length_a   5.33123700
_cell_length_b   5.32892300
_cell_length_c   16.23252800
_cell_angle_alpha   90.00000343
_cell_angle_beta   89.99980750
_cell_angle_gamma   89.99982802
_symmetry_Int_Tables_number   1
_chemical_formula_structural   TbYU6(PS)8
_chemical_formula_sum   'Tb1 Y1 U6 P8 S8'
_cell_volume   461.16208620
_cell_formula_units_Z   1
loop_
 _symmetry_equiv_pos_site_id
 _symmetry_equiv_pos_as_xyz
  1  'x, y, z'
loop_
 _atom_site_type_symbol
 _atom_site_label
 _atom_site_symmetry_multiplicity
 _atom_site_fract_x
 _atom_site_fract_y
 _atom_site_fract_z
 _atom_site_occupancy
  Tb  Tb0  1  0.749998  0.499936  0.129391  1
  Y  Y1  1  0.249998  0.999924  0.143100  1
  U  U2  1  0.250000  0.499953  0.367196  1
  U  U3  1  0.750000  0.500066  0.640264  1
  U  U4  1  0.750002  0.000032  0.858148  1
  U  U5  1  0.250004  0.000079  0.637857  1
  U  U6  1  0.250002  0.500034  0.858153  1
  U  U7  1  0.749999  0.999962  0.363570  1
  P  P8  1  0.027199  0.222892  0.995540  1
  P  P9  1  0.510000  0.752293  0.502188  1
  P  P10  1  0.472809  0.777079  0.995538  1
  P  P11  1  0.989926  0.247737  0.502186  1
  P  P12  1  0.027185  0.777078  0.995537  1
  P  P13  1  0.510077  0.247738  0.502185  1
  P  P14  1  0.472797  0.222897  0.995540  1
  P  P15  1  0.990003  0.752294  0.502188  1
  S  S16  1  0.249998  0.499930  0.187524  1
  S  S17  1  0.250001  0.999953  0.323745  1
  S  S18  1  0.749999  0.500041  0.818106  1
  S  S19  1  0.750002  0.000076  0.682378  1
  S  S20  1  0.250003  0.000047  0.813743  1
  S  S21  1  0.250003  0.500076  0.681371  1
  S  S22  1  0.749998  0.999927  0.186067  1
  S  S23  1  0.749996  0.499956  0.318485  1
