# generated using pymatgen
data_Tb4AlGa3(IrPt)2
_symmetry_space_group_name_H-M   'P 1'
_cell_length_a   4.37734800
_cell_length_b   6.84724546
_cell_length_c   7.86150099
_cell_angle_alpha   89.78259356
_cell_angle_beta   90.00000000
_cell_angle_gamma   90.00000000
_symmetry_Int_Tables_number   1
_chemical_formula_structural   Tb4AlGa3(IrPt)2
_chemical_formula_sum   'Tb4 Al1 Ga3 Ir2 Pt2'
_cell_volume   235.62931371
_cell_formula_units_Z   1
loop_
 _symmetry_equiv_pos_site_id
 _symmetry_equiv_pos_as_xyz
  1  'x, y, z'
loop_
 _atom_site_type_symbol
 _atom_site_label
 _atom_site_symmetry_multiplicity
 _atom_site_fract_x
 _atom_site_fract_y
 _atom_site_fract_z
 _atom_site_occupancy
  Tb  Tb0  1  0.250000  0.031045  0.683162  1
  Tb  Tb1  1  0.250000  0.533054  0.819553  1
  Tb  Tb2  1  0.750000  0.971430  0.313301  1
  Tb  Tb3  1  0.750000  0.474775  0.183407  1
  Al  Al4  1  0.750000  0.353390  0.560780  1
  Ga  Ga5  1  0.250000  0.148019  0.067690  1
  Ga  Ga6  1  0.250000  0.644863  0.433704  1
  Ga  Ga7  1  0.750000  0.848652  0.938014  1
  Ir  Ir8  1  0.250000  0.266147  0.386986  1
  Ir  Ir9  1  0.250000  0.766767  0.117579  1
  Pt  Pt10  1  0.750000  0.729124  0.618570  1
  Pt  Pt11  1  0.750000  0.232732  0.877254  1
