# generated using pymatgen
data_LaTh(As2Au)2
_symmetry_space_group_name_H-M   'P 1'
_cell_length_a   10.56995198
_cell_length_b   10.55900228
_cell_length_c   4.18483044
_cell_angle_alpha   78.72336662
_cell_angle_beta   78.72406483
_cell_angle_gamma   22.84716335
_symmetry_Int_Tables_number   1
_chemical_formula_structural   LaTh(As2Au)2
_chemical_formula_sum   'La1 Th1 As4 Au2'
_cell_volume   177.70264650
_cell_formula_units_Z   1
loop_
 _symmetry_equiv_pos_site_id
 _symmetry_equiv_pos_as_xyz
  1  'x, y, z'
loop_
 _atom_site_type_symbol
 _atom_site_label
 _atom_site_symmetry_multiplicity
 _atom_site_fract_x
 _atom_site_fract_y
 _atom_site_fract_z
 _atom_site_occupancy
  La  La0  1  0.876646  0.896842  0.123354  1
  Th  Th1  1  0.101934  0.129201  0.898066  1
  As  As2  1  0.328795  0.349293  0.671205  1
  As  As3  1  0.636791  0.669354  0.363209  1
  As  As4  1  0.491060  0.515083  0.014749  1
  As  As5  1  0.985251  0.020892  0.508940  1
  Au  Au6  1  0.748074  0.751355  0.751852  1
  Au  Au7  1  0.248148  0.251281  0.251926  1
