# generated using pymatgen
data_Tm4MnAl(B8Mo)2
_symmetry_space_group_name_H-M   'P 1'
_cell_length_a   3.53266800
_cell_length_b   5.95209679
_cell_length_c   11.48919498
_cell_angle_alpha   89.96902180
_cell_angle_beta   90.00000000
_cell_angle_gamma   90.00000000
_symmetry_Int_Tables_number   1
_chemical_formula_structural   Tm4MnAl(B8Mo)2
_chemical_formula_sum   'Tm4 Mn1 Al1 B16 Mo2'
_cell_volume   241.58076122
_cell_formula_units_Z   1
loop_
 _symmetry_equiv_pos_site_id
 _symmetry_equiv_pos_as_xyz
  1  'x, y, z'
loop_
 _atom_site_type_symbol
 _atom_site_label
 _atom_site_symmetry_multiplicity
 _atom_site_fract_x
 _atom_site_fract_y
 _atom_site_fract_z
 _atom_site_occupancy
  Tm  Tm0  1  0.500000  0.375946  0.147422  1
  Tm  Tm1  1  0.500000  0.628860  0.856831  1
  Tm  Tm2  1  0.500000  0.125495  0.650337  1
  Tm  Tm3  1  0.500000  0.871048  0.343198  1
  Mn  Mn4  1  0.500000  0.872483  0.081901  1
  Al  Al5  1  0.500000  0.131746  0.917190  1
  B  B6  1  0.000000  0.110863  0.050030  1
  B  B7  1  0.000000  0.881901  0.955548  1
  B  B8  1  0.000000  0.384223  0.548141  1
  B  B9  1  0.000000  0.616634  0.451902  1
  B  B10  1  0.000000  0.130879  0.467075  1
  B  B11  1  0.000000  0.868727  0.532180  1
  B  B12  1  0.000000  0.364584  0.969380  1
  B  B13  1  0.000000  0.637107  0.031824  1
  B  B14  1  0.000000  0.019221  0.189376  1
  B  B15  1  0.000000  0.978583  0.808841  1
  B  B16  1  0.000000  0.472103  0.697239  1
  B  B17  1  0.000000  0.526481  0.303278  1
  B  B18  1  0.000000  0.209757  0.310297  1
  B  B19  1  0.000000  0.792309  0.690338  1
  B  B20  1  0.000000  0.284328  0.816609  1
  B  B21  1  0.000000  0.717640  0.180837  1
  Mo  Mo22  1  0.500000  0.370304  0.414034  1
  Mo  Mo23  1  0.500000  0.628776  0.586193  1
