# generated using pymatgen
data_U2AlGa2Si2Sn
_symmetry_space_group_name_H-M   'P 1'
_cell_length_a   4.32244300
_cell_length_b   4.27446800
_cell_length_c   8.28801400
_cell_angle_alpha   90.00000000
_cell_angle_beta   90.00000000
_cell_angle_gamma   90.00000000
_symmetry_Int_Tables_number   1
_chemical_formula_structural   U2AlGa2Si2Sn
_chemical_formula_sum   'U2 Al1 Ga2 Si2 Sn1'
_cell_volume   153.13054250
_cell_formula_units_Z   1
loop_
 _symmetry_equiv_pos_site_id
 _symmetry_equiv_pos_as_xyz
  1  'x, y, z'
loop_
 _atom_site_type_symbol
 _atom_site_label
 _atom_site_symmetry_multiplicity
 _atom_site_fract_x
 _atom_site_fract_y
 _atom_site_fract_z
 _atom_site_occupancy
  U  U0  1  0.000000  0.000000  0.225571  1
  U  U1  1  0.000000  0.000000  0.774366  1
  Al  Al2  1  0.500000  0.500000  0.771668  1
  Ga  Ga3  1  0.500000  0.500000  0.229558  1
  Ga  Ga4  1  0.000000  0.500000  0.502656  1
  Si  Si5  1  0.000000  0.500000  0.997124  1
  Si  Si6  1  0.500000  0.000000  0.997253  1
  Sn  Sn7  1  0.500000  0.000000  0.501803  1
