# generated using pymatgen
data_Yb9DyPb6F2
_symmetry_space_group_name_H-M   'P 1'
_cell_length_a   9.39478598
_cell_length_b   9.39478577
_cell_length_c   9.39478605
_cell_angle_alpha   128.00957066
_cell_angle_beta   128.00957865
_cell_angle_gamma   76.60952237
_symmetry_Int_Tables_number   1
_chemical_formula_structural   Yb9DyPb6F2
_chemical_formula_sum   'Yb9 Dy1 Pb6 F2'
_cell_volume   500.00365553
_cell_formula_units_Z   1
loop_
 _symmetry_equiv_pos_site_id
 _symmetry_equiv_pos_as_xyz
  1  'x, y, z'
loop_
 _atom_site_type_symbol
 _atom_site_label
 _atom_site_symmetry_multiplicity
 _atom_site_fract_x
 _atom_site_fract_y
 _atom_site_fract_z
 _atom_site_occupancy
  Yb  Yb0  1  0.000000  0.000000  0.000000  1
  Yb  Yb1  1  0.502761  0.002593  0.812641  1
  Yb  Yb2  1  0.189953  0.690120  0.187359  1
  Yb  Yb3  1  0.002593  0.189953  0.499832  1
  Yb  Yb4  1  0.690120  0.502761  0.500168  1
  Yb  Yb5  1  0.497239  0.997407  0.187359  1
  Yb  Yb6  1  0.810047  0.309880  0.812641  1
  Yb  Yb7  1  0.997407  0.810047  0.500168  1
  Yb  Yb8  1  0.309880  0.497239  0.499832  1
  Dy  Dy9  1  0.500000  0.500000  0.000000  1
  Pb  Pb10  1  0.251004  0.251004  0.000000  1
  Pb  Pb11  1  0.748996  0.748996  0.000000  1
  Pb  Pb12  1  0.862820  0.366303  0.229123  1
  Pb  Pb13  1  0.137180  0.633697  0.770878  1
  Pb  Pb14  1  0.366303  0.137180  0.503483  1
  Pb  Pb15  1  0.633697  0.862820  0.496517  1
  F  F16  1  0.250000  0.750000  0.500000  1
  F  F17  1  0.750000  0.250000  0.500000  1
