# generated using pymatgen
data_Yb11Th(AgGe)12
_symmetry_space_group_name_H-M   'P 1'
_cell_length_a   4.57507300
_cell_length_b   7.87498591
_cell_length_c   21.42572062
_cell_angle_alpha   90.22954257
_cell_angle_beta   90.00000000
_cell_angle_gamma   90.00000000
_symmetry_Int_Tables_number   1
_chemical_formula_structural   Yb11Th(AgGe)12
_chemical_formula_sum   'Yb11 Th1 Ag12 Ge12'
_cell_volume   771.93328112
_cell_formula_units_Z   1
loop_
 _symmetry_equiv_pos_site_id
 _symmetry_equiv_pos_as_xyz
  1  'x, y, z'
loop_
 _atom_site_type_symbol
 _atom_site_label
 _atom_site_symmetry_multiplicity
 _atom_site_fract_x
 _atom_site_fract_y
 _atom_site_fract_z
 _atom_site_occupancy
  Yb  Yb0  1  0.250000  0.223941  0.002673  1
  Yb  Yb1  1  0.250000  0.276880  0.499457  1
  Yb  Yb2  1  0.750000  0.771747  0.002619  1
  Yb  Yb3  1  0.750000  0.722255  0.499395  1
  Yb  Yb4  1  0.250000  0.211034  0.334063  1
  Yb  Yb5  1  0.250000  0.280285  0.833263  1
  Yb  Yb6  1  0.750000  0.787410  0.663498  1
  Yb  Yb7  1  0.750000  0.710803  0.167056  1
  Yb  Yb8  1  0.250000  0.217071  0.664243  1
  Yb  Yb9  1  0.250000  0.285353  0.167982  1
  Yb  Yb10  1  0.750000  0.786605  0.333591  1
  Th  Th11  1  0.750000  0.714460  0.833220  1
  Ag  Ag12  1  0.250000  0.918593  0.758476  1
  Ag  Ag13  1  0.250000  0.586185  0.261665  1
  Ag  Ag14  1  0.750000  0.086056  0.238804  1
  Ag  Ag15  1  0.750000  0.408091  0.736590  1
  Ag  Ag16  1  0.250000  0.924596  0.909586  1
  Ag  Ag17  1  0.250000  0.581194  0.406052  1
  Ag  Ag18  1  0.750000  0.081193  0.094435  1
  Ag  Ag19  1  0.750000  0.419951  0.593080  1
  Ag  Ag20  1  0.250000  0.917160  0.564590  1
  Ag  Ag21  1  0.250000  0.581774  0.071428  1
  Ag  Ag22  1  0.750000  0.082960  0.433617  1
  Ag  Ag23  1  0.750000  0.416018  0.940735  1
  Ge  Ge24  1  0.250000  0.584400  0.730537  1
  Ge  Ge25  1  0.250000  0.916664  0.227747  1
  Ge  Ge26  1  0.750000  0.417180  0.271918  1
  Ge  Ge27  1  0.750000  0.084191  0.769146  1
  Ge  Ge28  1  0.250000  0.912885  0.101741  1
  Ge  Ge29  1  0.250000  0.588889  0.602930  1
  Ge  Ge30  1  0.750000  0.090303  0.898320  1
  Ge  Ge31  1  0.750000  0.412607  0.397653  1
  Ge  Ge32  1  0.250000  0.588482  0.914933  1
  Ge  Ge33  1  0.250000  0.910330  0.427525  1
  Ge  Ge34  1  0.750000  0.410859  0.073101  1
  Ge  Ge35  1  0.750000  0.091594  0.574330  1
