# generated using pymatgen
data_Np2H2BrCl3
_symmetry_space_group_name_H-M   'P 1'
_cell_length_a   3.90636800
_cell_length_b   3.90636670
_cell_length_c   14.59445900
_cell_angle_alpha   90.00000000
_cell_angle_beta   90.00000000
_cell_angle_gamma   119.99999408
_symmetry_Int_Tables_number   1
_chemical_formula_structural   Np2H2BrCl3
_chemical_formula_sum   'Np2 H2 Br1 Cl3'
_cell_volume   192.87006247
_cell_formula_units_Z   1
loop_
 _symmetry_equiv_pos_site_id
 _symmetry_equiv_pos_as_xyz
  1  'x, y, z'
loop_
 _atom_site_type_symbol
 _atom_site_label
 _atom_site_symmetry_multiplicity
 _atom_site_fract_x
 _atom_site_fract_y
 _atom_site_fract_z
 _atom_site_occupancy
  Np  Np0  1  0.000000  0.000000  0.244477  1
  Np  Np1  1  0.000000  0.000000  0.750913  1
  H  H2  1  0.333333  0.666667  0.749536  1
  H  H3  1  0.666667  0.333333  0.248178  1
  Br  Br4  1  0.333333  0.666667  0.380412  1
  Cl  Cl5  1  0.333333  0.666667  0.123608  1
  Cl  Cl6  1  0.666667  0.333333  0.872401  1
  Cl  Cl7  1  0.666667  0.333333  0.630475  1
