# generated using pymatgen
data_ScCoBr18
_symmetry_space_group_name_H-M   'P 1'
_cell_length_a   9.04132166
_cell_length_b   9.07155864
_cell_length_c   9.02657640
_cell_angle_alpha   92.98335962
_cell_angle_beta   93.06243666
_cell_angle_gamma   92.92783360
_symmetry_Int_Tables_number   1
_chemical_formula_structural   ScCoBr18
_chemical_formula_sum   'Sc1 Co1 Br18'
_cell_volume   737.21286272
_cell_formula_units_Z   1
loop_
 _symmetry_equiv_pos_site_id
 _symmetry_equiv_pos_as_xyz
  1  'x, y, z'
loop_
 _atom_site_type_symbol
 _atom_site_label
 _atom_site_symmetry_multiplicity
 _atom_site_fract_x
 _atom_site_fract_y
 _atom_site_fract_z
 _atom_site_occupancy
  Sc  Sc0  1  0.500000  0.500000  0.500000  1
  Co  Co1  1  0.000000  0.000000  0.000000  1
  Br  Br2  1  0.793018  0.477425  0.528718  1
  Br  Br3  1  0.528407  0.791964  0.476926  1
  Br  Br4  1  0.477875  0.529317  0.793404  1
  Br  Br5  1  0.206982  0.522575  0.471282  1
  Br  Br6  1  0.471593  0.208036  0.523074  1
  Br  Br7  1  0.522125  0.470683  0.206596  1
  Br  Br8  1  0.901808  0.363533  0.766905  1
  Br  Br9  1  0.766376  0.900563  0.363786  1
  Br  Br10  1  0.364011  0.766599  0.901815  1
  Br  Br11  1  0.098192  0.636467  0.233095  1
  Br  Br12  1  0.233624  0.099437  0.636214  1
  Br  Br13  1  0.635989  0.233401  0.098185  1
  Br  Br14  1  0.004535  0.969695  0.733167  1
  Br  Br15  1  0.733502  0.004821  0.968682  1
  Br  Br16  1  0.968589  0.734529  0.003714  1
  Br  Br17  1  0.995465  0.030305  0.266833  1
  Br  Br18  1  0.266498  0.995179  0.031318  1
  Br  Br19  1  0.031411  0.265471  0.996286  1
