# generated using pymatgen
data_CaNd17(TmGa6)2
_symmetry_space_group_name_H-M   'P 1'
_cell_length_a   7.83706100
_cell_length_b   7.83706100
_cell_length_c   14.71254900
_cell_angle_alpha   90.00000000
_cell_angle_beta   90.00000000
_cell_angle_gamma   90.00000000
_symmetry_Int_Tables_number   1
_chemical_formula_structural   CaNd17(TmGa6)2
_chemical_formula_sum   'Ca1 Nd17 Tm2 Ga12'
_cell_volume   903.63777285
_cell_formula_units_Z   1
loop_
 _symmetry_equiv_pos_site_id
 _symmetry_equiv_pos_as_xyz
  1  'x, y, z'
loop_
 _atom_site_type_symbol
 _atom_site_label
 _atom_site_symmetry_multiplicity
 _atom_site_fract_x
 _atom_site_fract_y
 _atom_site_fract_z
 _atom_site_occupancy
  Ca  Ca0  1  0.500000  0.000000  0.234721  1
  Nd  Nd1  1  0.000000  0.500000  0.786396  1
  Nd  Nd2  1  0.684582  0.660294  0.603792  1
  Nd  Nd3  1  0.682003  0.337517  0.102645  1
  Nd  Nd4  1  0.819699  0.838010  0.397230  1
  Nd  Nd5  1  0.185936  0.842791  0.895501  1
  Nd  Nd6  1  0.315418  0.339706  0.603792  1
  Nd  Nd7  1  0.317997  0.662483  0.102645  1
  Nd  Nd8  1  0.180301  0.161990  0.397230  1
  Nd  Nd9  1  0.814064  0.157209  0.895501  1
  Nd  Nd10  1  0.661990  0.319699  0.397230  1
  Nd  Nd11  1  0.342791  0.314064  0.895501  1
  Nd  Nd12  1  0.160294  0.815418  0.603792  1
  Nd  Nd13  1  0.837517  0.817997  0.102645  1
  Nd  Nd14  1  0.338010  0.680301  0.397230  1
  Nd  Nd15  1  0.657209  0.685936  0.895501  1
  Nd  Nd16  1  0.839706  0.184582  0.603792  1
  Nd  Nd17  1  0.162483  0.182003  0.102645  1
  Tm  Tm18  1  0.000000  0.500000  0.270927  1
  Tm  Tm19  1  0.500000  0.000000  0.722689  1
  Ga  Ga20  1  0.000000  0.500000  0.484468  1
  Ga  Ga21  1  0.000000  0.500000  0.996184  1
  Ga  Ga22  1  0.500000  0.000000  0.509683  1
  Ga  Ga23  1  0.500000  0.000000  0.007530  1
  Ga  Ga24  1  0.875647  0.882491  0.748341  1
  Ga  Ga25  1  0.884598  0.124812  0.249342  1
  Ga  Ga26  1  0.624812  0.615402  0.249342  1
  Ga  Ga27  1  0.382491  0.624353  0.748341  1
  Ga  Ga28  1  0.124353  0.117509  0.748341  1
  Ga  Ga29  1  0.115402  0.875188  0.249342  1
  Ga  Ga30  1  0.375188  0.384598  0.249342  1
  Ga  Ga31  1  0.617509  0.375647  0.748341  1
