# generated using pymatgen
data_Ho8Ga(CuPd11)2
_symmetry_space_group_name_H-M   'P 1'
_cell_length_a   8.39060400
_cell_length_b   8.29743305
_cell_length_c   8.35195100
_cell_angle_alpha   90.00655998
_cell_angle_beta   90.00000000
_cell_angle_gamma   90.00000000
_symmetry_Int_Tables_number   1
_chemical_formula_structural   Ho8Ga(CuPd11)2
_chemical_formula_sum   'Ho8 Ga1 Cu2 Pd22'
_cell_volume   581.46679178
_cell_formula_units_Z   1
loop_
 _symmetry_equiv_pos_site_id
 _symmetry_equiv_pos_as_xyz
  1  'x, y, z'
loop_
 _atom_site_type_symbol
 _atom_site_label
 _atom_site_symmetry_multiplicity
 _atom_site_fract_x
 _atom_site_fract_y
 _atom_site_fract_z
 _atom_site_occupancy
  Ho  Ho0  1  0.253560  0.249928  0.744089  1
  Ho  Ho1  1  0.251743  0.747540  0.251253  1
  Ho  Ho2  1  0.751409  0.252463  0.256163  1
  Ho  Ho3  1  0.743453  0.750217  0.748942  1
  Ho  Ho4  1  0.748257  0.747540  0.251253  1
  Ho  Ho5  1  0.746440  0.249928  0.744089  1
  Ho  Ho6  1  0.256547  0.750217  0.748942  1
  Ho  Ho7  1  0.248591  0.252463  0.256163  1
  Ga  Ga8  1  0.000000  0.996048  0.003722  1
  Cu  Cu9  1  0.000000  0.500074  0.732986  1
  Cu  Cu10  1  0.500000  0.264136  0.001526  1
  Pd  Pd11  1  0.500000  0.496092  0.749158  1
  Pd  Pd12  1  0.500000  0.253560  0.499026  1
  Pd  Pd13  1  0.252688  0.500904  0.503830  1
  Pd  Pd14  1  0.500000  0.495824  0.250944  1
  Pd  Pd15  1  0.500000  0.745876  0.499024  1
  Pd  Pd16  1  0.747312  0.500904  0.503830  1
  Pd  Pd17  1  0.000000  0.999059  0.711549  1
  Pd  Pd18  1  0.000000  0.294061  0.988685  1
  Pd  Pd19  1  0.293262  0.011168  0.000901  1
  Pd  Pd20  1  0.000000  0.999017  0.295437  1
  Pd  Pd21  1  0.000000  0.698938  0.987884  1
  Pd  Pd22  1  0.706738  0.011168  0.000901  1
  Pd  Pd23  1  0.260700  0.998585  0.500165  1
  Pd  Pd24  1  0.000000  0.263844  0.506348  1
  Pd  Pd25  1  0.500000  0.002737  0.740961  1
  Pd  Pd26  1  0.265712  0.493672  0.998196  1
  Pd  Pd27  1  0.000000  0.500188  0.257773  1
  Pd  Pd28  1  0.500000  0.743348  0.001540  1
  Pd  Pd29  1  0.000000  0.735564  0.506539  1
  Pd  Pd30  1  0.500000  0.002678  0.259822  1
  Pd  Pd31  1  0.739300  0.998585  0.500165  1
  Pd  Pd32  1  0.734288  0.493672  0.998196  1
