# generated using pymatgen
data_Lu3CoSn3PtRh
_symmetry_space_group_name_H-M   'P 1'
_cell_length_a   7.62845200
_cell_length_b   7.62845131
_cell_length_c   3.58499200
_cell_angle_alpha   90.00000000
_cell_angle_beta   90.00000000
_cell_angle_gamma   119.99999433
_symmetry_Int_Tables_number   1
_chemical_formula_structural   Lu3CoSn3PtRh
_chemical_formula_sum   'Lu3 Co1 Sn3 Pt1 Rh1'
_cell_volume   180.67232928
_cell_formula_units_Z   1
loop_
 _symmetry_equiv_pos_site_id
 _symmetry_equiv_pos_as_xyz
  1  'x, y, z'
loop_
 _atom_site_type_symbol
 _atom_site_label
 _atom_site_symmetry_multiplicity
 _atom_site_fract_x
 _atom_site_fract_y
 _atom_site_fract_z
 _atom_site_occupancy
  Lu  Lu0  1  0.398475  0.402239  0.500000  1
  Lu  Lu1  1  0.597761  0.996236  0.500000  1
  Lu  Lu2  1  0.003764  0.601525  0.500000  1
  Co  Co3  1  0.000000  0.000000  0.500000  1
  Sn  Sn4  1  0.740329  0.744173  0.000000  1
  Sn  Sn5  1  0.255827  0.996156  0.000000  1
  Sn  Sn6  1  0.003844  0.259671  0.000000  1
  Pt  Pt7  1  0.666667  0.333333  0.000000  1
  Rh  Rh8  1  0.333333  0.666667  0.000000  1
