# generated using pymatgen
data_Dy15Ho5(Ir3Pt)3
_symmetry_space_group_name_H-M   'P 1'
_cell_length_a   10.95352890
_cell_length_b   10.95340498
_cell_length_c   6.33315201
_cell_angle_alpha   89.98259081
_cell_angle_beta   89.97874117
_cell_angle_gamma   90.20227013
_symmetry_Int_Tables_number   1
_chemical_formula_structural   Dy15Ho5(Ir3Pt)3
_chemical_formula_sum   'Dy15 Ho5 Ir9 Pt3'
_cell_volume   759.83686265
_cell_formula_units_Z   1
loop_
 _symmetry_equiv_pos_site_id
 _symmetry_equiv_pos_as_xyz
  1  'x, y, z'
loop_
 _atom_site_type_symbol
 _atom_site_label
 _atom_site_symmetry_multiplicity
 _atom_site_fract_x
 _atom_site_fract_y
 _atom_site_fract_z
 _atom_site_occupancy
  Dy  Dy0  1  0.293476  0.086909  0.371764  1
  Dy  Dy1  1  0.292787  0.908603  0.876843  1
  Dy  Dy2  1  0.705498  0.089986  0.873826  1
  Dy  Dy3  1  0.704633  0.909890  0.373286  1
  Dy  Dy4  1  0.585164  0.790800  0.878265  1
  Dy  Dy5  1  0.585541  0.209214  0.378212  1
  Dy  Dy6  1  0.410846  0.791045  0.378080  1
  Dy  Dy7  1  0.414179  0.209252  0.878173  1
  Dy  Dy8  1  0.209156  0.414766  0.621705  1
  Dy  Dy9  1  0.208925  0.589050  0.121947  1
  Dy  Dy10  1  0.790863  0.414437  0.121796  1
  Dy  Dy11  1  0.790763  0.585808  0.621844  1
  Dy  Dy12  1  0.913156  0.706475  0.128192  1
  Dy  Dy13  1  0.910090  0.294505  0.626151  1
  Dy  Dy14  1  0.091401  0.707233  0.623133  1
  Ho  Ho15  1  0.090086  0.295553  0.126600  1
  Ho  Ho16  1  0.001242  0.998095  0.499509  1
  Ho  Ho17  1  0.001963  0.998853  0.000515  1
  Ho  Ho18  1  0.499744  0.499885  0.000416  1
  Ho  Ho19  1  0.500099  0.500244  0.499596  1
  Ir  Ir20  1  0.152131  0.847865  0.250000  1
  Ir  Ir21  1  0.654285  0.345721  0.750008  1
  Ir  Ir22  1  0.654681  0.654313  0.249594  1
  Ir  Ir23  1  0.345508  0.345281  0.250325  1
  Ir  Ir24  1  0.346570  0.653411  0.750008  1
  Ir  Ir25  1  0.500453  0.000067  0.122414  1
  Ir  Ir26  1  0.500279  0.000287  0.623617  1
  Ir  Ir27  1  0.999775  0.499578  0.876505  1
  Ir  Ir28  1  0.999992  0.499400  0.377447  1
  Pt  Pt29  1  0.847253  0.152896  0.249934  1
  Pt  Pt30  1  0.845909  0.846363  0.749887  1
  Pt  Pt31  1  0.153553  0.154214  0.750406  1
