# generated using pymatgen
data_Nd11Y9(Bi2Os)4
_symmetry_space_group_name_H-M   'P 1'
_cell_length_a   8.20106800
_cell_length_b   9.20906500
_cell_length_c   12.77313800
_cell_angle_alpha   90.00000000
_cell_angle_beta   89.99927342
_cell_angle_gamma   90.00000000
_symmetry_Int_Tables_number   1
_chemical_formula_structural   Nd11Y9(Bi2Os)4
_chemical_formula_sum   'Nd11 Y9 Bi8 Os4'
_cell_volume   964.68062379
_cell_formula_units_Z   1
loop_
 _symmetry_equiv_pos_site_id
 _symmetry_equiv_pos_as_xyz
  1  'x, y, z'
loop_
 _atom_site_type_symbol
 _atom_site_label
 _atom_site_symmetry_multiplicity
 _atom_site_fract_x
 _atom_site_fract_y
 _atom_site_fract_z
 _atom_site_occupancy
  Nd  Nd0  1  0.847632  0.750000  0.793764  1
  Nd  Nd1  1  0.153479  0.250000  0.206728  1
  Nd  Nd2  1  0.348569  0.250001  0.708552  1
  Nd  Nd3  1  0.653315  0.750001  0.291421  1
  Nd  Nd4  1  0.379054  0.750000  0.689080  1
  Nd  Nd5  1  0.621101  0.250000  0.310482  1
  Nd  Nd6  1  0.878013  0.250002  0.812052  1
  Nd  Nd7  1  0.120792  0.749999  0.187774  1
  Nd  Nd8  1  0.936740  0.750001  0.503541  1
  Nd  Nd9  1  0.062963  0.250000  0.496846  1
  Nd  Nd10  1  0.436751  0.250001  0.996621  1
  Y  Y11  1  0.561527  0.750000  0.003352  1
  Y  Y12  1  0.671406  0.040288  0.568811  1
  Y  Y13  1  0.329167  0.960633  0.431621  1
  Y  Y14  1  0.172058  0.959646  0.931636  1
  Y  Y15  1  0.329168  0.539366  0.431622  1
  Y  Y16  1  0.827028  0.038341  0.067699  1
  Y  Y17  1  0.671405  0.459711  0.568809  1
  Y  Y18  1  0.827025  0.461659  0.067700  1
  Y  Y19  1  0.172061  0.540356  0.931635  1
  Bi  Bi20  1  0.567855  0.497735  0.831392  1
  Bi  Bi21  1  0.432786  0.507835  0.169135  1
  Bi  Bi22  1  0.068835  0.505417  0.672130  1
  Bi  Bi23  1  0.432786  0.992166  0.169135  1
  Bi  Bi24  1  0.932019  0.494873  0.327822  1
  Bi  Bi25  1  0.567856  0.002264  0.831392  1
  Bi  Bi26  1  0.932020  0.005127  0.327822  1
  Bi  Bi27  1  0.068835  0.994583  0.672130  1
  Os  Os28  1  0.572066  0.749998  0.507408  1
  Os  Os29  1  0.427235  0.250002  0.492446  1
  Os  Os30  1  0.072637  0.250002  0.992410  1
  Os  Os31  1  0.925816  0.749993  0.007031  1
