# generated using pymatgen
data_Cs4Zr6OsBr18
_symmetry_space_group_name_H-M   'P 1'
_cell_length_a   11.04780433
_cell_length_b   11.39430179
_cell_length_c   11.48498985
_cell_angle_alpha   118.28854376
_cell_angle_beta   100.82347442
_cell_angle_gamma   104.10268459
_symmetry_Int_Tables_number   1
_chemical_formula_structural   Cs4Zr6OsBr18
_chemical_formula_sum   'Cs4 Zr6 Os1 Br18'
_cell_volume   1154.25661360
_cell_formula_units_Z   1
loop_
 _symmetry_equiv_pos_site_id
 _symmetry_equiv_pos_as_xyz
  1  'x, y, z'
loop_
 _atom_site_type_symbol
 _atom_site_label
 _atom_site_symmetry_multiplicity
 _atom_site_fract_x
 _atom_site_fract_y
 _atom_site_fract_z
 _atom_site_occupancy
  Cs  Cs0  1  0.662879  0.537705  0.229546  1
  Cs  Cs1  1  0.337121  0.462295  0.770454  1
  Cs  Cs2  1  0.697913  0.229891  0.566544  1
  Cs  Cs3  1  0.302087  0.770109  0.433456  1
  Zr  Zr4  1  0.156515  0.058301  0.234181  1
  Zr  Zr5  1  0.843485  0.941699  0.765819  1
  Zr  Zr6  1  0.857364  0.124494  0.130994  1
  Zr  Zr7  1  0.142636  0.875506  0.869006  1
  Zr  Zr8  1  0.150115  0.241797  0.046470  1
  Zr  Zr9  1  0.849885  0.758203  0.953530  1
  Os  Os10  1  0.000000  0.000000  0.000000  1
  Br  Br11  1  0.007687  0.390552  0.186972  1
  Br  Br12  1  0.992313  0.609448  0.813028  1
  Br  Br13  1  0.323298  0.321753  0.301292  1
  Br  Br14  1  0.676702  0.678247  0.698708  1
  Br  Br15  1  0.317750  0.504949  0.100023  1
  Br  Br16  1  0.682250  0.495051  0.899977  1
  Br  Br17  1  0.005831  0.805335  0.201753  1
  Br  Br18  1  0.994169  0.194665  0.798247  1
  Br  Br19  1  0.708645  0.260368  0.273712  1
  Br  Br20  1  0.291355  0.739632  0.726288  1
  Br  Br21  1  0.309181  0.124764  0.909623  1
  Br  Br22  1  0.690819  0.875236  0.090377  1
  Br  Br23  1  0.016475  0.195201  0.390353  1
  Br  Br24  1  0.983525  0.804799  0.609647  1
  Br  Br25  1  0.314891  0.929552  0.109665  1
  Br  Br26  1  0.685109  0.070448  0.890335  1
  Br  Br27  1  0.331217  0.121919  0.487750  1
  Br  Br28  1  0.668783  0.878081  0.512250  1
