# generated using pymatgen
data_Sm2Mn2Ni8P7W2
_symmetry_space_group_name_H-M   'P 1'
_cell_length_a   9.17585673
_cell_length_b   9.22967611
_cell_length_c   3.72326400
_cell_angle_alpha   90.00000000
_cell_angle_beta   90.00000000
_cell_angle_gamma   119.83810360
_symmetry_Int_Tables_number   1
_chemical_formula_structural   Sm2Mn2Ni8P7W2
_chemical_formula_sum   'Sm2 Mn2 Ni8 P7 W2'
_cell_volume   273.52292745
_cell_formula_units_Z   1
loop_
 _symmetry_equiv_pos_site_id
 _symmetry_equiv_pos_as_xyz
  1  'x, y, z'
loop_
 _atom_site_type_symbol
 _atom_site_label
 _atom_site_symmetry_multiplicity
 _atom_site_fract_x
 _atom_site_fract_y
 _atom_site_fract_z
 _atom_site_occupancy
  Sm  Sm0  1  0.665224  0.332730  0.000000  1
  Sm  Sm1  1  0.336025  0.668893  0.500000  1
  Mn  Mn2  1  0.118899  0.843595  0.500000  1
  Mn  Mn3  1  0.882212  0.779668  0.000000  1
  Ni  Ni4  1  0.431095  0.063583  0.500000  1
  Ni  Ni5  1  0.938029  0.369732  0.500000  1
  Ni  Ni6  1  0.632897  0.569126  0.500000  1
  Ni  Ni7  1  0.155123  0.283255  0.500000  1
  Ni  Ni8  1  0.723639  0.874814  0.500000  1
  Ni  Ni9  1  0.384338  0.438490  0.000000  1
  Ni  Ni10  1  0.560688  0.943912  0.000000  1
  Ni  Ni11  1  0.048817  0.613317  0.000000  1
  P  P12  1  0.115711  0.407570  0.000000  1
  P  P13  1  0.599466  0.707960  0.000000  1
  P  P14  1  0.286928  0.883254  0.000000  1
  P  P15  1  0.001079  0.997460  0.500000  1
  P  P16  1  0.409886  0.301221  0.500000  1
  P  P17  1  0.699544  0.108378  0.500000  1
  P  P18  1  0.891753  0.593333  0.500000  1
  W  W19  1  0.216181  0.101390  0.000000  1
  W  W20  1  0.902467  0.118320  0.000000  1
