# generated using pymatgen
data_Pr3SmFe2(CoO6)2
_symmetry_space_group_name_H-M   'P 1'
_cell_length_a   5.43519024
_cell_length_b   5.55892607
_cell_length_c   7.74017372
_cell_angle_alpha   90.00564889
_cell_angle_beta   89.79054961
_cell_angle_gamma   90.07005804
_symmetry_Int_Tables_number   1
_chemical_formula_structural   Pr3SmFe2(CoO6)2
_chemical_formula_sum   'Pr3 Sm1 Fe2 Co2 O12'
_cell_volume   233.85848270
_cell_formula_units_Z   1
loop_
 _symmetry_equiv_pos_site_id
 _symmetry_equiv_pos_as_xyz
  1  'x, y, z'
loop_
 _atom_site_type_symbol
 _atom_site_label
 _atom_site_symmetry_multiplicity
 _atom_site_fract_x
 _atom_site_fract_y
 _atom_site_fract_z
 _atom_site_occupancy
  Pr  Pr0  1  0.511619  0.549979  0.250314  1
  Pr  Pr1  1  0.989090  0.047846  0.249714  1
  Pr  Pr2  1  0.489234  0.450401  0.749712  1
  Sm  Sm3  1  0.012950  0.944901  0.750277  1
  Fe  Fe4  1  0.500298  0.999780  0.998052  1
  Fe  Fe5  1  0.999660  0.498825  0.501366  1
  Co  Co6  1  0.500586  0.000215  0.501590  1
  Co  Co7  1  0.999257  0.499737  0.998629  1
  O  O8  1  0.424339  0.986035  0.254059  1
  O  O9  1  0.076386  0.483703  0.246068  1
  O  O10  1  0.587758  0.015434  0.745740  1
  O  O11  1  0.923295  0.522971  0.754173  1
  O  O12  1  0.795091  0.786118  0.040252  1
  O  O13  1  0.703608  0.287454  0.459293  1
  O  O14  1  0.210553  0.202665  0.545769  1
  O  O15  1  0.283833  0.708598  0.957045  1
  O  O16  1  0.201574  0.210010  0.953758  1
  O  O17  1  0.292594  0.716220  0.543696  1
  O  O18  1  0.786161  0.794073  0.460366  1
  O  O19  1  0.712114  0.295036  0.040128  1
