# generated using pymatgen
data_DyCo4As3Ru
_symmetry_space_group_name_H-M   'P 1'
_cell_length_a   3.82064300
_cell_length_b   10.78365200
_cell_length_c   12.24719600
_cell_angle_alpha   90.00000000
_cell_angle_beta   90.00000000
_cell_angle_gamma   90.00000000
_symmetry_Int_Tables_number   1
_chemical_formula_structural   DyCo4As3Ru
_chemical_formula_sum   'Dy4 Co16 As12 Ru4'
_cell_volume   504.59040931
_cell_formula_units_Z   4
loop_
 _symmetry_equiv_pos_site_id
 _symmetry_equiv_pos_as_xyz
  1  'x, y, z'
loop_
 _atom_site_type_symbol
 _atom_site_label
 _atom_site_symmetry_multiplicity
 _atom_site_fract_x
 _atom_site_fract_y
 _atom_site_fract_z
 _atom_site_occupancy
  Dy  Dy0  1  0.250000  0.582696  0.703418  1
  Dy  Dy1  1  0.250000  0.917304  0.203418  1
  Dy  Dy2  1  0.750000  0.417304  0.296582  1
  Dy  Dy3  1  0.750000  0.082696  0.796582  1
  Co  Co4  1  0.250000  0.407245  0.488040  1
  Co  Co5  1  0.250000  0.092755  0.988040  1
  Co  Co6  1  0.750000  0.592755  0.511960  1
  Co  Co7  1  0.750000  0.907245  0.011960  1
  Co  Co8  1  0.250000  0.217422  0.176174  1
  Co  Co9  1  0.250000  0.282578  0.676174  1
  Co  Co10  1  0.750000  0.782578  0.823826  1
  Co  Co11  1  0.750000  0.717422  0.323826  1
  Co  Co12  1  0.250000  0.884510  0.699904  1
  Co  Co13  1  0.250000  0.615490  0.199904  1
  Co  Co14  1  0.750000  0.115490  0.300096  1
  Co  Co15  1  0.750000  0.384510  0.800096  1
  Co  Co16  1  0.250000  0.465097  0.931342  1
  Co  Co17  1  0.250000  0.034903  0.431342  1
  Co  Co18  1  0.750000  0.534903  0.068658  1
  Co  Co19  1  0.750000  0.965097  0.568658  1
  As  As20  1  0.250000  0.418274  0.114326  1
  As  As21  1  0.250000  0.081726  0.614326  1
  As  As22  1  0.750000  0.581726  0.885674  1
  As  As23  1  0.750000  0.918274  0.385674  1
  As  As24  1  0.250000  0.267875  0.867065  1
  As  As25  1  0.250000  0.232125  0.367065  1
  As  As26  1  0.750000  0.732125  0.132935  1
  As  As27  1  0.750000  0.767875  0.632935  1
  As  As28  1  0.250000  0.596518  0.389963  1
  As  As29  1  0.250000  0.903482  0.889963  1
  As  As30  1  0.750000  0.403482  0.610037  1
  As  As31  1  0.750000  0.096518  0.110037  1
  Ru  Ru32  1  0.250000  0.710057  0.990087  1
  Ru  Ru33  1  0.250000  0.789943  0.490087  1
  Ru  Ru34  1  0.750000  0.289943  0.009913  1
  Ru  Ru35  1  0.750000  0.210057  0.509913  1
