# generated using pymatgen
data_Yb2BeN2
_symmetry_space_group_name_H-M   'P 1'
_cell_length_a   5.76280070
_cell_length_b   5.76279972
_cell_length_c   7.39234955
_cell_angle_alpha   126.79910224
_cell_angle_beta   126.79909482
_cell_angle_gamma   49.12320118
_symmetry_Int_Tables_number   1
_chemical_formula_structural   Yb2BeN2
_chemical_formula_sum   'Yb4 Be2 N4'
_cell_volume   139.68172875
_cell_formula_units_Z   2
loop_
 _symmetry_equiv_pos_site_id
 _symmetry_equiv_pos_as_xyz
  1  'x, y, z'
loop_
 _atom_site_type_symbol
 _atom_site_label
 _atom_site_symmetry_multiplicity
 _atom_site_fract_x
 _atom_site_fract_y
 _atom_site_fract_z
 _atom_site_occupancy
  Yb  Yb0  1  0.901901  0.901901  0.193635  1
  Yb  Yb1  1  0.334193  0.334193  0.463171  1
  Yb  Yb2  1  0.665806  0.665806  0.536828  1
  Yb  Yb3  1  0.098098  0.098098  0.806364  1
  Be  Be4  1  0.622065  0.622065  0.151278  1
  Be  Be5  1  0.377935  0.377935  0.848722  1
  N  N6  1  0.441877  0.441877  0.123987  1
  N  N7  1  0.814301  0.814301  0.409913  1
  N  N8  1  0.185699  0.185699  0.590088  1
  N  N9  1  0.558123  0.558123  0.876015  1
