# generated using pymatgen
data_Dy4HgIr
_symmetry_space_group_name_H-M   'P 1'
_cell_length_a   9.60466312
_cell_length_b   9.60466355
_cell_length_c   9.60466300
_cell_angle_alpha   59.99999844
_cell_angle_beta   59.99999696
_cell_angle_gamma   60.00000144
_symmetry_Int_Tables_number   1
_chemical_formula_structural   Dy4HgIr
_chemical_formula_sum   'Dy16 Hg4 Ir4'
_cell_volume   626.51491705
_cell_formula_units_Z   4
loop_
 _symmetry_equiv_pos_site_id
 _symmetry_equiv_pos_as_xyz
  1  'x, y, z'
loop_
 _atom_site_type_symbol
 _atom_site_label
 _atom_site_symmetry_multiplicity
 _atom_site_fract_x
 _atom_site_fract_y
 _atom_site_fract_z
 _atom_site_occupancy
  Dy  Dy0  1  0.600616  0.600616  0.600616  1
  Dy  Dy1  1  0.600616  0.600616  0.198151  1
  Dy  Dy2  1  0.600616  0.198151  0.600616  1
  Dy  Dy3  1  0.198151  0.600616  0.600616  1
  Dy  Dy4  1  0.059120  0.440880  0.440880  1
  Dy  Dy5  1  0.440880  0.059120  0.059120  1
  Dy  Dy6  1  0.440880  0.059120  0.440880  1
  Dy  Dy7  1  0.059120  0.440880  0.059120  1
  Dy  Dy8  1  0.440880  0.440880  0.059120  1
  Dy  Dy9  1  0.059120  0.059120  0.440880  1
  Dy  Dy10  1  0.188669  0.811331  0.811331  1
  Dy  Dy11  1  0.811331  0.188669  0.188669  1
  Dy  Dy12  1  0.811331  0.188669  0.811331  1
  Dy  Dy13  1  0.188669  0.811331  0.188669  1
  Dy  Dy14  1  0.811331  0.811331  0.188669  1
  Dy  Dy15  1  0.188669  0.188669  0.811331  1
  Hg  Hg16  1  0.835502  0.835502  0.835502  1
  Hg  Hg17  1  0.835502  0.835502  0.493495  1
  Hg  Hg18  1  0.835502  0.493495  0.835502  1
  Hg  Hg19  1  0.493495  0.835502  0.835502  1
  Ir  Ir20  1  0.391661  0.391661  0.391661  1
  Ir  Ir21  1  0.391661  0.391661  0.825019  1
  Ir  Ir22  1  0.391661  0.825019  0.391661  1
  Ir  Ir23  1  0.825019  0.391661  0.391661  1
