# generated using pymatgen
data_Mn28Re
_symmetry_space_group_name_H-M   'P 1'
_cell_length_a   7.48490748
_cell_length_b   7.48500001
_cell_length_c   7.48489800
_cell_angle_alpha   109.47057944
_cell_angle_beta   109.47058025
_cell_angle_gamma   109.47130589
_symmetry_Int_Tables_number   1
_chemical_formula_structural   Mn28Re
_chemical_formula_sum   'Mn28 Re1'
_cell_volume   322.81124106
_cell_formula_units_Z   1
loop_
 _symmetry_equiv_pos_site_id
 _symmetry_equiv_pos_as_xyz
  1  'x, y, z'
loop_
 _atom_site_type_symbol
 _atom_site_label
 _atom_site_symmetry_multiplicity
 _atom_site_fract_x
 _atom_site_fract_y
 _atom_site_fract_z
 _atom_site_occupancy
  Mn  Mn0  1  0.635406  0.000079  0.000015  1
  Mn  Mn1  1  0.999906  0.635287  0.000016  1
  Mn  Mn2  1  0.000026  0.999963  0.635313  1
  Mn  Mn3  1  0.364707  0.364665  0.364725  1
  Mn  Mn4  1  0.391695  0.679775  0.000007  1
  Mn  Mn5  1  0.711873  0.320297  0.320222  1
  Mn  Mn6  1  0.391753  0.000100  0.679784  1
  Mn  Mn7  1  0.679707  0.391620  0.999955  1
  Mn  Mn8  1  0.999892  0.391635  0.679655  1
  Mn  Mn9  1  0.320221  0.711914  0.320305  1
  Mn  Mn10  1  0.320387  0.320281  0.711913  1
  Mn  Mn11  1  0.999929  0.679647  0.391546  1
  Mn  Mn12  1  0.679702  0.000037  0.391668  1
  Mn  Mn13  1  0.608406  0.608292  0.288046  1
  Mn  Mn14  1  0.288061  0.608343  0.608306  1
  Mn  Mn15  1  0.608391  0.288145  0.608460  1
  Mn  Mn16  1  0.374458  0.194611  0.000048  1
  Mn  Mn17  1  0.179714  0.805448  0.805428  1
  Mn  Mn18  1  0.374288  0.000061  0.194590  1
  Mn  Mn19  1  0.194577  0.374269  0.000048  1
  Mn  Mn20  1  0.999908  0.374301  0.194553  1
  Mn  Mn21  1  0.805319  0.179794  0.805475  1
  Mn  Mn22  1  0.805440  0.805359  0.179697  1
  Mn  Mn23  1  0.000013  0.194569  0.374256  1
  Mn  Mn24  1  0.194603  0.000000  0.374301  1
  Mn  Mn25  1  0.625744  0.625633  0.820277  1
  Mn  Mn26  1  0.820233  0.625626  0.625692  1
  Mn  Mn27  1  0.625677  0.820268  0.625721  1
  Re  Re28  1  0.999963  0.999982  0.999976  1
