# generated using pymatgen
data_Nd2HoEr(AsPt)4
_symmetry_space_group_name_H-M   'P 1'
_cell_length_a   4.29810500
_cell_length_b   4.29810515
_cell_length_c   15.83923300
_cell_angle_alpha   90.00000000
_cell_angle_beta   90.00000000
_cell_angle_gamma   120.00000656
_symmetry_Int_Tables_number   1
_chemical_formula_structural   Nd2HoEr(AsPt)4
_chemical_formula_sum   'Nd2 Ho1 Er1 As4 Pt4'
_cell_volume   253.40711644
_cell_formula_units_Z   1
loop_
 _symmetry_equiv_pos_site_id
 _symmetry_equiv_pos_as_xyz
  1  'x, y, z'
loop_
 _atom_site_type_symbol
 _atom_site_label
 _atom_site_symmetry_multiplicity
 _atom_site_fract_x
 _atom_site_fract_y
 _atom_site_fract_z
 _atom_site_occupancy
  Nd  Nd0  1  0.000000  0.000000  0.500034  1
  Nd  Nd1  1  0.000000  0.000000  0.999968  1
  Ho  Ho2  1  0.000000  0.000000  0.249996  1
  Er  Er3  1  0.000000  0.000000  0.750015  1
  As  As4  1  0.333333  0.666667  0.880808  1
  As  As5  1  0.666667  0.333333  0.118986  1
  As  As6  1  0.666667  0.333333  0.381007  1
  As  As7  1  0.333333  0.666667  0.619191  1
  Pt  Pt8  1  0.333333  0.666667  0.358912  1
  Pt  Pt9  1  0.666667  0.333333  0.641408  1
  Pt  Pt10  1  0.666667  0.333333  0.858596  1
  Pt  Pt11  1  0.333333  0.666667  0.141080  1
