# generated using pymatgen
data_Tb8CdHgIr2
_symmetry_space_group_name_H-M   'P 1'
_cell_length_a   9.66175437
_cell_length_b   9.66175367
_cell_length_c   9.66460300
_cell_angle_alpha   59.99024062
_cell_angle_beta   59.99024302
_cell_angle_gamma   60.03817267
_symmetry_Int_Tables_number   1
_chemical_formula_structural   Tb8CdHgIr2
_chemical_formula_sum   'Tb16 Cd2 Hg2 Ir4'
_cell_volume   638.03132026
_cell_formula_units_Z   2
loop_
 _symmetry_equiv_pos_site_id
 _symmetry_equiv_pos_as_xyz
  1  'x, y, z'
loop_
 _atom_site_type_symbol
 _atom_site_label
 _atom_site_symmetry_multiplicity
 _atom_site_fract_x
 _atom_site_fract_y
 _atom_site_fract_z
 _atom_site_occupancy
  Tb  Tb0  1  0.599720  0.599720  0.597933  1
  Tb  Tb1  1  0.599720  0.599720  0.202629  1
  Tb  Tb2  1  0.601393  0.199370  0.599619  1
  Tb  Tb3  1  0.199370  0.601393  0.599619  1
  Tb  Tb4  1  0.059142  0.439016  0.441766  1
  Tb  Tb5  1  0.439016  0.059142  0.060076  1
  Tb  Tb6  1  0.439016  0.059142  0.441766  1
  Tb  Tb7  1  0.059142  0.439016  0.060076  1
  Tb  Tb8  1  0.439768  0.439768  0.060232  1
  Tb  Tb9  1  0.058849  0.058849  0.441151  1
  Tb  Tb10  1  0.188053  0.810678  0.811784  1
  Tb  Tb11  1  0.810678  0.188053  0.189485  1
  Tb  Tb12  1  0.810678  0.188053  0.811784  1
  Tb  Tb13  1  0.188053  0.810678  0.189485  1
  Tb  Tb14  1  0.811359  0.811359  0.188641  1
  Tb  Tb15  1  0.188816  0.188816  0.811184  1
  Cd  Cd16  1  0.830719  0.505602  0.831840  1
  Cd  Cd17  1  0.505602  0.830719  0.831840  1
  Hg  Hg18  1  0.834105  0.834105  0.836099  1
  Hg  Hg19  1  0.834105  0.834105  0.495692  1
  Ir  Ir20  1  0.392289  0.392289  0.390457  1
  Ir  Ir21  1  0.392289  0.392289  0.824966  1
  Ir  Ir22  1  0.392676  0.825445  0.390939  1
  Ir  Ir23  1  0.825445  0.392676  0.390939  1
