# generated using pymatgen
data_Y7TmBePd24
_symmetry_space_group_name_H-M   'P 1'
_cell_length_a   8.32551903
_cell_length_b   8.32552007
_cell_length_c   8.32552000
_cell_angle_alpha   89.95107624
_cell_angle_beta   90.04891688
_cell_angle_gamma   90.04892422
_symmetry_Int_Tables_number   1
_chemical_formula_structural   Y7TmBePd24
_chemical_formula_sum   'Y7 Tm1 Be1 Pd24'
_cell_volume   577.07675851
_cell_formula_units_Z   1
loop_
 _symmetry_equiv_pos_site_id
 _symmetry_equiv_pos_as_xyz
  1  'x, y, z'
loop_
 _atom_site_type_symbol
 _atom_site_label
 _atom_site_symmetry_multiplicity
 _atom_site_fract_x
 _atom_site_fract_y
 _atom_site_fract_z
 _atom_site_occupancy
  Y  Y0  1  0.250303  0.250735  0.250735  1
  Y  Y1  1  0.749286  0.749366  0.749366  1
  Y  Y2  1  0.749265  0.749697  0.250735  1
  Y  Y3  1  0.749265  0.250735  0.749697  1
  Y  Y4  1  0.250634  0.250714  0.749366  1
  Y  Y5  1  0.250634  0.749366  0.250714  1
  Y  Y6  1  0.251022  0.748978  0.748978  1
  Tm  Tm7  1  0.748395  0.251605  0.251605  1
  Be  Be8  1  0.000990  0.999010  0.999010  1
  Pd  Pd9  1  0.253794  0.499542  0.000174  1
  Pd  Pd10  1  0.746095  0.498769  0.001774  1
  Pd  Pd11  1  0.998226  0.253905  0.498769  1
  Pd  Pd12  1  0.501231  0.253905  0.001774  1
  Pd  Pd13  1  0.999826  0.746206  0.499542  1
  Pd  Pd14  1  0.500458  0.746206  0.000174  1
  Pd  Pd15  1  0.501231  0.001774  0.253905  1
  Pd  Pd16  1  0.253794  0.000174  0.499542  1
  Pd  Pd17  1  0.500458  0.000174  0.746206  1
  Pd  Pd18  1  0.746095  0.001774  0.498769  1
  Pd  Pd19  1  0.998226  0.498769  0.253905  1
  Pd  Pd20  1  0.999826  0.499542  0.746206  1
  Pd  Pd21  1  0.250879  0.499673  0.499673  1
  Pd  Pd22  1  0.748754  0.499121  0.499121  1
  Pd  Pd23  1  0.500879  0.251246  0.499121  1
  Pd  Pd24  1  0.500327  0.749121  0.499673  1
  Pd  Pd25  1  0.500879  0.499121  0.251246  1
  Pd  Pd26  1  0.500327  0.499673  0.749121  1
  Pd  Pd27  1  0.269225  0.999840  0.999840  1
  Pd  Pd28  1  0.732796  0.001717  0.001717  1
  Pd  Pd29  1  0.998283  0.267204  0.001717  1
  Pd  Pd30  1  0.000160  0.730775  0.999840  1
  Pd  Pd31  1  0.998283  0.001717  0.267204  1
  Pd  Pd32  1  0.000160  0.999840  0.730775  1
