# generated using pymatgen
data_Sc16Si16TcMo3
_symmetry_space_group_name_H-M   'P 1'
_cell_length_a   6.74351719
_cell_length_b   7.03898089
_cell_length_c   13.27167100
_cell_angle_alpha   90.00000000
_cell_angle_beta   90.00000000
_cell_angle_gamma   90.04167966
_symmetry_Int_Tables_number   1
_chemical_formula_structural   Sc16Si16TcMo3
_chemical_formula_sum   'Sc16 Si16 Tc1 Mo3'
_cell_volume   629.97272576
_cell_formula_units_Z   1
loop_
 _symmetry_equiv_pos_site_id
 _symmetry_equiv_pos_as_xyz
  1  'x, y, z'
loop_
 _atom_site_type_symbol
 _atom_site_label
 _atom_site_symmetry_multiplicity
 _atom_site_fract_x
 _atom_site_fract_y
 _atom_site_fract_z
 _atom_site_occupancy
  Sc  Sc0  1  0.988789  0.680012  0.595573  1
  Sc  Sc1  1  0.011574  0.319663  0.405287  1
  Sc  Sc2  1  0.512415  0.179316  0.404098  1
  Sc  Sc3  1  0.011574  0.319663  0.094713  1
  Sc  Sc4  1  0.491337  0.820644  0.594366  1
  Sc  Sc5  1  0.988789  0.680012  0.904427  1
  Sc  Sc6  1  0.491337  0.820644  0.905634  1
  Sc  Sc7  1  0.512415  0.179316  0.095902  1
  Sc  Sc8  1  0.323669  0.329849  0.626242  1
  Sc  Sc9  1  0.674666  0.670541  0.372986  1
  Sc  Sc10  1  0.174125  0.828756  0.374308  1
  Sc  Sc11  1  0.674666  0.670541  0.127014  1
  Sc  Sc12  1  0.825067  0.171334  0.627096  1
  Sc  Sc13  1  0.323669  0.329849  0.873758  1
  Sc  Sc14  1  0.825067  0.171334  0.872904  1
  Sc  Sc15  1  0.174125  0.828756  0.125692  1
  Si  Si16  1  0.017339  0.407882  0.750000  1
  Si  Si17  1  0.982962  0.595174  0.250000  1
  Si  Si18  1  0.480958  0.904088  0.250000  1
  Si  Si19  1  0.514853  0.094400  0.750000  1
  Si  Si20  1  0.284532  0.649022  0.750000  1
  Si  Si21  1  0.716974  0.353562  0.250000  1
  Si  Si22  1  0.215735  0.145755  0.250000  1
  Si  Si23  1  0.784601  0.854573  0.750000  1
  Si  Si24  1  0.160550  0.026382  0.547327  1
  Si  Si25  1  0.837417  0.972034  0.455385  1
  Si  Si26  1  0.340209  0.526221  0.453967  1
  Si  Si27  1  0.837417  0.972034  0.044615  1
  Si  Si28  1  0.660811  0.473081  0.545377  1
  Si  Si29  1  0.160550  0.026382  0.952673  1
  Si  Si30  1  0.660811  0.473081  0.954623  1
  Si  Si31  1  0.340209  0.526221  0.046033  1
  Tc  Tc32  1  0.149835  0.996672  0.750000  1
  Mo  Mo33  1  0.850621  0.003500  0.250000  1
  Mo  Mo34  1  0.350905  0.495211  0.250000  1
  Mo  Mo35  1  0.649431  0.504488  0.750000  1
