# generated using pymatgen
data_HfFe4P3W
_symmetry_space_group_name_H-M   'P 1'
_cell_length_a   3.62654100
_cell_length_b   10.26388700
_cell_length_c   11.82419900
_cell_angle_alpha   90.00000000
_cell_angle_beta   90.00000000
_cell_angle_gamma   90.00000000
_symmetry_Int_Tables_number   1
_chemical_formula_structural   HfFe4P3W
_chemical_formula_sum   'Hf4 Fe16 P12 W4'
_cell_volume   440.12514792
_cell_formula_units_Z   4
loop_
 _symmetry_equiv_pos_site_id
 _symmetry_equiv_pos_as_xyz
  1  'x, y, z'
loop_
 _atom_site_type_symbol
 _atom_site_label
 _atom_site_symmetry_multiplicity
 _atom_site_fract_x
 _atom_site_fract_y
 _atom_site_fract_z
 _atom_site_occupancy
  Hf  Hf0  1  0.250000  0.580045  0.706535  1
  Hf  Hf1  1  0.250000  0.919955  0.206535  1
  Hf  Hf2  1  0.750000  0.419955  0.293465  1
  Hf  Hf3  1  0.750000  0.080045  0.793465  1
  Fe  Fe4  1  0.250000  0.407311  0.486292  1
  Fe  Fe5  1  0.250000  0.092689  0.986292  1
  Fe  Fe6  1  0.750000  0.592689  0.513708  1
  Fe  Fe7  1  0.750000  0.907311  0.013708  1
  Fe  Fe8  1  0.250000  0.221230  0.175849  1
  Fe  Fe9  1  0.250000  0.278770  0.675849  1
  Fe  Fe10  1  0.750000  0.778770  0.824151  1
  Fe  Fe11  1  0.750000  0.721230  0.324151  1
  Fe  Fe12  1  0.250000  0.882916  0.700915  1
  Fe  Fe13  1  0.250000  0.617084  0.200915  1
  Fe  Fe14  1  0.750000  0.117084  0.299085  1
  Fe  Fe15  1  0.750000  0.382916  0.799085  1
  Fe  Fe16  1  0.250000  0.463424  0.932806  1
  Fe  Fe17  1  0.250000  0.036576  0.432806  1
  Fe  Fe18  1  0.750000  0.536576  0.067194  1
  Fe  Fe19  1  0.750000  0.963424  0.567194  1
  P  P20  1  0.250000  0.423422  0.119008  1
  P  P21  1  0.250000  0.076578  0.619008  1
  P  P22  1  0.750000  0.576578  0.880992  1
  P  P23  1  0.750000  0.923422  0.380992  1
  P  P24  1  0.250000  0.262933  0.860976  1
  P  P25  1  0.250000  0.237067  0.360976  1
  P  P26  1  0.750000  0.737067  0.139024  1
  P  P27  1  0.750000  0.762933  0.639024  1
  P  P28  1  0.250000  0.591089  0.387036  1
  P  P29  1  0.250000  0.908911  0.887036  1
  P  P30  1  0.750000  0.408911  0.612964  1
  P  P31  1  0.750000  0.091089  0.112964  1
  W  W32  1  0.250000  0.704216  0.990598  1
  W  W33  1  0.250000  0.795784  0.490598  1
  W  W34  1  0.750000  0.295784  0.009402  1
  W  W35  1  0.750000  0.204216  0.509402  1
