# generated using pymatgen
data_Nd4Co(Si2Pt)5
_symmetry_space_group_name_H-M   'P 1'
_cell_length_a   8.22932191
_cell_length_b   8.22932291
_cell_length_c   8.22932370
_cell_angle_alpha   136.83627351
_cell_angle_beta   105.52054939
_cell_angle_gamma   90.17270507
_symmetry_Int_Tables_number   1
_chemical_formula_structural   Nd4Co(Si2Pt)5
_chemical_formula_sum   'Nd4 Co1 Si10 Pt5'
_cell_volume   350.34271631
_cell_formula_units_Z   1
loop_
 _symmetry_equiv_pos_site_id
 _symmetry_equiv_pos_as_xyz
  1  'x, y, z'
loop_
 _atom_site_type_symbol
 _atom_site_label
 _atom_site_symmetry_multiplicity
 _atom_site_fract_x
 _atom_site_fract_y
 _atom_site_fract_z
 _atom_site_occupancy
  Nd  Nd0  1  0.637827  0.870479  0.766193  1
  Nd  Nd1  1  0.362173  0.128367  0.232652  1
  Nd  Nd2  1  0.104285  0.371633  0.733807  1
  Nd  Nd3  1  0.895715  0.629521  0.267348  1
  Co  Co4  1  0.500000  0.250000  0.750000  1
  Si  Si5  1  0.275579  0.025579  0.750000  1
  Si  Si6  1  0.727503  0.977503  0.250000  1
  Si  Si7  1  0.724421  0.474421  0.750000  1
  Si  Si8  1  0.272497  0.522497  0.250000  1
  Si  Si9  1  0.461135  0.593623  0.840961  1
  Si  Si10  1  0.538865  0.379826  0.132488  1
  Si  Si11  1  0.752662  0.120174  0.659039  1
  Si  Si12  1  0.247338  0.906377  0.367512  1
  Si  Si13  1  0.000000  0.750000  0.750000  1
  Si  Si14  1  0.000000  0.250000  0.250000  1
  Pt  Pt15  1  0.248713  0.637687  0.612440  1
  Pt  Pt16  1  0.751287  0.363727  0.388974  1
  Pt  Pt17  1  0.025247  0.136273  0.887560  1
  Pt  Pt18  1  0.974753  0.862313  0.111026  1
  Pt  Pt19  1  0.500000  0.750000  0.250000  1
