# generated using pymatgen
data_RbTeF7
_symmetry_space_group_name_H-M   'P 1'
_cell_length_a   10.60495000
_cell_length_b   10.60495000
_cell_length_c   10.60495000
_cell_angle_alpha   90.00000000
_cell_angle_beta   90.00000000
_cell_angle_gamma   90.00000000
_symmetry_Int_Tables_number   1
_chemical_formula_structural   RbTeF7
_chemical_formula_sum   'Rb8 Te8 F56'
_cell_volume   1192.68532530
_cell_formula_units_Z   8
loop_
 _symmetry_equiv_pos_site_id
 _symmetry_equiv_pos_as_xyz
  1  'x, y, z'
loop_
 _atom_site_type_symbol
 _atom_site_label
 _atom_site_symmetry_multiplicity
 _atom_site_fract_x
 _atom_site_fract_y
 _atom_site_fract_z
 _atom_site_occupancy
  Rb  Rb0  1  0.000000  0.000000  0.000000  1
  Rb  Rb1  1  0.000000  0.500000  0.500000  1
  Rb  Rb2  1  0.500000  0.000000  0.500000  1
  Rb  Rb3  1  0.500000  0.500000  0.000000  1
  Rb  Rb4  1  0.500000  0.000000  0.000000  1
  Rb  Rb5  1  0.500000  0.500000  0.500000  1
  Rb  Rb6  1  0.000000  0.000000  0.500000  1
  Rb  Rb7  1  0.000000  0.500000  0.000000  1
  Te  Te8  1  0.277785  0.722215  0.222215  1
  Te  Te9  1  0.722215  0.222215  0.277785  1
  Te  Te10  1  0.222215  0.277785  0.722215  1
  Te  Te11  1  0.777785  0.777785  0.777785  1
  Te  Te12  1  0.722215  0.277785  0.777785  1
  Te  Te13  1  0.277785  0.777785  0.722215  1
  Te  Te14  1  0.777785  0.722215  0.277785  1
  Te  Te15  1  0.222215  0.222215  0.222215  1
  F  F16  1  0.171958  0.828042  0.328042  1
  F  F17  1  0.828042  0.328042  0.171958  1
  F  F18  1  0.328042  0.171958  0.828042  1
  F  F19  1  0.671958  0.671958  0.671958  1
  F  F20  1  0.828042  0.171958  0.671958  1
  F  F21  1  0.171958  0.671958  0.828042  1
  F  F22  1  0.671958  0.828042  0.171958  1
  F  F23  1  0.328042  0.328042  0.328042  1
  F  F24  1  0.428352  0.626172  0.260555  1
  F  F25  1  0.571648  0.126172  0.239445  1
  F  F26  1  0.071648  0.373828  0.760555  1
  F  F27  1  0.928352  0.873828  0.739445  1
  F  F28  1  0.260555  0.428352  0.626172  1
  F  F29  1  0.239445  0.571648  0.126172  1
  F  F30  1  0.760555  0.071648  0.373828  1
  F  F31  1  0.739445  0.928352  0.873828  1
  F  F32  1  0.626172  0.260555  0.428352  1
  F  F33  1  0.126172  0.239445  0.571648  1
  F  F34  1  0.373828  0.760555  0.071648  1
  F  F35  1  0.873828  0.739445  0.928352  1
  F  F36  1  0.571648  0.373828  0.739445  1
  F  F37  1  0.428352  0.873828  0.760555  1
  F  F38  1  0.928352  0.626172  0.239445  1
  F  F39  1  0.071648  0.126172  0.260555  1
  F  F40  1  0.739445  0.571648  0.373828  1
  F  F41  1  0.760555  0.428352  0.873828  1
  F  F42  1  0.239445  0.928352  0.626172  1
  F  F43  1  0.260555  0.071648  0.126172  1
  F  F44  1  0.373828  0.739445  0.571648  1
  F  F45  1  0.873828  0.760555  0.428352  1
  F  F46  1  0.626172  0.239445  0.928352  1
  F  F47  1  0.126172  0.260555  0.071648  1
  F  F48  1  0.147020  0.781920  0.111922  1
  F  F49  1  0.852980  0.281920  0.388078  1
  F  F50  1  0.352980  0.218080  0.611922  1
  F  F51  1  0.647020  0.718080  0.888078  1
  F  F52  1  0.111922  0.147020  0.781920  1
  F  F53  1  0.388078  0.852980  0.281920  1
  F  F54  1  0.611922  0.352980  0.218080  1
  F  F55  1  0.888078  0.647020  0.718080  1
  F  F56  1  0.781920  0.111922  0.147020  1
  F  F57  1  0.281920  0.388078  0.852980  1
  F  F58  1  0.218080  0.611922  0.352980  1
  F  F59  1  0.718080  0.888078  0.647020  1
  F  F60  1  0.852980  0.218080  0.888078  1
  F  F61  1  0.147020  0.718080  0.611922  1
  F  F62  1  0.647020  0.781920  0.388078  1
  F  F63  1  0.352980  0.281920  0.111922  1
  F  F64  1  0.888078  0.852980  0.218080  1
  F  F65  1  0.611922  0.147020  0.718080  1
  F  F66  1  0.388078  0.647020  0.781920  1
  F  F67  1  0.111922  0.352980  0.281920  1
  F  F68  1  0.218080  0.888078  0.852980  1
  F  F69  1  0.718080  0.611922  0.147020  1
  F  F70  1  0.781920  0.388078  0.647020  1
  F  F71  1  0.281920  0.111922  0.352980  1
