# generated using pymatgen
data_Li2CrFe2Ni9As7
_symmetry_space_group_name_H-M   'P 1'
_cell_length_a   9.40452597
_cell_length_b   9.43377733
_cell_length_c   3.67926700
_cell_angle_alpha   90.00000000
_cell_angle_beta   90.00000000
_cell_angle_gamma   120.15077920
_symmetry_Int_Tables_number   1
_chemical_formula_structural   Li2CrFe2Ni9As7
_chemical_formula_sum   'Li2 Cr1 Fe2 Ni9 As7'
_cell_volume   282.26213058
_cell_formula_units_Z   1
loop_
 _symmetry_equiv_pos_site_id
 _symmetry_equiv_pos_as_xyz
  1  'x, y, z'
loop_
 _atom_site_type_symbol
 _atom_site_label
 _atom_site_symmetry_multiplicity
 _atom_site_fract_x
 _atom_site_fract_y
 _atom_site_fract_z
 _atom_site_occupancy
  Li  Li0  1  0.334722  0.667721  0.000000  1
  Li  Li1  1  0.998777  0.999690  0.500000  1
  Cr  Cr2  1  0.793938  0.240282  0.500000  1
  Fe  Fe3  1  0.760741  0.553960  0.500000  1
  Fe  Fe4  1  0.445616  0.207643  0.500000  1
  Ni  Ni5  1  0.284124  0.379773  0.500000  1
  Ni  Ni6  1  0.616332  0.900310  0.500000  1
  Ni  Ni7  1  0.097231  0.715940  0.500000  1
  Ni  Ni8  1  0.505138  0.452613  0.000000  1
  Ni  Ni9  1  0.546046  0.053009  0.000000  1
  Ni  Ni10  1  0.948572  0.495506  0.000000  1
  Ni  Ni11  1  0.721123  0.766339  0.000000  1
  Ni  Ni12  1  0.232776  0.953750  0.000000  1
  Ni  Ni13  1  0.045781  0.279085  0.000000  1
  As  As14  1  0.955694  0.750299  0.000000  1
  As  As15  1  0.248558  0.204125  0.000000  1
  As  As16  1  0.793032  0.042202  0.000000  1
  As  As17  1  0.666016  0.333479  0.000000  1
  As  As18  1  0.542683  0.626270  0.500000  1
  As  As19  1  0.374286  0.917021  0.500000  1
  As  As20  1  0.088815  0.460984  0.500000  1
