# generated using pymatgen
data_UPa5FeCl15
_symmetry_space_group_name_H-M   'P 1'
_cell_length_a   9.51856239
_cell_length_b   9.53900553
_cell_length_c   9.53900485
_cell_angle_alpha   108.43671641
_cell_angle_beta   110.03569781
_cell_angle_gamma   110.03571533
_symmetry_Int_Tables_number   1
_chemical_formula_structural   UPa5FeCl15
_chemical_formula_sum   'U1 Pa5 Fe1 Cl15'
_cell_volume   665.83115550
_cell_formula_units_Z   1
loop_
 _symmetry_equiv_pos_site_id
 _symmetry_equiv_pos_as_xyz
  1  'x, y, z'
loop_
 _atom_site_type_symbol
 _atom_site_label
 _atom_site_symmetry_multiplicity
 _atom_site_fract_x
 _atom_site_fract_y
 _atom_site_fract_z
 _atom_site_occupancy
  U  U0  1  0.000000  0.751369  0.751369  1
  Pa  Pa1  1  0.761828  0.760406  0.999924  1
  Pa  Pa2  1  0.238172  0.998578  0.238097  1
  Pa  Pa3  1  0.000000  0.245398  0.245398  1
  Pa  Pa4  1  0.238172  0.238097  0.998578  1
  Pa  Pa5  1  0.761828  0.999924  0.760406  1
  Fe  Fe6  1  0.000000  0.001195  0.001195  1
  Cl  Cl7  1  0.249221  0.245212  0.495026  1
  Cl  Cl8  1  0.750779  0.995991  0.245804  1
  Cl  Cl9  1  0.000000  0.748679  0.248998  1
  Cl  Cl10  1  0.750779  0.245804  0.995991  1
  Cl  Cl11  1  0.249221  0.495026  0.245212  1
  Cl  Cl12  1  0.000000  0.248998  0.748679  1
  Cl  Cl13  1  0.251632  0.756557  0.007002  1
  Cl  Cl14  1  0.251632  0.007002  0.756557  1
  Cl  Cl15  1  0.498771  0.251339  0.251339  1
  Cl  Cl16  1  0.748368  0.755372  0.504925  1
  Cl  Cl17  1  0.748368  0.504925  0.755372  1
  Cl  Cl18  1  0.501229  0.752569  0.752569  1
  Cl  Cl19  1  0.500000  0.500248  0.000248  1
  Cl  Cl20  1  0.500000  0.000248  0.500248  1
  Cl  Cl21  1  0.000000  0.497063  0.497063  1
