# generated using pymatgen
data_Y2TmLu3FeBi2
_symmetry_space_group_name_H-M   'P 1'
_cell_length_a   8.19000800
_cell_length_b   8.21292627
_cell_length_c   4.15891900
_cell_angle_alpha   90.00000000
_cell_angle_beta   90.00000000
_cell_angle_gamma   119.90772542
_symmetry_Int_Tables_number   1
_chemical_formula_structural   Y2TmLu3FeBi2
_chemical_formula_sum   'Y2 Tm1 Lu3 Fe1 Bi2'
_cell_volume   242.49143792
_cell_formula_units_Z   1
loop_
 _symmetry_equiv_pos_site_id
 _symmetry_equiv_pos_as_xyz
  1  'x, y, z'
loop_
 _atom_site_type_symbol
 _atom_site_label
 _atom_site_symmetry_multiplicity
 _atom_site_fract_x
 _atom_site_fract_y
 _atom_site_fract_z
 _atom_site_occupancy
  Y  Y0  1  0.000062  0.609891  0.000000  1
  Y  Y1  1  0.390171  0.390109  0.000000  1
  Tm  Tm2  1  0.614260  0.000000  0.000000  1
  Lu  Lu3  1  0.227748  0.000000  0.500000  1
  Lu  Lu4  1  0.999193  0.228037  0.500000  1
  Lu  Lu5  1  0.771156  0.771963  0.500000  1
  Fe  Fe6  1  0.996036  0.000000  0.000000  1
  Bi  Bi7  1  0.334883  0.668393  0.500000  1
  Bi  Bi8  1  0.666491  0.331607  0.500000  1
