# generated using pymatgen
data_Ho4Er4Tc3B24Ru
_symmetry_space_group_name_H-M   'P 1'
_cell_length_a   3.65791500
_cell_length_b   9.11981375
_cell_length_c   11.50103200
_cell_angle_alpha   89.92204484
_cell_angle_beta   90.00000000
_cell_angle_gamma   90.00000000
_symmetry_Int_Tables_number   1
_chemical_formula_structural   Ho4Er4Tc3B24Ru
_chemical_formula_sum   'Ho4 Er4 Tc3 B24 Ru1'
_cell_volume   383.66836228
_cell_formula_units_Z   1
loop_
 _symmetry_equiv_pos_site_id
 _symmetry_equiv_pos_as_xyz
  1  'x, y, z'
loop_
 _atom_site_type_symbol
 _atom_site_label
 _atom_site_symmetry_multiplicity
 _atom_site_fract_x
 _atom_site_fract_y
 _atom_site_fract_z
 _atom_site_occupancy
  Ho  Ho0  1  0.000000  0.323539  0.413941  1
  Ho  Ho1  1  0.000000  0.675136  0.584100  1
  Ho  Ho2  1  0.000000  0.822987  0.087325  1
  Ho  Ho3  1  0.000000  0.178003  0.914477  1
  Er  Er4  1  0.000000  0.942674  0.370359  1
  Er  Er5  1  0.000000  0.057718  0.630557  1
  Er  Er6  1  0.000000  0.443127  0.129951  1
  Er  Er7  1  0.000000  0.557702  0.869238  1
  Tc  Tc8  1  0.000000  0.638730  0.320333  1
  Tc  Tc9  1  0.000000  0.361391  0.680197  1
  Tc  Tc10  1  0.000000  0.138309  0.178512  1
  B  B11  1  0.500000  0.553022  0.432894  1
  B  B12  1  0.500000  0.446681  0.566805  1
  B  B13  1  0.500000  0.053081  0.066785  1
  B  B14  1  0.500000  0.946089  0.932794  1
  B  B15  1  0.500000  0.748949  0.418824  1
  B  B16  1  0.500000  0.250403  0.581355  1
  B  B17  1  0.500000  0.249579  0.081097  1
  B  B18  1  0.500000  0.751127  0.918503  1
  B  B19  1  0.500000  0.792148  0.265569  1
  B  B20  1  0.500000  0.208040  0.735209  1
  B  B21  1  0.500000  0.292128  0.234586  1
  B  B22  1  0.500000  0.708866  0.765223  1
  B  B23  1  0.500000  0.631018  0.185303  1
  B  B24  1  0.500000  0.369099  0.815237  1
  B  B25  1  0.500000  0.130455  0.314368  1
  B  B26  1  0.500000  0.868882  0.685449  1
  B  B27  1  0.500000  0.981614  0.211958  1
  B  B28  1  0.500000  0.016873  0.788186  1
  B  B29  1  0.500000  0.481949  0.287770  1
  B  B30  1  0.500000  0.517932  0.711863  1
  B  B31  1  0.500000  0.601931  0.027964  1
  B  B32  1  0.500000  0.399768  0.971720  1
  B  B33  1  0.500000  0.101195  0.472184  1
  B  B34  1  0.500000  0.898513  0.528622  1
  Ru  Ru35  1  0.000000  0.861341  0.820741  1
