# generated using pymatgen
data_NaFe2Sb12PtRh
_symmetry_space_group_name_H-M   'P 1'
_cell_length_a   8.06938038
_cell_length_b   8.10209084
_cell_length_c   8.07501814
_cell_angle_alpha   109.43410688
_cell_angle_beta   109.45777286
_cell_angle_gamma   109.39103847
_symmetry_Int_Tables_number   1
_chemical_formula_structural   NaFe2Sb12PtRh
_chemical_formula_sum   'Na1 Fe2 Sb12 Pt1 Rh1'
_cell_volume   407.05920694
_cell_formula_units_Z   1
loop_
 _symmetry_equiv_pos_site_id
 _symmetry_equiv_pos_as_xyz
  1  'x, y, z'
loop_
 _atom_site_type_symbol
 _atom_site_label
 _atom_site_symmetry_multiplicity
 _atom_site_fract_x
 _atom_site_fract_y
 _atom_site_fract_z
 _atom_site_occupancy
  Na  Na0  1  0.000000  0.000000  0.000000  1
  Fe  Fe1  1  0.000000  0.500000  0.000000  1
  Fe  Fe2  1  0.500000  0.500000  0.500000  1
  Sb  Sb3  1  0.649704  0.806099  0.149554  1
  Sb  Sb4  1  0.847681  0.343907  0.177806  1
  Sb  Sb5  1  0.504892  0.834769  0.656966  1
  Sb  Sb6  1  0.832580  0.650142  0.503240  1
  Sb  Sb7  1  0.495108  0.165231  0.343034  1
  Sb  Sb8  1  0.152319  0.656093  0.822194  1
  Sb  Sb9  1  0.817544  0.166909  0.671381  1
  Sb  Sb10  1  0.182456  0.833091  0.328619  1
  Sb  Sb11  1  0.167420  0.349858  0.496760  1
  Sb  Sb12  1  0.670404  0.508534  0.837642  1
  Sb  Sb13  1  0.329596  0.491466  0.162358  1
  Sb  Sb14  1  0.350296  0.193901  0.850446  1
  Pt  Pt15  1  0.000000  0.000000  0.500000  1
  Rh  Rh16  1  0.500000  0.000000  0.000000  1
