# generated using pymatgen
data_AlVCo20ReB6
_symmetry_space_group_name_H-M   'P 1'
_cell_length_a   7.39028067
_cell_length_b   7.39028051
_cell_length_c   7.39028100
_cell_angle_alpha   60.00000227
_cell_angle_beta   60.00000302
_cell_angle_gamma   60.00000385
_symmetry_Int_Tables_number   1
_chemical_formula_structural   AlVCo20ReB6
_chemical_formula_sum   'Al1 V1 Co20 Re1 B6'
_cell_volume   285.40911551
_cell_formula_units_Z   1
loop_
 _symmetry_equiv_pos_site_id
 _symmetry_equiv_pos_as_xyz
  1  'x, y, z'
loop_
 _atom_site_type_symbol
 _atom_site_label
 _atom_site_symmetry_multiplicity
 _atom_site_fract_x
 _atom_site_fract_y
 _atom_site_fract_z
 _atom_site_occupancy
  Al  Al0  1  0.000000  0.000000  0.000000  1
  V  V1  1  0.750000  0.750000  0.750000  1
  Co  Co2  1  0.855497  0.381501  0.381501  1
  Co  Co3  1  0.381501  0.855497  0.381501  1
  Co  Co4  1  0.381501  0.381501  0.855497  1
  Co  Co5  1  0.381501  0.381501  0.381501  1
  Co  Co6  1  0.141156  0.619614  0.619614  1
  Co  Co7  1  0.619614  0.141156  0.619614  1
  Co  Co8  1  0.619614  0.619614  0.141156  1
  Co  Co9  1  0.619614  0.619614  0.619614  1
  Co  Co10  1  0.658160  0.000001  0.000001  1
  Co  Co11  1  0.658160  0.000001  0.341838  1
  Co  Co12  1  0.658160  0.341838  0.000001  1
  Co  Co13  1  0.000001  0.658160  0.341838  1
  Co  Co14  1  0.000001  0.658160  0.000001  1
  Co  Co15  1  0.341838  0.658160  0.000001  1
  Co  Co16  1  0.000001  0.341838  0.658160  1
  Co  Co17  1  0.341838  0.000001  0.658160  1
  Co  Co18  1  0.000001  0.000001  0.658160  1
  Co  Co19  1  0.341838  0.000001  0.000001  1
  Co  Co20  1  0.000001  0.341838  0.000001  1
  Co  Co21  1  0.000001  0.000001  0.341838  1
  Re  Re22  1  0.250000  0.250000  0.250000  1
  B  B23  1  0.723915  0.276085  0.276085  1
  B  B24  1  0.723915  0.276085  0.723915  1
  B  B25  1  0.723915  0.723915  0.276085  1
  B  B26  1  0.276085  0.723915  0.723915  1
  B  B27  1  0.276085  0.723915  0.276085  1
  B  B28  1  0.276085  0.276085  0.723915  1
