# generated using pymatgen
data_SmHo7(WC2)4
_symmetry_space_group_name_H-M   'P 1'
_cell_length_a   5.73624570
_cell_length_b   5.73624532
_cell_length_c   9.87820527
_cell_angle_alpha   89.70313942
_cell_angle_beta   89.70313912
_cell_angle_gamma   89.94768692
_symmetry_Int_Tables_number   1
_chemical_formula_structural   SmHo7(WC2)4
_chemical_formula_sum   'Sm1 Ho7 W4 C8'
_cell_volume   325.02867613
_cell_formula_units_Z   1
loop_
 _symmetry_equiv_pos_site_id
 _symmetry_equiv_pos_as_xyz
  1  'x, y, z'
loop_
 _atom_site_type_symbol
 _atom_site_label
 _atom_site_symmetry_multiplicity
 _atom_site_fract_x
 _atom_site_fract_y
 _atom_site_fract_z
 _atom_site_occupancy
  Sm  Sm0  1  0.800364  0.800364  0.659131  1
  Ho  Ho1  1  0.200047  0.200047  0.340949  1
  Ho  Ho2  1  0.301447  0.700518  0.843046  1
  Ho  Ho3  1  0.700518  0.301447  0.843046  1
  Ho  Ho4  1  0.701352  0.300857  0.158456  1
  Ho  Ho5  1  0.300857  0.701352  0.158456  1
  Ho  Ho6  1  0.198691  0.198691  0.657173  1
  Ho  Ho7  1  0.799383  0.799383  0.341865  1
  W  W8  1  0.320222  0.675846  0.498199  1
  W  W9  1  0.823615  0.823615  0.002213  1
  W  W10  1  0.180420  0.180420  0.001304  1
  W  W11  1  0.675846  0.320222  0.498199  1
  C  C12  1  0.000907  0.000907  0.155407  1
  C  C13  1  0.494721  0.494721  0.653067  1
  C  C14  1  0.494660  0.999489  0.496237  1
  C  C15  1  0.499662  0.499662  0.344667  1
  C  C16  1  0.004273  0.004273  0.849619  1
  C  C17  1  0.501885  0.001646  0.001363  1
  C  C18  1  0.001646  0.501885  0.001363  1
  C  C19  1  0.999489  0.494660  0.496237  1
