# generated using pymatgen
data_Dy3Sc4Pa(ReB6)4
_symmetry_space_group_name_H-M   'P 1'
_cell_length_a   3.60465900
_cell_length_b   8.99920611
_cell_length_c   11.37576142
_cell_angle_alpha   90.06534031
_cell_angle_beta   90.00000000
_cell_angle_gamma   90.00000000
_symmetry_Int_Tables_number   1
_chemical_formula_structural   Dy3Sc4Pa(ReB6)4
_chemical_formula_sum   'Dy3 Sc4 Pa1 Re4 B24'
_cell_volume   369.01887319
_cell_formula_units_Z   1
loop_
 _symmetry_equiv_pos_site_id
 _symmetry_equiv_pos_as_xyz
  1  'x, y, z'
loop_
 _atom_site_type_symbol
 _atom_site_label
 _atom_site_symmetry_multiplicity
 _atom_site_fract_x
 _atom_site_fract_y
 _atom_site_fract_z
 _atom_site_occupancy
  Dy  Dy0  1  0.000000  0.680928  0.586554  1
  Dy  Dy1  1  0.000000  0.821404  0.085433  1
  Dy  Dy2  1  0.000000  0.177721  0.913511  1
  Sc  Sc3  1  0.000000  0.943592  0.372068  1
  Sc  Sc4  1  0.000000  0.054435  0.628892  1
  Sc  Sc5  1  0.000000  0.444411  0.127179  1
  Sc  Sc6  1  0.000000  0.556543  0.871066  1
  Pa  Pa7  1  0.000000  0.321559  0.414437  1
  Re  Re8  1  0.000000  0.637875  0.319206  1
  Re  Re9  1  0.000000  0.359935  0.679415  1
  Re  Re10  1  0.000000  0.142794  0.183301  1
  Re  Re11  1  0.000000  0.859489  0.818700  1
  B  B12  1  0.500000  0.553929  0.431797  1
  B  B13  1  0.500000  0.445022  0.567850  1
  B  B14  1  0.500000  0.054657  0.067469  1
  B  B15  1  0.500000  0.945939  0.933118  1
  B  B16  1  0.500000  0.753773  0.417894  1
  B  B17  1  0.500000  0.246086  0.582057  1
  B  B18  1  0.500000  0.253413  0.081002  1
  B  B19  1  0.500000  0.746340  0.918500  1
  B  B20  1  0.500000  0.794433  0.265137  1
  B  B21  1  0.500000  0.205586  0.735344  1
  B  B22  1  0.500000  0.294021  0.234607  1
  B  B23  1  0.500000  0.705609  0.765298  1
  B  B24  1  0.500000  0.629365  0.182522  1
  B  B25  1  0.500000  0.371454  0.816931  1
  B  B26  1  0.500000  0.129513  0.316783  1
  B  B27  1  0.500000  0.870907  0.683565  1
  B  B28  1  0.500000  0.981572  0.213642  1
  B  B29  1  0.500000  0.018690  0.786518  1
  B  B30  1  0.500000  0.481892  0.285691  1
  B  B31  1  0.500000  0.518857  0.714761  1
  B  B32  1  0.500000  0.596404  0.025966  1
  B  B33  1  0.500000  0.403520  0.973158  1
  B  B34  1  0.500000  0.097311  0.473558  1
  B  B35  1  0.500000  0.901020  0.527076  1
