# generated using pymatgen
data_Tb7Ho9(HgIr)4
_symmetry_space_group_name_H-M   'P 1'
_cell_length_a   9.58573080
_cell_length_b   9.58545866
_cell_length_c   9.58678462
_cell_angle_alpha   60.07569119
_cell_angle_beta   60.07708013
_cell_angle_gamma   60.12233800
_symmetry_Int_Tables_number   1
_chemical_formula_structural   Tb7Ho9(HgIr)4
_chemical_formula_sum   'Tb7 Ho9 Hg4 Ir4'
_cell_volume   624.16212602
_cell_formula_units_Z   1
loop_
 _symmetry_equiv_pos_site_id
 _symmetry_equiv_pos_as_xyz
  1  'x, y, z'
loop_
 _atom_site_type_symbol
 _atom_site_label
 _atom_site_symmetry_multiplicity
 _atom_site_fract_x
 _atom_site_fract_y
 _atom_site_fract_z
 _atom_site_occupancy
  Tb  Tb0  1  0.060014  0.060015  0.437376  1
  Tb  Tb1  1  0.190995  0.809927  0.810693  1
  Tb  Tb2  1  0.808687  0.190114  0.189427  1
  Tb  Tb3  1  0.809941  0.191000  0.810674  1
  Tb  Tb4  1  0.190109  0.808684  0.189437  1
  Tb  Tb5  1  0.810141  0.810130  0.191024  1
  Tb  Tb6  1  0.189557  0.189559  0.809620  1
  Ho  Ho7  1  0.599901  0.599909  0.600367  1
  Ho  Ho8  1  0.601468  0.601470  0.197951  1
  Ho  Ho9  1  0.600714  0.198516  0.601632  1
  Ho  Ho10  1  0.198528  0.600711  0.601618  1
  Ho  Ho11  1  0.059158  0.440701  0.440110  1
  Ho  Ho12  1  0.438359  0.059965  0.059647  1
  Ho  Ho13  1  0.440721  0.059152  0.440098  1
  Ho  Ho14  1  0.059951  0.438344  0.059649  1
  Ho  Ho15  1  0.440004  0.439993  0.059480  1
  Hg  Hg16  1  0.834104  0.834102  0.834202  1
  Hg  Hg17  1  0.835330  0.835328  0.494566  1
  Hg  Hg18  1  0.835484  0.494608  0.835342  1
  Hg  Hg19  1  0.494605  0.835477  0.835342  1
  Ir  Ir20  1  0.391865  0.391893  0.391865  1
  Ir  Ir21  1  0.392511  0.392480  0.824866  1
  Ir  Ir22  1  0.393805  0.824075  0.392519  1
  Ir  Ir23  1  0.824053  0.393852  0.392498  1
