# generated using pymatgen
data_Tm4Lu16Bi11Te
_symmetry_space_group_name_H-M   'P 1'
_cell_length_a   8.11336133
_cell_length_b   9.38551500
_cell_length_c   11.81709200
_cell_angle_alpha   90.00000000
_cell_angle_beta   89.82387583
_cell_angle_gamma   90.00000000
_symmetry_Int_Tables_number   1
_chemical_formula_structural   Tm4Lu16Bi11Te
_chemical_formula_sum   'Tm4 Lu16 Bi11 Te1'
_cell_volume   899.84455039
_cell_formula_units_Z   1
loop_
 _symmetry_equiv_pos_site_id
 _symmetry_equiv_pos_as_xyz
  1  'x, y, z'
loop_
 _atom_site_type_symbol
 _atom_site_label
 _atom_site_symmetry_multiplicity
 _atom_site_fract_x
 _atom_site_fract_y
 _atom_site_fract_z
 _atom_site_occupancy
  Tm  Tm0  1  0.186935  0.250000  0.782560  1
  Tm  Tm1  1  0.812307  0.750000  0.216876  1
  Tm  Tm2  1  0.313777  0.750000  0.283558  1
  Tm  Tm3  1  0.681242  0.250000  0.713404  1
  Lu  Lu4  1  0.021271  0.250000  0.511080  1
  Lu  Lu5  1  0.979073  0.750000  0.490342  1
  Lu  Lu6  1  0.477551  0.750000  0.010180  1
  Lu  Lu7  1  0.522694  0.250000  0.989301  1
  Lu  Lu8  1  0.357751  0.250000  0.284753  1
  Lu  Lu9  1  0.644613  0.750000  0.717873  1
  Lu  Lu10  1  0.145739  0.750000  0.780544  1
  Lu  Lu11  1  0.852941  0.250000  0.218674  1
  Lu  Lu12  1  0.191975  0.068537  0.059949  1
  Lu  Lu13  1  0.808488  0.932844  0.940160  1
  Lu  Lu14  1  0.310506  0.935049  0.558870  1
  Lu  Lu15  1  0.808488  0.567156  0.940160  1
  Lu  Lu16  1  0.689564  0.069902  0.441750  1
  Lu  Lu17  1  0.191975  0.431463  0.059949  1
  Lu  Lu18  1  0.689564  0.430098  0.441750  1
  Lu  Lu19  1  0.310506  0.564951  0.558870  1
  Bi  Bi20  1  0.599769  0.750000  0.457208  1
  Bi  Bi21  1  0.098189  0.750000  0.042659  1
  Bi  Bi22  1  0.901984  0.250000  0.956902  1
  Bi  Bi23  1  0.067799  0.004878  0.326484  1
  Bi  Bi24  1  0.933503  0.996385  0.675338  1
  Bi  Bi25  1  0.433817  0.996217  0.824474  1
  Bi  Bi26  1  0.933503  0.503615  0.675338  1
  Bi  Bi27  1  0.566849  0.004143  0.174039  1
  Bi  Bi28  1  0.067799  0.495122  0.326484  1
  Bi  Bi29  1  0.566849  0.495857  0.174039  1
  Bi  Bi30  1  0.433817  0.503783  0.824474  1
  Te  Te31  1  0.399158  0.250000  0.541964  1
