# generated using pymatgen
data_TbCoBr
_symmetry_space_group_name_H-M   'P 1'
_cell_length_a   3.91737000
_cell_length_b   3.91737142
_cell_length_c   11.50951000
_cell_angle_alpha   90.00000000
_cell_angle_beta   90.00000000
_cell_angle_gamma   120.00000489
_symmetry_Int_Tables_number   1
_chemical_formula_structural   TbCoBr
_chemical_formula_sum   'Tb2 Co2 Br2'
_cell_volume   152.95961741
_cell_formula_units_Z   2
loop_
 _symmetry_equiv_pos_site_id
 _symmetry_equiv_pos_as_xyz
  1  'x, y, z'
loop_
 _atom_site_type_symbol
 _atom_site_label
 _atom_site_symmetry_multiplicity
 _atom_site_fract_x
 _atom_site_fract_y
 _atom_site_fract_z
 _atom_site_occupancy
  Tb  Tb0  1  0.000000  0.000000  0.162072  1
  Tb  Tb1  1  0.000000  0.000000  0.837928  1
  Co  Co2  1  0.666667  0.333334  0.005233  1
  Co  Co3  1  0.333334  0.666667  0.994767  1
  Br  Br4  1  0.333334  0.666667  0.329303  1
  Br  Br5  1  0.666667  0.333334  0.670697  1
