# generated using pymatgen
data_Tb3Sm3Hf2(Co4P3)4
_symmetry_space_group_name_H-M   'P 1'
_cell_length_a   3.74289900
_cell_length_b   10.74367037
_cell_length_c   12.46901943
_cell_angle_alpha   90.03011225
_cell_angle_beta   90.00000000
_cell_angle_gamma   90.00000000
_symmetry_Int_Tables_number   1
_chemical_formula_structural   Tb3Sm3Hf2(Co4P3)4
_chemical_formula_sum   'Tb3 Sm3 Hf2 Co16 P12'
_cell_volume   501.41003903
_cell_formula_units_Z   1
loop_
 _symmetry_equiv_pos_site_id
 _symmetry_equiv_pos_as_xyz
  1  'x, y, z'
loop_
 _atom_site_type_symbol
 _atom_site_label
 _atom_site_symmetry_multiplicity
 _atom_site_fract_x
 _atom_site_fract_y
 _atom_site_fract_z
 _atom_site_occupancy
  Tb  Tb0  1  0.500000  0.821409  0.204394  1
  Tb  Tb1  1  0.500000  0.178641  0.204096  1
  Tb  Tb2  1  0.000000  0.678936  0.795813  1
  Sm  Sm3  1  0.000000  0.500143  0.528372  1
  Sm  Sm4  1  0.500000  0.999916  0.471213  1
  Sm  Sm5  1  0.000000  0.321514  0.795383  1
  Hf  Hf6  1  0.500000  0.500085  0.155754  1
  Hf  Hf7  1  0.000000  0.999578  0.844424  1
  Co  Co8  1  0.500000  0.501682  0.704359  1
  Co  Co9  1  0.000000  0.999868  0.295156  1
  Co  Co10  1  0.000000  0.500584  0.987409  1
  Co  Co11  1  0.500000  0.999467  0.013695  1
  Co  Co12  1  0.500000  0.332117  0.994229  1
  Co  Co13  1  0.500000  0.668468  0.993831  1
  Co  Co14  1  0.000000  0.167466  0.007333  1
  Co  Co15  1  0.000000  0.831998  0.006826  1
  Co  Co16  1  0.500000  0.295125  0.431825  1
  Co  Co17  1  0.500000  0.704910  0.432446  1
  Co  Co18  1  0.000000  0.204483  0.566418  1
  Co  Co19  1  0.000000  0.795301  0.567359  1
  Co  Co20  1  0.500000  0.878311  0.704190  1
  Co  Co21  1  0.500000  0.120341  0.703000  1
  Co  Co22  1  0.000000  0.621388  0.296010  1
  Co  Co23  1  0.000000  0.378472  0.295737  1
  P  P24  1  0.500000  0.501337  0.885190  1
  P  P25  1  0.000000  0.999723  0.115960  1
  P  P26  1  0.500000  0.500079  0.358842  1
  P  P27  1  0.000000  0.000050  0.641063  1
  P  P28  1  0.500000  0.307247  0.614294  1
  P  P29  1  0.500000  0.692532  0.615865  1
  P  P30  1  0.000000  0.192038  0.383522  1
  P  P31  1  0.000000  0.807716  0.384072  1
  P  P32  1  0.500000  0.838921  0.894223  1
  P  P33  1  0.500000  0.159897  0.895563  1
  P  P34  1  0.000000  0.661272  0.106251  1
  P  P35  1  0.000000  0.338985  0.105884  1
