# generated using pymatgen
data_NaSr(MnAs)4
_symmetry_space_group_name_H-M   'P 1'
_cell_length_a   6.95626576
_cell_length_b   6.95626500
_cell_length_c   5.42292900
_cell_angle_alpha   90.00000000
_cell_angle_beta   90.00000000
_cell_angle_gamma   134.16877352
_symmetry_Int_Tables_number   1
_chemical_formula_structural   NaSr(MnAs)4
_chemical_formula_sum   'Na1 Sr1 Mn4 As4'
_cell_volume   188.22671241
_cell_formula_units_Z   1
loop_
 _symmetry_equiv_pos_site_id
 _symmetry_equiv_pos_as_xyz
  1  'x, y, z'
loop_
 _atom_site_type_symbol
 _atom_site_label
 _atom_site_symmetry_multiplicity
 _atom_site_fract_x
 _atom_site_fract_y
 _atom_site_fract_z
 _atom_site_occupancy
  Na  Na0  1  0.000000  0.000000  0.000000  1
  Sr  Sr1  1  0.500000  0.500000  0.500000  1
  Mn  Mn2  1  0.500000  0.000000  0.751769  1
  Mn  Mn3  1  0.000000  0.500000  0.248231  1
  Mn  Mn4  1  0.000000  0.500000  0.751769  1
  Mn  Mn5  1  0.500000  0.000000  0.248231  1
  As  As6  1  0.364051  0.635949  0.000000  1
  As  As7  1  0.862703  0.137297  0.500000  1
  As  As8  1  0.137297  0.862703  0.500000  1
  As  As9  1  0.635949  0.364051  0.000000  1
