# generated using pymatgen
data_Eu2Zn19Au3
_symmetry_space_group_name_H-M   'P 1'
_cell_length_a   8.43028692
_cell_length_b   8.39782501
_cell_length_c   8.41370472
_cell_angle_alpha   99.62001181
_cell_angle_beta   100.01322424
_cell_angle_gamma   131.25001709
_symmetry_Int_Tables_number   1
_chemical_formula_structural   Eu2Zn19Au3
_chemical_formula_sum   'Eu2 Zn19 Au3'
_cell_volume   407.83442332
_cell_formula_units_Z   1
loop_
 _symmetry_equiv_pos_site_id
 _symmetry_equiv_pos_as_xyz
  1  'x, y, z'
loop_
 _atom_site_type_symbol
 _atom_site_label
 _atom_site_symmetry_multiplicity
 _atom_site_fract_x
 _atom_site_fract_y
 _atom_site_fract_z
 _atom_site_occupancy
  Eu  Eu0  1  0.246678  0.750151  0.498239  1
  Eu  Eu1  1  0.002888  0.000145  0.002256  1
  Zn  Zn2  1  0.626741  0.877607  0.247977  1
  Zn  Zn3  1  0.495586  0.578530  0.673797  1
  Zn  Zn4  1  0.426130  0.098642  0.915951  1
  Zn  Zn5  1  0.754617  0.171299  0.828035  1
  Zn  Zn6  1  0.494581  0.822616  0.915904  1
  Zn  Zn7  1  0.500658  0.498578  0.999592  1
  Zn  Zn8  1  0.758590  0.931210  0.586496  1
  Zn  Zn9  1  0.749340  0.250201  0.499445  1
  Zn  Zn10  1  0.069581  0.656501  0.826030  1
  Zn  Zn11  1  0.347741  0.173855  0.417071  1
  Zn  Zn12  1  0.823993  0.651066  0.584485  1
  Zn  Zn13  1  0.902349  0.820647  0.331819  1
  Zn  Zn14  1  0.181161  0.092453  0.672113  1
  Zn  Zn15  1  0.064979  0.237247  0.412552  1
  Zn  Zn16  1  0.352910  0.936443  0.173135  1
  Zn  Zn17  1  0.822236  0.236418  0.172691  1
  Zn  Zn18  1  0.179688  0.510498  0.084441  1
  Zn  Zn19  1  0.625255  0.372447  0.251433  1
  Zn  Zn20  1  0.621259  0.370993  0.746579  1
  Au  Au21  1  0.905100  0.580431  0.085523  1
  Au  Au22  1  0.421669  0.506826  0.324479  1
  Au  Au23  1  0.126269  0.375197  0.749956  1
