# generated using pymatgen
data_SrEu7Ta4O18
_symmetry_space_group_name_H-M   'P 1'
_cell_length_a   5.88944005
_cell_length_b   5.89082501
_cell_length_c   15.62413469
_cell_angle_alpha   89.96802182
_cell_angle_beta   90.01884128
_cell_angle_gamma   60.02314544
_symmetry_Int_Tables_number   1
_chemical_formula_structural   SrEu7Ta4O18
_chemical_formula_sum   'Sr1 Eu7 Ta4 O18'
_cell_volume   469.54562900
_cell_formula_units_Z   1
loop_
 _symmetry_equiv_pos_site_id
 _symmetry_equiv_pos_as_xyz
  1  'x, y, z'
loop_
 _atom_site_type_symbol
 _atom_site_label
 _atom_site_symmetry_multiplicity
 _atom_site_fract_x
 _atom_site_fract_y
 _atom_site_fract_z
 _atom_site_occupancy
  Sr  Sr0  1  0.999743  0.000581  0.752160  1
  Eu  Eu1  1  0.000151  0.999732  0.255812  1
  Eu  Eu2  1  0.000013  0.000021  0.500514  1
  Eu  Eu3  1  0.000001  0.999999  0.001097  1
  Eu  Eu4  1  0.665700  0.668009  0.361699  1
  Eu  Eu5  1  0.665473  0.666801  0.137995  1
  Eu  Eu6  1  0.334356  0.333143  0.864077  1
  Eu  Eu7  1  0.334232  0.332279  0.639172  1
  Ta  Ta8  1  0.666170  0.667218  0.846518  1
  Ta  Ta9  1  0.666787  0.666345  0.654322  1
  Ta  Ta10  1  0.333213  0.333760  0.344585  1
  Ta  Ta11  1  0.333919  0.332616  0.152671  1
  O  O12  1  0.589497  0.964054  0.750351  1
  O  O13  1  0.925885  0.724095  0.600174  1
  O  O14  1  0.924363  0.728517  0.899460  1
  O  O15  1  0.348466  0.925666  0.600674  1
  O  O16  1  0.346925  0.926621  0.899556  1
  O  O17  1  0.964850  0.445610  0.750381  1
  O  O18  1  0.446748  0.589357  0.750701  1
  O  O19  1  0.279622  0.647206  0.098340  1
  O  O20  1  0.271457  0.654779  0.397366  1
  O  O21  1  0.725332  0.348300  0.600947  1
  O  O22  1  0.727121  0.348469  0.899916  1
  O  O23  1  0.559628  0.403547  0.249000  1
  O  O24  1  0.035856  0.561086  0.249342  1
  O  O25  1  0.649309  0.070526  0.098967  1
  O  O26  1  0.654558  0.074748  0.397558  1
  O  O27  1  0.072915  0.277568  0.099197  1
  O  O28  1  0.074276  0.272732  0.398003  1
  O  O29  1  0.403432  0.036614  0.249445  1
