# generated using pymatgen
data_Er8AgHgPt2
_symmetry_space_group_name_H-M   'P 1'
_cell_length_a   9.53393920
_cell_length_b   9.53393931
_cell_length_c   9.51584500
_cell_angle_alpha   60.06275821
_cell_angle_beta   60.06275782
_cell_angle_gamma   59.97035930
_symmetry_Int_Tables_number   1
_chemical_formula_structural   Er8AgHgPt2
_chemical_formula_sum   'Er16 Ag2 Hg2 Pt4'
_cell_volume   612.05559697
_cell_formula_units_Z   2
loop_
 _symmetry_equiv_pos_site_id
 _symmetry_equiv_pos_as_xyz
  1  'x, y, z'
loop_
 _atom_site_type_symbol
 _atom_site_label
 _atom_site_symmetry_multiplicity
 _atom_site_fract_x
 _atom_site_fract_y
 _atom_site_fract_z
 _atom_site_occupancy
  Er  Er0  1  0.353990  0.353990  0.353369  1
  Er  Er1  1  0.353990  0.353990  0.938654  1
  Er  Er2  1  0.356522  0.934142  0.354669  1
  Er  Er3  1  0.934142  0.356522  0.354669  1
  Er  Er4  1  0.810295  0.190235  0.190456  1
  Er  Er5  1  0.190235  0.810295  0.809013  1
  Er  Er6  1  0.190235  0.810295  0.190456  1
  Er  Er7  1  0.810295  0.190235  0.809013  1
  Er  Er8  1  0.190741  0.190741  0.809259  1
  Er  Er9  1  0.810773  0.810773  0.189227  1
  Er  Er10  1  0.933469  0.564313  0.565590  1
  Er  Er11  1  0.564313  0.933469  0.936629  1
  Er  Er12  1  0.564313  0.933469  0.565590  1
  Er  Er13  1  0.933469  0.564313  0.936629  1
  Er  Er14  1  0.564594  0.564594  0.935406  1
  Er  Er15  1  0.935425  0.935425  0.564575  1
  Ag  Ag16  1  0.584898  0.584898  0.583264  1
  Ag  Ag17  1  0.584898  0.584898  0.246941  1
  Hg  Hg18  1  0.586097  0.246962  0.583471  1
  Hg  Hg19  1  0.246962  0.586097  0.583471  1
  Pt  Pt20  1  0.143957  0.143957  0.144903  1
  Pt  Pt21  1  0.143957  0.143957  0.567182  1
  Pt  Pt22  1  0.142879  0.569558  0.143781  1
  Pt  Pt23  1  0.569558  0.142879  0.143781  1
