# generated using pymatgen
data_Y3Tm2Ga4P8Ir19
_symmetry_space_group_name_H-M   'P 1'
_cell_length_a   12.90734100
_cell_length_b   12.89143967
_cell_length_c   3.95911600
_cell_angle_alpha   90.00000000
_cell_angle_beta   90.00000000
_cell_angle_gamma   120.07345545
_symmetry_Int_Tables_number   1
_chemical_formula_structural   Y3Tm2Ga4P8Ir19
_chemical_formula_sum   'Y3 Tm2 Ga4 P8 Ir19'
_cell_volume   570.09223811
_cell_formula_units_Z   1
loop_
 _symmetry_equiv_pos_site_id
 _symmetry_equiv_pos_as_xyz
  1  'x, y, z'
loop_
 _atom_site_type_symbol
 _atom_site_label
 _atom_site_symmetry_multiplicity
 _atom_site_fract_x
 _atom_site_fract_y
 _atom_site_fract_z
 _atom_site_occupancy
  Y  Y0  1  0.336076  0.669708  0.500000  1
  Y  Y1  1  0.181016  0.181817  0.000000  1
  Y  Y2  1  0.817990  0.999069  0.000000  1
  Tm  Tm3  1  0.665615  0.331232  0.500000  1
  Tm  Tm4  1  0.002898  0.817200  0.000000  1
  Ga  Ga5  1  0.317943  0.834688  0.000000  1
  Ga  Ga6  1  0.357422  0.358543  0.500000  1
  Ga  Ga7  1  0.641024  0.001014  0.500000  1
  Ga  Ga8  1  0.996717  0.638680  0.500000  1
  P  P9  1  0.173031  0.484609  0.000000  1
  P  P10  1  0.521978  0.690230  0.000000  1
  P  P11  1  0.822082  0.305308  0.000000  1
  P  P12  1  0.482542  0.176074  0.000000  1
  P  P13  1  0.692374  0.513988  0.000000  1
  P  P14  1  0.823485  0.818155  0.500000  1
  P  P15  1  0.178313  0.000910  0.500000  1
  P  P16  1  0.999724  0.179690  0.500000  1
  Ir  Ir17  1  0.189801  0.825560  0.500000  1
  Ir  Ir18  1  0.174478  0.382083  0.500000  1
  Ir  Ir19  1  0.626747  0.795559  0.500000  1
  Ir  Ir20  1  0.825255  0.206153  0.500000  1
  Ir  Ir21  1  0.385980  0.178674  0.500000  1
  Ir  Ir22  1  0.790658  0.614122  0.500000  1
  Ir  Ir23  1  0.128059  0.633645  0.000000  1
  Ir  Ir24  1  0.362919  0.497387  0.000000  1
  Ir  Ir25  1  0.522186  0.871000  0.000000  1
  Ir  Ir26  1  0.632555  0.132247  0.000000  1
  Ir  Ir27  1  0.497875  0.366701  0.000000  1
  Ir  Ir28  1  0.865864  0.499512  0.000000  1
  Ir  Ir29  1  0.547736  0.551015  0.500000  1
  Ir  Ir30  1  0.443049  0.992484  0.500000  1
  Ir  Ir31  1  0.998314  0.447669  0.500000  1
  Ir  Ir32  1  0.719777  0.715138  0.000000  1
  Ir  Ir33  1  0.280009  0.008028  0.000000  1
  Ir  Ir34  1  0.999816  0.282545  0.000000  1
  Ir  Ir35  1  0.998690  0.999563  0.500000  1
