# generated using pymatgen
data_Zr3Pa(AlRh5)2
_symmetry_space_group_name_H-M   'P 1'
_cell_length_a   5.62323317
_cell_length_b   5.62323331
_cell_length_c   8.18967300
_cell_angle_alpha   89.99939427
_cell_angle_beta   89.99939341
_cell_angle_gamma   97.57821334
_symmetry_Int_Tables_number   1
_chemical_formula_structural   Zr3Pa(AlRh5)2
_chemical_formula_sum   'Zr3 Pa1 Al2 Rh10'
_cell_volume   256.70176863
_cell_formula_units_Z   1
loop_
 _symmetry_equiv_pos_site_id
 _symmetry_equiv_pos_as_xyz
  1  'x, y, z'
loop_
 _atom_site_type_symbol
 _atom_site_label
 _atom_site_symmetry_multiplicity
 _atom_site_fract_x
 _atom_site_fract_y
 _atom_site_fract_z
 _atom_site_occupancy
  Zr  Zr0  1  0.219168  0.780832  0.000000  1
  Zr  Zr1  1  0.220491  0.779509  0.500000  1
  Zr  Zr2  1  0.779697  0.220303  0.000000  1
  Pa  Pa3  1  0.783908  0.216092  0.500000  1
  Al  Al4  1  0.495297  0.505231  0.755017  1
  Al  Al5  1  0.494769  0.504703  0.244983  1
  Rh  Rh6  1  0.716573  0.712643  0.000144  1
  Rh  Rh7  1  0.711557  0.712601  0.499873  1
  Rh  Rh8  1  0.287357  0.283427  0.999856  1
  Rh  Rh9  1  0.287399  0.288443  0.500127  1
  Rh  Rh10  1  0.500559  0.999695  0.748997  1
  Rh  Rh11  1  0.500503  0.999557  0.250993  1
  Rh  Rh12  1  0.001049  0.999075  0.248114  1
  Rh  Rh13  1  0.000925  0.998951  0.751886  1
  Rh  Rh14  1  0.000443  0.499497  0.749007  1
  Rh  Rh15  1  0.000305  0.499441  0.251003  1
