# generated using pymatgen
data_HoThTe4
_symmetry_space_group_name_H-M   'P 1'
_cell_length_a   8.06852246
_cell_length_b   8.06852241
_cell_length_c   8.06852185
_cell_angle_alpha   148.86446316
_cell_angle_beta   135.49361441
_cell_angle_gamma   55.31120045
_symmetry_Int_Tables_number   1
_chemical_formula_structural   HoThTe4
_chemical_formula_sum   'Ho1 Th1 Te4'
_cell_volume   189.14604741
_cell_formula_units_Z   1
loop_
 _symmetry_equiv_pos_site_id
 _symmetry_equiv_pos_as_xyz
  1  'x, y, z'
loop_
 _atom_site_type_symbol
 _atom_site_label
 _atom_site_symmetry_multiplicity
 _atom_site_fract_x
 _atom_site_fract_y
 _atom_site_fract_z
 _atom_site_occupancy
  Ho  Ho0  1  0.138390  0.138390  0.000000  1
  Th  Th1  1  0.861728  0.861728  0.000000  1
  Te  Te2  1  0.702835  0.202835  0.500000  1
  Te  Te3  1  0.292175  0.792175  0.500000  1
  Te  Te4  1  0.756733  0.502436  0.254297  1
  Te  Te5  1  0.248141  0.502436  0.745703  1
