# generated using pymatgen
data_SmCu2Pd2Au
_symmetry_space_group_name_H-M   'P 1'
_cell_length_a   5.11344363
_cell_length_b   5.22408996
_cell_length_c   5.22409092
_cell_angle_alpha   63.47083611
_cell_angle_beta   60.69819624
_cell_angle_gamma   60.69819045
_symmetry_Int_Tables_number   1
_chemical_formula_structural   SmCu2Pd2Au
_chemical_formula_sum   'Sm1 Cu2 Pd2 Au1'
_cell_volume   102.11357559
_cell_formula_units_Z   1
loop_
 _symmetry_equiv_pos_site_id
 _symmetry_equiv_pos_as_xyz
  1  'x, y, z'
loop_
 _atom_site_type_symbol
 _atom_site_label
 _atom_site_symmetry_multiplicity
 _atom_site_fract_x
 _atom_site_fract_y
 _atom_site_fract_z
 _atom_site_occupancy
  Sm  Sm0  1  0.997873  0.002127  0.002127  1
  Cu  Cu1  1  0.128605  0.619631  0.619631  1
  Cu  Cu2  1  0.632134  0.619631  0.619631  1
  Pd  Pd3  1  0.625730  0.624067  0.124473  1
  Pd  Pd4  1  0.625730  0.124473  0.624067  1
  Au  Au5  1  0.239927  0.260073  0.260073  1
