# generated using pymatgen
data_Tb20Bi8IrRu3
_symmetry_space_group_name_H-M   'P 1'
_cell_length_a   8.03638627
_cell_length_b   9.04832700
_cell_length_c   12.50811498
_cell_angle_alpha   90.00000000
_cell_angle_beta   89.93552947
_cell_angle_gamma   90.00000000
_symmetry_Int_Tables_number   1
_chemical_formula_structural   Tb20Bi8IrRu3
_chemical_formula_sum   'Tb20 Bi8 Ir1 Ru3'
_cell_volume   909.53764793
_cell_formula_units_Z   1
loop_
 _symmetry_equiv_pos_site_id
 _symmetry_equiv_pos_as_xyz
  1  'x, y, z'
loop_
 _atom_site_type_symbol
 _atom_site_label
 _atom_site_symmetry_multiplicity
 _atom_site_fract_x
 _atom_site_fract_y
 _atom_site_fract_z
 _atom_site_occupancy
  Tb  Tb0  1  0.843888  0.750000  0.794122  1
  Tb  Tb1  1  0.156668  0.250000  0.206466  1
  Tb  Tb2  1  0.343057  0.250000  0.705835  1
  Tb  Tb3  1  0.658304  0.750000  0.293410  1
  Tb  Tb4  1  0.375209  0.750000  0.694018  1
  Tb  Tb5  1  0.623263  0.250000  0.307057  1
  Tb  Tb6  1  0.877058  0.250000  0.806843  1
  Tb  Tb7  1  0.123438  0.750000  0.193332  1
  Tb  Tb8  1  0.946851  0.750000  0.503603  1
  Tb  Tb9  1  0.052287  0.250000  0.496097  1
  Tb  Tb10  1  0.445557  0.250000  0.996121  1
  Tb  Tb11  1  0.553577  0.750000  0.003775  1
  Tb  Tb12  1  0.677600  0.043782  0.565188  1
  Tb  Tb13  1  0.323007  0.958120  0.434876  1
  Tb  Tb14  1  0.176149  0.958088  0.935759  1
  Tb  Tb15  1  0.323007  0.541880  0.434876  1
  Tb  Tb16  1  0.824035  0.041248  0.064315  1
  Tb  Tb17  1  0.677600  0.456218  0.565188  1
  Tb  Tb18  1  0.824035  0.458752  0.064315  1
  Tb  Tb19  1  0.176149  0.541912  0.935759  1
  Bi  Bi20  1  0.570657  0.492610  0.827493  1
  Bi  Bi21  1  0.429548  0.507180  0.172453  1
  Bi  Bi22  1  0.070376  0.507149  0.672641  1
  Bi  Bi23  1  0.429548  0.992820  0.172453  1
  Bi  Bi24  1  0.929587  0.492655  0.327063  1
  Bi  Bi25  1  0.570657  0.007390  0.827493  1
  Bi  Bi26  1  0.929587  0.007345  0.327063  1
  Bi  Bi27  1  0.070376  0.992851  0.672641  1
  Ir  Ir28  1  0.572635  0.750000  0.510388  1
  Ru  Ru29  1  0.426594  0.250000  0.489156  1
  Ru  Ru30  1  0.074386  0.250000  0.988659  1
  Ru  Ru31  1  0.925313  0.750000  0.011541  1
