# generated using pymatgen
data_CaHo2Ga8Ag3
_symmetry_space_group_name_H-M   'P 1'
_cell_length_a   4.35835298
_cell_length_b   8.38687278
_cell_length_c   8.38687321
_cell_angle_alpha   70.15044963
_cell_angle_beta   74.93991698
_cell_angle_gamma   74.93991232
_symmetry_Int_Tables_number   1
_chemical_formula_structural   CaHo2Ga8Ag3
_chemical_formula_sum   'Ca1 Ho2 Ga8 Ag3'
_cell_volume   273.43251765
_cell_formula_units_Z   1
loop_
 _symmetry_equiv_pos_site_id
 _symmetry_equiv_pos_as_xyz
  1  'x, y, z'
loop_
 _atom_site_type_symbol
 _atom_site_label
 _atom_site_symmetry_multiplicity
 _atom_site_fract_x
 _atom_site_fract_y
 _atom_site_fract_z
 _atom_site_occupancy
  Ca  Ca0  1  0.500000  0.500000  0.500000  1
  Ho  Ho1  1  0.202516  0.797484  0.797484  1
  Ho  Ho2  1  0.797484  0.202516  0.202516  1
  Ga  Ga3  1  0.355583  0.362033  0.926800  1
  Ga  Ga4  1  0.644417  0.637967  0.073200  1
  Ga  Ga5  1  0.355583  0.926800  0.362033  1
  Ga  Ga6  1  0.644417  0.073200  0.637967  1
  Ga  Ga7  1  0.159791  0.472083  0.208334  1
  Ga  Ga8  1  0.840209  0.527917  0.791666  1
  Ga  Ga9  1  0.159791  0.208334  0.472083  1
  Ga  Ga10  1  0.840209  0.791666  0.527917  1
  Ag  Ag11  1  0.500000  0.000000  0.000000  1
  Ag  Ag12  1  0.000000  0.810521  0.189479  1
  Ag  Ag13  1  0.000000  0.189479  0.810521  1
