# generated using pymatgen
data_RbLuTe3O8
_symmetry_space_group_name_H-M   'P 1'
_cell_length_a   5.95764537
_cell_length_b   7.76518802
_cell_length_c   11.43656032
_cell_angle_alpha   100.51177625
_cell_angle_beta   89.17150721
_cell_angle_gamma   109.26918194
_symmetry_Int_Tables_number   1
_chemical_formula_structural   RbLuTe3O8
_chemical_formula_sum   'Rb2 Lu2 Te6 O16'
_cell_volume   490.46226445
_cell_formula_units_Z   2
loop_
 _symmetry_equiv_pos_site_id
 _symmetry_equiv_pos_as_xyz
  1  'x, y, z'
loop_
 _atom_site_type_symbol
 _atom_site_label
 _atom_site_symmetry_multiplicity
 _atom_site_fract_x
 _atom_site_fract_y
 _atom_site_fract_z
 _atom_site_occupancy
  Rb  Rb0  1  0.839314  0.119259  0.167390  1
  Rb  Rb1  1  0.160686  0.880741  0.832610  1
  Lu  Lu2  1  0.500000  0.500000  0.000000  1
  Lu  Lu3  1  0.000000  0.500000  0.500000  1
  Te  Te4  1  0.219369  0.991845  0.418296  1
  Te  Te5  1  0.780631  0.008155  0.581704  1
  Te  Te6  1  0.070893  0.681027  0.149638  1
  Te  Te7  1  0.929107  0.318973  0.850362  1
  Te  Te8  1  0.513664  0.521957  0.334595  1
  Te  Te9  1  0.486336  0.478043  0.665405  1
  O  O10  1  0.182082  0.740633  0.419252  1
  O  O11  1  0.817918  0.259367  0.580748  1
  O  O12  1  0.239285  0.933939  0.230779  1
  O  O13  1  0.760715  0.066061  0.769221  1
  O  O14  1  0.889847  0.967971  0.396776  1
  O  O15  1  0.110153  0.032029  0.603224  1
  O  O16  1  0.269251  0.679431  0.019114  1
  O  O17  1  0.730749  0.320569  0.980886  1
  O  O18  1  0.824053  0.734143  0.078152  1
  O  O19  1  0.175947  0.265857  0.921848  1
  O  O20  1  0.394842  0.430518  0.174482  1
  O  O21  1  0.605158  0.569482  0.825518  1
  O  O22  1  0.250602  0.369820  0.407491  1
  O  O23  1  0.749398  0.630180  0.592509  1
  O  O24  1  0.731146  0.393526  0.344988  1
  O  O25  1  0.268854  0.606474  0.655012  1
