# generated using pymatgen
data_Zr3Ti3BeAs2
_symmetry_space_group_name_H-M   'P 1'
_cell_length_a   7.93333744
_cell_length_b   7.93333751
_cell_length_c   7.93333881
_cell_angle_alpha   127.24033463
_cell_angle_beta   125.08196668
_cell_angle_gamma   79.63564052
_symmetry_Int_Tables_number   1
_chemical_formula_structural   Zr3Ti3BeAs2
_chemical_formula_sum   'Zr6 Ti6 Be2 As4'
_cell_volume   314.29745323
_cell_formula_units_Z   2
loop_
 _symmetry_equiv_pos_site_id
 _symmetry_equiv_pos_as_xyz
  1  'x, y, z'
loop_
 _atom_site_type_symbol
 _atom_site_label
 _atom_site_symmetry_multiplicity
 _atom_site_fract_x
 _atom_site_fract_y
 _atom_site_fract_z
 _atom_site_occupancy
  Zr  Zr0  1  0.453125  0.659505  0.706380  1
  Zr  Zr1  1  0.546875  0.253253  0.206380  1
  Zr  Zr2  1  0.749922  0.847290  0.597368  1
  Zr  Zr3  1  0.250078  0.847446  0.097368  1
  Zr  Zr4  1  0.046916  0.253308  0.706392  1
  Zr  Zr5  1  0.953084  0.659476  0.206392  1
  Ti  Ti6  1  0.500000  0.487268  0.987268  1
  Ti  Ti7  1  0.000000  0.487268  0.487268  1
  Ti  Ti8  1  0.116537  0.252963  0.135926  1
  Ti  Ti9  1  0.883463  0.019388  0.136425  1
  Ti  Ti10  1  0.382962  0.019388  0.635926  1
  Ti  Ti11  1  0.617038  0.252963  0.636425  1
  Be  Be12  1  0.250248  0.253558  0.503311  1
  Be  Be13  1  0.749752  0.253061  0.003311  1
  As  As14  1  0.333196  0.586594  0.253333  1
  As  As15  1  0.666804  0.920138  0.253399  1
  As  As16  1  0.166740  0.920138  0.753333  1
  As  As17  1  0.833260  0.586594  0.753399  1
