# generated using pymatgen
data_CeTm(MgIr4)2
_symmetry_space_group_name_H-M   'P 1'
_cell_length_a   5.30337900
_cell_length_b   5.30337794
_cell_length_c   8.58766100
_cell_angle_alpha   90.00000000
_cell_angle_beta   90.00000000
_cell_angle_gamma   120.00000040
_symmetry_Int_Tables_number   1
_chemical_formula_structural   CeTm(MgIr4)2
_chemical_formula_sum   'Ce1 Tm1 Mg2 Ir8'
_cell_volume   209.17547518
_cell_formula_units_Z   1
loop_
 _symmetry_equiv_pos_site_id
 _symmetry_equiv_pos_as_xyz
  1  'x, y, z'
loop_
 _atom_site_type_symbol
 _atom_site_label
 _atom_site_symmetry_multiplicity
 _atom_site_fract_x
 _atom_site_fract_y
 _atom_site_fract_z
 _atom_site_occupancy
  Ce  Ce0  1  0.333333  0.666667  0.071069  1
  Tm  Tm1  1  0.666667  0.333333  0.568657  1
  Mg  Mg2  1  0.666667  0.333333  0.932328  1
  Mg  Mg3  1  0.333333  0.666667  0.443329  1
  Ir  Ir4  1  0.000000  0.000000  0.995094  1
  Ir  Ir5  1  0.000000  0.000000  0.496564  1
  Ir  Ir6  1  0.829233  0.658466  0.250080  1
  Ir  Ir7  1  0.170460  0.829540  0.747573  1
  Ir  Ir8  1  0.659080  0.829540  0.747573  1
  Ir  Ir9  1  0.341534  0.170767  0.250080  1
  Ir  Ir10  1  0.829233  0.170767  0.250080  1
  Ir  Ir11  1  0.170460  0.340920  0.747573  1
