# generated using pymatgen
data_AcNi9P5
_symmetry_space_group_name_H-M   'P 1'
_cell_length_a   6.48017800
_cell_length_b   6.48017820
_cell_length_c   10.83382100
_cell_angle_alpha   90.00000000
_cell_angle_beta   90.00000000
_cell_angle_gamma   119.99999898
_symmetry_Int_Tables_number   1
_chemical_formula_structural   AcNi9P5
_chemical_formula_sum   'Ac2 Ni18 P10'
_cell_volume   393.99088646
_cell_formula_units_Z   2
loop_
 _symmetry_equiv_pos_site_id
 _symmetry_equiv_pos_as_xyz
  1  'x, y, z'
loop_
 _atom_site_type_symbol
 _atom_site_label
 _atom_site_symmetry_multiplicity
 _atom_site_fract_x
 _atom_site_fract_y
 _atom_site_fract_z
 _atom_site_occupancy
  Ac  Ac0  1  0.000000  0.000000  0.500000  1
  Ac  Ac1  1  0.000000  0.000000  0.000000  1
  Ni  Ni2  1  0.464660  0.929320  0.893985  1
  Ni  Ni3  1  0.929320  0.464660  0.106015  1
  Ni  Ni4  1  0.535340  0.070680  0.106015  1
  Ni  Ni5  1  0.070680  0.535340  0.606015  1
  Ni  Ni6  1  0.202643  0.405285  0.250000  1
  Ni  Ni7  1  0.797357  0.202643  0.750000  1
  Ni  Ni8  1  0.405285  0.202643  0.750000  1
  Ni  Ni9  1  0.594715  0.797357  0.250000  1
  Ni  Ni10  1  0.202643  0.797357  0.250000  1
  Ni  Ni11  1  0.797357  0.594715  0.750000  1
  Ni  Ni12  1  0.464660  0.929320  0.606015  1
  Ni  Ni13  1  0.535340  0.464660  0.393985  1
  Ni  Ni14  1  0.929320  0.464660  0.393985  1
  Ni  Ni15  1  0.070680  0.535340  0.893985  1
  Ni  Ni16  1  0.464660  0.535340  0.893985  1
  Ni  Ni17  1  0.535340  0.070680  0.393985  1
  Ni  Ni18  1  0.535340  0.464660  0.106015  1
  Ni  Ni19  1  0.464660  0.535340  0.606015  1
  P  P20  1  0.175887  0.351773  0.750000  1
  P  P21  1  0.824113  0.175887  0.250000  1
  P  P22  1  0.175887  0.824113  0.750000  1
  P  P23  1  0.824113  0.648227  0.250000  1
  P  P24  1  0.333333  0.666667  0.438513  1
  P  P25  1  0.666667  0.333333  0.938513  1
  P  P26  1  0.666667  0.333333  0.561487  1
  P  P27  1  0.333333  0.666667  0.061487  1
  P  P28  1  0.351773  0.175887  0.250000  1
  P  P29  1  0.648227  0.824113  0.750000  1
