# generated using pymatgen
data_ErLu3Al12(GaIr)6
_symmetry_space_group_name_H-M   'P 1'
_cell_length_a   7.50333100
_cell_length_b   7.50409088
_cell_length_c   9.52571100
_cell_angle_alpha   90.00000000
_cell_angle_beta   90.00000000
_cell_angle_gamma   119.70013066
_symmetry_Int_Tables_number   1
_chemical_formula_structural   ErLu3Al12(GaIr)6
_chemical_formula_sum   'Er1 Lu3 Al12 Ga6 Ir6'
_cell_volume   465.89130896
_cell_formula_units_Z   1
loop_
 _symmetry_equiv_pos_site_id
 _symmetry_equiv_pos_as_xyz
  1  'x, y, z'
loop_
 _atom_site_type_symbol
 _atom_site_label
 _atom_site_symmetry_multiplicity
 _atom_site_fract_x
 _atom_site_fract_y
 _atom_site_fract_z
 _atom_site_occupancy
  Er  Er0  1  0.997041  0.670395  0.250000  1
  Lu  Lu1  1  0.002786  0.329467  0.750000  1
  Lu  Lu2  1  0.670528  0.997203  0.250000  1
  Lu  Lu3  1  0.329560  0.002849  0.750000  1
  Al  Al4  1  0.001444  0.334166  0.072570  1
  Al  Al5  1  0.998543  0.665490  0.926882  1
  Al  Al6  1  0.998543  0.665490  0.573118  1
  Al  Al7  1  0.334818  0.001735  0.427404  1
  Al  Al8  1  0.001444  0.334166  0.427430  1
  Al  Al9  1  0.665504  0.998542  0.572826  1
  Al  Al10  1  0.665504  0.998542  0.927174  1
  Al  Al11  1  0.334818  0.001735  0.072596  1
  Al  Al12  1  0.333810  0.333803  0.558433  1
  Al  Al13  1  0.665939  0.666241  0.441861  1
  Al  Al14  1  0.665939  0.666241  0.058139  1
  Al  Al15  1  0.333810  0.333803  0.941567  1
  Ga  Ga16  1  0.127777  0.128570  0.250000  1
  Ga  Ga17  1  0.872218  0.872427  0.750000  1
  Ga  Ga18  1  0.339356  0.548624  0.250000  1
  Ga  Ga19  1  0.661217  0.451359  0.750000  1
  Ga  Ga20  1  0.547581  0.337643  0.250000  1
  Ga  Ga21  1  0.451406  0.661299  0.750000  1
  Ir  Ir22  1  0.671832  0.327955  0.999845  1
  Ir  Ir23  1  0.328099  0.671842  0.999804  1
  Ir  Ir24  1  0.328099  0.671842  0.500196  1
  Ir  Ir25  1  0.671832  0.327955  0.500155  1
  Ir  Ir26  1  0.000277  0.000309  0.999688  1
  Ir  Ir27  1  0.000277  0.000309  0.500312  1
