# generated using pymatgen
data_Yb3Eu(YHg2)4
_symmetry_space_group_name_H-M   'P 1'
_cell_length_a   7.46790909
_cell_length_b   7.49404300
_cell_length_c   7.44382300
_cell_angle_alpha   90.00000000
_cell_angle_beta   89.99115388
_cell_angle_gamma   90.00000000
_symmetry_Int_Tables_number   1
_chemical_formula_structural   Yb3Eu(YHg2)4
_chemical_formula_sum   'Yb3 Eu1 Y4 Hg8'
_cell_volume   416.59229743
_cell_formula_units_Z   1
loop_
 _symmetry_equiv_pos_site_id
 _symmetry_equiv_pos_as_xyz
  1  'x, y, z'
loop_
 _atom_site_type_symbol
 _atom_site_label
 _atom_site_symmetry_multiplicity
 _atom_site_fract_x
 _atom_site_fract_y
 _atom_site_fract_z
 _atom_site_occupancy
  Yb  Yb0  1  0.749450  0.250000  0.000080  1
  Yb  Yb1  1  0.249478  0.750000  0.499919  1
  Yb  Yb2  1  0.750549  0.250000  0.500069  1
  Eu  Eu3  1  0.250799  0.750000  0.999924  1
  Y  Y4  1  0.250767  0.250000  0.000000  1
  Y  Y5  1  0.749295  0.750000  0.000001  1
  Y  Y6  1  0.750734  0.750000  0.499996  1
  Y  Y7  1  0.249217  0.250000  0.500005  1
  Hg  Hg8  1  0.997099  0.497054  0.251814  1
  Hg  Hg9  1  0.997099  0.002948  0.251814  1
  Hg  Hg10  1  0.503066  0.003074  0.253937  1
  Hg  Hg11  1  0.503066  0.496926  0.253937  1
  Hg  Hg12  1  0.502846  0.497058  0.746022  1
  Hg  Hg13  1  0.502846  0.002944  0.746022  1
  Hg  Hg14  1  0.996844  0.003104  0.748230  1
  Hg  Hg15  1  0.996844  0.496896  0.748230  1
