# generated using pymatgen
data_Y2ErZr2Sn3O
_symmetry_space_group_name_H-M   'P 1'
_cell_length_a   8.75216861
_cell_length_b   8.76135971
_cell_length_c   6.04117000
_cell_angle_alpha   90.00000000
_cell_angle_beta   90.00000000
_cell_angle_gamma   120.03474973
_symmetry_Int_Tables_number   1
_chemical_formula_structural   Y2ErZr2Sn3O
_chemical_formula_sum   'Y4 Er2 Zr4 Sn6 O2'
_cell_volume   401.03908082
_cell_formula_units_Z   2
loop_
 _symmetry_equiv_pos_site_id
 _symmetry_equiv_pos_as_xyz
  1  'x, y, z'
loop_
 _atom_site_type_symbol
 _atom_site_label
 _atom_site_symmetry_multiplicity
 _atom_site_fract_x
 _atom_site_fract_y
 _atom_site_fract_z
 _atom_site_occupancy
  Y  Y0  1  0.999986  0.771598  0.750000  1
  Y  Y1  1  0.999986  0.228388  0.250000  1
  Y  Y2  1  0.228661  0.228400  0.750000  1
  Y  Y3  1  0.228661  0.000260  0.250000  1
  Er  Er4  1  0.775146  0.775521  0.250000  1
  Er  Er5  1  0.775146  0.999624  0.750000  1
  Zr  Zr6  1  0.333589  0.666795  0.000000  1
  Zr  Zr7  1  0.333589  0.666795  0.500000  1
  Zr  Zr8  1  0.666678  0.333339  0.000000  1
  Zr  Zr9  1  0.666678  0.333339  0.500000  1
  Sn  Sn10  1  0.999466  0.594347  0.250000  1
  Sn  Sn11  1  0.999466  0.405119  0.750000  1
  Sn  Sn12  1  0.406712  0.406761  0.250000  1
  Sn  Sn13  1  0.594640  0.595279  0.750000  1
  Sn  Sn14  1  0.406712  0.999950  0.750000  1
  Sn  Sn15  1  0.594640  0.999361  0.250000  1
  O  O16  1  0.995122  0.997561  0.000000  1
  O  O17  1  0.995122  0.997561  0.500000  1
