# generated using pymatgen
data_Tb4RhPb2Au3
_symmetry_space_group_name_H-M   'P 1'
_cell_length_a   8.18863590
_cell_length_b   8.18863696
_cell_length_c   3.60200300
_cell_angle_alpha   90.00000000
_cell_angle_beta   90.00000000
_cell_angle_gamma   89.99158258
_symmetry_Int_Tables_number   1
_chemical_formula_structural   Tb4RhPb2Au3
_chemical_formula_sum   'Tb4 Rh1 Pb2 Au3'
_cell_volume   241.52786566
_cell_formula_units_Z   1
loop_
 _symmetry_equiv_pos_site_id
 _symmetry_equiv_pos_as_xyz
  1  'x, y, z'
loop_
 _atom_site_type_symbol
 _atom_site_label
 _atom_site_symmetry_multiplicity
 _atom_site_fract_x
 _atom_site_fract_y
 _atom_site_fract_z
 _atom_site_occupancy
  Tb  Tb0  1  0.682872  0.182872  0.500000  1
  Tb  Tb1  1  0.148725  0.326156  0.500000  1
  Tb  Tb2  1  0.826156  0.648725  0.500000  1
  Tb  Tb3  1  0.334295  0.834295  0.500000  1
  Rh  Rh4  1  0.874843  0.374843  0.000000  1
  Pb  Pb5  1  0.996635  0.003741  0.000000  1
  Pb  Pb6  1  0.503741  0.496635  0.000000  1
  Au  Au7  1  0.376794  0.129946  0.000000  1
  Au  Au8  1  0.125994  0.625994  0.000000  1
  Au  Au9  1  0.629946  0.876794  0.000000  1
