# generated using pymatgen
data_Ba2PaTiSe6
_symmetry_space_group_name_H-M   'P 1'
_cell_length_a   7.34145700
_cell_length_b   7.34145839
_cell_length_c   6.61356500
_cell_angle_alpha   90.00000000
_cell_angle_beta   90.00000000
_cell_angle_gamma   120.00000726
_symmetry_Int_Tables_number   1
_chemical_formula_structural   Ba2PaTiSe6
_chemical_formula_sum   'Ba2 Pa1 Ti1 Se6'
_cell_volume   308.69587568
_cell_formula_units_Z   1
loop_
 _symmetry_equiv_pos_site_id
 _symmetry_equiv_pos_as_xyz
  1  'x, y, z'
loop_
 _atom_site_type_symbol
 _atom_site_label
 _atom_site_symmetry_multiplicity
 _atom_site_fract_x
 _atom_site_fract_y
 _atom_site_fract_z
 _atom_site_occupancy
  Ba  Ba0  1  0.333333  0.666667  0.686064  1
  Ba  Ba1  1  0.666667  0.333333  0.313936  1
  Pa  Pa2  1  0.000000  0.000000  0.000000  1
  Ti  Ti3  1  0.000000  0.000000  0.500000  1
  Se  Se4  1  0.168778  0.831222  0.269543  1
  Se  Se5  1  0.168778  0.337555  0.269543  1
  Se  Se6  1  0.662445  0.831222  0.269543  1
  Se  Se7  1  0.831222  0.168778  0.730457  1
  Se  Se8  1  0.831222  0.662445  0.730457  1
  Se  Se9  1  0.337555  0.168778  0.730457  1
