# generated using pymatgen
data_Tb3Nd4Y(B6Os)4
_symmetry_space_group_name_H-M   'P 1'
_cell_length_a   3.71596200
_cell_length_b   9.25826101
_cell_length_c   11.67838901
_cell_angle_alpha   90.00500233
_cell_angle_beta   90.00000000
_cell_angle_gamma   90.00000000
_symmetry_Int_Tables_number   1
_chemical_formula_structural   Tb3Nd4Y(B6Os)4
_chemical_formula_sum   'Tb3 Nd4 Y1 B24 Os4'
_cell_volume   401.77565745
_cell_formula_units_Z   1
loop_
 _symmetry_equiv_pos_site_id
 _symmetry_equiv_pos_as_xyz
  1  'x, y, z'
loop_
 _atom_site_type_symbol
 _atom_site_label
 _atom_site_symmetry_multiplicity
 _atom_site_fract_x
 _atom_site_fract_y
 _atom_site_fract_z
 _atom_site_occupancy
  Tb  Tb0  1  0.000000  0.944141  0.372268  1
  Tb  Tb1  1  0.000000  0.055864  0.627757  1
  Tb  Tb2  1  0.000000  0.444181  0.127639  1
  Nd  Nd3  1  0.000000  0.322829  0.414143  1
  Nd  Nd4  1  0.000000  0.677172  0.585922  1
  Nd  Nd5  1  0.000000  0.822791  0.085843  1
  Nd  Nd6  1  0.000000  0.177231  0.914093  1
  Y  Y7  1  0.000000  0.555756  0.872473  1
  B  B8  1  0.500000  0.556051  0.430385  1
  B  B9  1  0.500000  0.443968  0.569630  1
  B  B10  1  0.500000  0.056039  0.069605  1
  B  B11  1  0.500000  0.943904  0.930389  1
  B  B12  1  0.500000  0.748797  0.417481  1
  B  B13  1  0.500000  0.251210  0.582513  1
  B  B14  1  0.500000  0.248790  0.082529  1
  B  B15  1  0.500000  0.751034  0.917538  1
  B  B16  1  0.500000  0.789927  0.267222  1
  B  B17  1  0.500000  0.210114  0.732809  1
  B  B18  1  0.500000  0.289932  0.232784  1
  B  B19  1  0.500000  0.709866  0.767187  1
  B  B20  1  0.500000  0.631349  0.185805  1
  B  B21  1  0.500000  0.368741  0.814336  1
  B  B22  1  0.500000  0.131360  0.314215  1
  B  B23  1  0.500000  0.868623  0.685793  1
  B  B24  1  0.500000  0.986311  0.213765  1
  B  B25  1  0.500000  0.013696  0.786227  1
  B  B26  1  0.500000  0.486300  0.286236  1
  B  B27  1  0.500000  0.513877  0.713848  1
  B  B28  1  0.500000  0.604629  0.028480  1
  B  B29  1  0.500000  0.395552  0.971118  1
  B  B30  1  0.500000  0.104669  0.471283  1
  B  B31  1  0.500000  0.895323  0.528714  1
  Os  Os32  1  0.000000  0.639010  0.319948  1
  Os  Os33  1  0.000000  0.361076  0.680055  1
  Os  Os34  1  0.000000  0.139040  0.179985  1
  Os  Os35  1  0.000000  0.860848  0.819981  1
