# generated using pymatgen
data_Tm4Co17Re3Si11P
_symmetry_space_group_name_H-M   'P 1'
_cell_length_a   3.73115300
_cell_length_b   10.49400275
_cell_length_c   11.97068564
_cell_angle_alpha   90.20924216
_cell_angle_beta   90.00000000
_cell_angle_gamma   90.00000000
_symmetry_Int_Tables_number   1
_chemical_formula_structural   Tm4Co17Re3Si11P
_chemical_formula_sum   'Tm4 Co17 Re3 Si11 P1'
_cell_volume   468.70583682
_cell_formula_units_Z   1
loop_
 _symmetry_equiv_pos_site_id
 _symmetry_equiv_pos_as_xyz
  1  'x, y, z'
loop_
 _atom_site_type_symbol
 _atom_site_label
 _atom_site_symmetry_multiplicity
 _atom_site_fract_x
 _atom_site_fract_y
 _atom_site_fract_z
 _atom_site_occupancy
  Tm  Tm0  1  0.250000  0.580861  0.702294  1
  Tm  Tm1  1  0.250000  0.919063  0.205063  1
  Tm  Tm2  1  0.750000  0.418618  0.296080  1
  Tm  Tm3  1  0.750000  0.075977  0.798017  1
  Co  Co4  1  0.750000  0.204467  0.508902  1
  Co  Co5  1  0.250000  0.404331  0.489249  1
  Co  Co6  1  0.250000  0.089863  0.987971  1
  Co  Co7  1  0.750000  0.593528  0.511074  1
  Co  Co8  1  0.750000  0.905822  0.010680  1
  Co  Co9  1  0.250000  0.214294  0.176202  1
  Co  Co10  1  0.250000  0.285428  0.672557  1
  Co  Co11  1  0.750000  0.786437  0.826655  1
  Co  Co12  1  0.750000  0.716548  0.326048  1
  Co  Co13  1  0.250000  0.886900  0.703174  1
  Co  Co14  1  0.250000  0.615936  0.197105  1
  Co  Co15  1  0.750000  0.116112  0.302693  1
  Co  Co16  1  0.750000  0.382542  0.798623  1
  Co  Co17  1  0.250000  0.466160  0.931630  1
  Co  Co18  1  0.250000  0.033491  0.433836  1
  Co  Co19  1  0.750000  0.533391  0.064511  1
  Co  Co20  1  0.750000  0.971409  0.569386  1
  Re  Re21  1  0.250000  0.704889  0.988417  1
  Re  Re22  1  0.250000  0.797322  0.492671  1
  Re  Re23  1  0.750000  0.297284  0.007673  1
  Si  Si24  1  0.250000  0.416891  0.114557  1
  Si  Si25  1  0.250000  0.085830  0.612963  1
  Si  Si26  1  0.750000  0.582539  0.882692  1
  Si  Si27  1  0.750000  0.918689  0.387625  1
  Si  Si28  1  0.250000  0.265789  0.864030  1
  Si  Si29  1  0.250000  0.230363  0.369330  1
  Si  Si30  1  0.750000  0.731974  0.135251  1
  Si  Si31  1  0.750000  0.771573  0.636083  1
  Si  Si32  1  0.250000  0.597649  0.390717  1
  Si  Si33  1  0.750000  0.397756  0.603976  1
  Si  Si34  1  0.750000  0.098350  0.109349  1
  P  P35  1  0.250000  0.901923  0.892916  1
