# generated using pymatgen
data_Ba2As6Rh7
_symmetry_space_group_name_H-M   'P 1'
_cell_length_a   11.87231000
_cell_length_b   11.87231000
_cell_length_c   4.30314300
_cell_angle_alpha   90.00000000
_cell_angle_beta   90.00000000
_cell_angle_gamma   90.00000000
_symmetry_Int_Tables_number   1
_chemical_formula_structural   Ba2As6Rh7
_chemical_formula_sum   'Ba4 As12 Rh14'
_cell_volume   606.53551370
_cell_formula_units_Z   2
loop_
 _symmetry_equiv_pos_site_id
 _symmetry_equiv_pos_as_xyz
  1  'x, y, z'
loop_
 _atom_site_type_symbol
 _atom_site_label
 _atom_site_symmetry_multiplicity
 _atom_site_fract_x
 _atom_site_fract_y
 _atom_site_fract_z
 _atom_site_occupancy
  Ba  Ba0  1  0.152599  0.652599  0.755345  1
  Ba  Ba1  1  0.347401  0.152599  0.244655  1
  Ba  Ba2  1  0.652599  0.847401  0.244655  1
  Ba  Ba3  1  0.847401  0.347401  0.755345  1
  As  As4  1  0.865272  0.116187  0.285556  1
  As  As5  1  0.365272  0.383813  0.714444  1
  As  As6  1  0.583456  0.083456  0.780124  1
  As  As7  1  0.634728  0.616187  0.714444  1
  As  As8  1  0.616187  0.365272  0.285556  1
  As  As9  1  0.083456  0.416544  0.219876  1
  As  As10  1  0.383813  0.634728  0.285556  1
  As  As11  1  0.916544  0.583456  0.219876  1
  As  As12  1  0.116187  0.134728  0.714444  1
  As  As13  1  0.416544  0.916544  0.780124  1
  As  As14  1  0.134728  0.883813  0.285556  1
  As  As15  1  0.883813  0.865272  0.714444  1
  Rh  Rh16  1  0.548094  0.282969  0.771602  1
  Rh  Rh17  1  0.048094  0.217031  0.228398  1
  Rh  Rh18  1  0.717031  0.548094  0.228398  1
  Rh  Rh19  1  0.282969  0.451906  0.228398  1
  Rh  Rh20  1  0.337419  0.837419  0.278657  1
  Rh  Rh21  1  0.837419  0.662581  0.721343  1
  Rh  Rh22  1  0.951906  0.782969  0.228398  1
  Rh  Rh23  1  0.217031  0.951906  0.771602  1
  Rh  Rh24  1  0.782969  0.048094  0.771602  1
  Rh  Rh25  1  0.000000  0.000000  0.000000  1
  Rh  Rh26  1  0.162581  0.337419  0.721343  1
  Rh  Rh27  1  0.451906  0.717031  0.771602  1
  Rh  Rh28  1  0.500000  0.500000  0.000000  1
  Rh  Rh29  1  0.662581  0.162581  0.278657  1
