# generated using pymatgen
data_Nd5HoCo8(P6Ru5)2
_symmetry_space_group_name_H-M   'P 1'
_cell_length_a   3.90076100
_cell_length_b   10.77510298
_cell_length_c   12.64289017
_cell_angle_alpha   90.04907188
_cell_angle_beta   90.00000000
_cell_angle_gamma   90.00000000
_symmetry_Int_Tables_number   1
_chemical_formula_structural   Nd5HoCo8(P6Ru5)2
_chemical_formula_sum   'Nd5 Ho1 Co8 P12 Ru10'
_cell_volume   531.39440472
_cell_formula_units_Z   1
loop_
 _symmetry_equiv_pos_site_id
 _symmetry_equiv_pos_as_xyz
  1  'x, y, z'
loop_
 _atom_site_type_symbol
 _atom_site_label
 _atom_site_symmetry_multiplicity
 _atom_site_fract_x
 _atom_site_fract_y
 _atom_site_fract_z
 _atom_site_occupancy
  Nd  Nd0  1  0.000000  0.499701  0.527247  1
  Nd  Nd1  1  0.500000  0.000545  0.473851  1
  Nd  Nd2  1  0.500000  0.819875  0.199524  1
  Nd  Nd3  1  0.500000  0.180069  0.200572  1
  Nd  Nd4  1  0.000000  0.678867  0.799548  1
  Ho  Ho5  1  0.000000  0.319014  0.800263  1
  Co  Co6  1  0.000000  0.498030  0.983949  1
  Co  Co7  1  0.500000  0.001212  0.013402  1
  Co  Co8  1  0.500000  0.332304  0.989106  1
  Co  Co9  1  0.500000  0.666403  0.989956  1
  Co  Co10  1  0.000000  0.169139  0.007815  1
  Co  Co11  1  0.000000  0.832079  0.008320  1
  Co  Co12  1  0.500000  0.497714  0.702936  1
  Co  Co13  1  0.000000  0.000271  0.298681  1
  P  P14  1  0.500000  0.311091  0.620161  1
  P  P15  1  0.500000  0.689846  0.617430  1
  P  P16  1  0.000000  0.190314  0.384130  1
  P  P17  1  0.000000  0.810090  0.382794  1
  P  P18  1  0.500000  0.496736  0.882254  1
  P  P19  1  0.000000  0.000499  0.114430  1
  P  P20  1  0.500000  0.847116  0.902169  1
  P  P21  1  0.500000  0.155391  0.901405  1
  P  P22  1  0.000000  0.651755  0.096437  1
  P  P23  1  0.000000  0.347460  0.097851  1
  P  P24  1  0.500000  0.499990  0.334408  1
  P  P25  1  0.000000  0.000246  0.666062  1
  Ru  Ru26  1  0.500000  0.298091  0.428394  1
  Ru  Ru27  1  0.500000  0.701602  0.427142  1
  Ru  Ru28  1  0.000000  0.202736  0.575247  1
  Ru  Ru29  1  0.000000  0.797832  0.573065  1
  Ru  Ru30  1  0.500000  0.878367  0.719001  1
  Ru  Ru31  1  0.500000  0.125513  0.721156  1
  Ru  Ru32  1  0.000000  0.622962  0.280334  1
  Ru  Ru33  1  0.000000  0.377269  0.281383  1
  Ru  Ru34  1  0.500000  0.499338  0.145785  1
  Ru  Ru35  1  0.000000  0.000532  0.853792  1
