# generated using pymatgen
data_Pu4Pa4Re(B8Mo)3
_symmetry_space_group_name_H-M   'P 1'
_cell_length_a   3.72616800
_cell_length_b   9.30938906
_cell_length_c   11.42396751
_cell_angle_alpha   90.07608765
_cell_angle_beta   90.00000000
_cell_angle_gamma   90.00000000
_symmetry_Int_Tables_number   1
_chemical_formula_structural   Pu4Pa4Re(B8Mo)3
_chemical_formula_sum   'Pu4 Pa4 Re1 B24 Mo3'
_cell_volume   396.27820666
_cell_formula_units_Z   1
loop_
 _symmetry_equiv_pos_site_id
 _symmetry_equiv_pos_as_xyz
  1  'x, y, z'
loop_
 _atom_site_type_symbol
 _atom_site_label
 _atom_site_symmetry_multiplicity
 _atom_site_fract_x
 _atom_site_fract_y
 _atom_site_fract_z
 _atom_site_occupancy
  Pu  Pu0  1  0.000000  0.954171  0.388819  1
  Pu  Pu1  1  0.000000  0.047095  0.610380  1
  Pu  Pu2  1  0.000000  0.453886  0.111109  1
  Pu  Pu3  1  0.000000  0.544975  0.889528  1
  Pa  Pa4  1  0.000000  0.333624  0.407679  1
  Pa  Pa5  1  0.000000  0.667230  0.592016  1
  Pa  Pa6  1  0.000000  0.833219  0.092004  1
  Pa  Pa7  1  0.000000  0.166310  0.908305  1
  Re  Re8  1  0.000000  0.854660  0.820322  1
  B  B9  1  0.500000  0.552162  0.432556  1
  B  B10  1  0.500000  0.448705  0.567782  1
  B  B11  1  0.500000  0.051061  0.066967  1
  B  B12  1  0.500000  0.947467  0.931350  1
  B  B13  1  0.500000  0.745540  0.423713  1
  B  B14  1  0.500000  0.255011  0.576623  1
  B  B15  1  0.500000  0.244958  0.076521  1
  B  B16  1  0.500000  0.754942  0.922418  1
  B  B17  1  0.500000  0.803294  0.272185  1
  B  B18  1  0.500000  0.196453  0.728268  1
  B  B19  1  0.500000  0.302966  0.227675  1
  B  B20  1  0.500000  0.697756  0.772535  1
  B  B21  1  0.500000  0.643541  0.187063  1
  B  B22  1  0.500000  0.356275  0.813086  1
  B  B23  1  0.500000  0.143101  0.312306  1
  B  B24  1  0.500000  0.856979  0.688549  1
  B  B25  1  0.500000  0.986402  0.218014  1
  B  B26  1  0.500000  0.012079  0.782110  1
  B  B27  1  0.500000  0.487023  0.281383  1
  B  B28  1  0.500000  0.513602  0.718676  1
  B  B29  1  0.500000  0.638912  0.037792  1
  B  B30  1  0.500000  0.361042  0.961856  1
  B  B31  1  0.500000  0.138779  0.461456  1
  B  B32  1  0.500000  0.861434  0.539292  1
  Mo  Mo33  1  0.000000  0.645717  0.320123  1
  Mo  Mo34  1  0.000000  0.354571  0.680209  1
  Mo  Mo35  1  0.000000  0.145061  0.179330  1
