# generated using pymatgen
data_Lu5P12Ru15Rh4
_symmetry_space_group_name_H-M   'P 1'
_cell_length_a   12.54916002
_cell_length_b   12.50350896
_cell_length_c   3.94652100
_cell_angle_alpha   90.00000000
_cell_angle_beta   90.00000000
_cell_angle_gamma   120.24309654
_symmetry_Int_Tables_number   1
_chemical_formula_structural   Lu5P12Ru15Rh4
_chemical_formula_sum   'Lu5 P12 Ru15 Rh4'
_cell_volume   534.96152412
_cell_formula_units_Z   1
loop_
 _symmetry_equiv_pos_site_id
 _symmetry_equiv_pos_as_xyz
  1  'x, y, z'
loop_
 _atom_site_type_symbol
 _atom_site_label
 _atom_site_symmetry_multiplicity
 _atom_site_fract_x
 _atom_site_fract_y
 _atom_site_fract_z
 _atom_site_occupancy
  Lu  Lu0  1  0.665720  0.332883  0.000000  1
  Lu  Lu1  1  0.334588  0.667349  0.000000  1
  Lu  Lu2  1  0.816298  0.000477  0.500000  1
  Lu  Lu3  1  0.182629  0.183120  0.500000  1
  Lu  Lu4  1  0.000563  0.816399  0.500000  1
  P  P5  1  0.629268  0.994723  0.000000  1
  P  P6  1  0.364639  0.370006  0.000000  1
  P  P7  1  0.001443  0.635310  0.000000  1
  P  P8  1  0.693195  0.523382  0.500000  1
  P  P9  1  0.830670  0.307637  0.500000  1
  P  P10  1  0.310841  0.831693  0.500000  1
  P  P11  1  0.522074  0.692847  0.500000  1
  P  P12  1  0.181842  0.999054  0.000000  1
  P  P13  1  0.817801  0.816972  0.000000  1
  P  P14  1  0.997371  0.182183  0.000000  1
  P  P15  1  0.475346  0.168932  0.500000  1
  P  P16  1  0.173689  0.477371  0.500000  1
  Ru  Ru17  1  0.622994  0.804554  0.000000  1
  Ru  Ru18  1  0.181547  0.377177  0.000000  1
  Ru  Ru19  1  0.375623  0.185817  0.000000  1
  Ru  Ru20  1  0.195072  0.815471  0.000000  1
  Ru  Ru21  1  0.807997  0.622227  0.000000  1
  Ru  Ru22  1  0.365912  0.491395  0.500000  1
  Ru  Ru23  1  0.509651  0.873914  0.500000  1
  Ru  Ru24  1  0.999817  0.000432  0.000000  1
  Ru  Ru25  1  0.718585  0.717506  0.500000  1
  Ru  Ru26  1  0.998444  0.282287  0.500000  1
  Ru  Ru27  1  0.450278  0.004444  0.000000  1
  Ru  Ru28  1  0.553730  0.549202  0.000000  1
  Ru  Ru29  1  0.997246  0.448675  0.000000  1
  Ru  Ru30  1  0.812721  0.191105  0.000000  1
  Ru  Ru31  1  0.281324  0.999527  0.500000  1
  Rh  Rh32  1  0.869849  0.505793  0.500000  1
  Rh  Rh33  1  0.495412  0.364136  0.500000  1
  Rh  Rh34  1  0.634812  0.131648  0.500000  1
  Rh  Rh35  1  0.131010  0.634348  0.500000  1
