# generated using pymatgen
data_Dy3ErGa18PtRh5
_symmetry_space_group_name_H-M   'P 1'
_cell_length_a   7.57836124
_cell_length_b   7.57720143
_cell_length_c   9.48029215
_cell_angle_alpha   89.97274094
_cell_angle_beta   89.98540414
_cell_angle_gamma   119.76277980
_symmetry_Int_Tables_number   1
_chemical_formula_structural   Dy3ErGa18PtRh5
_chemical_formula_sum   'Dy3 Er1 Ga18 Pt1 Rh5'
_cell_volume   472.57369841
_cell_formula_units_Z   1
loop_
 _symmetry_equiv_pos_site_id
 _symmetry_equiv_pos_as_xyz
  1  'x, y, z'
loop_
 _atom_site_type_symbol
 _atom_site_label
 _atom_site_symmetry_multiplicity
 _atom_site_fract_x
 _atom_site_fract_y
 _atom_site_fract_z
 _atom_site_occupancy
  Dy  Dy0  1  0.001145  0.329670  0.750120  1
  Dy  Dy1  1  0.670508  0.999093  0.249836  1
  Dy  Dy2  1  0.332446  0.004670  0.749769  1
  Er  Er3  1  0.995288  0.667843  0.250480  1
  Ga  Ga4  1  0.126450  0.124930  0.250363  1
  Ga  Ga5  1  0.875247  0.873567  0.749590  1
  Ga  Ga6  1  0.005043  0.335566  0.081884  1
  Ga  Ga7  1  0.004395  0.669171  0.919369  1
  Ga  Ga8  1  0.001490  0.665553  0.578702  1
  Ga  Ga9  1  0.334081  0.998008  0.420283  1
  Ga  Ga10  1  0.999934  0.335225  0.419964  1
  Ga  Ga11  1  0.665457  0.000032  0.579473  1
  Ga  Ga12  1  0.665172  0.994641  0.918616  1
  Ga  Ga13  1  0.330002  0.994700  0.081853  1
  Ga  Ga14  1  0.331330  0.331646  0.563296  1
  Ga  Ga15  1  0.668622  0.668670  0.435741  1
  Ga  Ga16  1  0.668003  0.670807  0.067644  1
  Ga  Ga17  1  0.329101  0.332475  0.933325  1
  Ga  Ga18  1  0.340185  0.550601  0.250645  1
  Ga  Ga19  1  0.660529  0.456461  0.746674  1
  Ga  Ga20  1  0.544036  0.339913  0.253212  1
  Ga  Ga21  1  0.449874  0.659495  0.749399  1
  Pt  Pt22  1  0.671851  0.327362  0.999985  1
  Rh  Rh23  1  0.329098  0.671002  0.000205  1
  Rh  Rh24  1  0.328646  0.671422  0.499879  1
  Rh  Rh25  1  0.672049  0.328017  0.499745  1
  Rh  Rh26  1  0.000086  0.999699  0.000315  1
  Rh  Rh27  1  0.999931  0.999762  0.499631  1
