# generated using pymatgen
data_Tb2ZrMo2P7Rh9
_symmetry_space_group_name_H-M   'P 1'
_cell_length_a   3.93721978
_cell_length_b   9.63030577
_cell_length_c   9.62438245
_cell_angle_alpha   120.11562914
_cell_angle_beta   90.00475513
_cell_angle_gamma   90.00051274
_symmetry_Int_Tables_number   1
_chemical_formula_structural   Tb2ZrMo2P7Rh9
_chemical_formula_sum   'Tb2 Zr1 Mo2 P7 Rh9'
_cell_volume   315.66471247
_cell_formula_units_Z   1
loop_
 _symmetry_equiv_pos_site_id
 _symmetry_equiv_pos_as_xyz
  1  'x, y, z'
loop_
 _atom_site_type_symbol
 _atom_site_label
 _atom_site_symmetry_multiplicity
 _atom_site_fract_x
 _atom_site_fract_y
 _atom_site_fract_z
 _atom_site_occupancy
  Tb  Tb0  1  0.261948  0.662739  0.331717  1
  Tb  Tb1  1  0.761913  0.334686  0.666869  1
  Zr  Zr2  1  0.761923  0.098509  0.877239  1
  Mo  Mo3  1  0.761897  0.126697  0.222015  1
  Mo  Mo4  1  0.761909  0.783394  0.912745  1
  P  P5  1  0.261883  0.995558  0.003171  1
  P  P6  1  0.761905  0.868348  0.578956  1
  P  P7  1  0.761890  0.403083  0.287535  1
  P  P8  1  0.761924  0.715736  0.119444  1
  P  P9  1  0.261826  0.117059  0.413248  1
  P  P10  1  0.261836  0.586472  0.703186  1
  P  P11  1  0.261923  0.304607  0.883162  1
  Rh  Rh12  1  0.261928  0.884608  0.162733  1
  Rh  Rh13  1  0.261881  0.835616  0.720446  1
  Rh  Rh14  1  0.261933  0.277445  0.118102  1
  Rh  Rh15  1  0.761861  0.608305  0.559593  1
  Rh  Rh16  1  0.761934  0.446599  0.055204  1
  Rh  Rh17  1  0.761924  0.945348  0.386123  1
  Rh  Rh18  1  0.261879  0.367227  0.437971  1
  Rh  Rh19  1  0.261938  0.566898  0.931567  1
  Rh  Rh20  1  0.261942  0.071066  0.628973  1
