# generated using pymatgen
data_PuU3(CoB4)4
_symmetry_space_group_name_H-M   'P 1'
_cell_length_a   3.36466000
_cell_length_b   5.92183949
_cell_length_c   11.48723097
_cell_angle_alpha   90.01780980
_cell_angle_beta   90.00000000
_cell_angle_gamma   90.00000000
_symmetry_Int_Tables_number   1
_chemical_formula_structural   PuU3(CoB4)4
_chemical_formula_sum   'Pu1 U3 Co4 B16'
_cell_volume   228.88279557
_cell_formula_units_Z   1
loop_
 _symmetry_equiv_pos_site_id
 _symmetry_equiv_pos_as_xyz
  1  'x, y, z'
loop_
 _atom_site_type_symbol
 _atom_site_label
 _atom_site_symmetry_multiplicity
 _atom_site_fract_x
 _atom_site_fract_y
 _atom_site_fract_z
 _atom_site_occupancy
  Pu  Pu0  1  0.500000  0.872713  0.350069  1
  U  U1  1  0.500000  0.373492  0.150371  1
  U  U2  1  0.500000  0.627071  0.849745  1
  U  U3  1  0.500000  0.126998  0.649935  1
  Co  Co4  1  0.500000  0.368459  0.412230  1
  Co  Co5  1  0.500000  0.632549  0.588934  1
  Co  Co6  1  0.500000  0.132209  0.912221  1
  Co  Co7  1  0.500000  0.867621  0.087025  1
  B  B8  1  0.000000  0.113305  0.045697  1
  B  B9  1  0.000000  0.886301  0.953744  1
  B  B10  1  0.000000  0.387040  0.546459  1
  B  B11  1  0.000000  0.613162  0.454267  1
  B  B12  1  0.000000  0.137821  0.466273  1
  B  B13  1  0.000000  0.863010  0.534535  1
  B  B14  1  0.000000  0.363753  0.965756  1
  B  B15  1  0.000000  0.635656  0.033606  1
  B  B16  1  0.000000  0.023923  0.190197  1
  B  B17  1  0.000000  0.975099  0.808491  1
  B  B18  1  0.000000  0.475009  0.691489  1
  B  B19  1  0.000000  0.523915  0.309414  1
  B  B20  1  0.000000  0.218674  0.314527  1
  B  B21  1  0.000000  0.782377  0.686358  1
  B  B22  1  0.000000  0.282507  0.813540  1
  B  B23  1  0.000000  0.717336  0.185119  1
