# generated using pymatgen
data_Ca10AgIr3
_symmetry_space_group_name_H-M   'P 1'
_cell_length_a   8.72196397
_cell_length_b   8.75264035
_cell_length_c   7.74999315
_cell_angle_alpha   83.00594247
_cell_angle_beta   82.46464216
_cell_angle_gamma   44.21549928
_symmetry_Int_Tables_number   1
_chemical_formula_structural   Ca10AgIr3
_chemical_formula_sum   'Ca10 Ag1 Ir3'
_cell_volume   408.68949773
_cell_formula_units_Z   1
loop_
 _symmetry_equiv_pos_site_id
 _symmetry_equiv_pos_as_xyz
  1  'x, y, z'
loop_
 _atom_site_type_symbol
 _atom_site_label
 _atom_site_symmetry_multiplicity
 _atom_site_fract_x
 _atom_site_fract_y
 _atom_site_fract_z
 _atom_site_occupancy
  Ca  Ca0  1  0.022581  0.808388  0.934501  1
  Ca  Ca1  1  0.199987  0.986767  0.584000  1
  Ca  Ca2  1  0.983066  0.196608  0.085623  1
  Ca  Ca3  1  0.779312  0.050220  0.411362  1
  Ca  Ca4  1  0.375012  0.182842  0.834698  1
  Ca  Ca5  1  0.787636  0.634145  0.675938  1
  Ca  Ca6  1  0.640373  0.792873  0.177041  1
  Ca  Ca7  1  0.198420  0.355704  0.307883  1
  Ca  Ca8  1  0.587488  0.417386  0.761873  1
  Ca  Ca9  1  0.434300  0.576274  0.232508  1
  Ag  Ag10  1  0.182773  0.596912  0.578224  1
  Ir  Ir11  1  0.393865  0.824695  0.914348  1
  Ir  Ir12  1  0.820955  0.396362  0.417502  1
  Ir  Ir13  1  0.594231  0.180823  0.084498  1
