# generated using pymatgen
data_Dy9Tm(GaCo5)2
_symmetry_space_group_name_H-M   'P 1'
_cell_length_a   5.47985672
_cell_length_b   5.47985832
_cell_length_c   20.48546700
_cell_angle_alpha   90.00000000
_cell_angle_beta   90.00000000
_cell_angle_gamma   137.02956081
_symmetry_Int_Tables_number   1
_chemical_formula_structural   Dy9Tm(GaCo5)2
_chemical_formula_sum   'Dy9 Tm1 Ga2 Co10'
_cell_volume   419.30237868
_cell_formula_units_Z   1
loop_
 _symmetry_equiv_pos_site_id
 _symmetry_equiv_pos_as_xyz
  1  'x, y, z'
loop_
 _atom_site_type_symbol
 _atom_site_label
 _atom_site_symmetry_multiplicity
 _atom_site_fract_x
 _atom_site_fract_y
 _atom_site_fract_z
 _atom_site_occupancy
  Dy  Dy0  1  0.289217  0.710783  0.250000  1
  Dy  Dy1  1  0.291488  0.708512  0.065771  1
  Dy  Dy2  1  0.997692  0.002308  0.842366  1
  Dy  Dy3  1  0.708557  0.291443  0.566198  1
  Dy  Dy4  1  0.002632  0.997368  0.343015  1
  Dy  Dy5  1  0.997692  0.002308  0.657634  1
  Dy  Dy6  1  0.708557  0.291443  0.933802  1
  Dy  Dy7  1  0.002632  0.997368  0.156985  1
  Dy  Dy8  1  0.291488  0.708512  0.434229  1
  Tm  Tm9  1  0.712282  0.287718  0.750000  1
  Ga  Ga10  1  0.999986  0.000014  0.500113  1
  Ga  Ga11  1  0.999986  0.000014  0.999887  1
  Co  Co12  1  0.293568  0.706432  0.654775  1
  Co  Co13  1  0.582340  0.417660  0.441498  1
  Co  Co14  1  0.412494  0.587506  0.750000  1
  Co  Co15  1  0.417276  0.582724  0.941290  1
  Co  Co16  1  0.586460  0.413540  0.250000  1
  Co  Co17  1  0.417276  0.582724  0.558710  1
  Co  Co18  1  0.706235  0.293765  0.345582  1
  Co  Co19  1  0.706235  0.293765  0.154418  1
  Co  Co20  1  0.582340  0.417660  0.058502  1
  Co  Co21  1  0.293568  0.706432  0.845225  1
