# generated using pymatgen
data_Nd3Th5(MgRh)8
_symmetry_space_group_name_H-M   'P 1'
_cell_length_a   4.03180700
_cell_length_b   7.77929997
_cell_length_c   17.01889986
_cell_angle_alpha   90.65816555
_cell_angle_beta   90.00000000
_cell_angle_gamma   90.00000000
_symmetry_Int_Tables_number   1
_chemical_formula_structural   Nd3Th5(MgRh)8
_chemical_formula_sum   'Nd3 Th5 Mg8 Rh8'
_cell_volume   533.75638259
_cell_formula_units_Z   1
loop_
 _symmetry_equiv_pos_site_id
 _symmetry_equiv_pos_as_xyz
  1  'x, y, z'
loop_
 _atom_site_type_symbol
 _atom_site_label
 _atom_site_symmetry_multiplicity
 _atom_site_fract_x
 _atom_site_fract_y
 _atom_site_fract_z
 _atom_site_occupancy
  Nd  Nd0  1  0.750000  0.444593  0.219456  1
  Nd  Nd1  1  0.250000  0.050780  0.717987  1
  Nd  Nd2  1  0.250000  0.552867  0.781620  1
  Th  Th3  1  0.250000  0.168956  0.936356  1
  Th  Th4  1  0.250000  0.665620  0.563059  1
  Th  Th5  1  0.750000  0.329874  0.436992  1
  Th  Th6  1  0.750000  0.948213  0.279764  1
  Th  Th7  1  0.750000  0.838680  0.061932  1
  Mg  Mg8  1  0.750000  0.010788  0.564717  1
  Mg  Mg9  1  0.250000  0.624147  0.347971  1
  Mg  Mg10  1  0.750000  0.371636  0.652021  1
  Mg  Mg11  1  0.250000  0.494862  0.066017  1
  Mg  Mg12  1  0.750000  0.512382  0.935567  1
  Mg  Mg13  1  0.250000  0.984749  0.437511  1
  Mg  Mg14  1  0.250000  0.133671  0.149351  1
  Mg  Mg15  1  0.750000  0.872485  0.847624  1
  Rh  Rh16  1  0.750000  0.733047  0.443953  1
  Rh  Rh17  1  0.250000  0.234219  0.318536  1
  Rh  Rh18  1  0.750000  0.241015  0.820506  1
  Rh  Rh19  1  0.750000  0.740979  0.679159  1
  Rh  Rh20  1  0.250000  0.266991  0.553213  1
  Rh  Rh21  1  0.250000  0.773598  0.186821  1
  Rh  Rh22  1  0.750000  0.238641  0.053240  1
  Rh  Rh23  1  0.250000  0.767207  0.946627  1
