# generated using pymatgen
data_Cs4Rb4MnZn2CoBr16
_symmetry_space_group_name_H-M   'P 1'
_cell_length_a   7.84807900
_cell_length_b   10.25331276
_cell_length_c   13.68107800
_cell_angle_alpha   89.97799435
_cell_angle_beta   90.00000000
_cell_angle_gamma   90.00000000
_symmetry_Int_Tables_number   1
_chemical_formula_structural   Cs4Rb4MnZn2CoBr16
_chemical_formula_sum   'Cs4 Rb4 Mn1 Zn2 Co1 Br16'
_cell_volume   1100.89996477
_cell_formula_units_Z   1
loop_
 _symmetry_equiv_pos_site_id
 _symmetry_equiv_pos_as_xyz
  1  'x, y, z'
loop_
 _atom_site_type_symbol
 _atom_site_label
 _atom_site_symmetry_multiplicity
 _atom_site_fract_x
 _atom_site_fract_y
 _atom_site_fract_z
 _atom_site_occupancy
  Cs  Cs0  1  0.250000  0.638318  0.909661  1
  Cs  Cs1  1  0.750000  0.361896  0.089887  1
  Cs  Cs2  1  0.750000  0.862072  0.409531  1
  Cs  Cs3  1  0.250000  0.137698  0.591074  1
  Rb  Rb4  1  0.250000  0.984671  0.171924  1
  Rb  Rb5  1  0.750000  0.015997  0.827759  1
  Rb  Rb6  1  0.750000  0.515593  0.673132  1
  Rb  Rb7  1  0.250000  0.484408  0.327163  1
  Mn  Mn8  1  0.750000  0.268187  0.422399  1
  Zn  Zn9  1  0.250000  0.732258  0.578013  1
  Zn  Zn10  1  0.750000  0.767843  0.078066  1
  Co  Co11  1  0.250000  0.232250  0.922313  1
  Br  Br12  1  0.995520  0.816005  0.657472  1
  Br  Br13  1  0.008910  0.182053  0.340850  1
  Br  Br14  1  0.004586  0.683735  0.157351  1
  Br  Br15  1  0.491090  0.182053  0.340850  1
  Br  Br16  1  0.999071  0.314796  0.843423  1
  Br  Br17  1  0.504480  0.816005  0.657472  1
  Br  Br18  1  0.500929  0.314796  0.843423  1
  Br  Br19  1  0.495414  0.683735  0.157351  1
  Br  Br20  1  0.250000  0.495561  0.587042  1
  Br  Br21  1  0.750000  0.509586  0.412806  1
  Br  Br22  1  0.750000  0.004146  0.087126  1
  Br  Br23  1  0.250000  0.998670  0.912660  1
  Br  Br24  1  0.250000  0.313358  0.087590  1
  Br  Br25  1  0.750000  0.686108  0.910005  1
  Br  Br26  1  0.750000  0.184693  0.593642  1
  Br  Br27  1  0.250000  0.813510  0.410020  1
