# generated using pymatgen
data_Dy6P13Ir20
_symmetry_space_group_name_H-M   'P 1'
_cell_length_a   13.35154600
_cell_length_b   13.35154462
_cell_length_c   3.96879100
_cell_angle_alpha   90.00000000
_cell_angle_beta   90.00000000
_cell_angle_gamma   119.99999846
_symmetry_Int_Tables_number   1
_chemical_formula_structural   Dy6P13Ir20
_chemical_formula_sum   'Dy6 P13 Ir20'
_cell_volume   612.70572098
_cell_formula_units_Z   1
loop_
 _symmetry_equiv_pos_site_id
 _symmetry_equiv_pos_as_xyz
  1  'x, y, z'
loop_
 _atom_site_type_symbol
 _atom_site_label
 _atom_site_symmetry_multiplicity
 _atom_site_fract_x
 _atom_site_fract_y
 _atom_site_fract_z
 _atom_site_occupancy
  Dy  Dy0  1  0.527175  0.716487  0.247733  1
  Dy  Dy1  1  0.283513  0.810688  0.247733  1
  Dy  Dy2  1  0.189312  0.472825  0.247733  1
  Dy  Dy3  1  0.472825  0.283513  0.752267  1
  Dy  Dy4  1  0.716487  0.189312  0.752267  1
  Dy  Dy5  1  0.810688  0.527175  0.752267  1
  P  P6  1  0.526708  0.140183  0.250389  1
  P  P7  1  0.859817  0.386525  0.250389  1
  P  P8  1  0.613475  0.473292  0.250389  1
  P  P9  1  0.944275  0.710818  0.257568  1
  P  P10  1  0.289182  0.233456  0.257568  1
  P  P11  1  0.766544  0.055725  0.257568  1
  P  P12  1  0.386525  0.526708  0.749611  1
  P  P13  1  0.473292  0.859817  0.749611  1
  P  P14  1  0.140183  0.613475  0.749611  1
  P  P15  1  0.710818  0.766544  0.742432  1
  P  P16  1  0.233456  0.944275  0.742432  1
  P  P17  1  0.055725  0.289182  0.742432  1
  P  P18  1  0.000000  0.000000  0.000000  1
  Ir  Ir19  1  0.333333  0.666667  0.751339  1
  Ir  Ir20  1  0.917264  0.247611  0.252566  1
  Ir  Ir21  1  0.752389  0.669653  0.252566  1
  Ir  Ir22  1  0.330347  0.082736  0.252566  1
  Ir  Ir23  1  0.437239  0.021778  0.751552  1
  Ir  Ir24  1  0.978222  0.415462  0.751552  1
  Ir  Ir25  1  0.584538  0.562761  0.751552  1
  Ir  Ir26  1  0.666667  0.333333  0.248661  1
  Ir  Ir27  1  0.097425  0.186596  0.251803  1
  Ir  Ir28  1  0.813404  0.910829  0.251803  1
  Ir  Ir29  1  0.089171  0.902575  0.251803  1
  Ir  Ir30  1  0.021778  0.584538  0.248448  1
  Ir  Ir31  1  0.415462  0.437239  0.248448  1
  Ir  Ir32  1  0.562761  0.978222  0.248448  1
  Ir  Ir33  1  0.669653  0.917264  0.747434  1
  Ir  Ir34  1  0.082736  0.752389  0.747434  1
  Ir  Ir35  1  0.247611  0.330347  0.747434  1
  Ir  Ir36  1  0.902575  0.813404  0.748197  1
  Ir  Ir37  1  0.186596  0.089171  0.748197  1
  Ir  Ir38  1  0.910829  0.097425  0.748197  1
