# generated using pymatgen
data_CeNiTeO6
_symmetry_space_group_name_H-M   'P 1'
_cell_length_a   5.22267898
_cell_length_b   9.04652506
_cell_length_c   9.80785694
_cell_angle_alpha   89.99556042
_cell_angle_beta   90.00096105
_cell_angle_gamma   90.00693201
_symmetry_Int_Tables_number   1
_chemical_formula_structural   CeNiTeO6
_chemical_formula_sum   'Ce4 Ni4 Te4 O24'
_cell_volume   463.39275589
_cell_formula_units_Z   4
loop_
 _symmetry_equiv_pos_site_id
 _symmetry_equiv_pos_as_xyz
  1  'x, y, z'
loop_
 _atom_site_type_symbol
 _atom_site_label
 _atom_site_symmetry_multiplicity
 _atom_site_fract_x
 _atom_site_fract_y
 _atom_site_fract_z
 _atom_site_occupancy
  Ce  Ce0  1  0.000000  0.000000  0.500000  1
  Ce  Ce1  1  0.500000  0.500000  0.500000  1
  Ce  Ce2  1  0.000000  0.000000  0.000000  1
  Ce  Ce3  1  0.500000  0.500000  0.000000  1
  Ni  Ni4  1  0.500122  0.833333  0.750021  1
  Ni  Ni5  1  0.499878  0.166667  0.249979  1
  Ni  Ni6  1  0.000122  0.333333  0.750021  1
  Ni  Ni7  1  0.999878  0.666667  0.249979  1
  Te  Te8  1  0.500110  0.166526  0.749989  1
  Te  Te9  1  0.000110  0.666526  0.749989  1
  Te  Te10  1  0.999890  0.333474  0.250011  1
  Te  Te11  1  0.499890  0.833474  0.250011  1
  O  O12  1  0.645379  0.009484  0.637725  1
  O  O13  1  0.145379  0.509484  0.637725  1
  O  O14  1  0.663194  0.318024  0.637736  1
  O  O15  1  0.163194  0.818024  0.637736  1
  O  O16  1  0.191545  0.172564  0.637765  1
  O  O17  1  0.691545  0.672564  0.637765  1
  O  O18  1  0.163004  0.182001  0.137712  1
  O  O19  1  0.663004  0.682001  0.137712  1
  O  O20  1  0.145228  0.490532  0.137712  1
  O  O21  1  0.645228  0.990532  0.137712  1
  O  O22  1  0.691399  0.327448  0.137770  1
  O  O23  1  0.191399  0.827448  0.137770  1
  O  O24  1  0.854621  0.490516  0.362275  1
  O  O25  1  0.354621  0.990516  0.362275  1
  O  O26  1  0.836806  0.181976  0.362264  1
  O  O27  1  0.336806  0.681976  0.362264  1
  O  O28  1  0.308455  0.327436  0.362235  1
  O  O29  1  0.808455  0.827436  0.362235  1
  O  O30  1  0.336996  0.317999  0.862288  1
  O  O31  1  0.836996  0.817999  0.862288  1
  O  O32  1  0.354772  0.009468  0.862288  1
  O  O33  1  0.854772  0.509468  0.862288  1
  O  O34  1  0.808601  0.172552  0.862230  1
  O  O35  1  0.308601  0.672552  0.862230  1
