# generated using pymatgen
data_Tb5Ho7GaNi2SnRu2
_symmetry_space_group_name_H-M   'P 1'
_cell_length_a   8.33668829
_cell_length_b   8.33652362
_cell_length_c   8.34336200
_cell_angle_alpha   113.01095901
_cell_angle_beta   110.17454350
_cell_angle_gamma   105.28145819
_symmetry_Int_Tables_number   1
_chemical_formula_structural   Tb5Ho7GaNi2SnRu2
_chemical_formula_sum   'Tb5 Ho7 Ga1 Ni2 Sn1 Ru2'
_cell_volume   444.53367966
_cell_formula_units_Z   1
loop_
 _symmetry_equiv_pos_site_id
 _symmetry_equiv_pos_as_xyz
  1  'x, y, z'
loop_
 _atom_site_type_symbol
 _atom_site_label
 _atom_site_symmetry_multiplicity
 _atom_site_fract_x
 _atom_site_fract_y
 _atom_site_fract_z
 _atom_site_occupancy
  Tb  Tb0  1  0.435589  0.238642  0.196310  1
  Tb  Tb1  1  0.565351  0.761881  0.804503  1
  Tb  Tb2  1  0.042596  0.239251  0.804579  1
  Tb  Tb3  1  0.957710  0.760631  0.196243  1
  Tb  Tb4  1  0.179153  0.279180  0.458368  1
  Ho  Ho5  1  0.820711  0.721067  0.541750  1
  Ho  Ho6  1  0.179150  0.721054  0.900094  1
  Ho  Ho7  1  0.820168  0.278777  0.099092  1
  Ho  Ho8  1  0.328423  0.641610  0.313565  1
  Ho  Ho9  1  0.672712  0.358968  0.687058  1
  Ho  Ho10  1  0.328163  0.014382  0.687045  1
  Ho  Ho11  1  0.671975  0.985265  0.313642  1
  Ga  Ga12  1  0.999522  0.999031  0.998529  1
  Ni  Ni13  1  0.116174  0.618033  0.499242  1
  Ni  Ni14  1  0.881345  0.383183  0.499637  1
  Sn  Sn15  1  0.500390  0.499841  0.000324  1
  Ru  Ru16  1  0.331445  0.999397  0.330788  1
  Ru  Ru17  1  0.669421  0.999810  0.669231  1
