# generated using pymatgen
data_Er6Tm4Sn5Bi
_symmetry_space_group_name_H-M   'P 1'
_cell_length_a   8.89516600
_cell_length_b   8.90009351
_cell_length_c   6.44810300
_cell_angle_alpha   90.00000000
_cell_angle_beta   90.00000000
_cell_angle_gamma   119.98168720
_symmetry_Int_Tables_number   1
_chemical_formula_structural   Er6Tm4Sn5Bi
_chemical_formula_sum   'Er6 Tm4 Sn5 Bi1'
_cell_volume   442.17210015
_cell_formula_units_Z   1
loop_
 _symmetry_equiv_pos_site_id
 _symmetry_equiv_pos_as_xyz
  1  'x, y, z'
loop_
 _atom_site_type_symbol
 _atom_site_label
 _atom_site_symmetry_multiplicity
 _atom_site_fract_x
 _atom_site_fract_y
 _atom_site_fract_z
 _atom_site_occupancy
  Er  Er0  1  0.993578  0.757735  0.750000  1
  Er  Er1  1  0.000604  0.238926  0.250000  1
  Er  Er2  1  0.761678  0.761074  0.250000  1
  Er  Er3  1  0.765113  0.000000  0.750000  1
  Er  Er4  1  0.235843  0.242265  0.750000  1
  Er  Er5  1  0.237604  0.000000  0.250000  1
  Tm  Tm6  1  0.332800  0.662183  0.498161  1
  Tm  Tm7  1  0.670619  0.337817  0.001839  1
  Tm  Tm8  1  0.670619  0.337817  0.498161  1
  Tm  Tm9  1  0.332800  0.662183  0.001839  1
  Sn  Sn10  1  0.395660  0.393254  0.250000  1
  Sn  Sn11  1  0.002408  0.606746  0.250000  1
  Sn  Sn12  1  0.999099  0.395835  0.750000  1
  Sn  Sn13  1  0.603264  0.604165  0.750000  1
  Sn  Sn14  1  0.605268  0.000000  0.250000  1
  Bi  Bi15  1  0.393041  0.000000  0.750000  1
