# generated using pymatgen
data_Tb5TmAl24GaFe4Ru3
_symmetry_space_group_name_H-M   'P 1'
_cell_length_a   8.76719097
_cell_length_b   8.76947006
_cell_length_c   9.44797030
_cell_angle_alpha   90.19931185
_cell_angle_beta   89.81370257
_cell_angle_gamma   119.73434871
_symmetry_Int_Tables_number   1
_chemical_formula_structural   Tb5TmAl24GaFe4Ru3
_chemical_formula_sum   'Tb5 Tm1 Al24 Ga1 Fe4 Ru3'
_cell_volume   630.74818536
_cell_formula_units_Z   1
loop_
 _symmetry_equiv_pos_site_id
 _symmetry_equiv_pos_as_xyz
  1  'x, y, z'
loop_
 _atom_site_type_symbol
 _atom_site_label
 _atom_site_symmetry_multiplicity
 _atom_site_fract_x
 _atom_site_fract_y
 _atom_site_fract_z
 _atom_site_occupancy
  Tb  Tb0  1  0.805326  0.194539  0.746666  1
  Tb  Tb1  1  0.194602  0.804933  0.253326  1
  Tb  Tb2  1  0.385466  0.193485  0.756868  1
  Tb  Tb3  1  0.614272  0.806197  0.243106  1
  Tb  Tb4  1  0.806556  0.614446  0.756821  1
  Tm  Tm5  1  0.193936  0.387482  0.243609  1
  Al  Al6  1  0.676499  0.323867  0.983100  1
  Al  Al7  1  0.323244  0.675350  0.017478  1
  Al  Al8  1  0.333216  0.666004  0.481477  1
  Al  Al9  1  0.666462  0.333467  0.518015  1
  Al  Al10  1  0.840490  0.160262  0.420959  1
  Al  Al11  1  0.160086  0.839991  0.578613  1
  Al  Al12  1  0.318470  0.159043  0.426111  1
  Al  Al13  1  0.160773  0.839146  0.922965  1
  Al  Al14  1  0.681169  0.841186  0.573399  1
  Al  Al15  1  0.839949  0.161193  0.077516  1
  Al  Al16  1  0.841076  0.681115  0.426337  1
  Al  Al17  1  0.682284  0.856907  0.920948  1
  Al  Al18  1  0.158794  0.318775  0.572974  1
  Al  Al19  1  0.317489  0.143430  0.079499  1
  Al  Al20  1  0.143089  0.317904  0.921675  1
  Al  Al21  1  0.856970  0.682151  0.079219  1
  Al  Al22  1  0.433256  0.566684  0.742757  1
  Al  Al23  1  0.565867  0.433068  0.257008  1
  Al  Al24  1  0.118449  0.560798  0.756306  1
  Al  Al25  1  0.882280  0.438898  0.243711  1
  Al  Al26  1  0.439036  0.881386  0.756070  1
  Al  Al27  1  0.560990  0.118616  0.243924  1
  Al  Al28  1  0.001033  0.998954  0.749332  1
  Al  Al29  1  0.999664  0.002244  0.250772  1
  Ga  Ga30  1  0.499855  0.499851  0.000111  1
  Fe  Fe31  1  0.000289  0.499684  0.000426  1
  Fe  Fe32  1  0.499785  0.999720  0.000052  1
  Fe  Fe33  1  0.999905  0.000082  0.000011  1
  Fe  Fe34  1  0.999970  0.999931  0.499939  1
  Ru  Ru35  1  0.499262  0.499728  0.499492  1
  Ru  Ru36  1  0.000283  0.499755  0.499553  1
  Ru  Ru37  1  0.499859  0.999728  0.499855  1
