# generated using pymatgen
data_Ca2Zr3Ni9As7
_symmetry_space_group_name_H-M   'P 1'
_cell_length_a   3.88837600
_cell_length_b   9.83291459
_cell_length_c   9.83291600
_cell_angle_alpha   119.99999801
_cell_angle_beta   90.00000000
_cell_angle_gamma   90.00000000
_symmetry_Int_Tables_number   1
_chemical_formula_structural   Ca2Zr3Ni9As7
_chemical_formula_sum   'Ca2 Zr3 Ni9 As7'
_cell_volume   325.58432676
_cell_formula_units_Z   1
loop_
 _symmetry_equiv_pos_site_id
 _symmetry_equiv_pos_as_xyz
  1  'x, y, z'
loop_
 _atom_site_type_symbol
 _atom_site_label
 _atom_site_symmetry_multiplicity
 _atom_site_fract_x
 _atom_site_fract_y
 _atom_site_fract_z
 _atom_site_occupancy
  Ca  Ca0  1  0.000000  0.666667  0.333333  1
  Ca  Ca1  1  0.500000  0.333333  0.666667  1
  Zr  Zr2  1  0.500000  0.770669  0.890888  1
  Zr  Zr3  1  0.500000  0.120219  0.229331  1
  Zr  Zr4  1  0.500000  0.109112  0.879781  1
  Ni  Ni5  1  0.000000  0.576988  0.936932  1
  Ni  Ni6  1  0.000000  0.359943  0.423012  1
  Ni  Ni7  1  0.000000  0.063068  0.640057  1
  Ni  Ni8  1  0.000000  0.870924  0.155825  1
  Ni  Ni9  1  0.000000  0.284902  0.129076  1
  Ni  Ni10  1  0.000000  0.844175  0.715098  1
  Ni  Ni11  1  0.500000  0.942787  0.379957  1
  Ni  Ni12  1  0.500000  0.437170  0.057213  1
  Ni  Ni13  1  0.500000  0.620043  0.562830  1
  As  As14  1  0.500000  0.705098  0.123830  1
  As  As15  1  0.500000  0.418734  0.294902  1
  As  As16  1  0.500000  0.876170  0.581266  1
  As  As17  1  0.000000  0.000000  0.000000  1
  As  As18  1  0.000000  0.577404  0.682233  1
  As  As19  1  0.000000  0.104830  0.422596  1
  As  As20  1  0.000000  0.317767  0.895170  1
