# generated using pymatgen
data_HoTl6FeF12
_symmetry_space_group_name_H-M   'P 1'
_cell_length_a   6.69872579
_cell_length_b   6.42120427
_cell_length_c   11.13788100
_cell_angle_alpha   55.49894051
_cell_angle_beta   90.23383756
_cell_angle_gamma   89.90142033
_symmetry_Int_Tables_number   1
_chemical_formula_structural   HoTl6FeF12
_chemical_formula_sum   'Ho1 Tl6 Fe1 F12'
_cell_volume   394.81226844
_cell_formula_units_Z   1
loop_
 _symmetry_equiv_pos_site_id
 _symmetry_equiv_pos_as_xyz
  1  'x, y, z'
loop_
 _atom_site_type_symbol
 _atom_site_label
 _atom_site_symmetry_multiplicity
 _atom_site_fract_x
 _atom_site_fract_y
 _atom_site_fract_z
 _atom_site_occupancy
  Ho  Ho0  1  0.000000  0.000000  0.000000  1
  Tl  Tl1  1  0.948031  0.739566  0.743898  1
  Tl  Tl2  1  0.454163  0.282068  0.734185  1
  Tl  Tl3  1  0.051969  0.260434  0.256102  1
  Tl  Tl4  1  0.545837  0.717932  0.265815  1
  Tl  Tl5  1  0.000000  0.500000  0.500000  1
  Tl  Tl6  1  0.500000  0.500000  0.000000  1
  Fe  Fe7  1  0.500000  0.000000  0.500000  1
  F  F8  1  0.944459  0.894231  0.220398  1
  F  F9  1  0.450166  0.098132  0.300018  1
  F  F10  1  0.055541  0.105769  0.779602  1
  F  F11  1  0.549834  0.901868  0.699982  1
  F  F12  1  0.735126  0.238446  0.924495  1
  F  F13  1  0.260800  0.783220  0.563309  1
  F  F14  1  0.264874  0.761554  0.075505  1
  F  F15  1  0.739200  0.216780  0.436691  1
  F  F16  1  0.335596  0.289427  0.460112  1
  F  F17  1  0.828961  0.675820  0.047767  1
  F  F18  1  0.664404  0.710573  0.539888  1
  F  F19  1  0.171039  0.324180  0.952233  1
