# generated using pymatgen
data_Tb8Hf12Si15Sn
_symmetry_space_group_name_H-M   'P 1'
_cell_length_a   7.31754911
_cell_length_b   7.34730087
_cell_length_c   13.46594445
_cell_angle_alpha   89.76915500
_cell_angle_beta   90.00453872
_cell_angle_gamma   89.85261521
_symmetry_Int_Tables_number   1
_chemical_formula_structural   Tb8Hf12Si15Sn
_chemical_formula_sum   'Tb8 Hf12 Si15 Sn1'
_cell_volume   723.97792709
_cell_formula_units_Z   1
loop_
 _symmetry_equiv_pos_site_id
 _symmetry_equiv_pos_as_xyz
  1  'x, y, z'
loop_
 _atom_site_type_symbol
 _atom_site_label
 _atom_site_symmetry_multiplicity
 _atom_site_fract_x
 _atom_site_fract_y
 _atom_site_fract_z
 _atom_site_occupancy
  Tb  Tb0  1  0.988580  0.344809  0.212637  1
  Tb  Tb1  1  0.004602  0.655962  0.716125  1
  Tb  Tb2  1  0.149224  0.504588  0.470288  1
  Tb  Tb3  1  0.505695  0.842657  0.032984  1
  Tb  Tb4  1  0.844392  0.504140  0.964112  1
  Tb  Tb5  1  0.497847  0.153749  0.538791  1
  Tb  Tb6  1  0.343604  0.995741  0.784987  1
  Tb  Tb7  1  0.662002  0.997877  0.283512  1
  Hf  Hf8  1  0.174240  0.175042  0.999287  1
  Hf  Hf9  1  0.825580  0.826595  0.501060  1
  Hf  Hf10  1  0.326275  0.681069  0.248097  1
  Hf  Hf11  1  0.674895  0.325112  0.750209  1
  Hf  Hf12  1  0.142876  0.987705  0.374034  1
  Hf  Hf13  1  0.851532  0.004014  0.873784  1
  Hf  Hf14  1  0.504000  0.650127  0.624611  1
  Hf  Hf15  1  0.350689  0.495111  0.875715  1
  Hf  Hf16  1  0.496414  0.351354  0.118595  1
  Hf  Hf17  1  0.660221  0.514527  0.379468  1
  Hf  Hf18  1  0.994728  0.149516  0.626677  1
  Hf  Hf19  1  0.003067  0.849095  0.124113  1
  Si  Si20  1  0.636870  0.704890  0.816688  1
  Si  Si21  1  0.204804  0.864534  0.567887  1
  Si  Si22  1  0.137234  0.794859  0.932632  1
  Si  Si23  1  0.795397  0.136313  0.065336  1
  Si  Si24  1  0.862569  0.204458  0.433477  1
  Si  Si25  1  0.295351  0.363309  0.683719  1
  Si  Si26  1  0.703002  0.636683  0.182820  1
  Si  Si27  1  0.294330  0.042228  0.180963  1
  Si  Si28  1  0.705863  0.950003  0.686427  1
  Si  Si29  1  0.450449  0.796342  0.435674  1
  Si  Si30  1  0.204655  0.549148  0.064344  1
  Si  Si31  1  0.548968  0.204265  0.933933  1
  Si  Si32  1  0.793174  0.450356  0.566553  1
  Si  Si33  1  0.049143  0.294535  0.814510  1
  Si  Si34  1  0.953007  0.702890  0.313110  1
  Sn  Sn35  1  0.364719  0.296398  0.322841  1
