# generated using pymatgen
data_Sm2NiAsPt7
_symmetry_space_group_name_H-M   'P 1'
_cell_length_a   8.93692369
_cell_length_b   9.00016088
_cell_length_c   4.31318500
_cell_angle_alpha   90.00000000
_cell_angle_beta   90.00000000
_cell_angle_gamma   144.22473672
_symmetry_Int_Tables_number   1
_chemical_formula_structural   Sm2NiAsPt7
_chemical_formula_sum   'Sm2 Ni1 As1 Pt7'
_cell_volume   202.81531979
_cell_formula_units_Z   1
loop_
 _symmetry_equiv_pos_site_id
 _symmetry_equiv_pos_as_xyz
  1  'x, y, z'
loop_
 _atom_site_type_symbol
 _atom_site_label
 _atom_site_symmetry_multiplicity
 _atom_site_fract_x
 _atom_site_fract_y
 _atom_site_fract_z
 _atom_site_occupancy
  Sm  Sm0  1  0.625903  0.377739  0.500000  1
  Sm  Sm1  1  0.378442  0.633864  0.500000  1
  Ni  Ni2  1  0.096384  0.868860  0.000000  1
  As  As3  1  0.236171  0.219612  0.000000  1
  Pt  Pt4  1  0.882782  0.105240  0.000000  1
  Pt  Pt5  1  0.484498  0.989134  0.000000  1
  Pt  Pt6  1  0.982443  0.494596  0.000000  1
  Pt  Pt7  1  0.189306  0.801128  0.500000  1
  Pt  Pt8  1  0.794961  0.200136  0.500000  1
  Pt  Pt9  1  0.990155  0.973930  0.500000  1
  Pt  Pt10  1  0.652551  0.649358  0.000000  1
