# generated using pymatgen
data_Zr3(V2Ir)2
_symmetry_space_group_name_H-M   'P 1'
_cell_length_a   5.21580661
_cell_length_b   5.34278343
_cell_length_c   12.60611500
_cell_angle_alpha   89.71212576
_cell_angle_beta   90.46253548
_cell_angle_gamma   121.33227542
_symmetry_Int_Tables_number   1
_chemical_formula_structural   Zr3(V2Ir)2
_chemical_formula_sum   'Zr6 V8 Ir4'
_cell_volume   300.05319967
_cell_formula_units_Z   2
loop_
 _symmetry_equiv_pos_site_id
 _symmetry_equiv_pos_as_xyz
  1  'x, y, z'
loop_
 _atom_site_type_symbol
 _atom_site_label
 _atom_site_symmetry_multiplicity
 _atom_site_fract_x
 _atom_site_fract_y
 _atom_site_fract_z
 _atom_site_occupancy
  Zr  Zr0  1  0.333262  0.664189  0.918504  1
  Zr  Zr1  1  0.001522  0.003323  0.247927  1
  Zr  Zr2  1  0.667105  0.331770  0.582688  1
  Zr  Zr3  1  0.332895  0.668230  0.667312  1
  Zr  Zr4  1  0.998478  0.996677  0.002072  1
  Zr  Zr5  1  0.666738  0.335811  0.331496  1
  V  V6  1  0.166909  0.332920  0.456746  1
  V  V7  1  0.833091  0.667080  0.793254  1
  V  V8  1  0.330707  0.664084  0.290740  1
  V  V9  1  0.000000  0.000000  0.625000  1
  V  V10  1  0.669293  0.335916  0.959260  1
  V  V11  1  0.000000  0.500000  0.125000  1
  V  V12  1  0.665705  0.832804  0.456757  1
  V  V13  1  0.334295  0.167196  0.793243  1
  Ir  Ir14  1  0.500000  0.500000  0.125000  1
  Ir  Ir15  1  0.165841  0.833962  0.457477  1
  Ir  Ir16  1  0.834159  0.166038  0.792523  1
  Ir  Ir17  1  0.500000  0.000000  0.125000  1
