# generated using pymatgen
data_Dy6Y10Cd4Ir3Ru
_symmetry_space_group_name_H-M   'P 1'
_cell_length_a   9.66355088
_cell_length_b   9.68201074
_cell_length_c   9.68201089
_cell_angle_alpha   59.66133738
_cell_angle_beta   59.78469186
_cell_angle_gamma   59.78469835
_symmetry_Int_Tables_number   1
_chemical_formula_structural   Dy6Y10Cd4Ir3Ru
_chemical_formula_sum   'Dy6 Y10 Cd4 Ir3 Ru1'
_cell_volume   636.81779554
_cell_formula_units_Z   1
loop_
 _symmetry_equiv_pos_site_id
 _symmetry_equiv_pos_as_xyz
  1  'x, y, z'
loop_
 _atom_site_type_symbol
 _atom_site_label
 _atom_site_symmetry_multiplicity
 _atom_site_fract_x
 _atom_site_fract_y
 _atom_site_fract_z
 _atom_site_occupancy
  Dy  Dy0  1  0.348575  0.349126  0.349126  1
  Dy  Dy1  1  0.348586  0.347466  0.957359  1
  Dy  Dy2  1  0.348586  0.957359  0.347466  1
  Dy  Dy3  1  0.957363  0.348403  0.348403  1
  Dy  Dy4  1  0.811658  0.189015  0.189015  1
  Dy  Dy5  1  0.188020  0.809621  0.809621  1
  Y  Y6  1  0.189038  0.811450  0.189185  1
  Y  Y7  1  0.809581  0.187996  0.809565  1
  Y  Y8  1  0.189038  0.189185  0.811450  1
  Y  Y9  1  0.809581  0.809565  0.187996  1
  Y  Y10  1  0.938859  0.561293  0.561293  1
  Y  Y11  1  0.560126  0.937794  0.937794  1
  Y  Y12  1  0.560515  0.939686  0.560740  1
  Y  Y13  1  0.938331  0.559411  0.938368  1
  Y  Y14  1  0.560515  0.560740  0.939686  1
  Y  Y15  1  0.938331  0.938368  0.559411  1
  Cd  Cd16  1  0.579926  0.579507  0.579507  1
  Cd  Cd17  1  0.580595  0.581118  0.256817  1
  Cd  Cd18  1  0.580595  0.256817  0.581118  1
  Cd  Cd19  1  0.256884  0.580631  0.580631  1
  Ir  Ir20  1  0.145039  0.142089  0.575855  1
  Ir  Ir21  1  0.145039  0.575855  0.142089  1
  Ir  Ir22  1  0.576050  0.144815  0.144815  1
  Ru  Ru23  1  0.139176  0.142699  0.142699  1
