# generated using pymatgen
data_TbY2Mg(Co4P3)2
_symmetry_space_group_name_H-M   'P 1'
_cell_length_a   3.73008100
_cell_length_b   10.62674700
_cell_length_c   12.28295100
_cell_angle_alpha   90.00000000
_cell_angle_beta   90.00000000
_cell_angle_gamma   90.00000000
_symmetry_Int_Tables_number   1
_chemical_formula_structural   TbY2Mg(Co4P3)2
_chemical_formula_sum   'Tb2 Y4 Mg2 Co16 P12'
_cell_volume   486.87931409
_cell_formula_units_Z   2
loop_
 _symmetry_equiv_pos_site_id
 _symmetry_equiv_pos_as_xyz
  1  'x, y, z'
loop_
 _atom_site_type_symbol
 _atom_site_label
 _atom_site_symmetry_multiplicity
 _atom_site_fract_x
 _atom_site_fract_y
 _atom_site_fract_z
 _atom_site_occupancy
  Tb  Tb0  1  0.000000  0.500000  0.525939  1
  Tb  Tb1  1  0.500000  0.000000  0.474061  1
  Y  Y2  1  0.500000  0.822105  0.206230  1
  Y  Y3  1  0.500000  0.177895  0.206230  1
  Y  Y4  1  0.000000  0.677895  0.793770  1
  Y  Y5  1  0.000000  0.322105  0.793770  1
  Mg  Mg6  1  0.500000  0.500000  0.156396  1
  Mg  Mg7  1  0.000000  0.000000  0.843604  1
  Co  Co8  1  0.500000  0.500000  0.705374  1
  Co  Co9  1  0.000000  0.000000  0.294626  1
  Co  Co10  1  0.000000  0.500000  0.989146  1
  Co  Co11  1  0.500000  0.000000  0.010854  1
  Co  Co12  1  0.500000  0.332468  0.996978  1
  Co  Co13  1  0.500000  0.667532  0.996978  1
  Co  Co14  1  0.000000  0.167532  0.003022  1
  Co  Co15  1  0.000000  0.832468  0.003022  1
  Co  Co16  1  0.500000  0.296565  0.431952  1
  Co  Co17  1  0.500000  0.703435  0.431952  1
  Co  Co18  1  0.000000  0.203435  0.568048  1
  Co  Co19  1  0.000000  0.796565  0.568048  1
  Co  Co20  1  0.500000  0.877975  0.705426  1
  Co  Co21  1  0.500000  0.122025  0.705426  1
  Co  Co22  1  0.000000  0.622025  0.294574  1
  Co  Co23  1  0.000000  0.377975  0.294574  1
  P  P24  1  0.500000  0.500000  0.885722  1
  P  P25  1  0.000000  0.000000  0.114278  1
  P  P26  1  0.500000  0.500000  0.355010  1
  P  P27  1  0.000000  0.000000  0.644990  1
  P  P28  1  0.500000  0.309000  0.615145  1
  P  P29  1  0.500000  0.691000  0.615145  1
  P  P30  1  0.000000  0.191000  0.384855  1
  P  P31  1  0.000000  0.809000  0.384855  1
  P  P32  1  0.500000  0.838913  0.893033  1
  P  P33  1  0.500000  0.161087  0.893033  1
  P  P34  1  0.000000  0.661087  0.106967  1
  P  P35  1  0.000000  0.338913  0.106967  1
