# generated using pymatgen
data_La2Nd14MgHg3Pt4
_symmetry_space_group_name_H-M   'P 1'
_cell_length_a   10.01355980
_cell_length_b   10.06972024
_cell_length_c   10.05631500
_cell_angle_alpha   60.04402411
_cell_angle_beta   59.85865436
_cell_angle_gamma   59.89298409
_symmetry_Int_Tables_number   1
_chemical_formula_structural   La2Nd14MgHg3Pt4
_chemical_formula_sum   'La2 Nd14 Mg1 Hg3 Pt4'
_cell_volume   715.90552225
_cell_formula_units_Z   1
loop_
 _symmetry_equiv_pos_site_id
 _symmetry_equiv_pos_as_xyz
  1  'x, y, z'
loop_
 _atom_site_type_symbol
 _atom_site_label
 _atom_site_symmetry_multiplicity
 _atom_site_fract_x
 _atom_site_fract_y
 _atom_site_fract_z
 _atom_site_occupancy
  La  La0  1  0.349964  0.348815  0.349804  1
  La  La1  1  0.349964  0.348815  0.951418  1
  Nd  Nd2  1  0.351860  0.945974  0.351084  1
  Nd  Nd3  1  0.939369  0.353635  0.353499  1
  Nd  Nd4  1  0.808564  0.192665  0.192311  1
  Nd  Nd5  1  0.188175  0.811519  0.809041  1
  Nd  Nd6  1  0.188175  0.811519  0.191264  1
  Nd  Nd7  1  0.808564  0.192665  0.806458  1
  Nd  Nd8  1  0.187540  0.191192  0.810634  1
  Nd  Nd9  1  0.806880  0.807119  0.193000  1
  Nd  Nd10  1  0.935693  0.564758  0.565836  1
  Nd  Nd11  1  0.562010  0.937236  0.934687  1
  Nd  Nd12  1  0.562010  0.937236  0.566065  1
  Nd  Nd13  1  0.935693  0.564758  0.933712  1
  Nd  Nd14  1  0.562300  0.565181  0.936259  1
  Nd  Nd15  1  0.934902  0.935234  0.564932  1
  Mg  Mg16  1  0.282577  0.573305  0.572060  1
  Hg  Hg17  1  0.582244  0.587500  0.585928  1
  Hg  Hg18  1  0.582244  0.587500  0.244329  1
  Hg  Hg19  1  0.582476  0.244051  0.586736  1
  Pt  Pt20  1  0.142103  0.142859  0.144782  1
  Pt  Pt21  1  0.142103  0.142859  0.570256  1
  Pt  Pt22  1  0.141966  0.572133  0.142950  1
  Pt  Pt23  1  0.572620  0.141474  0.142953  1
