# generated using pymatgen
data_YTh7(Ta3Si4)4
_symmetry_space_group_name_H-M   'P 1'
_cell_length_a   7.00808602
_cell_length_b   7.19860601
_cell_length_c   13.54665332
_cell_angle_alpha   90.07651497
_cell_angle_beta   89.87688149
_cell_angle_gamma   90.05149527
_symmetry_Int_Tables_number   1
_chemical_formula_structural   YTh7(Ta3Si4)4
_chemical_formula_sum   'Y1 Th7 Ta12 Si16'
_cell_volume   683.40520310
_cell_formula_units_Z   1
loop_
 _symmetry_equiv_pos_site_id
 _symmetry_equiv_pos_as_xyz
  1  'x, y, z'
loop_
 _atom_site_type_symbol
 _atom_site_label
 _atom_site_symmetry_multiplicity
 _atom_site_fract_x
 _atom_site_fract_y
 _atom_site_fract_z
 _atom_site_occupancy
  Y  Y0  1  0.998757  0.829258  0.596607  1
  Th  Th1  1  0.500717  0.668727  0.595032  1
  Th  Th2  1  0.000052  0.830515  0.904071  1
  Th  Th3  1  0.501008  0.330499  0.095634  1
  Th  Th4  1  0.999133  0.170526  0.405785  1
  Th  Th5  1  0.498788  0.330538  0.406376  1
  Th  Th6  1  0.000958  0.169591  0.095523  1
  Th  Th7  1  0.499936  0.670056  0.902770  1
  Ta  Ta8  1  0.661410  0.172772  0.623842  1
  Ta  Ta9  1  0.161742  0.327210  0.874033  1
  Ta  Ta10  1  0.337662  0.827868  0.124880  1
  Ta  Ta11  1  0.835777  0.673008  0.376088  1
  Ta  Ta12  1  0.336507  0.828203  0.375819  1
  Ta  Ta13  1  0.837324  0.672026  0.124955  1
  Ta  Ta14  1  0.665851  0.170187  0.874301  1
  Ta  Ta15  1  0.164106  0.328059  0.624111  1
  Ta  Ta16  1  0.836775  0.488924  0.750354  1
  Ta  Ta17  1  0.337983  0.007596  0.748687  1
  Ta  Ta18  1  0.162655  0.509876  0.250672  1
  Ta  Ta19  1  0.662902  0.991246  0.251019  1
  Si  Si20  1  0.661315  0.957130  0.457576  1
  Si  Si21  1  0.161286  0.543327  0.043553  1
  Si  Si22  1  0.340235  0.044327  0.954948  1
  Si  Si23  1  0.843105  0.462112  0.545684  1
  Si  Si24  1  0.332826  0.038468  0.545318  1
  Si  Si25  1  0.838622  0.456245  0.955557  1
  Si  Si26  1  0.660973  0.956250  0.043772  1
  Si  Si27  1  0.158421  0.546592  0.458293  1
  Si  Si28  1  0.458912  0.368510  0.749603  1
  Si  Si29  1  0.960639  0.127474  0.747228  1
  Si  Si30  1  0.541105  0.630328  0.250886  1
  Si  Si31  1  0.041053  0.870144  0.250671  1
  Si  Si32  1  0.703493  0.882900  0.746852  1
  Si  Si33  1  0.196619  0.618772  0.747502  1
  Si  Si34  1  0.300655  0.116300  0.250794  1
  Si  Si35  1  0.800698  0.384436  0.251207  1
