# generated using pymatgen
data_Pr5Dy3Sc12Si15Au
_symmetry_space_group_name_H-M   'P 1'
_cell_length_a   7.21832453
_cell_length_b   7.46558806
_cell_length_c   14.22927002
_cell_angle_alpha   89.87151507
_cell_angle_beta   89.81062301
_cell_angle_gamma   90.21822557
_symmetry_Int_Tables_number   1
_chemical_formula_structural   Pr5Dy3Sc12Si15Au
_chemical_formula_sum   'Pr5 Dy3 Sc12 Si15 Au1'
_cell_volume   766.78996416
_cell_formula_units_Z   1
loop_
 _symmetry_equiv_pos_site_id
 _symmetry_equiv_pos_as_xyz
  1  'x, y, z'
loop_
 _atom_site_type_symbol
 _atom_site_label
 _atom_site_symmetry_multiplicity
 _atom_site_fract_x
 _atom_site_fract_y
 _atom_site_fract_z
 _atom_site_occupancy
  Pr  Pr0  1  0.011992  0.172613  0.099075  1
  Pr  Pr1  1  0.988515  0.828465  0.901934  1
  Pr  Pr2  1  0.488086  0.672733  0.903308  1
  Pr  Pr3  1  0.988477  0.830048  0.595332  1
  Pr  Pr4  1  0.511394  0.327096  0.097780  1
  Dy  Dy5  1  0.010772  0.176014  0.398815  1
  Dy  Dy6  1  0.509709  0.323844  0.400157  1
  Dy  Dy7  1  0.490467  0.676175  0.598803  1
  Sc  Sc8  1  0.162737  0.499432  0.749653  1
  Sc  Sc9  1  0.837498  0.499889  0.252744  1
  Sc  Sc10  1  0.338224  0.998316  0.251425  1
  Sc  Sc11  1  0.664234  0.999866  0.749889  1
  Sc  Sc12  1  0.339907  0.177306  0.624891  1
  Sc  Sc13  1  0.666240  0.822757  0.374705  1
  Sc  Sc14  1  0.169768  0.671647  0.374628  1
  Sc  Sc15  1  0.670772  0.825235  0.127423  1
  Sc  Sc16  1  0.826868  0.326224  0.623136  1
  Sc  Sc17  1  0.329162  0.174286  0.874629  1
  Sc  Sc18  1  0.829549  0.324066  0.874918  1
  Sc  Sc19  1  0.169417  0.675393  0.127117  1
  Si  Si20  1  0.036734  0.127860  0.749055  1
  Si  Si21  1  0.966075  0.878477  0.252587  1
  Si  Si22  1  0.465621  0.620309  0.251077  1
  Si  Si23  1  0.536290  0.380414  0.750129  1
  Si  Si24  1  0.289606  0.880200  0.747917  1
  Si  Si25  1  0.711292  0.122794  0.253296  1
  Si  Si26  1  0.213026  0.376035  0.252342  1
  Si  Si27  1  0.786098  0.620108  0.749107  1
  Si  Si28  1  0.834469  0.532451  0.457400  1
  Si  Si29  1  0.343788  0.964542  0.459106  1
  Si  Si30  1  0.849147  0.538296  0.039626  1
  Si  Si31  1  0.651285  0.037891  0.536262  1
  Si  Si32  1  0.149609  0.462151  0.961387  1
  Si  Si33  1  0.651516  0.037306  0.961196  1
  Si  Si34  1  0.348546  0.961686  0.040033  1
  Au  Au35  1  0.163112  0.458075  0.539117  1
