# generated using pymatgen
data_Dy6TlCoTc
_symmetry_space_group_name_H-M   'P 1'
_cell_length_a   8.46552467
_cell_length_b   8.46552485
_cell_length_c   8.46552400
_cell_angle_alpha   112.84985385
_cell_angle_beta   110.99426043
_cell_angle_gamma   104.67927274
_symmetry_Int_Tables_number   1
_chemical_formula_structural   Dy6TlCoTc
_chemical_formula_sum   'Dy12 Tl2 Co2 Tc2'
_cell_volume   464.46816496
_cell_formula_units_Z   2
loop_
 _symmetry_equiv_pos_site_id
 _symmetry_equiv_pos_as_xyz
  1  'x, y, z'
loop_
 _atom_site_type_symbol
 _atom_site_label
 _atom_site_symmetry_multiplicity
 _atom_site_fract_x
 _atom_site_fract_y
 _atom_site_fract_z
 _atom_site_occupancy
  Dy  Dy0  1  0.444771  0.243556  0.201217  1
  Dy  Dy1  1  0.555229  0.756444  0.798783  1
  Dy  Dy2  1  0.042339  0.243556  0.798783  1
  Dy  Dy3  1  0.957661  0.756444  0.201217  1
  Dy  Dy4  1  0.185326  0.287449  0.472775  1
  Dy  Dy5  1  0.814674  0.712551  0.527225  1
  Dy  Dy6  1  0.185326  0.712551  0.897877  1
  Dy  Dy7  1  0.814674  0.287449  0.102123  1
  Dy  Dy8  1  0.327441  0.647951  0.320510  1
  Dy  Dy9  1  0.672559  0.352049  0.679490  1
  Dy  Dy10  1  0.327441  0.006930  0.679490  1
  Dy  Dy11  1  0.672559  0.993070  0.320510  1
  Tl  Tl12  1  0.500000  0.500000  0.000000  1
  Tl  Tl13  1  0.000000  0.000000  0.000000  1
  Co  Co14  1  0.109909  0.609909  0.500000  1
  Co  Co15  1  0.890091  0.390091  0.500000  1
  Tc  Tc16  1  0.324221  0.000000  0.324221  1
  Tc  Tc17  1  0.675779  0.000000  0.675779  1
