# generated using pymatgen
data_Mn6AlCr14(WC3)2
_symmetry_space_group_name_H-M   'P 1'
_cell_length_a   7.49119150
_cell_length_b   7.50386662
_cell_length_c   7.50386741
_cell_angle_alpha   60.11306384
_cell_angle_beta   60.05585963
_cell_angle_gamma   60.05585698
_symmetry_Int_Tables_number   1
_chemical_formula_structural   Mn6AlCr14(WC3)2
_chemical_formula_sum   'Mn6 Al1 Cr14 W2 C6'
_cell_volume   298.77390703
_cell_formula_units_Z   1
loop_
 _symmetry_equiv_pos_site_id
 _symmetry_equiv_pos_as_xyz
  1  'x, y, z'
loop_
 _atom_site_type_symbol
 _atom_site_label
 _atom_site_symmetry_multiplicity
 _atom_site_fract_x
 _atom_site_fract_y
 _atom_site_fract_z
 _atom_site_occupancy
  Mn  Mn0  1  0.616043  0.615499  0.152416  1
  Mn  Mn1  1  0.616043  0.152415  0.615499  1
  Mn  Mn2  1  0.153604  0.615205  0.615205  1
  Mn  Mn3  1  0.615986  0.615205  0.615205  1
  Mn  Mn4  1  0.385112  0.386334  0.843441  1
  Mn  Mn5  1  0.385112  0.843441  0.386334  1
  Al  Al6  1  0.999916  0.000084  0.000084  1
  Cr  Cr7  1  0.842427  0.386371  0.386371  1
  Cr  Cr8  1  0.384830  0.386371  0.386371  1
  Cr  Cr9  1  0.998575  0.998308  0.346487  1
  Cr  Cr10  1  0.656629  0.998308  0.346487  1
  Cr  Cr11  1  0.999104  0.656988  0.344803  1
  Cr  Cr12  1  0.656629  0.346487  0.998308  1
  Cr  Cr13  1  0.998575  0.346487  0.998308  1
  Cr  Cr14  1  0.999104  0.344803  0.656988  1
  Cr  Cr15  1  0.343704  0.655001  0.000542  1
  Cr  Cr16  1  0.343704  0.000542  0.655001  1
  Cr  Cr17  1  0.345547  0.999817  0.999817  1
  Cr  Cr18  1  0.000753  0.000542  0.655001  1
  Cr  Cr19  1  0.000753  0.655001  0.000542  1
  Cr  Cr20  1  0.654819  0.999817  0.999817  1
  W  W21  1  0.750384  0.749616  0.749616  1
  W  W22  1  0.252867  0.247133  0.247133  1
  C  C23  1  0.719811  0.723461  0.278017  1
  C  C24  1  0.278710  0.723461  0.278017  1
  C  C25  1  0.722882  0.277118  0.277118  1
  C  C26  1  0.278710  0.278017  0.723461  1
  C  C27  1  0.719811  0.278017  0.723461  1
  C  C28  1  0.279850  0.720150  0.720150  1
