# generated using pymatgen
data_HoMgB6Ru
_symmetry_space_group_name_H-M   'P 1'
_cell_length_a   3.55827900
_cell_length_b   8.89197100
_cell_length_c   11.24992000
_cell_angle_alpha   90.00000000
_cell_angle_beta   90.00000000
_cell_angle_gamma   90.00000000
_symmetry_Int_Tables_number   1
_chemical_formula_structural   HoMgB6Ru
_chemical_formula_sum   'Ho4 Mg4 B24 Ru4'
_cell_volume   355.94874767
_cell_formula_units_Z   4
loop_
 _symmetry_equiv_pos_site_id
 _symmetry_equiv_pos_as_xyz
  1  'x, y, z'
loop_
 _atom_site_type_symbol
 _atom_site_label
 _atom_site_symmetry_multiplicity
 _atom_site_fract_x
 _atom_site_fract_y
 _atom_site_fract_z
 _atom_site_occupancy
  Ho  Ho0  1  0.000000  0.323628  0.413721  1
  Ho  Ho1  1  0.000000  0.676372  0.586279  1
  Ho  Ho2  1  0.000000  0.823628  0.086279  1
  Ho  Ho3  1  0.000000  0.176372  0.913721  1
  Mg  Mg4  1  0.000000  0.943880  0.371440  1
  Mg  Mg5  1  0.000000  0.056120  0.628560  1
  Mg  Mg6  1  0.000000  0.443880  0.128560  1
  Mg  Mg7  1  0.000000  0.556120  0.871440  1
  B  B8  1  0.500000  0.555880  0.432321  1
  B  B9  1  0.500000  0.444120  0.567679  1
  B  B10  1  0.500000  0.055880  0.067679  1
  B  B11  1  0.500000  0.944120  0.932321  1
  B  B12  1  0.500000  0.755198  0.418357  1
  B  B13  1  0.500000  0.244802  0.581643  1
  B  B14  1  0.500000  0.255198  0.081643  1
  B  B15  1  0.500000  0.744802  0.918357  1
  B  B16  1  0.500000  0.793866  0.263208  1
  B  B17  1  0.500000  0.206134  0.736792  1
  B  B18  1  0.500000  0.293866  0.236792  1
  B  B19  1  0.500000  0.706134  0.763208  1
  B  B20  1  0.500000  0.628037  0.182129  1
  B  B21  1  0.500000  0.371963  0.817871  1
  B  B22  1  0.500000  0.128037  0.317871  1
  B  B23  1  0.500000  0.871963  0.682129  1
  B  B24  1  0.500000  0.981256  0.213194  1
  B  B25  1  0.500000  0.018744  0.786806  1
  B  B26  1  0.500000  0.481256  0.286806  1
  B  B27  1  0.500000  0.518744  0.713194  1
  B  B28  1  0.500000  0.592882  0.025465  1
  B  B29  1  0.500000  0.407118  0.974535  1
  B  B30  1  0.500000  0.092882  0.474535  1
  B  B31  1  0.500000  0.907118  0.525465  1
  Ru  Ru32  1  0.000000  0.641182  0.318144  1
  Ru  Ru33  1  0.000000  0.358818  0.681856  1
  Ru  Ru34  1  0.000000  0.141182  0.181856  1
  Ru  Ru35  1  0.000000  0.858818  0.818144  1
