# generated using pymatgen
data_Tb3Hf2Sc(SnRh)6
_symmetry_space_group_name_H-M   'P 1'
_cell_length_a   7.51311228
_cell_length_b   7.48040296
_cell_length_c   7.52069700
_cell_angle_alpha   90.00000000
_cell_angle_beta   90.00000000
_cell_angle_gamma   119.86244583
_symmetry_Int_Tables_number   1
_chemical_formula_structural   Tb3Hf2Sc(SnRh)6
_chemical_formula_sum   'Tb3 Hf2 Sc1 Sn6 Rh6'
_cell_volume   366.55056962
_cell_formula_units_Z   1
loop_
 _symmetry_equiv_pos_site_id
 _symmetry_equiv_pos_as_xyz
  1  'x, y, z'
loop_
 _atom_site_type_symbol
 _atom_site_label
 _atom_site_symmetry_multiplicity
 _atom_site_fract_x
 _atom_site_fract_y
 _atom_site_fract_z
 _atom_site_occupancy
  Tb  Tb0  1  0.000095  0.405321  0.250000  1
  Tb  Tb1  1  0.589971  0.593763  0.250000  1
  Tb  Tb2  1  0.410086  0.003604  0.250000  1
  Hf  Hf3  1  0.606050  0.602889  0.750000  1
  Hf  Hf4  1  0.393348  0.995950  0.750000  1
  Sc  Sc5  1  0.000842  0.398240  0.750000  1
  Sn  Sn6  1  0.262664  0.265189  0.510757  1
  Sn  Sn7  1  0.999579  0.730779  0.503700  1
  Sn  Sn8  1  0.999579  0.730779  0.996300  1
  Sn  Sn9  1  0.737650  0.003390  0.511094  1
  Sn  Sn10  1  0.737650  0.003390  0.988906  1
  Sn  Sn11  1  0.262664  0.265189  0.989243  1
  Rh  Rh12  1  0.340081  0.672402  0.535922  1
  Rh  Rh13  1  0.659891  0.332286  0.536952  1
  Rh  Rh14  1  0.340081  0.672402  0.964078  1
  Rh  Rh15  1  0.000059  0.990856  0.750000  1
  Rh  Rh16  1  0.999824  0.001291  0.250000  1
  Rh  Rh17  1  0.659891  0.332286  0.963048  1
