# generated using pymatgen
data_HfCuNi3Au
_symmetry_space_group_name_H-M   'P 1'
_cell_length_a   4.85248748
_cell_length_b   4.85248698
_cell_length_c   4.82080644
_cell_angle_alpha   59.78236347
_cell_angle_beta   59.78237097
_cell_angle_gamma   59.99999365
_symmetry_Int_Tables_number   1
_chemical_formula_structural   HfCuNi3Au
_chemical_formula_sum   'Hf1 Cu1 Ni3 Au1'
_cell_volume   80.00129159
_cell_formula_units_Z   1
loop_
 _symmetry_equiv_pos_site_id
 _symmetry_equiv_pos_as_xyz
  1  'x, y, z'
loop_
 _atom_site_type_symbol
 _atom_site_label
 _atom_site_symmetry_multiplicity
 _atom_site_fract_x
 _atom_site_fract_y
 _atom_site_fract_z
 _atom_site_occupancy
  Hf  Hf0  1  0.001757  0.001757  0.994730  1
  Cu  Cu1  1  0.624314  0.624314  0.127059  1
  Ni  Ni2  1  0.624445  0.125089  0.626021  1
  Ni  Ni3  1  0.125089  0.624445  0.626021  1
  Ni  Ni4  1  0.624445  0.624445  0.626021  1
  Au  Au5  1  0.249951  0.249951  0.250148  1
