# generated using pymatgen
data_Be2AlCr2CoO8
_symmetry_space_group_name_H-M   'P 1'
_cell_length_a   4.51543827
_cell_length_b   5.64188231
_cell_length_c   9.82616800
_cell_angle_alpha   90.00061747
_cell_angle_beta   90.00020938
_cell_angle_gamma   90.03872189
_symmetry_Int_Tables_number   1
_chemical_formula_structural   Be2AlCr2CoO8
_chemical_formula_sum   'Be4 Al2 Cr4 Co2 O16'
_cell_volume   250.32718616
_cell_formula_units_Z   2
loop_
 _symmetry_equiv_pos_site_id
 _symmetry_equiv_pos_as_xyz
  1  'x, y, z'
loop_
 _atom_site_type_symbol
 _atom_site_label
 _atom_site_symmetry_multiplicity
 _atom_site_fract_x
 _atom_site_fract_y
 _atom_site_fract_z
 _atom_site_occupancy
  Be  Be0  1  0.929053  0.751698  0.413038  1
  Be  Be1  1  0.570962  0.748311  0.913036  1
  Be  Be2  1  0.070960  0.248307  0.586962  1
  Be  Be3  1  0.429039  0.251691  0.086964  1
  Al  Al4  1  0.500002  0.499999  0.500000  1
  Al  Al5  1  0.000006  0.000000  0.999999  1
  Cr  Cr6  1  0.498651  0.750551  0.231986  1
  Cr  Cr7  1  0.001302  0.749414  0.732029  1
  Cr  Cr8  1  0.501300  0.249421  0.767996  1
  Cr  Cr9  1  0.998674  0.250581  0.268003  1
  Co  Co10  1  0.500001  0.000005  0.499999  1
  Co  Co11  1  0.000006  0.500005  0.999998  1
  O  O12  1  0.279751  0.746163  0.414125  1
  O  O13  1  0.220268  0.753835  0.914131  1
  O  O14  1  0.720260  0.253838  0.585878  1
  O  O15  1  0.779730  0.246169  0.085865  1
  O  O16  1  0.746646  0.753495  0.062597  1
  O  O17  1  0.753368  0.746507  0.562602  1
  O  O18  1  0.253363  0.246509  0.937405  1
  O  O19  1  0.246631  0.253495  0.437393  1
  O  O20  1  0.758185  0.978394  0.341631  1
  O  O21  1  0.741822  0.521610  0.841642  1
  O  O22  1  0.244285  0.479973  0.656998  1
  O  O23  1  0.255720  0.020034  0.156988  1
  O  O24  1  0.241821  0.021608  0.658366  1
  O  O25  1  0.258184  0.478391  0.158356  1
  O  O26  1  0.755723  0.520030  0.343001  1
  O  O27  1  0.744286  0.979971  0.843011  1
