# generated using pymatgen
data_CrCu2(TcO4)6
_symmetry_space_group_name_H-M   'P 1'
_cell_length_a   9.76224219
_cell_length_b   9.76224204
_cell_length_c   9.76224174
_cell_angle_alpha   56.07747076
_cell_angle_beta   56.07746884
_cell_angle_gamma   56.07747267
_symmetry_Int_Tables_number   1
_chemical_formula_structural   CrCu2(TcO4)6
_chemical_formula_sum   'Cr1 Cu2 Tc6 O24'
_cell_volume   598.09927241
_cell_formula_units_Z   1
loop_
 _symmetry_equiv_pos_site_id
 _symmetry_equiv_pos_as_xyz
  1  'x, y, z'
loop_
 _atom_site_type_symbol
 _atom_site_label
 _atom_site_symmetry_multiplicity
 _atom_site_fract_x
 _atom_site_fract_y
 _atom_site_fract_z
 _atom_site_occupancy
  Cr  Cr0  1  0.851899  0.851899  0.851899  1
  Cu  Cu1  1  0.357920  0.357920  0.357920  1
  Cu  Cu2  1  0.644202  0.644202  0.644202  1
  Tc  Tc3  1  0.476108  0.739690  0.035582  1
  Tc  Tc4  1  0.739690  0.035582  0.476108  1
  Tc  Tc5  1  0.035582  0.476108  0.739690  1
  Tc  Tc6  1  0.958263  0.542199  0.249281  1
  Tc  Tc7  1  0.249281  0.958263  0.542199  1
  Tc  Tc8  1  0.542199  0.249281  0.958263  1
  O  O9  1  0.503822  0.295677  0.128584  1
  O  O10  1  0.128584  0.503822  0.295677  1
  O  O11  1  0.328538  0.951434  0.998564  1
  O  O12  1  0.295677  0.128584  0.503822  1
  O  O13  1  0.680141  0.726148  0.007934  1
  O  O14  1  0.384934  0.601218  0.246222  1
  O  O15  1  0.601218  0.246222  0.384934  1
  O  O16  1  0.951434  0.998564  0.328538  1
  O  O17  1  0.246222  0.384934  0.601218  1
  O  O18  1  0.974896  0.691249  0.027725  1
  O  O19  1  0.968944  0.343563  0.287284  1
  O  O20  1  0.287284  0.968944  0.343563  1
  O  O21  1  0.726148  0.007934  0.680141  1
  O  O22  1  0.007934  0.680141  0.726148  1
  O  O23  1  0.998564  0.328538  0.951434  1
  O  O24  1  0.755375  0.633575  0.394544  1
  O  O25  1  0.027725  0.974896  0.691249  1
  O  O26  1  0.394544  0.755375  0.633575  1
  O  O27  1  0.633575  0.394544  0.755375  1
  O  O28  1  0.343563  0.287284  0.968944  1
  O  O29  1  0.665081  0.885374  0.516389  1
  O  O30  1  0.691249  0.027725  0.974896  1
  O  O31  1  0.885374  0.516389  0.665081  1
  O  O32  1  0.516389  0.665081  0.885374  1
