# generated using pymatgen
data_Hf8MgSe16
_symmetry_space_group_name_H-M   'P 1'
_cell_length_a   7.50651500
_cell_length_b   7.50651316
_cell_length_c   13.24865700
_cell_angle_alpha   90.00000000
_cell_angle_beta   90.00000000
_cell_angle_gamma   119.99998608
_symmetry_Int_Tables_number   1
_chemical_formula_structural   Hf8MgSe16
_chemical_formula_sum   'Hf8 Mg1 Se16'
_cell_volume   646.51581969
_cell_formula_units_Z   1
loop_
 _symmetry_equiv_pos_site_id
 _symmetry_equiv_pos_as_xyz
  1  'x, y, z'
loop_
 _atom_site_type_symbol
 _atom_site_label
 _atom_site_symmetry_multiplicity
 _atom_site_fract_x
 _atom_site_fract_y
 _atom_site_fract_z
 _atom_site_occupancy
  Hf  Hf0  1  0.502945  0.497055  0.749534  1
  Hf  Hf1  1  0.497055  0.502945  0.250466  1
  Hf  Hf2  1  0.502945  0.005890  0.749534  1
  Hf  Hf3  1  0.497055  0.994110  0.250466  1
  Hf  Hf4  1  0.994110  0.497055  0.749534  1
  Hf  Hf5  1  0.005890  0.502945  0.250466  1
  Hf  Hf6  1  0.000000  0.000000  0.740999  1
  Hf  Hf7  1  0.000000  0.000000  0.259001  1
  Mg  Mg8  1  0.000000  0.000000  0.000000  1
  Se  Se9  1  0.834550  0.669101  0.129369  1
  Se  Se10  1  0.831715  0.663430  0.627868  1
  Se  Se11  1  0.834550  0.165450  0.129369  1
  Se  Se12  1  0.831715  0.168285  0.627868  1
  Se  Se13  1  0.333333  0.666667  0.128341  1
  Se  Se14  1  0.333333  0.666667  0.634966  1
  Se  Se15  1  0.330899  0.165450  0.129369  1
  Se  Se16  1  0.336570  0.168285  0.627868  1
  Se  Se17  1  0.669101  0.834550  0.870631  1
  Se  Se18  1  0.663430  0.831715  0.372132  1
  Se  Se19  1  0.666667  0.333333  0.871659  1
  Se  Se20  1  0.666667  0.333333  0.365034  1
  Se  Se21  1  0.165450  0.834550  0.870631  1
  Se  Se22  1  0.168285  0.831715  0.372132  1
  Se  Se23  1  0.165450  0.330899  0.870631  1
  Se  Se24  1  0.168285  0.336570  0.372132  1
