# generated using pymatgen
data_Gd5YRhCl10
_symmetry_space_group_name_H-M   'P 1'
_cell_length_a   7.13207382
_cell_length_b   8.87665395
_cell_length_c   9.02453200
_cell_angle_alpha   108.16624789
_cell_angle_beta   96.52915981
_cell_angle_gamma   105.14615889
_symmetry_Int_Tables_number   1
_chemical_formula_structural   Gd5YRhCl10
_chemical_formula_sum   'Gd5 Y1 Rh1 Cl10'
_cell_volume   511.99667423
_cell_formula_units_Z   1
loop_
 _symmetry_equiv_pos_site_id
 _symmetry_equiv_pos_as_xyz
  1  'x, y, z'
loop_
 _atom_site_type_symbol
 _atom_site_label
 _atom_site_symmetry_multiplicity
 _atom_site_fract_x
 _atom_site_fract_y
 _atom_site_fract_z
 _atom_site_occupancy
  Gd  Gd0  1  0.468135  0.809656  0.598579  1
  Gd  Gd1  1  0.529007  0.191022  0.399984  1
  Gd  Gd2  1  0.362736  0.445844  0.753859  1
  Gd  Gd3  1  0.633916  0.552870  0.246102  1
  Gd  Gd4  1  0.875898  0.643244  0.690425  1
  Y  Y5  1  0.126725  0.360406  0.314581  1
  Rh  Rh6  1  0.499444  0.501531  0.500770  1
  Cl  Cl7  1  0.412981  0.129712  0.667627  1
  Cl  Cl8  1  0.586036  0.870694  0.329558  1
  Cl  Cl9  1  0.047739  0.672495  0.416249  1
  Cl  Cl10  1  0.954094  0.322379  0.578214  1
  Cl  Cl11  1  0.287417  0.753456  0.847282  1
  Cl  Cl12  1  0.723646  0.248484  0.158227  1
  Cl  Cl13  1  0.251077  0.414452  0.049647  1
  Cl  Cl14  1  0.744254  0.578287  0.951956  1
  Cl  Cl15  1  0.848650  0.953017  0.769140  1
  Cl  Cl16  1  0.148247  0.052453  0.227799  1
