# generated using pymatgen
data_NdSm3(MoN3)4
_symmetry_space_group_name_H-M   'P 1'
_cell_length_a   7.38201593
_cell_length_b   7.38201635
_cell_length_c   6.35132464
_cell_angle_alpha   74.70137982
_cell_angle_beta   74.70138321
_cell_angle_gamma   83.00052647
_symmetry_Int_Tables_number   1
_chemical_formula_structural   NdSm3(MoN3)4
_chemical_formula_sum   'Nd1 Sm3 Mo4 N12'
_cell_volume   321.50698937
_cell_formula_units_Z   1
loop_
 _symmetry_equiv_pos_site_id
 _symmetry_equiv_pos_as_xyz
  1  'x, y, z'
loop_
 _atom_site_type_symbol
 _atom_site_label
 _atom_site_symmetry_multiplicity
 _atom_site_fract_x
 _atom_site_fract_y
 _atom_site_fract_z
 _atom_site_occupancy
  Nd  Nd0  1  0.304872  0.695128  0.750000  1
  Sm  Sm1  1  0.910130  0.089870  0.750000  1
  Sm  Sm2  1  0.696651  0.303349  0.250000  1
  Sm  Sm3  1  0.087085  0.912915  0.250000  1
  Mo  Mo4  1  0.800263  0.619396  0.761675  1
  Mo  Mo5  1  0.200384  0.380014  0.239726  1
  Mo  Mo6  1  0.619986  0.799616  0.260274  1
  Mo  Mo7  1  0.380604  0.199737  0.738325  1
  N  N8  1  0.220833  0.002051  0.847346  1
  N  N9  1  0.351480  0.357699  0.458483  1
  N  N10  1  0.652227  0.642423  0.539337  1
  N  N11  1  0.618200  0.113105  0.654670  1
  N  N12  1  0.997949  0.779167  0.652654  1
  N  N13  1  0.775769  0.001210  0.152556  1
  N  N14  1  0.116457  0.618456  0.157861  1
  N  N15  1  0.886895  0.381800  0.845330  1
  N  N16  1  0.998790  0.224231  0.347444  1
  N  N17  1  0.357577  0.347773  0.960663  1
  N  N18  1  0.642301  0.648520  0.041517  1
  N  N19  1  0.381544  0.883543  0.342139  1
