# generated using pymatgen
data_DyHo2Lu2Sn3
_symmetry_space_group_name_H-M   'P 1'
_cell_length_a   8.88911940
_cell_length_b   8.89372903
_cell_length_c   6.44037700
_cell_angle_alpha   90.00000000
_cell_angle_beta   90.00000000
_cell_angle_gamma   120.01715535
_symmetry_Int_Tables_number   1
_chemical_formula_structural   DyHo2Lu2Sn3
_chemical_formula_sum   'Dy2 Ho4 Lu4 Sn6'
_cell_volume   440.86888968
_cell_formula_units_Z   2
loop_
 _symmetry_equiv_pos_site_id
 _symmetry_equiv_pos_as_xyz
  1  'x, y, z'
loop_
 _atom_site_type_symbol
 _atom_site_label
 _atom_site_symmetry_multiplicity
 _atom_site_fract_x
 _atom_site_fract_y
 _atom_site_fract_z
 _atom_site_occupancy
  Dy  Dy0  1  0.760657  0.760711  0.750000  1
  Dy  Dy1  1  0.239343  0.000054  0.750000  1
  Ho  Ho2  1  0.000000  0.239350  0.750000  1
  Ho  Ho3  1  0.239288  0.239263  0.250000  1
  Ho  Ho4  1  0.760712  0.999975  0.250000  1
  Ho  Ho5  1  0.000000  0.760593  0.250000  1
  Lu  Lu6  1  0.666702  0.333344  0.999898  1
  Lu  Lu7  1  0.333298  0.666643  0.999898  1
  Lu  Lu8  1  0.333298  0.666643  0.500102  1
  Lu  Lu9  1  0.666702  0.333344  0.500102  1
  Sn  Sn10  1  0.395900  0.396005  0.750000  1
  Sn  Sn11  1  0.604100  0.000105  0.750000  1
  Sn  Sn12  1  0.000000  0.603862  0.750000  1
  Sn  Sn13  1  0.604138  0.604136  0.250000  1
  Sn  Sn14  1  0.395862  0.999998  0.250000  1
  Sn  Sn15  1  0.000000  0.395976  0.250000  1
