# generated using pymatgen
data_La8TbThRu4
_symmetry_space_group_name_H-M   'P 1'
_cell_length_a   9.14489075
_cell_length_b   9.14489255
_cell_length_c   7.32058400
_cell_angle_alpha   85.30872467
_cell_angle_beta   85.30872374
_cell_angle_gamma   42.91510415
_symmetry_Int_Tables_number   1
_chemical_formula_structural   La8TbThRu4
_chemical_formula_sum   'La8 Tb1 Th1 Ru4'
_cell_volume   415.25193812
_cell_formula_units_Z   1
loop_
 _symmetry_equiv_pos_site_id
 _symmetry_equiv_pos_as_xyz
  1  'x, y, z'
loop_
 _atom_site_type_symbol
 _atom_site_label
 _atom_site_symmetry_multiplicity
 _atom_site_fract_x
 _atom_site_fract_y
 _atom_site_fract_z
 _atom_site_occupancy
  La  La0  1  0.013215  0.803590  0.909082  1
  La  La1  1  0.196410  0.986785  0.590918  1
  La  La2  1  0.983637  0.199333  0.094374  1
  La  La3  1  0.800667  0.016363  0.405626  1
  La  La4  1  0.359470  0.215768  0.820829  1
  La  La5  1  0.784232  0.640530  0.679171  1
  La  La6  1  0.639409  0.785394  0.179272  1
  La  La7  1  0.214606  0.360591  0.320728  1
  Tb  Tb8  1  0.429349  0.570651  0.250000  1
  Th  Th9  1  0.565740  0.434260  0.750000  1
  Ru  Ru10  1  0.198259  0.594093  0.583502  1
  Ru  Ru11  1  0.405907  0.801741  0.916498  1
  Ru  Ru12  1  0.809677  0.400579  0.432855  1
  Ru  Ru13  1  0.599421  0.190323  0.067145  1
