# generated using pymatgen
data_LiYb2Pt3
_symmetry_space_group_name_H-M   'P 1'
_cell_length_a   5.53803922
_cell_length_b   5.53803878
_cell_length_c   5.15884002
_cell_angle_alpha   57.53717310
_cell_angle_beta   57.53717555
_cell_angle_gamma   60.00000569
_symmetry_Int_Tables_number   1
_chemical_formula_structural   LiYb2Pt3
_chemical_formula_sum   'Li1 Yb2 Pt3'
_cell_volume   107.53173613
_cell_formula_units_Z   1
loop_
 _symmetry_equiv_pos_site_id
 _symmetry_equiv_pos_as_xyz
  1  'x, y, z'
loop_
 _atom_site_type_symbol
 _atom_site_label
 _atom_site_symmetry_multiplicity
 _atom_site_fract_x
 _atom_site_fract_y
 _atom_site_fract_z
 _atom_site_occupancy
  Li  Li0  1  0.125000  0.125000  0.625000  1
  Yb  Yb1  1  0.748573  0.748573  0.754282  1
  Yb  Yb2  1  0.501427  0.501427  0.495718  1
  Pt  Pt3  1  0.125000  0.625000  0.125000  1
  Pt  Pt4  1  0.625000  0.125000  0.125000  1
  Pt  Pt5  1  0.125000  0.125000  0.125000  1
