# generated using pymatgen
data_DyTm3Co16(P3Ru)4
_symmetry_space_group_name_H-M   'P 1'
_cell_length_a   3.68067100
_cell_length_b   10.37506700
_cell_length_c   11.75694200
_cell_angle_alpha   90.00207072
_cell_angle_beta   90.00000000
_cell_angle_gamma   90.00000000
_symmetry_Int_Tables_number   1
_chemical_formula_structural   DyTm3Co16(P3Ru)4
_chemical_formula_sum   'Dy1 Tm3 Co16 P12 Ru4'
_cell_volume   448.96479215
_cell_formula_units_Z   1
loop_
 _symmetry_equiv_pos_site_id
 _symmetry_equiv_pos_as_xyz
  1  'x, y, z'
loop_
 _atom_site_type_symbol
 _atom_site_label
 _atom_site_symmetry_multiplicity
 _atom_site_fract_x
 _atom_site_fract_y
 _atom_site_fract_z
 _atom_site_occupancy
  Dy  Dy0  1  0.750000  0.086229  0.795871  1
  Tm  Tm1  1  0.250000  0.585929  0.703949  1
  Tm  Tm2  1  0.250000  0.913964  0.203861  1
  Tm  Tm3  1  0.750000  0.413957  0.296074  1
  Co  Co4  1  0.250000  0.408954  0.488569  1
  Co  Co5  1  0.250000  0.090871  0.990048  1
  Co  Co6  1  0.750000  0.591018  0.511362  1
  Co  Co7  1  0.750000  0.908510  0.011663  1
  Co  Co8  1  0.250000  0.221617  0.177315  1
  Co  Co9  1  0.250000  0.279551  0.676729  1
  Co  Co10  1  0.750000  0.778295  0.822993  1
  Co  Co11  1  0.750000  0.721392  0.322868  1
  Co  Co12  1  0.250000  0.886556  0.702448  1
  Co  Co13  1  0.250000  0.612217  0.203030  1
  Co  Co14  1  0.750000  0.112345  0.296944  1
  Co  Co15  1  0.750000  0.388227  0.797147  1
  Co  Co16  1  0.250000  0.465781  0.930470  1
  Co  Co17  1  0.250000  0.034815  0.429594  1
  Co  Co18  1  0.750000  0.534941  0.069874  1
  Co  Co19  1  0.750000  0.964630  0.568969  1
  P  P20  1  0.250000  0.419715  0.112599  1
  P  P21  1  0.250000  0.080387  0.611444  1
  P  P22  1  0.750000  0.580429  0.887567  1
  P  P23  1  0.750000  0.919543  0.387063  1
  P  P24  1  0.250000  0.271772  0.867422  1
  P  P25  1  0.250000  0.229745  0.367007  1
  P  P26  1  0.750000  0.729577  0.133016  1
  P  P27  1  0.750000  0.770287  0.633005  1
  P  P28  1  0.250000  0.594831  0.389750  1
  P  P29  1  0.250000  0.904134  0.890135  1
  P  P30  1  0.750000  0.405048  0.610303  1
  P  P31  1  0.750000  0.094870  0.110240  1
  Ru  Ru32  1  0.250000  0.717306  0.993055  1
  Ru  Ru33  1  0.250000  0.782156  0.492554  1
  Ru  Ru34  1  0.750000  0.282683  0.007772  1
  Ru  Ru35  1  0.750000  0.217717  0.507287  1
