# generated using pymatgen
data_Dy2Er3Os2
_symmetry_space_group_name_H-M   'P 1'
_cell_length_a   6.32436034
_cell_length_b   7.33952637
_cell_length_c   8.38524305
_cell_angle_alpha   96.96194495
_cell_angle_beta   112.15494256
_cell_angle_gamma   90.00000344
_symmetry_Int_Tables_number   1
_chemical_formula_structural   Dy2Er3Os2
_chemical_formula_sum   'Dy4 Er6 Os4'
_cell_volume   357.38667372
_cell_formula_units_Z   2
loop_
 _symmetry_equiv_pos_site_id
 _symmetry_equiv_pos_as_xyz
  1  'x, y, z'
loop_
 _atom_site_type_symbol
 _atom_site_label
 _atom_site_symmetry_multiplicity
 _atom_site_fract_x
 _atom_site_fract_y
 _atom_site_fract_z
 _atom_site_occupancy
  Dy  Dy0  1  0.791843  0.583825  0.815618  1
  Dy  Dy1  1  0.976224  0.916175  0.184382  1
  Dy  Dy2  1  0.208157  0.416175  0.184382  1
  Dy  Dy3  1  0.023776  0.083825  0.815618  1
  Er  Er4  1  0.203893  0.683629  0.564555  1
  Er  Er5  1  0.639338  0.816371  0.435445  1
  Er  Er6  1  0.796107  0.316371  0.435445  1
  Er  Er7  1  0.360662  0.183629  0.564555  1
  Er  Er8  1  0.420659  0.750000  0.000000  1
  Er  Er9  1  0.579341  0.250000  0.000000  1
  Os  Os10  1  0.601339  0.923181  0.779998  1
  Os  Os11  1  0.821342  0.576819  0.220002  1
  Os  Os12  1  0.398661  0.076819  0.220002  1
  Os  Os13  1  0.178658  0.423181  0.779998  1
