# generated using pymatgen
data_AgTe11(RhCl3)2
_symmetry_space_group_name_H-M   'P 1'
_cell_length_a   9.00646310
_cell_length_b   9.13998593
_cell_length_c   9.14572141
_cell_angle_alpha   108.57308993
_cell_angle_beta   108.53058557
_cell_angle_gamma   106.12086829
_symmetry_Int_Tables_number   1
_chemical_formula_structural   AgTe11(RhCl3)2
_chemical_formula_sum   'Ag1 Te11 Rh2 Cl6'
_cell_volume   613.58958556
_cell_formula_units_Z   1
loop_
 _symmetry_equiv_pos_site_id
 _symmetry_equiv_pos_as_xyz
  1  'x, y, z'
loop_
 _atom_site_type_symbol
 _atom_site_label
 _atom_site_symmetry_multiplicity
 _atom_site_fract_x
 _atom_site_fract_y
 _atom_site_fract_z
 _atom_site_occupancy
  Ag  Ag0  1  0.819940  0.811562  0.092391  1
  Te  Te1  1  0.807488  0.079990  0.812669  1
  Te  Te2  1  0.079381  0.826998  0.811488  1
  Te  Te3  1  0.686031  0.666162  0.422115  1
  Te  Te4  1  0.420666  0.691262  0.673112  1
  Te  Te5  1  0.678695  0.436700  0.699448  1
  Te  Te6  1  0.172476  0.187582  0.916952  1
  Te  Te7  1  0.164655  0.918529  0.171277  1
  Te  Te8  1  0.913146  0.164400  0.167226  1
  Te  Te9  1  0.309619  0.331878  0.577474  1
  Te  Te10  1  0.576462  0.305478  0.327829  1
  Te  Te11  1  0.313307  0.576352  0.308585  1
  Rh  Rh12  1  0.748510  0.755813  0.742105  1
  Rh  Rh13  1  0.244179  0.250658  0.246648  1
  Cl  Cl14  1  0.756074  0.008968  0.470608  1
  Cl  Cl15  1  0.508638  0.702996  0.014417  1
  Cl  Cl16  1  0.018893  0.491822  0.754781  1
  Cl  Cl17  1  0.269351  0.001946  0.523049  1
  Cl  Cl18  1  0.520635  0.246329  0.996877  1
  Cl  Cl19  1  0.991855  0.544576  0.270950  1
