# generated using pymatgen
data_Eu2Si2Pt3Rh
_symmetry_space_group_name_H-M   'P 1'
_cell_length_a   9.38861745
_cell_length_b   9.38861735
_cell_length_c   4.16729200
_cell_angle_alpha   90.00000000
_cell_angle_beta   90.00000000
_cell_angle_gamma   154.65894557
_symmetry_Int_Tables_number   1
_chemical_formula_structural   Eu2Si2Pt3Rh
_chemical_formula_sum   'Eu2 Si2 Pt3 Rh1'
_cell_volume   157.21957800
_cell_formula_units_Z   1
loop_
 _symmetry_equiv_pos_site_id
 _symmetry_equiv_pos_as_xyz
  1  'x, y, z'
loop_
 _atom_site_type_symbol
 _atom_site_label
 _atom_site_symmetry_multiplicity
 _atom_site_fract_x
 _atom_site_fract_y
 _atom_site_fract_z
 _atom_site_occupancy
  Eu  Eu0  1  0.098413  0.901587  0.750000  1
  Eu  Eu1  1  0.901828  0.098172  0.250000  1
  Si  Si2  1  0.322158  0.677842  0.750000  1
  Si  Si3  1  0.677650  0.322350  0.250000  1
  Pt  Pt4  1  0.548656  0.451344  0.250000  1
  Pt  Pt5  1  0.451021  0.548979  0.750000  1
  Pt  Pt6  1  0.249861  0.750139  0.250000  1
  Rh  Rh7  1  0.750411  0.249589  0.750000  1
