# generated using pymatgen
data_Er19Lu(Cd3Ru)2
_symmetry_space_group_name_H-M   'P 1'
_cell_length_a   9.48902900
_cell_length_b   9.48902860
_cell_length_c   9.77459000
_cell_angle_alpha   90.00000000
_cell_angle_beta   90.00000000
_cell_angle_gamma   119.99999790
_symmetry_Int_Tables_number   1
_chemical_formula_structural   Er19Lu(Cd3Ru)2
_chemical_formula_sum   'Er19 Lu1 Cd6 Ru2'
_cell_volume   762.20662665
_cell_formula_units_Z   1
loop_
 _symmetry_equiv_pos_site_id
 _symmetry_equiv_pos_as_xyz
  1  'x, y, z'
loop_
 _atom_site_type_symbol
 _atom_site_label
 _atom_site_symmetry_multiplicity
 _atom_site_fract_x
 _atom_site_fract_y
 _atom_site_fract_z
 _atom_site_occupancy
  Er  Er0  1  0.000000  0.000000  0.000000  1
  Er  Er1  1  0.209515  0.790485  0.440685  1
  Er  Er2  1  0.209515  0.419032  0.440685  1
  Er  Er3  1  0.580968  0.790485  0.440685  1
  Er  Er4  1  0.790485  0.209515  0.559315  1
  Er  Er5  1  0.790485  0.580968  0.559315  1
  Er  Er6  1  0.419032  0.209515  0.559315  1
  Er  Er7  1  0.790006  0.209994  0.940785  1
  Er  Er8  1  0.790006  0.580010  0.940785  1
  Er  Er9  1  0.419990  0.209994  0.940785  1
  Er  Er10  1  0.209994  0.790006  0.059215  1
  Er  Er11  1  0.209994  0.419990  0.059215  1
  Er  Er12  1  0.580010  0.790006  0.059215  1
  Er  Er13  1  0.540943  0.459057  0.250171  1
  Er  Er14  1  0.540943  0.081885  0.250171  1
  Er  Er15  1  0.918115  0.459057  0.250171  1
  Er  Er16  1  0.459057  0.540943  0.749829  1
  Er  Er17  1  0.459057  0.918115  0.749829  1
  Er  Er18  1  0.081885  0.540943  0.749829  1
  Lu  Lu19  1  0.000000  0.000000  0.500000  1
  Cd  Cd20  1  0.885793  0.114207  0.251225  1
  Cd  Cd21  1  0.885793  0.771587  0.251225  1
  Cd  Cd22  1  0.228413  0.114207  0.251225  1
  Cd  Cd23  1  0.114207  0.885793  0.748775  1
  Cd  Cd24  1  0.114207  0.228413  0.748775  1
  Cd  Cd25  1  0.771587  0.885793  0.748775  1
  Ru  Ru26  1  0.333333  0.666667  0.250260  1
  Ru  Ru27  1  0.666667  0.333333  0.749740  1
