# generated using pymatgen
data_Li8Pr8Sn7Te
_symmetry_space_group_name_H-M   'P 1'
_cell_length_a   9.59918291
_cell_length_b   9.59918297
_cell_length_c   7.68746430
_cell_angle_alpha   90.10566842
_cell_angle_beta   89.89432705
_cell_angle_gamma   119.95397378
_symmetry_Int_Tables_number   1
_chemical_formula_structural   Li8Pr8Sn7Te
_chemical_formula_sum   'Li8 Pr8 Sn7 Te1'
_cell_volume   613.73731721
_cell_formula_units_Z   1
loop_
 _symmetry_equiv_pos_site_id
 _symmetry_equiv_pos_as_xyz
  1  'x, y, z'
loop_
 _atom_site_type_symbol
 _atom_site_label
 _atom_site_symmetry_multiplicity
 _atom_site_fract_x
 _atom_site_fract_y
 _atom_site_fract_z
 _atom_site_occupancy
  Li  Li0  1  0.833147  0.166853  0.737665  1
  Li  Li1  1  0.832246  0.665883  0.719267  1
  Li  Li2  1  0.334117  0.167754  0.719267  1
  Li  Li3  1  0.166902  0.833098  0.225655  1
  Li  Li4  1  0.169600  0.335168  0.213571  1
  Li  Li5  1  0.664832  0.830400  0.213571  1
  Li  Li6  1  0.666033  0.333967  0.320832  1
  Li  Li7  1  0.333677  0.666323  0.815118  1
  Pr  Pr8  1  0.490032  0.509968  0.504203  1
  Pr  Pr9  1  0.486394  0.978941  0.508180  1
  Pr  Pr10  1  0.021059  0.513606  0.508180  1
  Pr  Pr11  1  0.510273  0.489727  0.003691  1
  Pr  Pr12  1  0.501958  0.015164  0.002090  1
  Pr  Pr13  1  0.984836  0.498042  0.002090  1
  Pr  Pr14  1  0.000891  0.999109  0.504267  1
  Pr  Pr15  1  0.003932  0.996068  0.998589  1
  Sn  Sn16  1  0.833577  0.666794  0.267134  1
  Sn  Sn17  1  0.333206  0.166423  0.267134  1
  Sn  Sn18  1  0.166680  0.833320  0.763454  1
  Sn  Sn19  1  0.165644  0.333093  0.766881  1
  Sn  Sn20  1  0.666907  0.834356  0.766881  1
  Sn  Sn21  1  0.667715  0.332285  0.735550  1
  Sn  Sn22  1  0.333050  0.666950  0.235442  1
  Te  Te23  1  0.833291  0.166709  0.259295  1
