# generated using pymatgen
data_Sc4Al2B4IrRh9
_symmetry_space_group_name_H-M   'P 1'
_cell_length_a   9.36372460
_cell_length_b   3.06241200
_cell_length_c   9.36372460
_cell_angle_alpha   90.00000000
_cell_angle_beta   89.95888093
_cell_angle_gamma   90.00000000
_symmetry_Int_Tables_number   1
_chemical_formula_structural   Sc4Al2B4IrRh9
_chemical_formula_sum   'Sc4 Al2 B4 Ir1 Rh9'
_cell_volume   268.51018904
_cell_formula_units_Z   1
loop_
 _symmetry_equiv_pos_site_id
 _symmetry_equiv_pos_as_xyz
  1  'x, y, z'
loop_
 _atom_site_type_symbol
 _atom_site_label
 _atom_site_symmetry_multiplicity
 _atom_site_fract_x
 _atom_site_fract_y
 _atom_site_fract_z
 _atom_site_occupancy
  Sc  Sc0  1  0.676452  0.000000  0.176452  1
  Sc  Sc1  1  0.175099  0.000000  0.324899  1
  Sc  Sc2  1  0.824901  0.000000  0.675099  1
  Sc  Sc3  1  0.323546  0.000000  0.823548  1
  Al  Al4  1  0.000000  0.000000  0.000000  1
  Al  Al5  1  0.500000  0.000000  0.500000  1
  B  B6  1  0.375874  0.000000  0.124126  1
  B  B7  1  0.876156  0.000000  0.376156  1
  B  B8  1  0.123844  0.000000  0.623844  1
  B  B9  1  0.624126  0.000000  0.875874  1
  Ir  Ir10  1  0.500000  0.500000  0.000000  1
  Rh  Rh11  1  0.215445  0.500000  0.070942  1
  Rh  Rh12  1  0.929610  0.500000  0.216515  1
  Rh  Rh13  1  0.429057  0.500000  0.284553  1
  Rh  Rh14  1  0.716515  0.500000  0.429609  1
  Rh  Rh15  1  0.000000  0.500000  0.500000  1
  Rh  Rh16  1  0.283483  0.500000  0.570391  1
  Rh  Rh17  1  0.570943  0.500000  0.715445  1
  Rh  Rh18  1  0.070390  0.500000  0.783484  1
  Rh  Rh19  1  0.784554  0.500000  0.929058  1
