# generated using pymatgen
data_YLuZr2(Al3Ir)6
_symmetry_space_group_name_H-M   'P 1'
_cell_length_a   7.52078996
_cell_length_b   7.50693703
_cell_length_c   9.35262700
_cell_angle_alpha   90.00000000
_cell_angle_beta   90.00000000
_cell_angle_gamma   119.72067022
_symmetry_Int_Tables_number   1
_chemical_formula_structural   YLuZr2(Al3Ir)6
_chemical_formula_sum   'Y1 Lu1 Zr2 Al18 Ir6'
_cell_volume   458.57040556
_cell_formula_units_Z   1
loop_
 _symmetry_equiv_pos_site_id
 _symmetry_equiv_pos_as_xyz
  1  'x, y, z'
loop_
 _atom_site_type_symbol
 _atom_site_label
 _atom_site_symmetry_multiplicity
 _atom_site_fract_x
 _atom_site_fract_y
 _atom_site_fract_z
 _atom_site_occupancy
  Y  Y0  1  0.670448  0.993935  0.250000  1
  Lu  Lu1  1  0.328695  0.006069  0.750000  1
  Zr  Zr2  1  0.995464  0.671826  0.250000  1
  Zr  Zr3  1  0.005168  0.328578  0.750000  1
  Al  Al4  1  0.127125  0.125068  0.250000  1
  Al  Al5  1  0.874502  0.875397  0.750000  1
  Al  Al6  1  0.000291  0.337304  0.073858  1
  Al  Al7  1  0.000791  0.663565  0.923941  1
  Al  Al8  1  0.000791  0.663565  0.576059  1
  Al  Al9  1  0.332176  0.998952  0.423520  1
  Al  Al10  1  0.000291  0.337304  0.426142  1
  Al  Al11  1  0.666814  0.001268  0.579519  1
  Al  Al12  1  0.666814  0.001268  0.920481  1
  Al  Al13  1  0.332176  0.998952  0.076480  1
  Al  Al14  1  0.331472  0.333117  0.557400  1
  Al  Al15  1  0.668597  0.665951  0.444696  1
  Al  Al16  1  0.668597  0.665951  0.055304  1
  Al  Al17  1  0.331472  0.333117  0.942600  1
  Al  Al18  1  0.333800  0.547277  0.250000  1
  Al  Al19  1  0.664654  0.450978  0.750000  1
  Al  Al20  1  0.554086  0.344077  0.250000  1
  Al  Al21  1  0.445323  0.656664  0.750000  1
  Ir  Ir22  1  0.671859  0.327485  0.998868  1
  Ir  Ir23  1  0.327456  0.672231  0.000105  1
  Ir  Ir24  1  0.327456  0.672231  0.499895  1
  Ir  Ir25  1  0.671859  0.327485  0.501132  1
  Ir  Ir26  1  0.000913  0.000191  0.999311  1
  Ir  Ir27  1  0.000913  0.000191  0.500689  1
