# generated using pymatgen
data_Eu2Zn21Au
_symmetry_space_group_name_H-M   'P 1'
_cell_length_a   8.33377931
_cell_length_b   8.33377845
_cell_length_c   8.33377901
_cell_angle_alpha   100.01032156
_cell_angle_beta   100.01031861
_cell_angle_gamma   130.71893109
_symmetry_Int_Tables_number   1
_chemical_formula_structural   Eu2Zn21Au
_chemical_formula_sum   'Eu2 Zn21 Au1'
_cell_volume   398.73513577
_cell_formula_units_Z   1
loop_
 _symmetry_equiv_pos_site_id
 _symmetry_equiv_pos_as_xyz
  1  'x, y, z'
loop_
 _atom_site_type_symbol
 _atom_site_label
 _atom_site_symmetry_multiplicity
 _atom_site_fract_x
 _atom_site_fract_y
 _atom_site_fract_z
 _atom_site_occupancy
  Eu  Eu0  1  0.000000  0.000000  0.000000  1
  Eu  Eu1  1  0.250000  0.750000  0.500000  1
  Zn  Zn2  1  0.500000  0.500000  0.000000  1
  Zn  Zn3  1  0.125090  0.375007  0.750083  1
  Zn  Zn4  1  0.624993  0.874910  0.249917  1
  Zn  Zn5  1  0.624993  0.375076  0.750083  1
  Zn  Zn6  1  0.624924  0.375007  0.249917  1
  Zn  Zn7  1  0.181421  0.509233  0.084840  1
  Zn  Zn8  1  0.181421  0.096580  0.672187  1
  Zn  Zn9  1  0.759231  0.931132  0.584782  1
  Zn  Zn10  1  0.759231  0.174449  0.828098  1
  Zn  Zn11  1  0.424393  0.509233  0.327813  1
  Zn  Zn12  1  0.424393  0.096580  0.915160  1
  Zn  Zn13  1  0.346351  0.931132  0.171902  1
  Zn  Zn14  1  0.346351  0.174449  0.415218  1
  Zn  Zn15  1  0.068868  0.240769  0.415218  1
  Zn  Zn16  1  0.068868  0.653649  0.828098  1
  Zn  Zn17  1  0.490767  0.818579  0.915160  1
  Zn  Zn18  1  0.490767  0.575607  0.672187  1
  Zn  Zn19  1  0.825551  0.240769  0.171902  1
  Zn  Zn20  1  0.825551  0.653649  0.584782  1
  Zn  Zn21  1  0.903420  0.818579  0.327813  1
  Zn  Zn22  1  0.903420  0.575607  0.084840  1
  Au  Au23  1  0.750000  0.250000  0.500000  1
