# generated using pymatgen
data_Ho2Er4TiAl23Ru8
_symmetry_space_group_name_H-M   'P 1'
_cell_length_a   8.81645300
_cell_length_b   8.81647462
_cell_length_c   9.54922000
_cell_angle_alpha   89.99876524
_cell_angle_beta   90.00136473
_cell_angle_gamma   120.02995847
_symmetry_Int_Tables_number   1
_chemical_formula_structural   Ho2Er4TiAl23Ru8
_chemical_formula_sum   'Ho2 Er4 Ti1 Al23 Ru8'
_cell_volume   642.62291018
_cell_formula_units_Z   1
loop_
 _symmetry_equiv_pos_site_id
 _symmetry_equiv_pos_as_xyz
  1  'x, y, z'
loop_
 _atom_site_type_symbol
 _atom_site_label
 _atom_site_symmetry_multiplicity
 _atom_site_fract_x
 _atom_site_fract_y
 _atom_site_fract_z
 _atom_site_occupancy
  Ho  Ho0  1  0.194052  0.805933  0.249347  1
  Ho  Ho1  1  0.806595  0.193443  0.748876  1
  Er  Er2  1  0.194372  0.388513  0.249446  1
  Er  Er3  1  0.806477  0.612925  0.749038  1
  Er  Er4  1  0.611515  0.805577  0.249467  1
  Er  Er5  1  0.387069  0.193511  0.749046  1
  Ti  Ti6  1  0.333413  0.666568  0.995718  1
  Al  Al7  1  0.666590  0.333409  0.982372  1
  Al  Al8  1  0.666551  0.333406  0.515102  1
  Al  Al9  1  0.333395  0.666580  0.482968  1
  Al  Al10  1  0.161607  0.323037  0.577406  1
  Al  Al11  1  0.838076  0.676342  0.422292  1
  Al  Al12  1  0.676963  0.838386  0.577398  1
  Al  Al13  1  0.837461  0.675044  0.078288  1
  Al  Al14  1  0.323677  0.161933  0.422301  1
  Al  Al15  1  0.158780  0.317440  0.923278  1
  Al  Al16  1  0.161469  0.838521  0.577491  1
  Al  Al17  1  0.324958  0.162546  0.078281  1
  Al  Al18  1  0.838178  0.161826  0.422211  1
  Al  Al19  1  0.682546  0.841213  0.923285  1
  Al  Al20  1  0.837546  0.162461  0.078356  1
  Al  Al21  1  0.158725  0.841277  0.923206  1
  Al  Al22  1  0.561772  0.123341  0.252494  1
  Al  Al23  1  0.440035  0.880337  0.750603  1
  Al  Al24  1  0.876692  0.438256  0.252496  1
  Al  Al25  1  0.119670  0.559969  0.750610  1
  Al  Al26  1  0.561553  0.438453  0.252511  1
  Al  Al27  1  0.440236  0.559765  0.750542  1
  Al  Al28  1  0.999953  0.000042  0.249162  1
  Al  Al29  1  0.000077  0.999930  0.748847  1
  Ru  Ru30  1  0.498313  0.996741  0.002915  1
  Ru  Ru31  1  0.003285  0.501688  0.002915  1
  Ru  Ru32  1  0.499767  0.999526  0.503499  1
  Ru  Ru33  1  0.498411  0.501588  0.002983  1
  Ru  Ru34  1  0.000422  0.500204  0.503538  1
  Ru  Ru35  1  0.499731  0.500288  0.503380  1
  Ru  Ru36  1  0.000051  0.999965  0.999802  1
  Ru  Ru37  1  0.000017  0.000015  0.498532  1
