# generated using pymatgen
data_TbEr11Co4BiIr
_symmetry_space_group_name_H-M   'P 1'
_cell_length_a   8.25597558
_cell_length_b   8.25597471
_cell_length_c   8.25153017
_cell_angle_alpha   110.73932856
_cell_angle_beta   111.18000983
_cell_angle_gamma   106.55699112
_symmetry_Int_Tables_number   1
_chemical_formula_structural   TbEr11Co4BiIr
_chemical_formula_sum   'Tb1 Er11 Co4 Bi1 Ir1'
_cell_volume   431.99063145
_cell_formula_units_Z   1
loop_
 _symmetry_equiv_pos_site_id
 _symmetry_equiv_pos_as_xyz
  1  'x, y, z'
loop_
 _atom_site_type_symbol
 _atom_site_label
 _atom_site_symmetry_multiplicity
 _atom_site_fract_x
 _atom_site_fract_y
 _atom_site_fract_z
 _atom_site_occupancy
  Tb  Tb0  1  0.285124  0.183290  0.468414  1
  Er  Er1  1  0.715815  0.817669  0.533484  1
  Er  Er2  1  0.284971  0.816616  0.101586  1
  Er  Er3  1  0.715865  0.182417  0.898284  1
  Er  Er4  1  0.621177  0.312063  0.308848  1
  Er  Er5  1  0.379675  0.689242  0.691363  1
  Er  Er6  1  0.002121  0.311687  0.691363  1
  Er  Er7  1  0.996784  0.687672  0.308848  1
  Er  Er8  1  0.213043  0.411495  0.197378  1
  Er  Er9  1  0.788190  0.590221  0.803068  1
  Er  Er10  1  0.212847  0.014878  0.803068  1
  Er  Er11  1  0.785883  0.984335  0.197378  1
  Co  Co12  1  0.998944  0.375954  0.374898  1
  Co  Co13  1  0.000243  0.624196  0.624439  1
  Co  Co14  1  0.389523  0.887775  0.499761  1
  Co  Co15  1  0.611986  0.110238  0.499761  1
  Bi  Bi16  1  0.499930  0.499970  0.999899  1
  Ir  Ir17  1  0.997879  0.000282  0.998161  1
