# generated using pymatgen
data_Er6Ga6Co16W
_symmetry_space_group_name_H-M   'P 1'
_cell_length_a   8.43990013
_cell_length_b   8.43902839
_cell_length_c   8.43825911
_cell_angle_alpha   60.01112098
_cell_angle_beta   60.01520337
_cell_angle_gamma   60.01786166
_symmetry_Int_Tables_number   1
_chemical_formula_structural   Er6Ga6Co16W
_chemical_formula_sum   'Er6 Ga6 Co16 W1'
_cell_volume   425.12104044
_cell_formula_units_Z   1
loop_
 _symmetry_equiv_pos_site_id
 _symmetry_equiv_pos_as_xyz
  1  'x, y, z'
loop_
 _atom_site_type_symbol
 _atom_site_label
 _atom_site_symmetry_multiplicity
 _atom_site_fract_x
 _atom_site_fract_y
 _atom_site_fract_z
 _atom_site_occupancy
  Er  Er0  1  0.717398  0.717378  0.282577  1
  Er  Er1  1  0.282527  0.717490  0.282690  1
  Er  Er2  1  0.717501  0.282541  0.282681  1
  Er  Er3  1  0.282602  0.282622  0.717423  1
  Er  Er4  1  0.717473  0.282510  0.717310  1
  Er  Er5  1  0.282499  0.717459  0.717319  1
  Ga  Ga6  1  0.000000  0.000000  0.500000  1
  Ga  Ga7  1  0.500000  0.000000  0.500000  1
  Ga  Ga8  1  0.000000  0.500000  0.500000  1
  Ga  Ga9  1  0.500000  0.500000  0.000000  1
  Ga  Ga10  1  0.000000  0.500000  0.000000  1
  Ga  Ga11  1  0.500000  0.000000  0.000000  1
  Co  Co12  1  0.877247  0.877232  0.368311  1
  Co  Co13  1  0.877212  0.368414  0.877192  1
  Co  Co14  1  0.368406  0.877206  0.877200  1
  Co  Co15  1  0.877228  0.877218  0.877209  1
  Co  Co16  1  0.122753  0.122768  0.631689  1
  Co  Co17  1  0.122788  0.631586  0.122808  1
  Co  Co18  1  0.631594  0.122794  0.122800  1
  Co  Co19  1  0.122772  0.122782  0.122791  1
  Co  Co20  1  0.678075  0.678080  0.965860  1
  Co  Co21  1  0.678083  0.965949  0.677974  1
  Co  Co22  1  0.965987  0.678075  0.677958  1
  Co  Co23  1  0.678075  0.678079  0.677961  1
  Co  Co24  1  0.321925  0.321920  0.034140  1
  Co  Co25  1  0.321917  0.034051  0.322026  1
  Co  Co26  1  0.034013  0.321925  0.322042  1
  Co  Co27  1  0.321925  0.321921  0.322039  1
  W  W28  1  0.000000  0.000000  0.000000  1
