# generated using pymatgen
data_Ho3Mn(P3Rh4)2
_symmetry_space_group_name_H-M   'P 1'
_cell_length_a   3.89843300
_cell_length_b   11.24878000
_cell_length_c   12.54650900
_cell_angle_alpha   90.00000000
_cell_angle_beta   90.00000000
_cell_angle_gamma   90.00000000
_symmetry_Int_Tables_number   1
_chemical_formula_structural   Ho3Mn(P3Rh4)2
_chemical_formula_sum   'Ho6 Mn2 P12 Rh16'
_cell_volume   550.19723080
_cell_formula_units_Z   2
loop_
 _symmetry_equiv_pos_site_id
 _symmetry_equiv_pos_as_xyz
  1  'x, y, z'
loop_
 _atom_site_type_symbol
 _atom_site_label
 _atom_site_symmetry_multiplicity
 _atom_site_fract_x
 _atom_site_fract_y
 _atom_site_fract_z
 _atom_site_occupancy
  Ho  Ho0  1  0.000000  0.500000  0.521988  1
  Ho  Ho1  1  0.500000  0.000000  0.478012  1
  Ho  Ho2  1  0.500000  0.819717  0.200912  1
  Ho  Ho3  1  0.500000  0.180283  0.200912  1
  Ho  Ho4  1  0.000000  0.680283  0.799088  1
  Ho  Ho5  1  0.000000  0.319717  0.799088  1
  Mn  Mn6  1  0.000000  0.500000  0.989344  1
  Mn  Mn7  1  0.500000  0.000000  0.010656  1
  P  P8  1  0.500000  0.500000  0.883939  1
  P  P9  1  0.000000  0.000000  0.116061  1
  P  P10  1  0.500000  0.500000  0.349402  1
  P  P11  1  0.000000  0.000000  0.650598  1
  P  P12  1  0.500000  0.314011  0.620761  1
  P  P13  1  0.500000  0.685989  0.620761  1
  P  P14  1  0.000000  0.185989  0.379239  1
  P  P15  1  0.000000  0.814011  0.379239  1
  P  P16  1  0.500000  0.849516  0.897140  1
  P  P17  1  0.500000  0.150484  0.897140  1
  P  P18  1  0.000000  0.650484  0.102860  1
  P  P19  1  0.000000  0.349516  0.102860  1
  Rh  Rh20  1  0.500000  0.500000  0.162350  1
  Rh  Rh21  1  0.000000  0.000000  0.837650  1
  Rh  Rh22  1  0.500000  0.500000  0.699370  1
  Rh  Rh23  1  0.000000  0.000000  0.300630  1
  Rh  Rh24  1  0.500000  0.334106  0.992168  1
  Rh  Rh25  1  0.500000  0.665894  0.992168  1
  Rh  Rh26  1  0.000000  0.165894  0.007832  1
  Rh  Rh27  1  0.000000  0.834106  0.007832  1
  Rh  Rh28  1  0.500000  0.295164  0.430154  1
  Rh  Rh29  1  0.500000  0.704836  0.430154  1
  Rh  Rh30  1  0.000000  0.204836  0.569846  1
  Rh  Rh31  1  0.000000  0.795164  0.569846  1
  Rh  Rh32  1  0.500000  0.872915  0.712464  1
  Rh  Rh33  1  0.500000  0.127085  0.712464  1
  Rh  Rh34  1  0.000000  0.627085  0.287536  1
  Rh  Rh35  1  0.000000  0.372915  0.287536  1
