# generated using pymatgen
data_La5Nd3Zn7InRh8
_symmetry_space_group_name_H-M   'P 1'
_cell_length_a   4.06838500
_cell_length_b   7.46512293
_cell_length_c   16.71133659
_cell_angle_alpha   90.30808162
_cell_angle_beta   90.00000000
_cell_angle_gamma   90.00000000
_symmetry_Int_Tables_number   1
_chemical_formula_structural   La5Nd3Zn7InRh8
_chemical_formula_sum   'La5 Nd3 Zn7 In1 Rh8'
_cell_volume   507.53256892
_cell_formula_units_Z   1
loop_
 _symmetry_equiv_pos_site_id
 _symmetry_equiv_pos_as_xyz
  1  'x, y, z'
loop_
 _atom_site_type_symbol
 _atom_site_label
 _atom_site_symmetry_multiplicity
 _atom_site_fract_x
 _atom_site_fract_y
 _atom_site_fract_z
 _atom_site_occupancy
  La  La0  1  0.250000  0.049046  0.716494  1
  La  La1  1  0.250000  0.548466  0.781741  1
  La  La2  1  0.250000  0.670421  0.559486  1
  La  La3  1  0.250000  0.171070  0.938951  1
  La  La4  1  0.750000  0.944990  0.288732  1
  Nd  Nd5  1  0.750000  0.330100  0.440952  1
  Nd  Nd6  1  0.750000  0.821080  0.058243  1
  Nd  Nd7  1  0.750000  0.457007  0.218307  1
  Zn  Zn8  1  0.250000  0.003515  0.442816  1
  Zn  Zn9  1  0.750000  0.873781  0.849925  1
  Zn  Zn10  1  0.750000  0.004894  0.558677  1
  Zn  Zn11  1  0.250000  0.505576  0.060262  1
  Zn  Zn12  1  0.750000  0.373031  0.649089  1
  Zn  Zn13  1  0.750000  0.505726  0.937980  1
  Zn  Zn14  1  0.250000  0.616710  0.351653  1
  In  In15  1  0.250000  0.122670  0.150283  1
  Rh  Rh16  1  0.750000  0.254516  0.813042  1
  Rh  Rh17  1  0.250000  0.241783  0.315771  1
  Rh  Rh18  1  0.250000  0.740430  0.930923  1
  Rh  Rh19  1  0.250000  0.242845  0.567364  1
  Rh  Rh20  1  0.250000  0.743133  0.187402  1
  Rh  Rh21  1  0.750000  0.753516  0.436984  1
  Rh  Rh22  1  0.750000  0.269319  0.059834  1
  Rh  Rh23  1  0.750000  0.756377  0.685086  1
