# generated using pymatgen
data_LaNd(Ga3Pd)2
_symmetry_space_group_name_H-M   'P 1'
_cell_length_a   6.12330347
_cell_length_b   6.12330308
_cell_length_c   5.95169700
_cell_angle_alpha   90.00000000
_cell_angle_beta   90.00000000
_cell_angle_gamma   116.47446169
_symmetry_Int_Tables_number   1
_chemical_formula_structural   LaNd(Ga3Pd)2
_chemical_formula_sum   'La1 Nd1 Ga6 Pd2'
_cell_volume   199.75607525
_cell_formula_units_Z   1
loop_
 _symmetry_equiv_pos_site_id
 _symmetry_equiv_pos_as_xyz
  1  'x, y, z'
loop_
 _atom_site_type_symbol
 _atom_site_label
 _atom_site_symmetry_multiplicity
 _atom_site_fract_x
 _atom_site_fract_y
 _atom_site_fract_z
 _atom_site_occupancy
  La  La0  1  0.766215  0.233785  0.250000  1
  Nd  Nd1  1  0.233512  0.766488  0.750000  1
  Ga  Ga2  1  0.664832  0.335168  0.750000  1
  Ga  Ga3  1  0.334250  0.665750  0.250000  1
  Ga  Ga4  1  0.716874  0.715834  0.998113  1
  Ga  Ga5  1  0.716874  0.715834  0.501887  1
  Ga  Ga6  1  0.284166  0.283126  0.998113  1
  Ga  Ga7  1  0.284166  0.283126  0.501887  1
  Pd  Pd8  1  0.904877  0.095123  0.750000  1
  Pd  Pd9  1  0.094232  0.905768  0.250000  1
