# generated using pymatgen
data_TbGd5NbO12
_symmetry_space_group_name_H-M   'P 1'
_cell_length_a   6.58079636
_cell_length_b   6.54567104
_cell_length_c   6.56216684
_cell_angle_alpha   98.60169635
_cell_angle_beta   98.80871664
_cell_angle_gamma   98.78739413
_symmetry_Int_Tables_number   1
_chemical_formula_structural   TbGd5NbO12
_chemical_formula_sum   'Tb1 Gd5 Nb1 O12'
_cell_volume   271.69342276
_cell_formula_units_Z   1
loop_
 _symmetry_equiv_pos_site_id
 _symmetry_equiv_pos_as_xyz
  1  'x, y, z'
loop_
 _atom_site_type_symbol
 _atom_site_label
 _atom_site_symmetry_multiplicity
 _atom_site_fract_x
 _atom_site_fract_y
 _atom_site_fract_z
 _atom_site_occupancy
  Tb  Tb0  1  0.861261  0.388539  0.698434  1
  Gd  Gd1  1  0.610235  0.301891  0.138106  1
  Gd  Gd2  1  0.302188  0.140799  0.610586  1
  Gd  Gd3  1  0.698644  0.861075  0.390334  1
  Gd  Gd4  1  0.390100  0.696240  0.860294  1
  Gd  Gd5  1  0.138392  0.608754  0.302269  1
  Nb  Nb6  1  0.000065  0.998880  0.999663  1
  O  O7  1  0.927778  0.043765  0.697490  1
  O  O8  1  0.958560  0.302727  0.070416  1
  O  O9  1  0.589780  0.178071  0.436720  1
  O  O10  1  0.822566  0.563428  0.412867  1
  O  O11  1  0.301913  0.071744  0.958985  1
  O  O12  1  0.565014  0.411614  0.823367  1
  O  O13  1  0.435510  0.589133  0.177833  1
  O  O14  1  0.697818  0.928268  0.041297  1
  O  O15  1  0.177065  0.435864  0.588556  1
  O  O16  1  0.411925  0.823858  0.564279  1
  O  O17  1  0.039328  0.696649  0.926304  1
  O  O18  1  0.071856  0.958700  0.302199  1
