# generated using pymatgen
data_Ce3Dy2Er3(ReB6)4
_symmetry_space_group_name_H-M   'P 1'
_cell_length_a   3.71071800
_cell_length_b   9.18431358
_cell_length_c   11.57497404
_cell_angle_alpha   90.07830488
_cell_angle_beta   90.00000000
_cell_angle_gamma   90.00000000
_symmetry_Int_Tables_number   1
_chemical_formula_structural   Ce3Dy2Er3(ReB6)4
_chemical_formula_sum   'Ce3 Dy2 Er3 Re4 B24'
_cell_volume   394.47935038
_cell_formula_units_Z   1
loop_
 _symmetry_equiv_pos_site_id
 _symmetry_equiv_pos_as_xyz
  1  'x, y, z'
loop_
 _atom_site_type_symbol
 _atom_site_label
 _atom_site_symmetry_multiplicity
 _atom_site_fract_x
 _atom_site_fract_y
 _atom_site_fract_z
 _atom_site_occupancy
  Ce  Ce0  1  0.000000  0.321944  0.414520  1
  Ce  Ce1  1  0.000000  0.677721  0.586754  1
  Ce  Ce2  1  0.000000  0.823536  0.085239  1
  Dy  Dy3  1  0.000000  0.177536  0.913654  1
  Dy  Dy4  1  0.000000  0.944696  0.372580  1
  Er  Er5  1  0.000000  0.056195  0.628800  1
  Er  Er6  1  0.000000  0.443043  0.127669  1
  Er  Er7  1  0.000000  0.555765  0.871637  1
  Re  Re8  1  0.000000  0.637761  0.320192  1
  Re  Re9  1  0.000000  0.362603  0.678909  1
  Re  Re10  1  0.000000  0.138970  0.179404  1
  Re  Re11  1  0.000000  0.860475  0.820721  1
  B  B12  1  0.500000  0.554204  0.431448  1
  B  B13  1  0.500000  0.445429  0.568791  1
  B  B14  1  0.500000  0.054365  0.067342  1
  B  B15  1  0.500000  0.946143  0.932107  1
  B  B16  1  0.500000  0.748611  0.418183  1
  B  B17  1  0.500000  0.250488  0.582528  1
  B  B18  1  0.500000  0.249301  0.080725  1
  B  B19  1  0.500000  0.751249  0.918130  1
  B  B20  1  0.500000  0.790970  0.265643  1
  B  B21  1  0.500000  0.207787  0.734747  1
  B  B22  1  0.500000  0.291759  0.233124  1
  B  B23  1  0.500000  0.708596  0.766228  1
  B  B24  1  0.500000  0.630595  0.185247  1
  B  B25  1  0.500000  0.368646  0.815086  1
  B  B26  1  0.500000  0.131849  0.313768  1
  B  B27  1  0.500000  0.869525  0.686238  1
  B  B28  1  0.500000  0.984048  0.212016  1
  B  B29  1  0.500000  0.017775  0.787399  1
  B  B30  1  0.500000  0.483029  0.286578  1
  B  B31  1  0.500000  0.516410  0.713587  1
  B  B32  1  0.500000  0.601531  0.028094  1
  B  B33  1  0.500000  0.396616  0.971078  1
  B  B34  1  0.500000  0.105406  0.471878  1
  B  B35  1  0.500000  0.895420  0.529957  1
