# generated using pymatgen
data_GaSi7(Pt3W)2
_symmetry_space_group_name_H-M   'P 1'
_cell_length_a   3.52874200
_cell_length_b   5.56706000
_cell_length_c   24.80176800
_cell_angle_alpha   90.00000000
_cell_angle_beta   90.00000000
_cell_angle_gamma   90.00000000
_symmetry_Int_Tables_number   1
_chemical_formula_structural   GaSi7(Pt3W)2
_chemical_formula_sum   'Ga2 Si14 Pt12 W4'
_cell_volume   487.22374914
_cell_formula_units_Z   2
loop_
 _symmetry_equiv_pos_site_id
 _symmetry_equiv_pos_as_xyz
  1  'x, y, z'
loop_
 _atom_site_type_symbol
 _atom_site_label
 _atom_site_symmetry_multiplicity
 _atom_site_fract_x
 _atom_site_fract_y
 _atom_site_fract_z
 _atom_site_occupancy
  Ga  Ga0  1  0.250000  0.182844  0.520114  1
  Ga  Ga1  1  0.750000  0.317156  0.020114  1
  Si  Si2  1  0.250000  0.676784  0.980999  1
  Si  Si3  1  0.750000  0.823216  0.480999  1
  Si  Si4  1  0.750000  0.319698  0.644520  1
  Si  Si5  1  0.250000  0.180302  0.144520  1
  Si  Si6  1  0.750000  0.820720  0.854126  1
  Si  Si7  1  0.250000  0.679280  0.354126  1
  Si  Si8  1  0.250000  0.664900  0.609814  1
  Si  Si9  1  0.750000  0.835100  0.109814  1
  Si  Si10  1  0.250000  0.165154  0.890166  1
  Si  Si11  1  0.750000  0.334846  0.390166  1
  Si  Si12  1  0.750000  0.827947  0.726307  1
  Si  Si13  1  0.250000  0.672053  0.226307  1
  Si  Si14  1  0.750000  0.329799  0.773810  1
  Si  Si15  1  0.250000  0.170201  0.273810  1
  Pt  Pt16  1  0.750000  0.991859  0.578192  1
  Pt  Pt17  1  0.250000  0.508141  0.078192  1
  Pt  Pt18  1  0.750000  0.500942  0.923346  1
  Pt  Pt19  1  0.250000  0.999058  0.423346  1
  Pt  Pt20  1  0.250000  0.003708  0.671860  1
  Pt  Pt21  1  0.750000  0.496292  0.171860  1
  Pt  Pt22  1  0.250000  0.504656  0.828773  1
  Pt  Pt23  1  0.750000  0.995344  0.328773  1
  Pt  Pt24  1  0.750000  0.507178  0.549737  1
  Pt  Pt25  1  0.250000  0.992822  0.049737  1
  Pt  Pt26  1  0.750000  0.995686  0.948569  1
  Pt  Pt27  1  0.250000  0.504314  0.448569  1
  W  W28  1  0.250000  0.501323  0.710136  1
  W  W29  1  0.750000  0.998677  0.210136  1
  W  W30  1  0.250000  0.003362  0.789532  1
  W  W31  1  0.750000  0.496638  0.289532  1
