# generated using pymatgen
data_Ho2Lu8In8PtRh3
_symmetry_space_group_name_H-M   'P 1'
_cell_length_a   3.56079500
_cell_length_b   7.99056409
_cell_length_c   18.09329120
_cell_angle_alpha   90.09157860
_cell_angle_beta   90.00000000
_cell_angle_gamma   90.00000000
_symmetry_Int_Tables_number   1
_chemical_formula_structural   Ho2Lu8In8PtRh3
_chemical_formula_sum   'Ho2 Lu8 In8 Pt1 Rh3'
_cell_volume   514.80342629
_cell_formula_units_Z   1
loop_
 _symmetry_equiv_pos_site_id
 _symmetry_equiv_pos_as_xyz
  1  'x, y, z'
loop_
 _atom_site_type_symbol
 _atom_site_label
 _atom_site_symmetry_multiplicity
 _atom_site_fract_x
 _atom_site_fract_y
 _atom_site_fract_z
 _atom_site_occupancy
  Ho  Ho0  1  0.000000  0.999479  0.999754  1
  Ho  Ho1  1  0.000000  0.500233  0.500495  1
  Lu  Lu2  1  0.000000  0.116350  0.412761  1
  Lu  Lu3  1  0.000000  0.881866  0.588366  1
  Lu  Lu4  1  0.000000  0.382340  0.911752  1
  Lu  Lu5  1  0.000000  0.618675  0.086673  1
  Lu  Lu6  1  0.000000  0.242111  0.221670  1
  Lu  Lu7  1  0.000000  0.754872  0.778630  1
  Lu  Lu8  1  0.000000  0.255046  0.721482  1
  Lu  Lu9  1  0.000000  0.748850  0.278919  1
  In  In10  1  0.500000  0.424522  0.352130  1
  In  In11  1  0.500000  0.572259  0.650098  1
  In  In12  1  0.500000  0.072666  0.849561  1
  In  In13  1  0.500000  0.930196  0.149193  1
  In  In14  1  0.500000  0.294859  0.065464  1
  In  In15  1  0.500000  0.704016  0.931997  1
  In  In16  1  0.500000  0.203766  0.566887  1
  In  In17  1  0.500000  0.795595  0.432690  1
  Pt  Pt18  1  0.500000  0.525840  0.196430  1
  Rh  Rh19  1  0.500000  0.024782  0.304977  1
  Rh  Rh20  1  0.500000  0.976717  0.695552  1
  Rh  Rh21  1  0.500000  0.474961  0.804518  1
