# generated using pymatgen
data_Li2CuAg(TeO4)4
_symmetry_space_group_name_H-M   'P 1'
_cell_length_a   4.81635263
_cell_length_b   5.50793091
_cell_length_c   10.77831969
_cell_angle_alpha   90.80978050
_cell_angle_beta   88.81762163
_cell_angle_gamma   91.45302163
_symmetry_Int_Tables_number   1
_chemical_formula_structural   Li2CuAg(TeO4)4
_chemical_formula_sum   'Li2 Cu1 Ag1 Te4 O16'
_cell_volume   285.74945082
_cell_formula_units_Z   1
loop_
 _symmetry_equiv_pos_site_id
 _symmetry_equiv_pos_as_xyz
  1  'x, y, z'
loop_
 _atom_site_type_symbol
 _atom_site_label
 _atom_site_symmetry_multiplicity
 _atom_site_fract_x
 _atom_site_fract_y
 _atom_site_fract_z
 _atom_site_occupancy
  Li  Li0  1  0.000000  0.000000  0.500000  1
  Li  Li1  1  0.500000  0.500000  0.000000  1
  Cu  Cu2  1  0.000000  0.000000  0.000000  1
  Ag  Ag3  1  0.500000  0.500000  0.500000  1
  Te  Te4  1  0.431382  0.188239  0.756690  1
  Te  Te5  1  0.066297  0.307457  0.247900  1
  Te  Te6  1  0.933703  0.692543  0.752100  1
  Te  Te7  1  0.568618  0.811761  0.243310  1
  O  O8  1  0.263197  0.206982  0.919643  1
  O  O9  1  0.736803  0.793018  0.080357  1
  O  O10  1  0.624873  0.214747  0.599534  1
  O  O11  1  0.788781  0.714940  0.588174  1
  O  O12  1  0.803242  0.062907  0.323985  1
  O  O13  1  0.824581  0.565611  0.306946  1
  O  O14  1  0.334896  0.540218  0.171296  1
  O  O15  1  0.699911  0.960198  0.817863  1
  O  O16  1  0.665104  0.459782  0.828704  1
  O  O17  1  0.117135  0.730749  0.908503  1
  O  O18  1  0.196758  0.937093  0.676015  1
  O  O19  1  0.375127  0.785253  0.400466  1
  O  O20  1  0.175419  0.434389  0.693054  1
  O  O21  1  0.211219  0.285060  0.411826  1
  O  O22  1  0.882865  0.269251  0.091497  1
  O  O23  1  0.300089  0.039802  0.182137  1
