# generated using pymatgen
data_Hf4Zr2Co15Si7Pt
_symmetry_space_group_name_H-M   'P 1'
_cell_length_a   8.06680311
_cell_length_b   8.06767386
_cell_length_c   8.08239032
_cell_angle_alpha   60.06531649
_cell_angle_beta   60.02108155
_cell_angle_gamma   60.00334609
_symmetry_Int_Tables_number   1
_chemical_formula_structural   Hf4Zr2Co15Si7Pt
_chemical_formula_sum   'Hf4 Zr2 Co15 Si7 Pt1'
_cell_volume   372.19346547
_cell_formula_units_Z   1
loop_
 _symmetry_equiv_pos_site_id
 _symmetry_equiv_pos_as_xyz
  1  'x, y, z'
loop_
 _atom_site_type_symbol
 _atom_site_label
 _atom_site_symmetry_multiplicity
 _atom_site_fract_x
 _atom_site_fract_y
 _atom_site_fract_z
 _atom_site_occupancy
  Hf  Hf0  1  0.798594  0.199483  0.204215  1
  Hf  Hf1  1  0.205486  0.206086  0.792162  1
  Hf  Hf2  1  0.795940  0.207076  0.791098  1
  Hf  Hf3  1  0.199836  0.798170  0.205307  1
  Zr  Zr4  1  0.205173  0.797761  0.792404  1
  Zr  Zr5  1  0.798580  0.799101  0.203867  1
  Co  Co6  1  0.172040  0.483126  0.173908  1
  Co  Co7  1  0.859270  0.377047  0.384721  1
  Co  Co8  1  0.506660  0.833467  0.827845  1
  Co  Co9  1  0.483956  0.171902  0.173140  1
  Co  Co10  1  0.831035  0.831020  0.508257  1
  Co  Co11  1  0.172688  0.173550  0.480914  1
  Co  Co12  1  0.139580  0.619218  0.619965  1
  Co  Co13  1  0.171067  0.170860  0.173198  1
  Co  Co14  1  0.379326  0.377714  0.863295  1
  Co  Co15  1  0.620714  0.618867  0.621039  1
  Co  Co16  1  0.377679  0.859454  0.383491  1
  Co  Co17  1  0.378093  0.377813  0.384783  1
  Co  Co18  1  0.831955  0.833262  0.826985  1
  Co  Co19  1  0.619844  0.139872  0.620204  1
  Co  Co20  1  0.833419  0.505494  0.827813  1
  Si  Si21  1  0.501496  0.000454  0.499877  1
  Si  Si22  1  0.499213  0.498478  0.991578  1
  Si  Si23  1  0.493880  0.494079  0.518520  1
  Si  Si24  1  0.998878  0.999967  0.499551  1
  Si  Si25  1  0.010984  0.498202  0.991446  1
  Si  Si26  1  0.999840  0.501240  0.500241  1
  Si  Si27  1  0.498567  0.011476  0.991025  1
  Pt  Pt28  1  0.616203  0.615761  0.149150  1
