# generated using pymatgen
data_Th2Zn2Si2IrRu3
_symmetry_space_group_name_H-M   'P 1'
_cell_length_a   4.17235400
_cell_length_b   4.17235400
_cell_length_c   10.32079600
_cell_angle_alpha   90.00000000
_cell_angle_beta   90.00000000
_cell_angle_gamma   90.00000000
_symmetry_Int_Tables_number   1
_chemical_formula_structural   Th2Zn2Si2IrRu3
_chemical_formula_sum   'Th2 Zn2 Si2 Ir1 Ru3'
_cell_volume   179.66996834
_cell_formula_units_Z   1
loop_
 _symmetry_equiv_pos_site_id
 _symmetry_equiv_pos_as_xyz
  1  'x, y, z'
loop_
 _atom_site_type_symbol
 _atom_site_label
 _atom_site_symmetry_multiplicity
 _atom_site_fract_x
 _atom_site_fract_y
 _atom_site_fract_z
 _atom_site_occupancy
  Th  Th0  1  0.000000  0.500000  0.238203  1
  Th  Th1  1  0.500000  0.000000  0.754529  1
  Zn  Zn2  1  0.000000  0.000000  0.500782  1
  Zn  Zn3  1  0.500000  0.500000  0.500782  1
  Si  Si4  1  0.000000  0.500000  0.887927  1
  Si  Si5  1  0.500000  0.000000  0.112947  1
  Ir  Ir6  1  0.500000  0.000000  0.345593  1
  Ru  Ru7  1  0.000000  0.000000  0.001369  1
  Ru  Ru8  1  0.500000  0.500000  0.001369  1
  Ru  Ru9  1  0.000000  0.500000  0.656500  1
