# generated using pymatgen
data_Nd2Y4TaMoO14
_symmetry_space_group_name_H-M   'P 1'
_cell_length_a   6.51037114
_cell_length_b   6.51037078
_cell_length_c   7.62543599
_cell_angle_alpha   89.78067526
_cell_angle_beta   90.21932326
_cell_angle_gamma   109.33073343
_symmetry_Int_Tables_number   1
_chemical_formula_structural   Nd2Y4TaMoO14
_chemical_formula_sum   'Nd2 Y4 Ta1 Mo1 O14'
_cell_volume   304.97913640
_cell_formula_units_Z   1
loop_
 _symmetry_equiv_pos_site_id
 _symmetry_equiv_pos_as_xyz
  1  'x, y, z'
loop_
 _atom_site_type_symbol
 _atom_site_label
 _atom_site_symmetry_multiplicity
 _atom_site_fract_x
 _atom_site_fract_y
 _atom_site_fract_z
 _atom_site_occupancy
  Nd  Nd0  1  0.500000  0.500000  0.500000  1
  Nd  Nd1  1  0.500000  0.500000  0.000000  1
  Y  Y2  1  0.000562  0.533974  0.248924  1
  Y  Y3  1  0.999438  0.466026  0.751076  1
  Y  Y4  1  0.533974  0.000562  0.751076  1
  Y  Y5  1  0.466026  0.999438  0.248924  1
  Ta  Ta6  1  0.000000  0.000000  0.000000  1
  Mo  Mo7  1  0.000000  0.000000  0.500000  1
  O  O8  1  0.934801  0.065199  0.750838  1
  O  O9  1  0.065199  0.934801  0.249162  1
  O  O10  1  0.358468  0.641532  0.250320  1
  O  O11  1  0.641532  0.358468  0.749680  1
  O  O12  1  0.364207  0.635793  0.749884  1
  O  O13  1  0.635793  0.364207  0.250116  1
  O  O14  1  0.320379  0.069733  0.968622  1
  O  O15  1  0.679868  0.928671  0.471309  1
  O  O16  1  0.320132  0.071329  0.528691  1
  O  O17  1  0.679621  0.930267  0.031378  1
  O  O18  1  0.071329  0.320132  0.471309  1
  O  O19  1  0.930267  0.679621  0.968622  1
  O  O20  1  0.928671  0.679868  0.528691  1
  O  O21  1  0.069733  0.320379  0.031378  1
