# generated using pymatgen
data_Er13LuTh2(InRh)4
_symmetry_space_group_name_H-M   'P 1'
_cell_length_a   9.62534110
_cell_length_b   9.62534116
_cell_length_c   9.63670900
_cell_angle_alpha   59.96092062
_cell_angle_beta   59.96092041
_cell_angle_gamma   60.11421480
_symmetry_Int_Tables_number   1
_chemical_formula_structural   Er13LuTh2(InRh)4
_chemical_formula_sum   'Er13 Lu1 Th2 In4 Rh4'
_cell_volume   631.48385243
_cell_formula_units_Z   1
loop_
 _symmetry_equiv_pos_site_id
 _symmetry_equiv_pos_as_xyz
  1  'x, y, z'
loop_
 _atom_site_type_symbol
 _atom_site_label
 _atom_site_symmetry_multiplicity
 _atom_site_fract_x
 _atom_site_fract_y
 _atom_site_fract_z
 _atom_site_occupancy
  Er  Er0  1  0.602673  0.193912  0.601708  1
  Er  Er1  1  0.193912  0.602673  0.601708  1
  Er  Er2  1  0.062531  0.439645  0.438274  1
  Er  Er3  1  0.439645  0.062531  0.059550  1
  Er  Er4  1  0.439645  0.062531  0.438274  1
  Er  Er5  1  0.062531  0.439645  0.059550  1
  Er  Er6  1  0.436858  0.436858  0.063142  1
  Er  Er7  1  0.059792  0.059792  0.440208  1
  Er  Er8  1  0.185831  0.815982  0.812535  1
  Er  Er9  1  0.815982  0.185831  0.185652  1
  Er  Er10  1  0.815982  0.185831  0.812535  1
  Er  Er11  1  0.185831  0.815982  0.185652  1
  Er  Er12  1  0.814745  0.814745  0.185255  1
  Lu  Lu13  1  0.191135  0.191135  0.808865  1
  Th  Th14  1  0.596025  0.596025  0.599914  1
  Th  Th15  1  0.596025  0.596025  0.208037  1
  In  In16  1  0.835264  0.835264  0.832389  1
  In  In17  1  0.835264  0.835264  0.497081  1
  In  In18  1  0.834889  0.497830  0.833640  1
  In  In19  1  0.497830  0.834889  0.833640  1
  Rh  Rh20  1  0.390632  0.390632  0.396884  1
  Rh  Rh21  1  0.390632  0.390632  0.821851  1
  Rh  Rh22  1  0.393371  0.822973  0.391828  1
  Rh  Rh23  1  0.822973  0.393371  0.391828  1
