# generated using pymatgen
data_Hf10C8O
_symmetry_space_group_name_H-M   'P 1'
_cell_length_a   8.68617656
_cell_length_b   8.68873706
_cell_length_c   10.87202484
_cell_angle_alpha   62.89205684
_cell_angle_beta   62.91073754
_cell_angle_gamma   44.37816485
_symmetry_Int_Tables_number   1
_chemical_formula_structural   Hf10C8O
_chemical_formula_sum   'Hf20 C16 O2'
_cell_volume   499.62522580
_cell_formula_units_Z   2
loop_
 _symmetry_equiv_pos_site_id
 _symmetry_equiv_pos_as_xyz
  1  'x, y, z'
loop_
 _atom_site_type_symbol
 _atom_site_label
 _atom_site_symmetry_multiplicity
 _atom_site_fract_x
 _atom_site_fract_y
 _atom_site_fract_z
 _atom_site_occupancy
  Hf  Hf0  1  0.237651  0.476847  0.945034  1
  Hf  Hf1  1  0.718692  0.973203  0.958702  1
  Hf  Hf2  1  0.564252  0.330400  0.648955  1
  Hf  Hf3  1  0.435748  0.669600  0.351045  1
  Hf  Hf4  1  0.281308  0.026797  0.041298  1
  Hf  Hf5  1  0.085141  0.817700  0.640841  1
  Hf  Hf6  1  0.128340  0.366465  0.747726  1
  Hf  Hf7  1  0.914859  0.182300  0.359159  1
  Hf  Hf8  1  0.967866  0.721275  0.456653  1
  Hf  Hf9  1  0.762349  0.523153  0.054966  1
  Hf  Hf10  1  0.620429  0.881223  0.745805  1
  Hf  Hf11  1  0.816023  0.081379  0.145274  1
  Hf  Hf12  1  0.476893  0.224891  0.446837  1
  Hf  Hf13  1  0.671694  0.436142  0.850513  1
  Hf  Hf14  1  0.523107  0.775109  0.553163  1
  Hf  Hf15  1  0.328306  0.563858  0.149487  1
  Hf  Hf16  1  0.379571  0.118777  0.254195  1
  Hf  Hf17  1  0.183977  0.918621  0.854726  1
  Hf  Hf18  1  0.032134  0.278725  0.543347  1
  Hf  Hf19  1  0.871660  0.633535  0.252274  1
  C  C20  1  0.577055  0.826502  0.146902  1
  C  C21  1  0.778503  0.023759  0.551478  1
  C  C22  1  0.422945  0.173498  0.853098  1
  C  C23  1  0.627831  0.375581  0.248986  1
  C  C24  1  0.273012  0.528716  0.551805  1
  C  C25  1  0.476401  0.725418  0.950218  1
  C  C26  1  0.323728  0.075404  0.651159  1
  C  C27  1  0.174110  0.423412  0.350442  1
  C  C28  1  0.975376  0.225922  0.952041  1
  C  C29  1  0.825890  0.576588  0.649558  1
  C  C30  1  0.024624  0.774078  0.047959  1
  C  C31  1  0.676272  0.924596  0.348841  1
  C  C32  1  0.726988  0.471284  0.448195  1
  C  C33  1  0.523599  0.274582  0.049782  1
  C  C34  1  0.372169  0.624419  0.751014  1
  C  C35  1  0.221497  0.976241  0.448522  1
  O  O36  1  0.074433  0.325319  0.147695  1
  O  O37  1  0.925567  0.674681  0.852305  1
