# generated using pymatgen
data_Er9LuCuSiPb6
_symmetry_space_group_name_H-M   'P 1'
_cell_length_a   9.13498200
_cell_length_b   9.13498209
_cell_length_c   6.63836300
_cell_angle_alpha   90.00000000
_cell_angle_beta   90.00000000
_cell_angle_gamma   120.00000692
_symmetry_Int_Tables_number   1
_chemical_formula_structural   Er9LuCuSiPb6
_chemical_formula_sum   'Er9 Lu1 Cu1 Si1 Pb6'
_cell_volume   479.74117486
_cell_formula_units_Z   1
loop_
 _symmetry_equiv_pos_site_id
 _symmetry_equiv_pos_as_xyz
  1  'x, y, z'
loop_
 _atom_site_type_symbol
 _atom_site_label
 _atom_site_symmetry_multiplicity
 _atom_site_fract_x
 _atom_site_fract_y
 _atom_site_fract_z
 _atom_site_occupancy
  Er  Er0  1  0.249588  0.999889  0.742164  1
  Er  Er1  1  0.750300  0.999889  0.257836  1
  Er  Er2  1  0.000111  0.249700  0.742164  1
  Er  Er3  1  0.000111  0.750412  0.257836  1
  Er  Er4  1  0.750300  0.750412  0.742164  1
  Er  Er5  1  0.249588  0.249700  0.257836  1
  Er  Er6  1  0.333333  0.666667  0.500000  1
  Er  Er7  1  0.666667  0.333333  0.500000  1
  Er  Er8  1  0.666667  0.333333  0.000000  1
  Lu  Lu9  1  0.333333  0.666667  0.000000  1
  Cu  Cu10  1  0.000000  0.000000  0.000000  1
  Si  Si11  1  0.000000  0.000000  0.500000  1
  Pb  Pb12  1  0.605272  0.999602  0.750198  1
  Pb  Pb13  1  0.394330  0.999602  0.249802  1
  Pb  Pb14  1  0.000398  0.605670  0.750198  1
  Pb  Pb15  1  0.000398  0.394728  0.249802  1
  Pb  Pb16  1  0.394330  0.394728  0.750198  1
  Pb  Pb17  1  0.605272  0.605670  0.249802  1
