# generated using pymatgen
data_Er(BePt)2
_symmetry_space_group_name_H-M   'P 1'
_cell_length_a   3.95582800
_cell_length_b   3.95582800
_cell_length_c   9.65251800
_cell_angle_alpha   90.00000000
_cell_angle_beta   90.00000000
_cell_angle_gamma   90.00000000
_symmetry_Int_Tables_number   1
_chemical_formula_structural   Er(BePt)2
_chemical_formula_sum   'Er2 Be4 Pt4'
_cell_volume   151.04815346
_cell_formula_units_Z   2
loop_
 _symmetry_equiv_pos_site_id
 _symmetry_equiv_pos_as_xyz
  1  'x, y, z'
loop_
 _atom_site_type_symbol
 _atom_site_label
 _atom_site_symmetry_multiplicity
 _atom_site_fract_x
 _atom_site_fract_y
 _atom_site_fract_z
 _atom_site_occupancy
  Er  Er0  1  0.000000  0.500000  0.252738  1
  Er  Er1  1  0.500000  0.000000  0.747263  1
  Be  Be2  1  0.000000  0.000000  0.500000  1
  Be  Be3  1  0.500000  0.500000  0.500000  1
  Be  Be4  1  0.000000  0.500000  0.872001  1
  Be  Be5  1  0.500000  0.000000  0.127999  1
  Pt  Pt6  1  0.000000  0.000000  0.000000  1
  Pt  Pt7  1  0.500000  0.500000  0.000000  1
  Pt  Pt8  1  0.000000  0.500000  0.627416  1
  Pt  Pt9  1  0.500000  0.000000  0.372584  1
