# generated using pymatgen
data_Ti5AlRh10
_symmetry_space_group_name_H-M   'P 1'
_cell_length_a   4.07448900
_cell_length_b   5.40759214
_cell_length_c   10.55563255
_cell_angle_alpha   89.80224912
_cell_angle_beta   90.00000000
_cell_angle_gamma   90.00000000
_symmetry_Int_Tables_number   1
_chemical_formula_structural   Ti5AlRh10
_chemical_formula_sum   'Ti5 Al1 Rh10'
_cell_volume   232.57271064
_cell_formula_units_Z   1
loop_
 _symmetry_equiv_pos_site_id
 _symmetry_equiv_pos_as_xyz
  1  'x, y, z'
loop_
 _atom_site_type_symbol
 _atom_site_label
 _atom_site_symmetry_multiplicity
 _atom_site_fract_x
 _atom_site_fract_y
 _atom_site_fract_z
 _atom_site_occupancy
  Ti  Ti0  1  0.000000  0.500000  0.500000  1
  Ti  Ti1  1  0.500000  0.331159  0.139152  1
  Ti  Ti2  1  0.500000  0.668841  0.860848  1
  Ti  Ti3  1  0.500000  0.841458  0.354896  1
  Ti  Ti4  1  0.500000  0.158542  0.645104  1
  Al  Al5  1  0.000000  0.000000  0.000000  1
  Rh  Rh6  1  0.000000  0.000000  0.500000  1
  Rh  Rh7  1  0.000000  0.500000  0.000000  1
  Rh  Rh8  1  0.000000  0.092392  0.239727  1
  Rh  Rh9  1  0.000000  0.907608  0.760273  1
  Rh  Rh10  1  0.000000  0.593918  0.259934  1
  Rh  Rh11  1  0.000000  0.406082  0.740066  1
  Rh  Rh12  1  0.500000  0.316708  0.392116  1
  Rh  Rh13  1  0.500000  0.683292  0.607884  1
  Rh  Rh14  1  0.500000  0.813645  0.109204  1
  Rh  Rh15  1  0.500000  0.186355  0.890796  1
