# generated using pymatgen
data_HoSc3Al18OsPd5
_symmetry_space_group_name_H-M   'P 1'
_cell_length_a   7.57214236
_cell_length_b   7.56892378
_cell_length_c   9.35064829
_cell_angle_alpha   90.06200306
_cell_angle_beta   90.04266796
_cell_angle_gamma   119.81951612
_symmetry_Int_Tables_number   1
_chemical_formula_structural   HoSc3Al18OsPd5
_chemical_formula_sum   'Ho1 Sc3 Al18 Os1 Pd5'
_cell_volume   464.95561584
_cell_formula_units_Z   1
loop_
 _symmetry_equiv_pos_site_id
 _symmetry_equiv_pos_as_xyz
  1  'x, y, z'
loop_
 _atom_site_type_symbol
 _atom_site_label
 _atom_site_symmetry_multiplicity
 _atom_site_fract_x
 _atom_site_fract_y
 _atom_site_fract_z
 _atom_site_occupancy
  Ho  Ho0  1  0.330818  0.005004  0.751585  1
  Sc  Sc1  1  0.994533  0.669372  0.247966  1
  Sc  Sc2  1  0.005047  0.329305  0.752029  1
  Sc  Sc3  1  0.672430  0.995017  0.247962  1
  Al  Al4  1  0.123490  0.126734  0.249222  1
  Al  Al5  1  0.870670  0.873480  0.750462  1
  Al  Al6  1  0.993024  0.333930  0.079488  1
  Al  Al7  1  0.996491  0.656938  0.925548  1
  Al  Al8  1  0.999223  0.662604  0.577179  1
  Al  Al9  1  0.333829  0.996380  0.414958  1
  Al  Al10  1  0.996315  0.335182  0.419173  1
  Al  Al11  1  0.668627  0.002661  0.575612  1
  Al  Al12  1  0.669690  0.006404  0.925767  1
  Al  Al13  1  0.340267  0.000242  0.082112  1
  Al  Al14  1  0.330287  0.334251  0.561255  1
  Al  Al15  1  0.668835  0.669921  0.432979  1
  Al  Al16  1  0.670673  0.665093  0.059640  1
  Al  Al17  1  0.335035  0.332020  0.946164  1
  Al  Al18  1  0.337429  0.553071  0.249259  1
  Al  Al19  1  0.662063  0.452391  0.753302  1
  Al  Al20  1  0.552550  0.341378  0.247517  1
  Al  Al21  1  0.449816  0.660444  0.750646  1
  Os  Os22  1  0.671819  0.327423  0.000590  1
  Pd  Pd23  1  0.328010  0.672206  0.999788  1
  Pd  Pd24  1  0.327364  0.673069  0.500094  1
  Pd  Pd25  1  0.670296  0.327418  0.499989  1
  Pd  Pd26  1  0.001204  0.998303  0.000118  1
  Pd  Pd27  1  0.000166  0.999757  0.499595  1
