# generated using pymatgen
data_CaAc11Ga12
_symmetry_space_group_name_H-M   'P 1'
_cell_length_a   4.31712100
_cell_length_b   14.28715257
_cell_length_c   11.90263646
_cell_angle_alpha   90.00027389
_cell_angle_beta   90.00000000
_cell_angle_gamma   90.00000000
_symmetry_Int_Tables_number   1
_chemical_formula_structural   CaAc11Ga12
_chemical_formula_sum   'Ca1 Ac11 Ga12'
_cell_volume   734.14707473
_cell_formula_units_Z   1
loop_
 _symmetry_equiv_pos_site_id
 _symmetry_equiv_pos_as_xyz
  1  'x, y, z'
loop_
 _atom_site_type_symbol
 _atom_site_label
 _atom_site_symmetry_multiplicity
 _atom_site_fract_x
 _atom_site_fract_y
 _atom_site_fract_z
 _atom_site_occupancy
  Ca  Ca0  1  0.750000  0.500454  0.633957  1
  Ac  Ac1  1  0.250000  0.662875  0.854310  1
  Ac  Ac2  1  0.250000  0.830935  0.357178  1
  Ac  Ac3  1  0.750000  0.334508  0.143292  1
  Ac  Ac4  1  0.750000  0.165528  0.643293  1
  Ac  Ac5  1  0.250000  0.335981  0.856892  1
  Ac  Ac6  1  0.250000  0.169936  0.358995  1
  Ac  Ac7  1  0.750000  0.666170  0.141227  1
  Ac  Ac8  1  0.750000  0.834240  0.641185  1
  Ac  Ac9  1  0.250000  0.000339  0.858854  1
  Ac  Ac10  1  0.250000  0.499745  0.361826  1
  Ac  Ac11  1  0.750000  0.998983  0.141686  1
  Ga  Ga12  1  0.250000  0.337237  0.571953  1
  Ga  Ga13  1  0.250000  0.167301  0.067088  1
  Ga  Ga14  1  0.750000  0.666187  0.435975  1
  Ga  Ga15  1  0.750000  0.830678  0.931318  1
  Ga  Ga16  1  0.250000  0.663414  0.568526  1
  Ga  Ga17  1  0.250000  0.831746  0.062814  1
  Ga  Ga18  1  0.750000  0.334382  0.439702  1
  Ga  Ga19  1  0.750000  0.168788  0.935550  1
  Ga  Ga20  1  0.250000  0.999984  0.564245  1
  Ga  Ga21  1  0.250000  0.500333  0.065411  1
  Ga  Ga22  1  0.750000  0.000360  0.431613  1
  Ga  Ga23  1  0.750000  0.499901  0.933110  1
