# generated using pymatgen
data_La2BeB3Rh5
_symmetry_space_group_name_H-M   'P 1'
_cell_length_a   7.69445040
_cell_length_b   6.45859380
_cell_length_c   5.71208593
_cell_angle_alpha   77.28687295
_cell_angle_beta   55.23825778
_cell_angle_gamma   46.60000007
_symmetry_Int_Tables_number   1
_chemical_formula_structural   La2BeB3Rh5
_chemical_formula_sum   'La2 Be1 B3 Rh5'
_cell_volume   162.27933185
_cell_formula_units_Z   1
loop_
 _symmetry_equiv_pos_site_id
 _symmetry_equiv_pos_as_xyz
  1  'x, y, z'
loop_
 _atom_site_type_symbol
 _atom_site_label
 _atom_site_symmetry_multiplicity
 _atom_site_fract_x
 _atom_site_fract_y
 _atom_site_fract_z
 _atom_site_occupancy
  La  La0  1  0.863070  0.862203  0.137797  1
  La  La1  1  0.144562  0.144644  0.855356  1
  Be  Be2  1  0.784840  0.476716  0.523284  1
  B  B3  1  0.203236  0.535059  0.464941  1
  B  B4  1  0.539762  0.207964  0.792036  1
  B  B5  1  0.466636  0.789131  0.210869  1
  Rh  Rh6  1  0.750628  0.753794  0.756716  1
  Rh  Rh7  1  0.496783  0.499407  0.006102  1
  Rh  Rh8  1  0.487053  0.493898  0.506102  1
  Rh  Rh9  1  0.002291  0.993898  0.500593  1
  Rh  Rh10  1  0.261139  0.243284  0.246206  1
