# generated using pymatgen
data_Cs2AcSb(PSe3)4
_symmetry_space_group_name_H-M   'P 1'
_cell_length_a   7.98615040
_cell_length_b   7.17235185
_cell_length_c   11.25326562
_cell_angle_alpha   86.56860028
_cell_angle_beta   89.83908657
_cell_angle_gamma   90.59104089
_symmetry_Int_Tables_number   1
_chemical_formula_structural   Cs2AcSb(PSe3)4
_chemical_formula_sum   'Cs2 Ac1 Sb1 P4 Se12'
_cell_volume   643.38756646
_cell_formula_units_Z   1
loop_
 _symmetry_equiv_pos_site_id
 _symmetry_equiv_pos_as_xyz
  1  'x, y, z'
loop_
 _atom_site_type_symbol
 _atom_site_label
 _atom_site_symmetry_multiplicity
 _atom_site_fract_x
 _atom_site_fract_y
 _atom_site_fract_z
 _atom_site_occupancy
  Cs  Cs0  1  0.500417  0.712245  0.486900  1
  Cs  Cs1  1  0.996886  0.274101  0.499576  1
  Ac  Ac2  1  0.684086  0.792764  0.009039  1
  Sb  Sb3  1  0.244865  0.229629  0.991113  1
  P  P4  1  0.687465  0.308874  0.831160  1
  P  P5  1  0.960119  0.775741  0.276775  1
  P  P6  1  0.175634  0.689008  0.158712  1
  P  P7  1  0.458325  0.222581  0.726187  1
  Se  Se8  1  0.769398  0.588188  0.764337  1
  Se  Se9  1  0.521706  0.200903  0.542060  1
  Se  Se10  1  0.767854  0.559976  0.249336  1
  Se  Se11  1  0.576148  0.326615  0.018688  1
  Se  Se12  1  0.367430  0.964493  0.833469  1
  Se  Se13  1  0.272567  0.436122  0.765197  1
  Se  Se14  1  0.064224  0.655387  0.980745  1
  Se  Se15  1  0.886435  0.043173  0.185270  1
  Se  Se16  1  0.041889  0.782492  0.459758  1
  Se  Se17  1  0.363996  0.926529  0.164830  1
  Se  Se18  1  0.874148  0.086733  0.827729  1
  Se  Se19  1  0.284192  0.424450  0.229119  1
