# generated using pymatgen
data_Ho3Fe4Co5P6
_symmetry_space_group_name_H-M   'P 1'
_cell_length_a   3.69942900
_cell_length_b   10.52448900
_cell_length_c   12.08887000
_cell_angle_alpha   90.00000000
_cell_angle_beta   90.00000000
_cell_angle_gamma   90.00000000
_symmetry_Int_Tables_number   1
_chemical_formula_structural   Ho3Fe4Co5P6
_chemical_formula_sum   'Ho6 Fe8 Co10 P12'
_cell_volume   470.67531569
_cell_formula_units_Z   2
loop_
 _symmetry_equiv_pos_site_id
 _symmetry_equiv_pos_as_xyz
  1  'x, y, z'
loop_
 _atom_site_type_symbol
 _atom_site_label
 _atom_site_symmetry_multiplicity
 _atom_site_fract_x
 _atom_site_fract_y
 _atom_site_fract_z
 _atom_site_occupancy
  Ho  Ho0  1  0.000000  0.500000  0.523085  1
  Ho  Ho1  1  0.500000  0.000000  0.476915  1
  Ho  Ho2  1  0.500000  0.819034  0.205284  1
  Ho  Ho3  1  0.500000  0.180966  0.205284  1
  Ho  Ho4  1  0.000000  0.680966  0.794716  1
  Ho  Ho5  1  0.000000  0.319034  0.794716  1
  Fe  Fe6  1  0.000000  0.500000  0.987076  1
  Fe  Fe7  1  0.500000  0.000000  0.012924  1
  Fe  Fe8  1  0.500000  0.298316  0.429021  1
  Fe  Fe9  1  0.500000  0.701684  0.429021  1
  Fe  Fe10  1  0.000000  0.201684  0.570979  1
  Fe  Fe11  1  0.000000  0.798316  0.570979  1
  Fe  Fe12  1  0.500000  0.500000  0.155634  1
  Fe  Fe13  1  0.000000  0.000000  0.844366  1
  Co  Co14  1  0.500000  0.880427  0.711464  1
  Co  Co15  1  0.500000  0.119573  0.711464  1
  Co  Co16  1  0.000000  0.619573  0.288536  1
  Co  Co17  1  0.000000  0.380427  0.288536  1
  Co  Co18  1  0.500000  0.332087  0.994049  1
  Co  Co19  1  0.500000  0.667913  0.994049  1
  Co  Co20  1  0.000000  0.167913  0.005951  1
  Co  Co21  1  0.000000  0.832087  0.005951  1
  Co  Co22  1  0.500000  0.500000  0.699691  1
  Co  Co23  1  0.000000  0.000000  0.300309  1
  P  P24  1  0.500000  0.307743  0.614616  1
  P  P25  1  0.500000  0.692257  0.614616  1
  P  P26  1  0.000000  0.192257  0.385384  1
  P  P27  1  0.000000  0.807743  0.385384  1
  P  P28  1  0.500000  0.500000  0.883160  1
  P  P29  1  0.000000  0.000000  0.116840  1
  P  P30  1  0.500000  0.847910  0.893911  1
  P  P31  1  0.500000  0.152090  0.893911  1
  P  P32  1  0.000000  0.652090  0.106089  1
  P  P33  1  0.000000  0.347910  0.106089  1
  P  P34  1  0.500000  0.500000  0.342943  1
  P  P35  1  0.000000  0.000000  0.657057  1
