# generated using pymatgen
data_Eu4Zr3RuO14
_symmetry_space_group_name_H-M   'P 1'
_cell_length_a   7.60442933
_cell_length_b   7.59687604
_cell_length_c   7.59687600
_cell_angle_alpha   60.00000017
_cell_angle_beta   60.03285203
_cell_angle_gamma   60.03285409
_symmetry_Int_Tables_number   1
_chemical_formula_structural   Eu4Zr3RuO14
_chemical_formula_sum   'Eu4 Zr3 Ru1 O14'
_cell_volume   310.48254501
_cell_formula_units_Z   1
loop_
 _symmetry_equiv_pos_site_id
 _symmetry_equiv_pos_as_xyz
  1  'x, y, z'
loop_
 _atom_site_type_symbol
 _atom_site_label
 _atom_site_symmetry_multiplicity
 _atom_site_fract_x
 _atom_site_fract_y
 _atom_site_fract_z
 _atom_site_occupancy
  Eu  Eu0  1  0.625000  0.125000  0.625000  1
  Eu  Eu1  1  0.625000  0.625000  0.125000  1
  Eu  Eu2  1  0.125000  0.625000  0.625000  1
  Eu  Eu3  1  0.625000  0.625000  0.625000  1
  Zr  Zr4  1  0.125000  0.125000  0.125000  1
  Zr  Zr5  1  0.125000  0.125000  0.625000  1
  Zr  Zr6  1  0.125000  0.625000  0.125000  1
  Ru  Ru7  1  0.625000  0.125000  0.125000  1
  O  O8  1  0.219048  0.788568  0.788568  1
  O  O9  1  0.790918  0.811935  0.198573  1
  O  O10  1  0.790918  0.198573  0.811935  1
  O  O11  1  0.219048  0.788568  0.203816  1
  O  O12  1  0.219048  0.203816  0.788568  1
  O  O13  1  0.790918  0.198573  0.198573  1
  O  O14  1  0.459082  0.051427  0.051427  1
  O  O15  1  0.030952  0.046184  0.461432  1
  O  O16  1  0.030952  0.461432  0.046184  1
  O  O17  1  0.459082  0.051427  0.438065  1
  O  O18  1  0.745363  0.751546  0.751546  1
  O  O19  1  0.459082  0.438065  0.051427  1
  O  O20  1  0.030952  0.461432  0.461432  1
  O  O21  1  0.504637  0.498454  0.498454  1
