# generated using pymatgen
data_Tb8Dy2(IrAu)3
_symmetry_space_group_name_H-M   'P 1'
_cell_length_a   11.31582081
_cell_length_b   11.30359400
_cell_length_c   6.31735975
_cell_angle_alpha   90.00000000
_cell_angle_beta   89.81511063
_cell_angle_gamma   90.00000000
_symmetry_Int_Tables_number   1
_chemical_formula_structural   Tb8Dy2(IrAu)3
_chemical_formula_sum   'Tb16 Dy4 Ir6 Au6'
_cell_volume   808.04576771
_cell_formula_units_Z   2
loop_
 _symmetry_equiv_pos_site_id
 _symmetry_equiv_pos_as_xyz
  1  'x, y, z'
loop_
 _atom_site_type_symbol
 _atom_site_label
 _atom_site_symmetry_multiplicity
 _atom_site_fract_x
 _atom_site_fract_y
 _atom_site_fract_z
 _atom_site_occupancy
  Tb  Tb0  1  0.299352  0.091810  0.360665  1
  Tb  Tb1  1  0.299352  0.908190  0.860665  1
  Tb  Tb2  1  0.696822  0.083706  0.850891  1
  Tb  Tb3  1  0.696822  0.916294  0.350891  1
  Tb  Tb4  1  0.575492  0.790625  0.856391  1
  Tb  Tb5  1  0.575492  0.209375  0.356391  1
  Tb  Tb6  1  0.409272  0.792908  0.370827  1
  Tb  Tb7  1  0.409272  0.207092  0.870827  1
  Tb  Tb8  1  0.214592  0.417945  0.629079  1
  Tb  Tb9  1  0.214592  0.582055  0.129079  1
  Tb  Tb10  1  0.799998  0.415216  0.144728  1
  Tb  Tb11  1  0.799998  0.584784  0.644728  1
  Tb  Tb12  1  0.920569  0.700202  0.146826  1
  Tb  Tb13  1  0.920569  0.299798  0.646826  1
  Tb  Tb14  1  0.096870  0.698523  0.642763  1
  Tb  Tb15  1  0.096870  0.301477  0.142763  1
  Dy  Dy16  1  0.997619  0.998210  0.500782  1
  Dy  Dy17  1  0.997619  0.001790  0.000782  1
  Dy  Dy18  1  0.492908  0.497689  0.997151  1
  Dy  Dy19  1  0.492908  0.502311  0.497151  1
  Ir  Ir20  1  0.347324  0.347059  0.248350  1
  Ir  Ir21  1  0.347324  0.652941  0.748350  1
  Ir  Ir22  1  0.498147  0.999158  0.105292  1
  Ir  Ir23  1  0.498147  0.000842  0.605292  1
  Ir  Ir24  1  0.000573  0.500422  0.896733  1
  Ir  Ir25  1  0.000573  0.499578  0.396733  1
  Au  Au26  1  0.841093  0.154663  0.252369  1
  Au  Au27  1  0.841093  0.845337  0.752369  1
  Au  Au28  1  0.153344  0.155219  0.748677  1
  Au  Au29  1  0.153344  0.844781  0.248677  1
  Au  Au30  1  0.656026  0.346792  0.748476  1
  Au  Au31  1  0.656026  0.653208  0.248476  1
