# generated using pymatgen
data_Hf9TaTcNiW2
_symmetry_space_group_name_H-M   'P 1'
_cell_length_a   8.71201003
_cell_length_b   8.68738773
_cell_length_c   8.48225300
_cell_angle_alpha   90.00000000
_cell_angle_beta   90.00000000
_cell_angle_gamma   119.90655120
_symmetry_Int_Tables_number   1
_chemical_formula_structural   Hf9TaTcNiW2
_chemical_formula_sum   'Hf18 Ta2 Tc2 Ni2 W4'
_cell_volume   556.49031447
_cell_formula_units_Z   2
loop_
 _symmetry_equiv_pos_site_id
 _symmetry_equiv_pos_as_xyz
  1  'x, y, z'
loop_
 _atom_site_type_symbol
 _atom_site_label
 _atom_site_symmetry_multiplicity
 _atom_site_fract_x
 _atom_site_fract_y
 _atom_site_fract_z
 _atom_site_occupancy
  Hf  Hf0  1  0.201360  0.800044  0.441910  1
  Hf  Hf1  1  0.201360  0.401317  0.441910  1
  Hf  Hf2  1  0.598129  0.799066  0.442085  1
  Hf  Hf3  1  0.800378  0.200345  0.558243  1
  Hf  Hf4  1  0.800378  0.600032  0.558243  1
  Hf  Hf5  1  0.400488  0.200244  0.557822  1
  Hf  Hf6  1  0.800378  0.200345  0.941757  1
  Hf  Hf7  1  0.800378  0.600032  0.941757  1
  Hf  Hf8  1  0.400488  0.200244  0.942178  1
  Hf  Hf9  1  0.201360  0.800044  0.058090  1
  Hf  Hf10  1  0.201360  0.401317  0.058090  1
  Hf  Hf11  1  0.598129  0.799066  0.057915  1
  Hf  Hf12  1  0.542437  0.456378  0.250000  1
  Hf  Hf13  1  0.542437  0.086059  0.250000  1
  Hf  Hf14  1  0.913896  0.456948  0.250000  1
  Hf  Hf15  1  0.457374  0.542327  0.750000  1
  Hf  Hf16  1  0.457374  0.915048  0.750000  1
  Hf  Hf17  1  0.084570  0.542286  0.750000  1
  Ta  Ta18  1  0.997859  0.998930  0.495359  1
  Ta  Ta19  1  0.997859  0.998930  0.004641  1
  Tc  Tc20  1  0.886515  0.115300  0.250000  1
  Tc  Tc21  1  0.886515  0.771214  0.250000  1
  Ni  Ni22  1  0.334522  0.667261  0.250000  1
  Ni  Ni23  1  0.666761  0.333381  0.750000  1
  W  W24  1  0.230569  0.115285  0.250000  1
  W  W25  1  0.112386  0.885759  0.750000  1
  W  W26  1  0.112386  0.226625  0.750000  1
  W  W27  1  0.772355  0.886177  0.750000  1
