# generated using pymatgen
data_YbPr7GePd24
_symmetry_space_group_name_H-M   'P 1'
_cell_length_a   8.50436977
_cell_length_b   8.50436977
_cell_length_c   8.50436977
_cell_angle_alpha   89.94777468
_cell_angle_beta   90.05222532
_cell_angle_gamma   90.05222532
_symmetry_Int_Tables_number   1
_chemical_formula_structural   YbPr7GePd24
_chemical_formula_sum   'Yb1 Pr7 Ge1 Pd24'
_cell_volume   615.07186763
_cell_formula_units_Z   1
loop_
 _symmetry_equiv_pos_site_id
 _symmetry_equiv_pos_as_xyz
  1  'x, y, z'
loop_
 _atom_site_type_symbol
 _atom_site_label
 _atom_site_symmetry_multiplicity
 _atom_site_fract_x
 _atom_site_fract_y
 _atom_site_fract_z
 _atom_site_occupancy
  Yb  Yb0  1  0.747852  0.252148  0.252148  1
  Pr  Pr1  1  0.252836  0.252807  0.252807  1
  Pr  Pr2  1  0.747259  0.747102  0.747102  1
  Pr  Pr3  1  0.747193  0.747164  0.252807  1
  Pr  Pr4  1  0.747193  0.252807  0.747164  1
  Pr  Pr5  1  0.252898  0.252741  0.747102  1
  Pr  Pr6  1  0.252898  0.747102  0.252741  1
  Pr  Pr7  1  0.252469  0.747531  0.747531  1
  Ge  Ge8  1  0.999486  0.000514  0.000514  1
  Pd  Pd9  1  0.260810  0.499919  0.999717  1
  Pd  Pd10  1  0.738954  0.497588  0.002885  1
  Pd  Pd11  1  0.997115  0.261046  0.497588  1
  Pd  Pd12  1  0.502412  0.261046  0.002885  1
  Pd  Pd13  1  0.000283  0.739190  0.499919  1
  Pd  Pd14  1  0.500081  0.739190  0.999717  1
  Pd  Pd15  1  0.502412  0.002885  0.261046  1
  Pd  Pd16  1  0.260810  0.999717  0.499919  1
  Pd  Pd17  1  0.500081  0.999717  0.739190  1
  Pd  Pd18  1  0.738954  0.002885  0.497588  1
  Pd  Pd19  1  0.997115  0.497588  0.261046  1
  Pd  Pd20  1  0.000283  0.499919  0.739190  1
  Pd  Pd21  1  0.253950  0.500132  0.500132  1
  Pd  Pd22  1  0.746219  0.497010  0.497010  1
  Pd  Pd23  1  0.502990  0.253781  0.497010  1
  Pd  Pd24  1  0.499868  0.746050  0.500132  1
  Pd  Pd25  1  0.502990  0.497010  0.253781  1
  Pd  Pd26  1  0.499868  0.500132  0.746050  1
  Pd  Pd27  1  0.292512  0.000121  0.000121  1
  Pd  Pd28  1  0.708231  0.002889  0.002889  1
  Pd  Pd29  1  0.997111  0.291769  0.002889  1
  Pd  Pd30  1  0.999879  0.707488  0.000121  1
  Pd  Pd31  1  0.997111  0.002889  0.291769  1
  Pd  Pd32  1  0.999879  0.000121  0.707488  1
