# generated using pymatgen
data_Nd11In9(NiAg)2
_symmetry_space_group_name_H-M   'P 1'
_cell_length_a   13.54325631
_cell_length_b   13.57121198
_cell_length_c   3.77605000
_cell_angle_alpha   90.00000000
_cell_angle_beta   90.00000000
_cell_angle_gamma   111.46925019
_symmetry_Int_Tables_number   1
_chemical_formula_structural   Nd11In9(NiAg)2
_chemical_formula_sum   'Nd11 In9 Ni2 Ag2'
_cell_volume   645.87594548
_cell_formula_units_Z   1
loop_
 _symmetry_equiv_pos_site_id
 _symmetry_equiv_pos_as_xyz
  1  'x, y, z'
loop_
 _atom_site_type_symbol
 _atom_site_label
 _atom_site_symmetry_multiplicity
 _atom_site_fract_x
 _atom_site_fract_y
 _atom_site_fract_z
 _atom_site_occupancy
  Nd  Nd0  1  0.062760  0.414104  0.000000  1
  Nd  Nd1  1  0.937240  0.585896  0.000000  1
  Nd  Nd2  1  0.418928  0.072533  0.000000  1
  Nd  Nd3  1  0.581072  0.927467  0.000000  1
  Nd  Nd4  1  0.615141  0.359969  0.000000  1
  Nd  Nd5  1  0.384859  0.640031  0.000000  1
  Nd  Nd6  1  0.838501  0.158232  0.000000  1
  Nd  Nd7  1  0.161499  0.841768  0.000000  1
  Nd  Nd8  1  0.000000  0.000000  0.000000  1
  Nd  Nd9  1  0.317125  0.299526  0.000000  1
  Nd  Nd10  1  0.682875  0.700474  0.000000  1
  In  In11  1  0.835573  0.367064  0.500000  1
  In  In12  1  0.164427  0.632936  0.500000  1
  In  In13  1  0.367184  0.840084  0.500000  1
  In  In14  1  0.632816  0.159916  0.500000  1
  In  In15  1  0.077675  0.219534  0.500000  1
  In  In16  1  0.922325  0.780466  0.500000  1
  In  In17  1  0.219423  0.074846  0.500000  1
  In  In18  1  0.780577  0.925154  0.500000  1
  In  In19  1  0.500000  0.500000  0.500000  1
  Ni  Ni20  1  0.448999  0.242777  0.500000  1
  Ni  Ni21  1  0.551001  0.757223  0.500000  1
  Ag  Ag22  1  0.252834  0.450889  0.500000  1
  Ag  Ag23  1  0.747166  0.549111  0.500000  1
