# generated using pymatgen
data_LiSm6OsBr12
_symmetry_space_group_name_H-M   'P 1'
_cell_length_a   9.44445629
_cell_length_b   9.44786229
_cell_length_c   9.44316809
_cell_angle_alpha   107.74637841
_cell_angle_beta   107.68680206
_cell_angle_gamma   107.72154490
_symmetry_Int_Tables_number   1
_chemical_formula_structural   LiSm6OsBr12
_chemical_formula_sum   'Li1 Sm6 Os1 Br12'
_cell_volume   687.52392214
_cell_formula_units_Z   1
loop_
 _symmetry_equiv_pos_site_id
 _symmetry_equiv_pos_as_xyz
  1  'x, y, z'
loop_
 _atom_site_type_symbol
 _atom_site_label
 _atom_site_symmetry_multiplicity
 _atom_site_fract_x
 _atom_site_fract_y
 _atom_site_fract_z
 _atom_site_occupancy
  Li  Li0  1  0.500000  0.500000  0.500000  1
  Sm  Sm1  1  0.322229  0.115436  0.037254  1
  Sm  Sm2  1  0.037246  0.322441  0.115543  1
  Sm  Sm3  1  0.115471  0.037250  0.322255  1
  Sm  Sm4  1  0.884529  0.962750  0.677746  1
  Sm  Sm5  1  0.962754  0.677560  0.884458  1
  Sm  Sm6  1  0.677772  0.884564  0.962747  1
  Os  Os7  1  0.000000  0.000000  0.000000  1
  Br  Br8  1  0.686956  0.216618  0.070075  1
  Br  Br9  1  0.385555  0.462720  0.173892  1
  Br  Br10  1  0.069949  0.686860  0.216550  1
  Br  Br11  1  0.783492  0.930002  0.313060  1
  Br  Br12  1  0.462755  0.173916  0.385509  1
  Br  Br13  1  0.173860  0.385455  0.462674  1
  Br  Br14  1  0.826140  0.614546  0.537326  1
  Br  Br15  1  0.537245  0.826085  0.614491  1
  Br  Br16  1  0.216509  0.069999  0.686940  1
  Br  Br17  1  0.930051  0.313140  0.783451  1
  Br  Br18  1  0.614446  0.537280  0.826108  1
  Br  Br19  1  0.313045  0.783382  0.929925  1
