# generated using pymatgen
data_Nd3Al12TcOs3
_symmetry_space_group_name_H-M   'P 1'
_cell_length_a   8.90782100
_cell_length_b   8.90782187
_cell_length_c   9.71883700
_cell_angle_alpha   90.00000000
_cell_angle_beta   90.00000000
_cell_angle_gamma   120.00000046
_symmetry_Int_Tables_number   1
_chemical_formula_structural   Nd3Al12TcOs3
_chemical_formula_sum   'Nd6 Al24 Tc2 Os6'
_cell_volume   667.86384520
_cell_formula_units_Z   2
loop_
 _symmetry_equiv_pos_site_id
 _symmetry_equiv_pos_as_xyz
  1  'x, y, z'
loop_
 _atom_site_type_symbol
 _atom_site_label
 _atom_site_symmetry_multiplicity
 _atom_site_fract_x
 _atom_site_fract_y
 _atom_site_fract_z
 _atom_site_occupancy
  Nd  Nd0  1  0.192357  0.384712  0.250000  1
  Nd  Nd1  1  0.807643  0.615288  0.750000  1
  Nd  Nd2  1  0.615288  0.807643  0.250000  1
  Nd  Nd3  1  0.384712  0.192357  0.750000  1
  Nd  Nd4  1  0.192357  0.807643  0.250000  1
  Nd  Nd5  1  0.807643  0.192357  0.750000  1
  Al  Al6  1  0.333333  0.666667  0.009550  1
  Al  Al7  1  0.666667  0.333333  0.990450  1
  Al  Al8  1  0.666667  0.333333  0.509550  1
  Al  Al9  1  0.333333  0.666667  0.490450  1
  Al  Al10  1  0.162639  0.325280  0.575413  1
  Al  Al11  1  0.837361  0.674720  0.424587  1
  Al  Al12  1  0.674720  0.837361  0.575413  1
  Al  Al13  1  0.837361  0.674720  0.075413  1
  Al  Al14  1  0.325280  0.162639  0.424587  1
  Al  Al15  1  0.162639  0.325280  0.924587  1
  Al  Al16  1  0.162639  0.837361  0.575413  1
  Al  Al17  1  0.325280  0.162639  0.075413  1
  Al  Al18  1  0.837361  0.162639  0.424587  1
  Al  Al19  1  0.674720  0.837361  0.924587  1
  Al  Al20  1  0.837361  0.162639  0.075413  1
  Al  Al21  1  0.162639  0.837361  0.924587  1
  Al  Al22  1  0.561871  0.123741  0.250000  1
  Al  Al23  1  0.438129  0.876259  0.750000  1
  Al  Al24  1  0.876259  0.438129  0.250000  1
  Al  Al25  1  0.123741  0.561871  0.750000  1
  Al  Al26  1  0.561871  0.438129  0.250000  1
  Al  Al27  1  0.438129  0.561871  0.750000  1
  Al  Al28  1  0.000000  0.000000  0.250000  1
  Al  Al29  1  0.000000  0.000000  0.750000  1
  Tc  Tc30  1  0.000000  0.000000  0.000000  1
  Tc  Tc31  1  0.000000  0.000000  0.500000  1
  Os  Os32  1  0.500000  0.000000  0.000000  1
  Os  Os33  1  0.000000  0.500000  0.000000  1
  Os  Os34  1  0.500000  0.000000  0.500000  1
  Os  Os35  1  0.500000  0.500000  0.000000  1
  Os  Os36  1  0.000000  0.500000  0.500000  1
  Os  Os37  1  0.500000  0.500000  0.500000  1
