# generated using pymatgen
data_PrSm5EuFeI12
_symmetry_space_group_name_H-M   'P 1'
_cell_length_a   9.95249633
_cell_length_b   9.74630143
_cell_length_c   9.90143022
_cell_angle_alpha   106.45988022
_cell_angle_beta   106.83049475
_cell_angle_gamma   106.61875926
_symmetry_Int_Tables_number   1
_chemical_formula_structural   PrSm5EuFeI12
_chemical_formula_sum   'Pr1 Sm5 Eu1 Fe1 I12'
_cell_volume   807.65886281
_cell_formula_units_Z   1
loop_
 _symmetry_equiv_pos_site_id
 _symmetry_equiv_pos_as_xyz
  1  'x, y, z'
loop_
 _atom_site_type_symbol
 _atom_site_label
 _atom_site_symmetry_multiplicity
 _atom_site_fract_x
 _atom_site_fract_y
 _atom_site_fract_z
 _atom_site_occupancy
  Pr  Pr0  1  0.411609  0.222825  0.476762  1
  Sm  Sm1  1  0.805154  0.522930  0.599443  1
  Sm  Sm2  1  0.526377  0.600399  0.806402  1
  Sm  Sm3  1  0.195216  0.476970  0.400751  1
  Sm  Sm4  1  0.474082  0.401178  0.194298  1
  Sm  Sm5  1  0.587775  0.773597  0.523361  1
  Eu  Eu6  1  0.999983  0.000114  0.999718  1
  Fe  Fe7  1  0.499612  0.498568  0.500378  1
  I  I8  1  0.729114  0.181464  0.575630  1
  I  I9  1  0.949702  0.874454  0.640825  1
  I  I10  1  0.574995  0.730046  0.185550  1
  I  I11  1  0.124519  0.358611  0.041027  1
  I  I12  1  0.646437  0.958489  0.875544  1
  I  I13  1  0.875483  0.642125  0.959402  1
  I  I14  1  0.043714  0.124605  0.355729  1
  I  I15  1  0.816665  0.424536  0.272193  1
  I  I16  1  0.352371  0.040352  0.117580  1
  I  I17  1  0.277662  0.818915  0.426593  1
  I  I18  1  0.183525  0.576232  0.727949  1
  I  I19  1  0.426005  0.273589  0.820865  1
