# generated using pymatgen
data_Sc4Be2B4IrRh9
_symmetry_space_group_name_H-M   'P 1'
_cell_length_a   9.23961118
_cell_length_b   3.00284900
_cell_length_c   9.24230118
_cell_angle_alpha   90.00000000
_cell_angle_beta   90.02261833
_cell_angle_gamma   90.00000000
_symmetry_Int_Tables_number   1
_chemical_formula_structural   Sc4Be2B4IrRh9
_chemical_formula_sum   'Sc4 Be2 B4 Ir1 Rh9'
_cell_volume   256.42907908
_cell_formula_units_Z   1
loop_
 _symmetry_equiv_pos_site_id
 _symmetry_equiv_pos_as_xyz
  1  'x, y, z'
loop_
 _atom_site_type_symbol
 _atom_site_label
 _atom_site_symmetry_multiplicity
 _atom_site_fract_x
 _atom_site_fract_y
 _atom_site_fract_z
 _atom_site_occupancy
  Sc  Sc0  1  0.675497  0.000000  0.175722  1
  Sc  Sc1  1  0.175367  0.000000  0.324653  1
  Sc  Sc2  1  0.824264  0.000000  0.675761  1
  Sc  Sc3  1  0.324198  0.000000  0.824383  1
  Be  Be4  1  0.000917  0.000000  0.000193  1
  Be  Be5  1  0.500075  0.000000  0.499995  1
  B  B6  1  0.371071  0.000000  0.127987  1
  B  B7  1  0.871671  0.000000  0.371817  1
  B  B8  1  0.128296  0.000000  0.628270  1
  B  B9  1  0.628330  0.000000  0.871689  1
  Ir  Ir10  1  0.209197  0.500000  0.068299  1
  Rh  Rh11  1  0.500807  0.500000  0.999904  1
  Rh  Rh12  1  0.930968  0.500000  0.210084  1
  Rh  Rh13  1  0.431741  0.500000  0.290587  1
  Rh  Rh14  1  0.709928  0.500000  0.430883  1
  Rh  Rh15  1  0.999871  0.500000  0.500332  1
  Rh  Rh16  1  0.290193  0.500000  0.568823  1
  Rh  Rh17  1  0.568942  0.500000  0.709589  1
  Rh  Rh18  1  0.068600  0.500000  0.789861  1
  Rh  Rh19  1  0.790065  0.500000  0.931164  1
