# generated using pymatgen
data_Sr2CePaH12
_symmetry_space_group_name_H-M   'P 1'
_cell_length_a   6.96156900
_cell_length_b   7.05663900
_cell_length_c   6.96156900
_cell_angle_alpha   90.00000000
_cell_angle_beta   90.00000000
_cell_angle_gamma   90.00000000
_symmetry_Int_Tables_number   1
_chemical_formula_structural   Sr2CePaH12
_chemical_formula_sum   'Sr4 Ce2 Pa2 H24'
_cell_volume   341.98902154
_cell_formula_units_Z   2
loop_
 _symmetry_equiv_pos_site_id
 _symmetry_equiv_pos_as_xyz
  1  'x, y, z'
loop_
 _atom_site_type_symbol
 _atom_site_label
 _atom_site_symmetry_multiplicity
 _atom_site_fract_x
 _atom_site_fract_y
 _atom_site_fract_z
 _atom_site_occupancy
  Sr  Sr0  1  0.248378  0.000000  0.500000  1
  Sr  Sr1  1  0.751622  0.000000  0.500000  1
  Sr  Sr2  1  0.000000  0.500000  0.251622  1
  Sr  Sr3  1  0.000000  0.500000  0.748378  1
  Ce  Ce4  1  0.500000  0.750000  0.000000  1
  Ce  Ce5  1  0.500000  0.250000  0.000000  1
  Pa  Pa6  1  0.000000  0.000000  0.000000  1
  Pa  Pa7  1  0.500000  0.500000  0.500000  1
  H  H8  1  0.000000  0.146343  0.275691  1
  H  H9  1  0.500000  0.227591  0.657915  1
  H  H10  1  0.500000  0.772409  0.342085  1
  H  H11  1  0.775691  0.646343  0.500000  1
  H  H12  1  0.224309  0.646343  0.500000  1
  H  H13  1  0.358075  0.500000  0.798043  1
  H  H14  1  0.641925  0.500000  0.798043  1
  H  H15  1  0.298043  0.000000  0.141925  1
  H  H16  1  0.157915  0.272409  0.000000  1
  H  H17  1  0.842085  0.727591  0.000000  1
  H  H18  1  0.298043  0.000000  0.858075  1
  H  H19  1  0.842085  0.272409  0.000000  1
  H  H20  1  0.701957  0.000000  0.141925  1
  H  H21  1  0.701957  0.000000  0.858075  1
  H  H22  1  0.157915  0.727591  0.000000  1
  H  H23  1  0.000000  0.853657  0.724309  1
  H  H24  1  0.000000  0.146343  0.724309  1
  H  H25  1  0.000000  0.853657  0.275691  1
  H  H26  1  0.641925  0.500000  0.201957  1
  H  H27  1  0.358075  0.500000  0.201957  1
  H  H28  1  0.775691  0.353657  0.500000  1
  H  H29  1  0.224309  0.353657  0.500000  1
  H  H30  1  0.500000  0.772409  0.657915  1
  H  H31  1  0.500000  0.227591  0.342085  1
