# generated using pymatgen
data_Dy10Tl6PAu
_symmetry_space_group_name_H-M   'P 1'
_cell_length_a   9.20631100
_cell_length_b   9.20631349
_cell_length_c   6.78972100
_cell_angle_alpha   90.00016181
_cell_angle_beta   89.99976973
_cell_angle_gamma   120.00025336
_symmetry_Int_Tables_number   1
_chemical_formula_structural   Dy10Tl6PAu
_chemical_formula_sum   'Dy10 Tl6 P1 Au1'
_cell_volume   498.37110290
_cell_formula_units_Z   1
loop_
 _symmetry_equiv_pos_site_id
 _symmetry_equiv_pos_as_xyz
  1  'x, y, z'
loop_
 _atom_site_type_symbol
 _atom_site_label
 _atom_site_symmetry_multiplicity
 _atom_site_fract_x
 _atom_site_fract_y
 _atom_site_fract_z
 _atom_site_occupancy
  Dy  Dy0  1  0.249362  0.000013  0.228165  1
  Dy  Dy1  1  0.750638  0.999987  0.771835  1
  Dy  Dy2  1  0.000013  0.249362  0.228166  1
  Dy  Dy3  1  0.999987  0.750638  0.771834  1
  Dy  Dy4  1  0.750603  0.750603  0.228121  1
  Dy  Dy5  1  0.249397  0.249397  0.771879  1
  Dy  Dy6  1  0.333330  0.666668  0.000000  1
  Dy  Dy7  1  0.666670  0.333332  0.000000  1
  Dy  Dy8  1  0.666612  0.333388  0.500000  1
  Dy  Dy9  1  0.333388  0.666612  0.500000  1
  Tl  Tl10  1  0.598807  0.000000  0.245651  1
  Tl  Tl11  1  0.401193  0.000000  0.754349  1
  Tl  Tl12  1  0.000000  0.598807  0.245651  1
  Tl  Tl13  1  0.000000  0.401193  0.754349  1
  Tl  Tl14  1  0.401181  0.401179  0.245555  1
  Tl  Tl15  1  0.598819  0.598821  0.754445  1
  P  P16  1  0.000000  0.000000  0.000000  1
  Au  Au17  1  0.000000  0.000000  0.500000  1
