# generated using pymatgen
data_Y2ErPa(Al3Co)6
_symmetry_space_group_name_H-M   'P 1'
_cell_length_a   7.38580729
_cell_length_b   7.38331903
_cell_length_c   9.25437900
_cell_angle_alpha   90.00000000
_cell_angle_beta   90.00000000
_cell_angle_gamma   119.23957755
_symmetry_Int_Tables_number   1
_chemical_formula_structural   Y2ErPa(Al3Co)6
_chemical_formula_sum   'Y2 Er1 Pa1 Al18 Co6'
_cell_volume   440.35666002
_cell_formula_units_Z   1
loop_
 _symmetry_equiv_pos_site_id
 _symmetry_equiv_pos_as_xyz
  1  'x, y, z'
loop_
 _atom_site_type_symbol
 _atom_site_label
 _atom_site_symmetry_multiplicity
 _atom_site_fract_x
 _atom_site_fract_y
 _atom_site_fract_z
 _atom_site_occupancy
  Y  Y0  1  0.673052  0.992186  0.250000  1
  Y  Y1  1  0.327827  0.007037  0.750000  1
  Er  Er2  1  0.007051  0.328127  0.750000  1
  Pa  Pa3  1  0.993971  0.672861  0.250000  1
  Al  Al4  1  0.129208  0.128551  0.250000  1
  Al  Al5  1  0.875531  0.877172  0.750000  1
  Al  Al6  1  0.331388  0.331868  0.544682  1
  Al  Al7  1  0.664703  0.667141  0.041861  1
  Al  Al8  1  0.331388  0.331868  0.955318  1
  Al  Al9  1  0.664703  0.667141  0.458139  1
  Al  Al10  1  0.340332  0.552281  0.250000  1
  Al  Al11  1  0.659640  0.444664  0.750000  1
  Al  Al12  1  0.551490  0.341003  0.250000  1
  Al  Al13  1  0.444541  0.659904  0.750000  1
  Al  Al14  1  0.998031  0.332653  0.070614  1
  Al  Al15  1  0.001344  0.663874  0.574361  1
  Al  Al16  1  0.338855  0.001023  0.428975  1
  Al  Al17  1  0.665581  0.003407  0.928125  1
  Al  Al18  1  0.001344  0.663874  0.925639  1
  Al  Al19  1  0.998031  0.332653  0.429386  1
  Al  Al20  1  0.665581  0.003407  0.571875  1
  Al  Al21  1  0.338855  0.001023  0.071025  1
  Co  Co22  1  0.999458  0.995761  0.003943  1
  Co  Co23  1  0.999458  0.995761  0.496057  1
  Co  Co24  1  0.673843  0.331721  0.002423  1
  Co  Co25  1  0.325473  0.670660  0.497519  1
  Co  Co26  1  0.325473  0.670660  0.002481  1
  Co  Co27  1  0.673843  0.331721  0.497577  1
