# generated using pymatgen
data_La6B2(CBr)3
_symmetry_space_group_name_H-M   'P 1'
_cell_length_a   8.76466344
_cell_length_b   3.91382700
_cell_length_c   10.39340425
_cell_angle_alpha   90.00000000
_cell_angle_beta   112.89578133
_cell_angle_gamma   90.00000000
_symmetry_Int_Tables_number   1
_chemical_formula_structural   La6B2(CBr)3
_chemical_formula_sum   'La6 B2 C3 Br3'
_cell_volume   328.43939481
_cell_formula_units_Z   1
loop_
 _symmetry_equiv_pos_site_id
 _symmetry_equiv_pos_as_xyz
  1  'x, y, z'
loop_
 _atom_site_type_symbol
 _atom_site_label
 _atom_site_symmetry_multiplicity
 _atom_site_fract_x
 _atom_site_fract_y
 _atom_site_fract_z
 _atom_site_occupancy
  La  La0  1  0.371734  0.500001  0.224646  1
  La  La1  1  0.628265  0.500001  0.775353  1
  La  La2  1  0.947782  0.500001  0.164047  1
  La  La3  1  0.052218  0.500001  0.835953  1
  La  La4  1  0.287857  0.000000  0.482888  1
  La  La5  1  0.712143  0.000000  0.517112  1
  B  B6  1  0.089049  0.000000  0.067478  1
  B  B7  1  0.910953  0.000000  0.932523  1
  C  C8  1  0.167291  0.000000  0.225341  1
  C  C9  1  0.832709  0.000000  0.774658  1
  C  C10  1  0.500000  0.500001  0.500000  1
  Br  Br11  1  0.650643  0.000000  0.185600  1
  Br  Br12  1  0.349358  0.000000  0.814401  1
  Br  Br13  1  0.000000  0.500001  0.500000  1
