# generated using pymatgen
data_Yb2ErLu(ScIr)4
_symmetry_space_group_name_H-M   'P 1'
_cell_length_a   4.21901200
_cell_length_b   7.32882884
_cell_length_c   8.48923710
_cell_angle_alpha   88.13857754
_cell_angle_beta   90.00000000
_cell_angle_gamma   90.00000000
_symmetry_Int_Tables_number   1
_chemical_formula_structural   Yb2ErLu(ScIr)4
_chemical_formula_sum   'Yb2 Er1 Lu1 Sc4 Ir4'
_cell_volume   262.35223643
_cell_formula_units_Z   1
loop_
 _symmetry_equiv_pos_site_id
 _symmetry_equiv_pos_as_xyz
  1  'x, y, z'
loop_
 _atom_site_type_symbol
 _atom_site_label
 _atom_site_symmetry_multiplicity
 _atom_site_fract_x
 _atom_site_fract_y
 _atom_site_fract_z
 _atom_site_occupancy
  Yb  Yb0  1  0.250000  0.976783  0.327191  1
  Yb  Yb1  1  0.750000  0.023340  0.672937  1
  Er  Er2  1  0.750000  0.526090  0.827764  1
  Lu  Lu3  1  0.250000  0.472631  0.172023  1
  Sc  Sc4  1  0.250000  0.354043  0.562580  1
  Sc  Sc5  1  0.250000  0.860344  0.934535  1
  Sc  Sc6  1  0.750000  0.646962  0.434958  1
  Sc  Sc7  1  0.750000  0.139606  0.067332  1
  Ir  Ir8  1  0.250000  0.241899  0.895049  1
  Ir  Ir9  1  0.250000  0.709666  0.627314  1
  Ir  Ir10  1  0.750000  0.756608  0.107114  1
  Ir  Ir11  1  0.750000  0.292031  0.371203  1
