# generated using pymatgen
data_Eu4AlSnPt4
_symmetry_space_group_name_H-M   'P 1'
_cell_length_a   5.78274279
_cell_length_b   5.78274132
_cell_length_c   8.22635461
_cell_angle_alpha   78.71018860
_cell_angle_beta   78.71019184
_cell_angle_gamma   60.70716216
_symmetry_Int_Tables_number   1
_chemical_formula_structural   Eu4AlSnPt4
_chemical_formula_sum   'Eu4 Al1 Sn1 Pt4'
_cell_volume   233.65872960
_cell_formula_units_Z   1
loop_
 _symmetry_equiv_pos_site_id
 _symmetry_equiv_pos_as_xyz
  1  'x, y, z'
loop_
 _atom_site_type_symbol
 _atom_site_label
 _atom_site_symmetry_multiplicity
 _atom_site_fract_x
 _atom_site_fract_y
 _atom_site_fract_z
 _atom_site_occupancy
  Eu  Eu0  1  0.787984  0.510213  0.850254  1
  Eu  Eu1  1  0.489787  0.212016  0.649746  1
  Eu  Eu2  1  0.209673  0.492024  0.148748  1
  Eu  Eu3  1  0.507976  0.790327  0.351252  1
  Al  Al4  1  0.881372  0.118628  0.250000  1
  Sn  Sn5  1  0.147482  0.852518  0.750000  1
  Pt  Pt6  1  0.990765  0.736336  0.488655  1
  Pt  Pt7  1  0.263664  0.009235  0.011345  1
  Pt  Pt8  1  0.987460  0.266162  0.485942  1
  Pt  Pt9  1  0.733838  0.012540  0.014058  1
