# generated using pymatgen
data_Li3Gd4Er(B6Os)4
_symmetry_space_group_name_H-M   'P 1'
_cell_length_a   3.57527400
_cell_length_b   8.94091544
_cell_length_c   11.32561580
_cell_angle_alpha   89.93521978
_cell_angle_beta   90.00000000
_cell_angle_gamma   90.00000000
_symmetry_Int_Tables_number   1
_chemical_formula_structural   Li3Gd4Er(B6Os)4
_chemical_formula_sum   'Li3 Gd4 Er1 B24 Os4'
_cell_volume   362.03692317
_cell_formula_units_Z   1
loop_
 _symmetry_equiv_pos_site_id
 _symmetry_equiv_pos_as_xyz
  1  'x, y, z'
loop_
 _atom_site_type_symbol
 _atom_site_label
 _atom_site_symmetry_multiplicity
 _atom_site_fract_x
 _atom_site_fract_y
 _atom_site_fract_z
 _atom_site_occupancy
  Li  Li0  1  0.000000  0.943850  0.371872  1
  Li  Li1  1  0.000000  0.054721  0.625326  1
  Li  Li2  1  0.000000  0.442247  0.131467  1
  Gd  Gd3  1  0.000000  0.319852  0.411297  1
  Gd  Gd4  1  0.000000  0.682586  0.581556  1
  Gd  Gd5  1  0.000000  0.823553  0.090100  1
  Gd  Gd6  1  0.000000  0.178431  0.915908  1
  Er  Er7  1  0.000000  0.556125  0.871960  1
  B  B8  1  0.500000  0.555327  0.431117  1
  B  B9  1  0.500000  0.444125  0.566297  1
  B  B10  1  0.500000  0.056541  0.069285  1
  B  B11  1  0.500000  0.948087  0.932336  1
  B  B12  1  0.500000  0.758395  0.416271  1
  B  B13  1  0.500000  0.240497  0.581580  1
  B  B14  1  0.500000  0.256076  0.084920  1
  B  B15  1  0.500000  0.751632  0.917846  1
  B  B16  1  0.500000  0.794049  0.264837  1
  B  B17  1  0.500000  0.203184  0.734317  1
  B  B18  1  0.500000  0.293541  0.236484  1
  B  B19  1  0.500000  0.710216  0.763179  1
  B  B20  1  0.500000  0.626301  0.184069  1
  B  B21  1  0.500000  0.367669  0.814277  1
  B  B22  1  0.500000  0.125001  0.318113  1
  B  B23  1  0.500000  0.876838  0.680291  1
  B  B24  1  0.500000  0.979779  0.214866  1
  B  B25  1  0.500000  0.020446  0.785024  1
  B  B26  1  0.500000  0.479310  0.286443  1
  B  B27  1  0.500000  0.517513  0.711273  1
  B  B28  1  0.500000  0.589945  0.032157  1
  B  B29  1  0.500000  0.404313  0.981399  1
  B  B30  1  0.500000  0.092207  0.473788  1
  B  B31  1  0.500000  0.908376  0.524166  1
  Os  Os32  1  0.000000  0.640192  0.318045  1
  Os  Os33  1  0.000000  0.356016  0.678537  1
  Os  Os34  1  0.000000  0.139256  0.183213  1
  Os  Os35  1  0.000000  0.863805  0.816384  1
