# generated using pymatgen
data_Li2Tm2BRh4
_symmetry_space_group_name_H-M   'P 1'
_cell_length_a   5.84040988
_cell_length_b   5.84040952
_cell_length_c   5.63281500
_cell_angle_alpha   61.16900485
_cell_angle_beta   61.16900678
_cell_angle_gamma   60.08536311
_symmetry_Int_Tables_number   1
_chemical_formula_structural   Li2Tm2BRh4
_chemical_formula_sum   'Li2 Tm2 B1 Rh4'
_cell_volume   138.30500641
_cell_formula_units_Z   1
loop_
 _symmetry_equiv_pos_site_id
 _symmetry_equiv_pos_as_xyz
  1  'x, y, z'
loop_
 _atom_site_type_symbol
 _atom_site_label
 _atom_site_symmetry_multiplicity
 _atom_site_fract_x
 _atom_site_fract_y
 _atom_site_fract_z
 _atom_site_occupancy
  Li  Li0  1  0.763090  0.236909  0.235929  1
  Li  Li1  1  0.236909  0.763090  0.235929  1
  Tm  Tm2  1  0.253503  0.253503  0.242164  1
  Tm  Tm3  1  0.746497  0.746497  0.749171  1
  B  B4  1  0.500000  0.500000  0.531793  1
  Rh  Rh5  1  0.745882  0.745882  0.245455  1
  Rh  Rh6  1  0.254117  0.254117  0.737220  1
  Rh  Rh7  1  0.765897  0.234102  0.761168  1
  Rh  Rh8  1  0.234102  0.765897  0.761168  1
