# generated using pymatgen
data_Ho2FeSi5IrRh
_symmetry_space_group_name_H-M   'P 1'
_cell_length_a   8.01689961
_cell_length_b   8.01689937
_cell_length_c   5.63042702
_cell_angle_alpha   71.18061337
_cell_angle_beta   71.18061253
_cell_angle_gamma   93.58331348
_symmetry_Int_Tables_number   1
_chemical_formula_structural   Ho2FeSi5IrRh
_chemical_formula_sum   'Ho4 Fe2 Si10 Ir2 Rh2'
_cell_volume   318.56245776
_cell_formula_units_Z   2
loop_
 _symmetry_equiv_pos_site_id
 _symmetry_equiv_pos_as_xyz
  1  'x, y, z'
loop_
 _atom_site_type_symbol
 _atom_site_label
 _atom_site_symmetry_multiplicity
 _atom_site_fract_x
 _atom_site_fract_y
 _atom_site_fract_z
 _atom_site_occupancy
  Ho  Ho0  1  0.863158  0.595717  0.768189  1
  Ho  Ho1  1  0.129498  0.401660  0.244362  1
  Ho  Ho2  1  0.404283  0.136842  0.731811  1
  Ho  Ho3  1  0.598340  0.870502  0.255638  1
  Fe  Fe4  1  0.544064  0.260041  0.129518  1
  Fe  Fe5  1  0.739959  0.455936  0.370482  1
  Si  Si6  1  0.762278  0.237722  0.750000  1
  Si  Si7  1  0.222989  0.777011  0.250000  1
  Si  Si8  1  0.523081  0.476919  0.750000  1
  Si  Si9  1  0.496567  0.503433  0.250000  1
  Si  Si10  1  0.207585  0.792415  0.750000  1
  Si  Si11  1  0.783960  0.216040  0.250000  1
  Si  Si12  1  0.278774  0.070898  0.324379  1
  Si  Si13  1  0.735233  0.942266  0.661650  1
  Si  Si14  1  0.929102  0.721226  0.175621  1
  Si  Si15  1  0.057734  0.264767  0.838350  1
  Ir  Ir16  1  0.460704  0.740118  0.871159  1
  Ir  Ir17  1  0.259882  0.539296  0.628841  1
  Rh  Rh18  1  0.999555  0.000445  0.250000  1
  Rh  Rh19  1  0.003258  0.996742  0.750000  1
