# generated using pymatgen
data_Tm2B(PtRh2)2
_symmetry_space_group_name_H-M   'P 1'
_cell_length_a   5.83974719
_cell_length_b   5.83974676
_cell_length_c   5.79390100
_cell_angle_alpha   60.25935344
_cell_angle_beta   60.25935587
_cell_angle_gamma   59.87325970
_symmetry_Int_Tables_number   1
_chemical_formula_structural   Tm2B(PtRh2)2
_chemical_formula_sum   'Tm2 B1 Pt2 Rh4'
_cell_volume   140.12467602
_cell_formula_units_Z   1
loop_
 _symmetry_equiv_pos_site_id
 _symmetry_equiv_pos_as_xyz
  1  'x, y, z'
loop_
 _atom_site_type_symbol
 _atom_site_label
 _atom_site_symmetry_multiplicity
 _atom_site_fract_x
 _atom_site_fract_y
 _atom_site_fract_z
 _atom_site_occupancy
  Tm  Tm0  1  0.250002  0.250002  0.249515  1
  Tm  Tm1  1  0.749998  0.749998  0.749518  1
  B  B2  1  0.000000  0.000000  0.007598  1
  Pt  Pt3  1  0.742186  0.257815  0.741584  1
  Pt  Pt4  1  0.257815  0.742186  0.741584  1
  Rh  Rh5  1  0.257804  0.742197  0.256651  1
  Rh  Rh6  1  0.742197  0.257804  0.256651  1
  Rh  Rh7  1  0.744687  0.744687  0.253765  1
  Rh  Rh8  1  0.255314  0.255314  0.743138  1
