# generated using pymatgen
data_YHo9(Sn3Ge)2
_symmetry_space_group_name_H-M   'P 1'
_cell_length_a   9.22472000
_cell_length_b   9.22472012
_cell_length_c   6.45544800
_cell_angle_alpha   90.00000000
_cell_angle_beta   90.00000000
_cell_angle_gamma   119.99999957
_symmetry_Int_Tables_number   1
_chemical_formula_structural   YHo9(Sn3Ge)2
_chemical_formula_sum   'Y1 Ho9 Sn6 Ge2'
_cell_volume   475.73314664
_cell_formula_units_Z   1
loop_
 _symmetry_equiv_pos_site_id
 _symmetry_equiv_pos_as_xyz
  1  'x, y, z'
loop_
 _atom_site_type_symbol
 _atom_site_label
 _atom_site_symmetry_multiplicity
 _atom_site_fract_x
 _atom_site_fract_y
 _atom_site_fract_z
 _atom_site_occupancy
  Y  Y0  1  0.666667  0.333333  0.000000  1
  Ho  Ho1  1  0.333333  0.666667  0.000000  1
  Ho  Ho2  1  0.333333  0.666667  0.500000  1
  Ho  Ho3  1  0.666667  0.333333  0.500000  1
  Ho  Ho4  1  0.745934  0.746014  0.749866  1
  Ho  Ho5  1  0.253986  0.999920  0.749866  1
  Ho  Ho6  1  0.000080  0.254066  0.749866  1
  Ho  Ho7  1  0.253986  0.254066  0.250134  1
  Ho  Ho8  1  0.745934  0.999920  0.250134  1
  Ho  Ho9  1  0.000080  0.746014  0.250134  1
  Sn  Sn10  1  0.391453  0.391699  0.749674  1
  Sn  Sn11  1  0.608301  0.999754  0.749674  1
  Sn  Sn12  1  0.000246  0.608547  0.749674  1
  Sn  Sn13  1  0.608301  0.608547  0.250326  1
  Sn  Sn14  1  0.391453  0.999754  0.250326  1
  Sn  Sn15  1  0.000246  0.391699  0.250326  1
  Ge  Ge16  1  0.000000  0.000000  0.000000  1
  Ge  Ge17  1  0.000000  0.000000  0.500000  1
