# generated using pymatgen
data_La5EuP17Pd6
_symmetry_space_group_name_H-M   'P 1'
_cell_length_a   9.06943499
_cell_length_b   9.06943507
_cell_length_c   9.11370900
_cell_angle_alpha   109.31195644
_cell_angle_beta   109.31194992
_cell_angle_gamma   109.59373956
_symmetry_Int_Tables_number   1
_chemical_formula_structural   La5EuP17Pd6
_chemical_formula_sum   'La5 Eu1 P17 Pd6'
_cell_volume   578.46525185
_cell_formula_units_Z   1
loop_
 _symmetry_equiv_pos_site_id
 _symmetry_equiv_pos_as_xyz
  1  'x, y, z'
loop_
 _atom_site_type_symbol
 _atom_site_label
 _atom_site_symmetry_multiplicity
 _atom_site_fract_x
 _atom_site_fract_y
 _atom_site_fract_z
 _atom_site_occupancy
  La  La0  1  0.000971  0.717270  0.716749  1
  La  La1  1  0.000520  0.284222  0.283251  1
  La  La2  1  0.284222  0.000520  0.283251  1
  La  La3  1  0.717270  0.000971  0.716749  1
  La  La4  1  0.713286  0.713286  0.000000  1
  Eu  Eu5  1  0.286072  0.286072  0.000000  1
  P  P6  1  0.639577  0.421651  0.639328  1
  P  P7  1  0.782322  0.000249  0.360672  1
  P  P8  1  0.361268  0.999382  0.781591  1
  P  P9  1  0.780578  0.360843  0.000000  1
  P  P10  1  0.217973  0.217973  0.578146  1
  P  P11  1  0.579677  0.217792  0.218409  1
  P  P12  1  0.999382  0.361268  0.781591  1
  P  P13  1  0.000249  0.782322  0.360672  1
  P  P14  1  0.360843  0.780578  0.000000  1
  P  P15  1  0.639826  0.639826  0.421854  1
  P  P16  1  0.421651  0.639577  0.639328  1
  P  P17  1  0.217792  0.579677  0.218409  1
  P  P18  1  0.434739  0.434739  0.435878  1
  P  P19  1  0.998861  0.998861  0.564122  1
  P  P20  1  0.565703  0.000186  0.000000  1
  P  P21  1  0.000186  0.565703  0.000000  1
  P  P22  1  0.996254  0.996254  0.000000  1
  Pd  Pd23  1  0.250229  0.750229  0.500000  1
  Pd  Pd24  1  0.499845  0.249459  0.749145  1
  Pd  Pd25  1  0.500314  0.750700  0.250855  1
  Pd  Pd26  1  0.249459  0.499845  0.749145  1
  Pd  Pd27  1  0.750700  0.500314  0.250855  1
  Pd  Pd28  1  0.750229  0.250229  0.500000  1
