# generated using pymatgen
data_HfNb3(AsC)2
_symmetry_space_group_name_H-M   'P 1'
_cell_length_a   3.35657100
_cell_length_b   3.35657110
_cell_length_c   12.17949700
_cell_angle_alpha   90.00000000
_cell_angle_beta   90.00000000
_cell_angle_gamma   120.00002862
_symmetry_Int_Tables_number   1
_chemical_formula_structural   HfNb3(AsC)2
_chemical_formula_sum   'Hf1 Nb3 As2 C2'
_cell_volume   118.83696389
_cell_formula_units_Z   1
loop_
 _symmetry_equiv_pos_site_id
 _symmetry_equiv_pos_as_xyz
  1  'x, y, z'
loop_
 _atom_site_type_symbol
 _atom_site_label
 _atom_site_symmetry_multiplicity
 _atom_site_fract_x
 _atom_site_fract_y
 _atom_site_fract_z
 _atom_site_occupancy
  Hf  Hf0  1  0.333333  0.666667  0.404427  1
  Nb  Nb1  1  0.666667  0.333333  0.905493  1
  Nb  Nb2  1  0.666667  0.333333  0.599407  1
  Nb  Nb3  1  0.333333  0.666667  0.093200  1
  As  As4  1  0.666667  0.333333  0.243354  1
  As  As5  1  0.333333  0.666667  0.752038  1
  C  C6  1  0.000000  0.000000  0.503045  1
  C  C7  1  0.000000  0.000000  0.999036  1
