# generated using pymatgen
data_Er9TmGa2(NiBi)2
_symmetry_space_group_name_H-M   'P 1'
_cell_length_a   8.50360508
_cell_length_b   8.50360517
_cell_length_c   8.68572213
_cell_angle_alpha   125.01568399
_cell_angle_beta   124.95489683
_cell_angle_gamma   80.13710479
_symmetry_Int_Tables_number   1
_chemical_formula_structural   Er9TmGa2(NiBi)2
_chemical_formula_sum   'Er9 Tm1 Ga2 Ni2 Bi2'
_cell_volume   409.83339346
_cell_formula_units_Z   1
loop_
 _symmetry_equiv_pos_site_id
 _symmetry_equiv_pos_as_xyz
  1  'x, y, z'
loop_
 _atom_site_type_symbol
 _atom_site_label
 _atom_site_symmetry_multiplicity
 _atom_site_fract_x
 _atom_site_fract_y
 _atom_site_fract_z
 _atom_site_occupancy
  Er  Er0  1  0.500000  0.500000  0.000000  1
  Er  Er1  1  0.779692  0.279132  0.788641  1
  Er  Er2  1  0.220308  0.720868  0.211359  1
  Er  Er3  1  0.490491  0.991050  0.211359  1
  Er  Er4  1  0.303337  0.462932  0.499561  1
  Er  Er5  1  0.036629  0.196224  0.499561  1
  Er  Er6  1  0.509509  0.008950  0.788641  1
  Er  Er7  1  0.696663  0.537068  0.500439  1
  Er  Er8  1  0.963371  0.803776  0.500439  1
  Tm  Tm9  1  0.000000  0.000000  0.000000  1
  Ga  Ga10  1  0.140641  0.641328  0.781969  1
  Ga  Ga11  1  0.859359  0.358672  0.218031  1
  Ni  Ni12  1  0.630840  0.869858  0.500698  1
  Ni  Ni13  1  0.369160  0.130142  0.499302  1
  Bi  Bi14  1  0.249875  0.249875  0.000000  1
  Bi  Bi15  1  0.750125  0.750125  0.000000  1
