# generated using pymatgen
data_Cs6LaNdI12
_symmetry_space_group_name_H-M   'P 1'
_cell_length_a   10.77913908
_cell_length_b   10.77431808
_cell_length_c   8.92857300
_cell_angle_alpha   90.00000000
_cell_angle_beta   90.00000000
_cell_angle_gamma   90.11123436
_symmetry_Int_Tables_number   1
_chemical_formula_structural   Cs6LaNdI12
_chemical_formula_sum   'Cs6 La1 Nd1 I12'
_cell_volume   1036.94352315
_cell_formula_units_Z   1
loop_
 _symmetry_equiv_pos_site_id
 _symmetry_equiv_pos_as_xyz
  1  'x, y, z'
loop_
 _atom_site_type_symbol
 _atom_site_label
 _atom_site_symmetry_multiplicity
 _atom_site_fract_x
 _atom_site_fract_y
 _atom_site_fract_z
 _atom_site_occupancy
  Cs  Cs0  1  0.000000  0.000000  0.500000  1
  Cs  Cs1  1  0.000000  0.000000  0.000000  1
  Cs  Cs2  1  0.233176  0.587852  0.500000  1
  Cs  Cs3  1  0.766824  0.412148  0.500000  1
  Cs  Cs4  1  0.412202  0.233189  0.000000  1
  Cs  Cs5  1  0.587798  0.766811  0.000000  1
  La  La6  1  0.000000  0.500000  0.000000  1
  Nd  Nd7  1  0.500000  0.000000  0.500000  1
  I  I8  1  0.698172  0.060797  0.747876  1
  I  I9  1  0.301828  0.939203  0.747876  1
  I  I10  1  0.938508  0.700624  0.250754  1
  I  I11  1  0.061492  0.299376  0.250754  1
  I  I12  1  0.301828  0.939203  0.252124  1
  I  I13  1  0.698172  0.060797  0.252124  1
  I  I14  1  0.061492  0.299376  0.749246  1
  I  I15  1  0.938508  0.700624  0.749246  1
  I  I16  1  0.570405  0.718956  0.500000  1
  I  I17  1  0.429595  0.281044  0.500000  1
  I  I18  1  0.284327  0.571208  0.000000  1
  I  I19  1  0.715673  0.428792  0.000000  1
