# generated using pymatgen
data_Li(PrB8)3
_symmetry_space_group_name_H-M   'P 1'
_cell_length_a   7.17754217
_cell_length_b   7.17754317
_cell_length_c   5.86357500
_cell_angle_alpha   90.00000000
_cell_angle_beta   90.00000000
_cell_angle_gamma   109.42170887
_symmetry_Int_Tables_number   1
_chemical_formula_structural   Li(PrB8)3
_chemical_formula_sum   'Li1 Pr3 B24'
_cell_volume   284.88546582
_cell_formula_units_Z   1
loop_
 _symmetry_equiv_pos_site_id
 _symmetry_equiv_pos_as_xyz
  1  'x, y, z'
loop_
 _atom_site_type_symbol
 _atom_site_label
 _atom_site_symmetry_multiplicity
 _atom_site_fract_x
 _atom_site_fract_y
 _atom_site_fract_z
 _atom_site_occupancy
  Li  Li0  1  0.748231  0.251769  0.500000  1
  Pr  Pr1  1  0.998941  0.001059  0.000000  1
  Pr  Pr2  1  0.500583  0.499417  0.000000  1
  Pr  Pr3  1  0.250972  0.749028  0.500000  1
  B  B4  1  0.174981  0.324990  0.649082  1
  B  B5  1  0.925009  0.573981  0.150146  1
  B  B6  1  0.675010  0.825019  0.649082  1
  B  B7  1  0.426019  0.074991  0.150146  1
  B  B8  1  0.174981  0.324990  0.350918  1
  B  B9  1  0.925009  0.573981  0.849854  1
  B  B10  1  0.675010  0.825019  0.350918  1
  B  B11  1  0.426019  0.074991  0.849854  1
  B  B12  1  0.400712  0.398643  0.500000  1
  B  B13  1  0.149303  0.649701  0.000000  1
  B  B14  1  0.898689  0.900338  0.500000  1
  B  B15  1  0.649868  0.149411  0.000000  1
  B  B16  1  0.325546  0.175273  0.649088  1
  B  B17  1  0.074497  0.425392  0.150165  1
  B  B18  1  0.824727  0.674454  0.649088  1
  B  B19  1  0.574608  0.925503  0.150165  1
  B  B20  1  0.099662  0.101311  0.500000  1
  B  B21  1  0.850589  0.350132  0.000000  1
  B  B22  1  0.601357  0.599288  0.500000  1
  B  B23  1  0.350299  0.850697  0.000000  1
  B  B24  1  0.325546  0.175273  0.350912  1
  B  B25  1  0.074497  0.425392  0.849835  1
  B  B26  1  0.824727  0.674454  0.350912  1
  B  B27  1  0.574608  0.925503  0.849835  1
