# generated using pymatgen
data_Hf18Ta6ReMoAs2
_symmetry_space_group_name_H-M   'P 1'
_cell_length_a   8.71233600
_cell_length_b   8.71233574
_cell_length_c   8.77781000
_cell_angle_alpha   90.00000000
_cell_angle_beta   90.00000000
_cell_angle_gamma   120.00000099
_symmetry_Int_Tables_number   1
_chemical_formula_structural   Hf18Ta6ReMoAs2
_chemical_formula_sum   'Hf18 Ta6 Re1 Mo1 As2'
_cell_volume   577.01356426
_cell_formula_units_Z   1
loop_
 _symmetry_equiv_pos_site_id
 _symmetry_equiv_pos_as_xyz
  1  'x, y, z'
loop_
 _atom_site_type_symbol
 _atom_site_label
 _atom_site_symmetry_multiplicity
 _atom_site_fract_x
 _atom_site_fract_y
 _atom_site_fract_z
 _atom_site_occupancy
  Hf  Hf0  1  0.197338  0.802662  0.453106  1
  Hf  Hf1  1  0.197338  0.394676  0.453106  1
  Hf  Hf2  1  0.605324  0.802662  0.453106  1
  Hf  Hf3  1  0.802662  0.197338  0.546894  1
  Hf  Hf4  1  0.802662  0.605324  0.546894  1
  Hf  Hf5  1  0.394676  0.197338  0.546894  1
  Hf  Hf6  1  0.803567  0.196433  0.952831  1
  Hf  Hf7  1  0.803567  0.607134  0.952831  1
  Hf  Hf8  1  0.392866  0.196433  0.952831  1
  Hf  Hf9  1  0.196433  0.803567  0.047169  1
  Hf  Hf10  1  0.196433  0.392866  0.047169  1
  Hf  Hf11  1  0.607134  0.803567  0.047169  1
  Hf  Hf12  1  0.538926  0.461074  0.249843  1
  Hf  Hf13  1  0.538926  0.077851  0.249843  1
  Hf  Hf14  1  0.922149  0.461074  0.249843  1
  Hf  Hf15  1  0.461074  0.538926  0.750157  1
  Hf  Hf16  1  0.461074  0.922149  0.750157  1
  Hf  Hf17  1  0.077851  0.538926  0.750157  1
  Ta  Ta18  1  0.889099  0.110901  0.249279  1
  Ta  Ta19  1  0.889099  0.778197  0.249279  1
  Ta  Ta20  1  0.221803  0.110901  0.249279  1
  Ta  Ta21  1  0.110901  0.889099  0.750721  1
  Ta  Ta22  1  0.110901  0.221803  0.750721  1
  Ta  Ta23  1  0.778197  0.889099  0.750721  1
  Re  Re24  1  0.000000  0.000000  0.000000  1
  Mo  Mo25  1  0.000000  0.000000  0.500000  1
  As  As26  1  0.333333  0.666667  0.249238  1
  As  As27  1  0.666667  0.333333  0.750762  1
