# generated using pymatgen
data_Ta2Mn3Nb2NiP4
_symmetry_space_group_name_H-M   'P 1'
_cell_length_a   3.62730500
_cell_length_b   6.15011556
_cell_length_c   7.03285183
_cell_angle_alpha   90.43308335
_cell_angle_beta   90.00000000
_cell_angle_gamma   90.00000000
_symmetry_Int_Tables_number   1
_chemical_formula_structural   Ta2Mn3Nb2NiP4
_chemical_formula_sum   'Ta2 Mn3 Nb2 Ni1 P4'
_cell_volume   156.88680263
_cell_formula_units_Z   1
loop_
 _symmetry_equiv_pos_site_id
 _symmetry_equiv_pos_as_xyz
  1  'x, y, z'
loop_
 _atom_site_type_symbol
 _atom_site_label
 _atom_site_symmetry_multiplicity
 _atom_site_fract_x
 _atom_site_fract_y
 _atom_site_fract_z
 _atom_site_occupancy
  Ta  Ta0  1  0.250000  0.530208  0.673483  1
  Ta  Ta1  1  0.750000  0.480625  0.326782  1
  Mn  Mn2  1  0.250000  0.144223  0.442794  1
  Mn  Mn3  1  0.250000  0.635407  0.058640  1
  Mn  Mn4  1  0.750000  0.850769  0.562210  1
  Nb  Nb5  1  0.250000  0.022873  0.822510  1
  Nb  Nb6  1  0.750000  0.975870  0.177425  1
  Ni  Ni7  1  0.750000  0.353605  0.933392  1
  P  P8  1  0.250000  0.275768  0.130157  1
  P  P9  1  0.250000  0.779576  0.376495  1
  P  P10  1  0.750000  0.727711  0.880437  1
  P  P11  1  0.750000  0.223366  0.615673  1
