# generated using pymatgen
data_CeGd4GeSe4
_symmetry_space_group_name_H-M   'P 1'
_cell_length_a   7.25584550
_cell_length_b   7.25584456
_cell_length_c   7.25584500
_cell_angle_alpha   99.48386150
_cell_angle_beta   99.48386025
_cell_angle_gamma   132.10260526
_symmetry_Int_Tables_number   1
_chemical_formula_structural   CeGd4GeSe4
_chemical_formula_sum   'Ce1 Gd4 Ge1 Se4'
_cell_volume   259.02341437
_cell_formula_units_Z   1
loop_
 _symmetry_equiv_pos_site_id
 _symmetry_equiv_pos_as_xyz
  1  'x, y, z'
loop_
 _atom_site_type_symbol
 _atom_site_label
 _atom_site_symmetry_multiplicity
 _atom_site_fract_x
 _atom_site_fract_y
 _atom_site_fract_z
 _atom_site_occupancy
  Ce  Ce0  1  0.000000  0.000000  0.000000  1
  Gd  Gd1  1  0.401202  0.793111  0.194312  1
  Gd  Gd2  1  0.598798  0.206889  0.805688  1
  Gd  Gd3  1  0.206889  0.401202  0.608093  1
  Gd  Gd4  1  0.793111  0.598798  0.391907  1
  Ge  Ge5  1  0.500000  0.500000  0.000000  1
  Se  Se6  1  0.098388  0.695480  0.793866  1
  Se  Se7  1  0.695480  0.901612  0.597090  1
  Se  Se8  1  0.304520  0.098388  0.402910  1
  Se  Se9  1  0.901612  0.304520  0.206134  1
