# generated using pymatgen
data_Ho16Ga6FeIr
_symmetry_space_group_name_H-M   'P 1'
_cell_length_a   9.98276000
_cell_length_b   9.98266925
_cell_length_c   6.97138300
_cell_angle_alpha   90.00008861
_cell_angle_beta   89.99961379
_cell_angle_gamma   120.00040369
_symmetry_Int_Tables_number   1
_chemical_formula_structural   Ho16Ga6FeIr
_chemical_formula_sum   'Ho16 Ga6 Fe1 Ir1'
_cell_volume   601.65166156
_cell_formula_units_Z   1
loop_
 _symmetry_equiv_pos_site_id
 _symmetry_equiv_pos_as_xyz
  1  'x, y, z'
loop_
 _atom_site_type_symbol
 _atom_site_label
 _atom_site_symmetry_multiplicity
 _atom_site_fract_x
 _atom_site_fract_y
 _atom_site_fract_z
 _atom_site_occupancy
  Ho  Ho0  1  0.172862  0.827143  0.509736  1
  Ho  Ho1  1  0.654301  0.827146  0.509751  1
  Ho  Ho2  1  0.172852  0.345703  0.509744  1
  Ho  Ho3  1  0.828898  0.171098  0.012138  1
  Ho  Ho4  1  0.342180  0.171098  0.012117  1
  Ho  Ho5  1  0.828901  0.657819  0.012114  1
  Ho  Ho6  1  0.333344  0.666659  0.830775  1
  Ho  Ho7  1  0.666674  0.333326  0.338556  1
  Ho  Ho8  1  0.462281  0.537715  0.207658  1
  Ho  Ho9  1  0.075431  0.537730  0.207649  1
  Ho  Ho10  1  0.462274  0.924571  0.207652  1
  Ho  Ho11  1  0.534017  0.465986  0.705021  1
  Ho  Ho12  1  0.931965  0.465980  0.705046  1
  Ho  Ho13  1  0.534016  0.068032  0.705043  1
  Ho  Ho14  1  0.999993  0.999998  0.234209  1
  Ho  Ho15  1  0.000014  0.999996  0.732166  1
  Ga  Ga16  1  0.163784  0.836216  0.957224  1
  Ga  Ga17  1  0.672450  0.836241  0.957253  1
  Ga  Ga18  1  0.163758  0.327551  0.957256  1
  Ga  Ga19  1  0.836499  0.163498  0.457515  1
  Ga  Ga20  1  0.326996  0.163486  0.457532  1
  Ga  Ga21  1  0.836507  0.672995  0.457537  1
  Fe  Fe22  1  0.333343  0.666669  0.446618  1
  Ir  Ir23  1  0.666659  0.333342  0.943735  1
