# generated using pymatgen
data_RbSmBeF6
_symmetry_space_group_name_H-M   'P 1'
_cell_length_a   6.01563000
_cell_length_b   6.60177445
_cell_length_c   7.37129110
_cell_angle_alpha   66.57162933
_cell_angle_beta   90.00000000
_cell_angle_gamma   90.00000000
_symmetry_Int_Tables_number   1
_chemical_formula_structural   RbSmBeF6
_chemical_formula_sum   'Rb2 Sm2 Be2 F12'
_cell_volume   268.60792486
_cell_formula_units_Z   2
loop_
 _symmetry_equiv_pos_site_id
 _symmetry_equiv_pos_as_xyz
  1  'x, y, z'
loop_
 _atom_site_type_symbol
 _atom_site_label
 _atom_site_symmetry_multiplicity
 _atom_site_fract_x
 _atom_site_fract_y
 _atom_site_fract_z
 _atom_site_occupancy
  Rb  Rb0  1  0.250000  0.078881  0.787752  1
  Rb  Rb1  1  0.750000  0.921119  0.212248  1
  Sm  Sm2  1  0.250000  0.389892  0.182367  1
  Sm  Sm3  1  0.750000  0.610108  0.817633  1
  Be  Be4  1  0.250000  0.767957  0.464344  1
  Be  Be5  1  0.750000  0.232043  0.535656  1
  F  F6  1  0.460840  0.760173  0.592143  1
  F  F7  1  0.539160  0.239827  0.407857  1
  F  F8  1  0.960840  0.239827  0.407857  1
  F  F9  1  0.039160  0.760173  0.592143  1
  F  F10  1  0.250000  0.571535  0.399390  1
  F  F11  1  0.750000  0.428465  0.600610  1
  F  F12  1  0.499196  0.679086  0.030113  1
  F  F13  1  0.500804  0.320914  0.969887  1
  F  F14  1  0.999196  0.320914  0.969887  1
  F  F15  1  0.000804  0.679086  0.030113  1
  F  F16  1  0.250000  0.991389  0.274808  1
  F  F17  1  0.750000  0.008611  0.725192  1
