# generated using pymatgen
data_Pr5NdAl24Os5Rh3
_symmetry_space_group_name_H-M   'P 1'
_cell_length_a   8.89482832
_cell_length_b   8.91204232
_cell_length_c   9.71549426
_cell_angle_alpha   90.02546687
_cell_angle_beta   89.91421552
_cell_angle_gamma   119.45440243
_symmetry_Int_Tables_number   1
_chemical_formula_structural   Pr5NdAl24Os5Rh3
_chemical_formula_sum   'Pr5 Nd1 Al24 Os5 Rh3'
_cell_volume   670.61202605
_cell_formula_units_Z   1
loop_
 _symmetry_equiv_pos_site_id
 _symmetry_equiv_pos_as_xyz
  1  'x, y, z'
loop_
 _atom_site_type_symbol
 _atom_site_label
 _atom_site_symmetry_multiplicity
 _atom_site_fract_x
 _atom_site_fract_y
 _atom_site_fract_z
 _atom_site_occupancy
  Pr  Pr0  1  0.186460  0.380745  0.250515  1
  Pr  Pr1  1  0.813566  0.619214  0.749549  1
  Pr  Pr2  1  0.617136  0.814278  0.251440  1
  Pr  Pr3  1  0.382921  0.185806  0.748561  1
  Pr  Pr4  1  0.193673  0.809985  0.250463  1
  Nd  Nd5  1  0.806021  0.190068  0.749400  1
  Al  Al6  1  0.334287  0.668128  0.015813  1
  Al  Al7  1  0.666036  0.331778  0.983162  1
  Al  Al8  1  0.668077  0.332708  0.516438  1
  Al  Al9  1  0.332084  0.667069  0.484507  1
  Al  Al10  1  0.160964  0.325962  0.574656  1
  Al  Al11  1  0.838500  0.673657  0.425817  1
  Al  Al12  1  0.673408  0.838039  0.574723  1
  Al  Al13  1  0.836288  0.674072  0.075382  1
  Al  Al14  1  0.326913  0.162391  0.425700  1
  Al  Al15  1  0.163190  0.325644  0.924221  1
  Al  Al16  1  0.163650  0.834892  0.573477  1
  Al  Al17  1  0.326691  0.162005  0.074002  1
  Al  Al18  1  0.836330  0.165092  0.427232  1
  Al  Al19  1  0.673691  0.838517  0.925548  1
  Al  Al20  1  0.833660  0.162006  0.073933  1
  Al  Al21  1  0.166399  0.838089  0.925280  1
  Al  Al22  1  0.562320  0.127929  0.249544  1
  Al  Al23  1  0.438348  0.872593  0.750431  1
  Al  Al24  1  0.873581  0.438417  0.250730  1
  Al  Al25  1  0.125812  0.560823  0.749385  1
  Al  Al26  1  0.562110  0.438468  0.249600  1
  Al  Al27  1  0.437932  0.561531  0.750425  1
  Al  Al28  1  0.998960  0.001580  0.250124  1
  Al  Al29  1  0.000597  0.998855  0.749882  1
  Os  Os30  1  0.500304  0.000159  0.999779  1
  Os  Os31  1  0.500242  0.000091  0.500192  1
  Os  Os32  1  0.999866  0.499729  0.500227  1
  Os  Os33  1  0.000010  0.000043  0.999929  1
  Os  Os34  1  0.999986  0.999992  0.500076  1
  Rh  Rh35  1  0.999915  0.499713  0.999832  1
  Rh  Rh36  1  0.500045  0.499967  0.999917  1
  Rh  Rh37  1  0.500027  0.499965  0.500107  1
