# generated using pymatgen
data_CeEr9Sc(AlRu2)3
_symmetry_space_group_name_H-M   'P 1'
_cell_length_a   8.38643295
_cell_length_b   8.38055664
_cell_length_c   8.28700741
_cell_angle_alpha   109.83478492
_cell_angle_beta   109.43909037
_cell_angle_gamma   109.32747840
_symmetry_Int_Tables_number   1
_chemical_formula_structural   CeEr9Sc(AlRu2)3
_chemical_formula_sum   'Ce1 Er9 Sc1 Al3 Ru6'
_cell_volume   447.31024968
_cell_formula_units_Z   1
loop_
 _symmetry_equiv_pos_site_id
 _symmetry_equiv_pos_as_xyz
  1  'x, y, z'
loop_
 _atom_site_type_symbol
 _atom_site_label
 _atom_site_symmetry_multiplicity
 _atom_site_fract_x
 _atom_site_fract_y
 _atom_site_fract_z
 _atom_site_occupancy
  Ce  Ce0  1  0.190713  0.931517  0.250529  1
  Er  Er1  1  0.793005  0.798921  0.796116  1
  Er  Er2  1  0.318293  0.570649  0.757973  1
  Er  Er3  1  0.759579  0.321556  0.573716  1
  Er  Er4  1  0.574936  0.757388  0.319101  1
  Er  Er5  1  0.715852  0.503361  0.996344  1
  Er  Er6  1  0.001906  0.718887  0.507270  1
  Er  Er7  1  0.507778  0.997814  0.717710  1
  Er  Er8  1  0.250468  0.177687  0.915091  1
  Er  Er9  1  0.917894  0.252332  0.180255  1
  Sc  Sc10  1  0.397819  0.403381  0.392758  1
  Al  Al11  1  0.094158  0.491876  0.007396  1
  Al  Al12  1  0.994638  0.089269  0.492759  1
  Al  Al13  1  0.501574  0.005607  0.091114  1
  Ru  Ru14  1  0.876751  0.124824  0.748252  1
  Ru  Ru15  1  0.739698  0.873167  0.118751  1
  Ru  Ru16  1  0.128964  0.757920  0.905274  1
  Ru  Ru17  1  0.246946  0.627790  0.384784  1
  Ru  Ru18  1  0.359340  0.219100  0.600962  1
  Ru  Ru19  1  0.629685  0.376954  0.243846  1
