# generated using pymatgen
data_CaRh4Pb3O14
_symmetry_space_group_name_H-M   'P 1'
_cell_length_a   7.26600631
_cell_length_b   7.26600620
_cell_length_c   7.27118503
_cell_angle_alpha   60.02356250
_cell_angle_beta   60.02356058
_cell_angle_gamma   59.99999896
_symmetry_Int_Tables_number   1
_chemical_formula_structural   CaRh4Pb3O14
_chemical_formula_sum   'Ca1 Rh4 Pb3 O14'
_cell_volume   271.54155741
_cell_formula_units_Z   1
loop_
 _symmetry_equiv_pos_site_id
 _symmetry_equiv_pos_as_xyz
  1  'x, y, z'
loop_
 _atom_site_type_symbol
 _atom_site_label
 _atom_site_symmetry_multiplicity
 _atom_site_fract_x
 _atom_site_fract_y
 _atom_site_fract_z
 _atom_site_occupancy
  Ca  Ca0  1  0.125000  0.125000  0.625000  1
  Rh  Rh1  1  0.125000  0.625000  0.625000  1
  Rh  Rh2  1  0.625000  0.125000  0.625000  1
  Rh  Rh3  1  0.625000  0.625000  0.125000  1
  Rh  Rh4  1  0.625000  0.625000  0.625000  1
  Pb  Pb5  1  0.625000  0.125000  0.125000  1
  Pb  Pb6  1  0.125000  0.625000  0.125000  1
  Pb  Pb7  1  0.125000  0.125000  0.125000  1
  O  O8  1  0.708106  0.708106  0.290669  1
  O  O9  1  0.295544  0.295544  0.712376  1
  O  O10  1  0.696536  0.295544  0.712376  1
  O  O11  1  0.293121  0.708106  0.290669  1
  O  O12  1  0.295544  0.696536  0.712376  1
  O  O13  1  0.708106  0.293121  0.290669  1
  O  O14  1  0.541894  0.541894  0.959331  1
  O  O15  1  0.954456  0.954456  0.537624  1
  O  O16  1  0.553464  0.954456  0.537624  1
  O  O17  1  0.956879  0.541894  0.959331  1
  O  O18  1  0.954456  0.553464  0.537624  1
  O  O19  1  0.541894  0.956879  0.959331  1
  O  O20  1  0.250255  0.250255  0.249236  1
  O  O21  1  0.999745  0.999745  0.000764  1
