# generated using pymatgen
data_Pr3NdGa24PdRh
_symmetry_space_group_name_H-M   'P 1'
_cell_length_a   6.17726000
_cell_length_b   6.17726000
_cell_length_c   15.56206100
_cell_angle_alpha   90.00000000
_cell_angle_beta   90.00000000
_cell_angle_gamma   90.00383996
_symmetry_Int_Tables_number   1
_chemical_formula_structural   Pr3NdGa24PdRh
_chemical_formula_sum   'Pr3 Nd1 Ga24 Pd1 Rh1'
_cell_volume   593.82554372
_cell_formula_units_Z   1
loop_
 _symmetry_equiv_pos_site_id
 _symmetry_equiv_pos_as_xyz
  1  'x, y, z'
loop_
 _atom_site_type_symbol
 _atom_site_label
 _atom_site_symmetry_multiplicity
 _atom_site_fract_x
 _atom_site_fract_y
 _atom_site_fract_z
 _atom_site_occupancy
  Pr  Pr0  1  0.250000  0.750000  0.243028  1
  Pr  Pr1  1  0.250000  0.750000  0.756982  1
  Pr  Pr2  1  0.750000  0.250000  0.755089  1
  Nd  Nd3  1  0.750000  0.250000  0.244816  1
  Ga  Ga4  1  0.250000  0.250000  0.187588  1
  Ga  Ga5  1  0.750000  0.750000  0.187588  1
  Ga  Ga6  1  0.750000  0.750000  0.812466  1
  Ga  Ga7  1  0.250000  0.250000  0.812466  1
  Ga  Ga8  1  0.250000  0.250000  0.347093  1
  Ga  Ga9  1  0.750000  0.750000  0.347093  1
  Ga  Ga10  1  0.750000  0.750000  0.652863  1
  Ga  Ga11  1  0.250000  0.250000  0.652863  1
  Ga  Ga12  1  0.502675  0.002675  0.912209  1
  Ga  Ga13  1  0.997225  0.002775  0.912450  1
  Ga  Ga14  1  0.502775  0.497225  0.912450  1
  Ga  Ga15  1  0.997325  0.497325  0.912209  1
  Ga  Ga16  1  0.502835  0.002835  0.087586  1
  Ga  Ga17  1  0.997265  0.002735  0.087833  1
  Ga  Ga18  1  0.502735  0.497265  0.087833  1
  Ga  Ga19  1  0.997165  0.497165  0.087586  1
  Ga  Ga20  1  0.583029  0.083029  0.432173  1
  Ga  Ga21  1  0.083825  0.916175  0.431555  1
  Ga  Ga22  1  0.416175  0.583825  0.431555  1
  Ga  Ga23  1  0.916971  0.416971  0.432173  1
  Ga  Ga24  1  0.416161  0.916161  0.568453  1
  Ga  Ga25  1  0.917028  0.082972  0.567766  1
  Ga  Ga26  1  0.582972  0.417028  0.567766  1
  Ga  Ga27  1  0.083839  0.583839  0.568453  1
  Pd  Pd28  1  0.250000  0.750000  0.999994  1
  Rh  Rh29  1  0.750000  0.250000  0.000019  1
