# generated using pymatgen
data_Ba2Li17Si8Ni
_symmetry_space_group_name_H-M   'P 1'
_cell_length_a   8.86834256
_cell_length_b   8.86834101
_cell_length_c   8.68496760
_cell_angle_alpha   119.41760576
_cell_angle_beta   119.41762585
_cell_angle_gamma   92.17649986
_symmetry_Int_Tables_number   1
_chemical_formula_structural   Ba2Li17Si8Ni
_chemical_formula_sum   'Ba2 Li17 Si8 Ni1'
_cell_volume   481.89434288
_cell_formula_units_Z   1
loop_
 _symmetry_equiv_pos_site_id
 _symmetry_equiv_pos_as_xyz
  1  'x, y, z'
loop_
 _atom_site_type_symbol
 _atom_site_label
 _atom_site_symmetry_multiplicity
 _atom_site_fract_x
 _atom_site_fract_y
 _atom_site_fract_z
 _atom_site_occupancy
  Ba  Ba0  1  0.250000  0.250000  0.000000  1
  Ba  Ba1  1  0.750000  0.750000  0.000000  1
  Li  Li2  1  0.934369  0.200940  0.135310  1
  Li  Li3  1  0.211413  0.070458  0.281872  1
  Li  Li4  1  0.788587  0.929542  0.718128  1
  Li  Li5  1  0.429542  0.288587  0.718128  1
  Li  Li6  1  0.065631  0.799060  0.864690  1
  Li  Li7  1  0.807151  0.055864  0.500002  1
  Li  Li8  1  0.555864  0.307151  0.500002  1
  Li  Li9  1  0.192849  0.944136  0.499998  1
  Li  Li10  1  0.444136  0.692849  0.499998  1
  Li  Li11  1  0.947279  0.447279  0.763663  1
  Li  Li12  1  0.683614  0.183614  0.236335  1
  Li  Li13  1  0.052721  0.552721  0.236337  1
  Li  Li14  1  0.700941  0.434369  0.135311  1
  Li  Li15  1  0.570458  0.711413  0.281872  1
  Li  Li16  1  0.000000  0.500000  0.500000  1
  Li  Li17  1  0.316386  0.816386  0.763665  1
  Li  Li18  1  0.299059  0.565631  0.864689  1
  Si  Si19  1  0.762165  0.262165  0.825828  1
  Si  Si20  1  0.563663  0.063663  0.825826  1
  Si  Si21  1  0.069350  0.226260  0.499999  1
  Si  Si22  1  0.273740  0.430650  0.500001  1
  Si  Si23  1  0.930650  0.773740  0.500001  1
  Si  Si24  1  0.436337  0.936337  0.174174  1
  Si  Si25  1  0.237835  0.737835  0.174172  1
  Si  Si26  1  0.726260  0.569350  0.499999  1
  Ni  Ni27  1  0.500000  0.000000  0.500000  1
