# generated using pymatgen
data_Tb7Ho5TcRu3
_symmetry_space_group_name_H-M   'P 1'
_cell_length_a   6.30454382
_cell_length_b   7.34771545
_cell_length_c   9.19341462
_cell_angle_alpha   90.03950187
_cell_angle_beta   90.09403151
_cell_angle_gamma   90.02864923
_symmetry_Int_Tables_number   1
_chemical_formula_structural   Tb7Ho5TcRu3
_chemical_formula_sum   'Tb7 Ho5 Tc1 Ru3'
_cell_volume   425.87495560
_cell_formula_units_Z   1
loop_
 _symmetry_equiv_pos_site_id
 _symmetry_equiv_pos_as_xyz
  1  'x, y, z'
loop_
 _atom_site_type_symbol
 _atom_site_label
 _atom_site_symmetry_multiplicity
 _atom_site_fract_x
 _atom_site_fract_y
 _atom_site_fract_z
 _atom_site_occupancy
  Tb  Tb0  1  0.333559  0.676650  0.064787  1
  Tb  Tb1  1  0.166977  0.176501  0.434920  1
  Tb  Tb2  1  0.667684  0.323625  0.564947  1
  Tb  Tb3  1  0.868275  0.540172  0.249638  1
  Tb  Tb4  1  0.627553  0.041520  0.249459  1
  Tb  Tb5  1  0.133748  0.457826  0.750428  1
  Tb  Tb6  1  0.367141  0.957685  0.750515  1
  Ho  Ho7  1  0.835148  0.824742  0.936362  1
  Ho  Ho8  1  0.668010  0.323534  0.935335  1
  Ho  Ho9  1  0.835056  0.824260  0.563967  1
  Ho  Ho10  1  0.333425  0.676416  0.435093  1
  Ho  Ho11  1  0.166338  0.175956  0.064175  1
  Tc  Tc12  1  0.037502  0.886299  0.250551  1
  Ru  Ru13  1  0.459873  0.385637  0.248622  1
  Ru  Ru14  1  0.958538  0.114927  0.752050  1
  Ru  Ru15  1  0.541173  0.614251  0.749151  1
