# generated using pymatgen
data_Li4Tb3YSi6
_symmetry_space_group_name_H-M   'P 1'
_cell_length_a   9.30736237
_cell_length_b   9.30736033
_cell_length_c   6.70614200
_cell_angle_alpha   90.00000000
_cell_angle_beta   90.00000000
_cell_angle_gamma   153.51163815
_symmetry_Int_Tables_number   1
_chemical_formula_structural   Li4Tb3YSi6
_chemical_formula_sum   'Li4 Tb3 Y1 Si6'
_cell_volume   259.10533504
_cell_formula_units_Z   1
loop_
 _symmetry_equiv_pos_site_id
 _symmetry_equiv_pos_as_xyz
  1  'x, y, z'
loop_
 _atom_site_type_symbol
 _atom_site_label
 _atom_site_symmetry_multiplicity
 _atom_site_fract_x
 _atom_site_fract_y
 _atom_site_fract_z
 _atom_site_occupancy
  Li  Li0  1  0.809884  0.190116  0.558918  1
  Li  Li1  1  0.190077  0.809923  0.441179  1
  Li  Li2  1  0.190077  0.809923  0.058821  1
  Li  Li3  1  0.809884  0.190116  0.941082  1
  Tb  Tb4  1  0.552260  0.447740  0.250000  1
  Tb  Tb5  1  0.447794  0.552206  0.750000  1
  Tb  Tb6  1  0.344564  0.655436  0.250000  1
  Y  Y7  1  0.655381  0.344619  0.750000  1
  Si  Si8  1  0.940764  0.059236  0.072749  1
  Si  Si9  1  0.059266  0.940734  0.927176  1
  Si  Si10  1  0.059266  0.940734  0.572824  1
  Si  Si11  1  0.940764  0.059236  0.427251  1
  Si  Si12  1  0.719838  0.280162  0.250000  1
  Si  Si13  1  0.280181  0.719819  0.750000  1
