# generated using pymatgen
data_Cs6AlTl5Br24
_symmetry_space_group_name_H-M   'P 1'
_cell_length_a   14.25699864
_cell_length_b   14.25646219
_cell_length_c   14.30323300
_cell_angle_alpha   115.11090013
_cell_angle_beta   115.04650627
_cell_angle_gamma   114.90227440
_symmetry_Int_Tables_number   1
_chemical_formula_structural   Cs6AlTl5Br24
_chemical_formula_sum   'Cs6 Al1 Tl5 Br24'
_cell_volume   1624.07813237
_cell_formula_units_Z   1
loop_
 _symmetry_equiv_pos_site_id
 _symmetry_equiv_pos_as_xyz
  1  'x, y, z'
loop_
 _atom_site_type_symbol
 _atom_site_label
 _atom_site_symmetry_multiplicity
 _atom_site_fract_x
 _atom_site_fract_y
 _atom_site_fract_z
 _atom_site_occupancy
  Cs  Cs0  1  0.878831  0.688312  0.095254  1
  Cs  Cs1  1  0.092649  0.878811  0.687777  1
  Cs  Cs2  1  0.689489  0.094393  0.877134  1
  Cs  Cs3  1  0.187288  0.378072  0.595893  1
  Cs  Cs4  1  0.594428  0.188045  0.377541  1
  Cs  Cs5  1  0.377608  0.594117  0.187296  1
  Al  Al6  1  0.864193  0.074948  0.678631  1
  Tl  Tl7  1  0.678360  0.864296  0.074567  1
  Tl  Tl8  1  0.074597  0.678467  0.864196  1
  Tl  Tl9  1  0.575204  0.364692  0.178721  1
  Tl  Tl10  1  0.178613  0.575098  0.364611  1
  Tl  Tl11  1  0.364574  0.178630  0.574912  1
  Br  Br12  1  0.955165  0.110533  0.882070  1
  Br  Br13  1  0.908553  0.966893  0.115730  1
  Br  Br14  1  0.117050  0.909678  0.968272  1
  Br  Br15  1  0.617434  0.469119  0.409438  1
  Br  Br16  1  0.408377  0.615624  0.466325  1
  Br  Br17  1  0.466879  0.408937  0.616341  1
  Br  Br18  1  0.049453  0.298497  0.765381  1
  Br  Br19  1  0.776487  0.071709  0.326946  1
  Br  Br20  1  0.326824  0.775032  0.070729  1
  Br  Br21  1  0.828388  0.573210  0.277972  1
  Br  Br22  1  0.277742  0.828665  0.572787  1
  Br  Br23  1  0.571754  0.276870  0.827596  1
  Br  Br24  1  0.644824  0.016352  0.565061  1
  Br  Br25  1  0.548827  0.617074  0.008871  1
  Br  Br26  1  0.008932  0.549352  0.617653  1
  Br  Br27  1  0.508524  0.117030  0.049336  1
  Br  Br28  1  0.049646  0.509216  0.118156  1
  Br  Br29  1  0.116957  0.049042  0.508236  1
  Br  Br30  1  0.804074  0.873108  0.497514  1
  Br  Br31  1  0.474466  0.795284  0.846444  1
  Br  Br32  1  0.846238  0.474067  0.794795  1
  Br  Br33  1  0.347029  0.296087  0.975519  1
  Br  Br34  1  0.974287  0.346538  0.295203  1
  Br  Br35  1  0.297058  0.975001  0.347889  1
