# generated using pymatgen
data_HfSc2Mn4NbP4
_symmetry_space_group_name_H-M   'P 1'
_cell_length_a   3.58321200
_cell_length_b   6.37357802
_cell_length_c   7.44531333
_cell_angle_alpha   90.23771604
_cell_angle_beta   90.00000000
_cell_angle_gamma   90.00000000
_symmetry_Int_Tables_number   1
_chemical_formula_structural   HfSc2Mn4NbP4
_chemical_formula_sum   'Hf1 Sc2 Mn4 Nb1 P4'
_cell_volume   170.03371822
_cell_formula_units_Z   1
loop_
 _symmetry_equiv_pos_site_id
 _symmetry_equiv_pos_as_xyz
  1  'x, y, z'
loop_
 _atom_site_type_symbol
 _atom_site_label
 _atom_site_symmetry_multiplicity
 _atom_site_fract_x
 _atom_site_fract_y
 _atom_site_fract_z
 _atom_site_occupancy
  Hf  Hf0  1  0.250000  0.031692  0.324168  1
  Sc  Sc1  1  0.750000  0.468747  0.828214  1
  Sc  Sc2  1  0.750000  0.966889  0.673186  1
  Mn  Mn3  1  0.250000  0.635129  0.556909  1
  Mn  Mn4  1  0.750000  0.363570  0.438259  1
  Mn  Mn5  1  0.750000  0.863334  0.061232  1
  Mn  Mn6  1  0.250000  0.137202  0.943519  1
  Nb  Nb7  1  0.250000  0.532183  0.173513  1
  P  P8  1  0.250000  0.767560  0.873502  1
  P  P9  1  0.750000  0.236407  0.128206  1
  P  P10  1  0.750000  0.729380  0.370896  1
  P  P11  1  0.250000  0.267909  0.628396  1
