# generated using pymatgen
data_Tb16Hf4Ir7Rh5
_symmetry_space_group_name_H-M   'P 1'
_cell_length_a   10.88349720
_cell_length_b   10.88349720
_cell_length_c   6.26641115
_cell_angle_alpha   90.01753662
_cell_angle_beta   90.01753662
_cell_angle_gamma   90.01342304
_symmetry_Int_Tables_number   1
_chemical_formula_structural   Tb16Hf4Ir7Rh5
_chemical_formula_sum   'Tb16 Hf4 Ir7 Rh5'
_cell_volume   742.25951474
_cell_formula_units_Z   1
loop_
 _symmetry_equiv_pos_site_id
 _symmetry_equiv_pos_as_xyz
  1  'x, y, z'
loop_
 _atom_site_type_symbol
 _atom_site_label
 _atom_site_symmetry_multiplicity
 _atom_site_fract_x
 _atom_site_fract_y
 _atom_site_fract_z
 _atom_site_occupancy
  Tb  Tb0  1  0.287767  0.086305  0.376343  1
  Tb  Tb1  1  0.287904  0.913551  0.875910  1
  Tb  Tb2  1  0.711704  0.086221  0.875539  1
  Tb  Tb3  1  0.711843  0.912600  0.376432  1
  Tb  Tb4  1  0.586266  0.787853  0.876276  1
  Tb  Tb5  1  0.585143  0.212530  0.376624  1
  Tb  Tb6  1  0.413583  0.787828  0.376315  1
  Tb  Tb7  1  0.413656  0.212145  0.876300  1
  Tb  Tb8  1  0.212147  0.413734  0.623724  1
  Tb  Tb9  1  0.212172  0.586417  0.123685  1
  Tb  Tb10  1  0.787470  0.414857  0.123376  1
  Tb  Tb11  1  0.787855  0.586344  0.623700  1
  Tb  Tb12  1  0.913695  0.712233  0.123657  1
  Tb  Tb13  1  0.913779  0.288296  0.624461  1
  Tb  Tb14  1  0.086449  0.712096  0.624090  1
  Tb  Tb15  1  0.087400  0.288157  0.123568  1
  Hf  Hf16  1  0.000444  0.999566  0.500390  1
  Hf  Hf17  1  0.000434  0.999556  0.999610  1
  Hf  Hf18  1  0.500025  0.500038  0.999885  1
  Hf  Hf19  1  0.499962  0.499975  0.500115  1
  Ir  Ir20  1  0.857294  0.858069  0.749844  1
  Ir  Ir21  1  0.141931  0.142706  0.750156  1
  Ir  Ir22  1  0.142536  0.857464  0.250000  1
  Ir  Ir23  1  0.643091  0.356909  0.750000  1
  Ir  Ir24  1  0.642895  0.642724  0.249981  1
  Ir  Ir25  1  0.357276  0.357105  0.250019  1
  Ir  Ir26  1  0.357301  0.642699  0.750000  1
  Rh  Rh27  1  0.857402  0.142598  0.250000  1
  Rh  Rh28  1  0.500579  0.000163  0.121470  1
  Rh  Rh29  1  0.500315  0.000154  0.621070  1
  Rh  Rh30  1  0.999846  0.499685  0.878930  1
  Rh  Rh31  1  0.999837  0.499421  0.378530  1
