# generated using pymatgen
data_Yb2HoEr(B4Ru)4
_symmetry_space_group_name_H-M   'P 1'
_cell_length_a   3.53778500
_cell_length_b   5.94484399
_cell_length_c   11.49672726
_cell_angle_alpha   89.97898518
_cell_angle_beta   90.00000000
_cell_angle_gamma   90.00000000
_symmetry_Int_Tables_number   1
_chemical_formula_structural   Yb2HoEr(B4Ru)4
_chemical_formula_sum   'Yb2 Ho1 Er1 B16 Ru4'
_cell_volume   241.79432175
_cell_formula_units_Z   1
loop_
 _symmetry_equiv_pos_site_id
 _symmetry_equiv_pos_as_xyz
  1  'x, y, z'
loop_
 _atom_site_type_symbol
 _atom_site_label
 _atom_site_symmetry_multiplicity
 _atom_site_fract_x
 _atom_site_fract_y
 _atom_site_fract_z
 _atom_site_occupancy
  Yb  Yb0  1  0.000000  0.370609  0.649903  1
  Yb  Yb1  1  0.000000  0.129325  0.149765  1
  Ho  Ho2  1  0.000000  0.628884  0.349604  1
  Er  Er3  1  0.000000  0.871221  0.849572  1
  B  B4  1  0.500000  0.787974  0.185310  1
  B  B5  1  0.500000  0.211300  0.814888  1
  B  B6  1  0.500000  0.288317  0.314867  1
  B  B7  1  0.500000  0.711965  0.685660  1
  B  B8  1  0.500000  0.864446  0.030722  1
  B  B9  1  0.500000  0.135505  0.969428  1
  B  B10  1  0.500000  0.364352  0.469668  1
  B  B11  1  0.500000  0.635721  0.531119  1
  B  B12  1  0.500000  0.888591  0.453469  1
  B  B13  1  0.500000  0.113839  0.547581  1
  B  B14  1  0.500000  0.386107  0.047272  1
  B  B15  1  0.500000  0.611836  0.953105  1
  B  B16  1  0.500000  0.975491  0.307999  1
  B  B17  1  0.500000  0.023245  0.692165  1
  B  B18  1  0.500000  0.476554  0.191774  1
  B  B19  1  0.500000  0.524681  0.807908  1
  Ru  Ru20  1  0.000000  0.638338  0.089811  1
  Ru  Ru21  1  0.000000  0.361489  0.908951  1
  Ru  Ru22  1  0.000000  0.138296  0.409230  1
  Ru  Ru23  1  0.000000  0.861914  0.590230  1
