# generated using pymatgen
data_Th8Zn(Si4Rh)3
_symmetry_space_group_name_H-M   'P 1'
_cell_length_a   8.23350300
_cell_length_b   8.23350346
_cell_length_c   8.44560000
_cell_angle_alpha   90.00000000
_cell_angle_beta   90.00000000
_cell_angle_gamma   120.00000218
_symmetry_Int_Tables_number   1
_chemical_formula_structural   Th8Zn(Si4Rh)3
_chemical_formula_sum   'Th8 Zn1 Si12 Rh3'
_cell_volume   495.82731814
_cell_formula_units_Z   1
loop_
 _symmetry_equiv_pos_site_id
 _symmetry_equiv_pos_as_xyz
  1  'x, y, z'
loop_
 _atom_site_type_symbol
 _atom_site_label
 _atom_site_symmetry_multiplicity
 _atom_site_fract_x
 _atom_site_fract_y
 _atom_site_fract_z
 _atom_site_occupancy
  Th  Th0  1  0.000000  0.000000  0.750276  1
  Th  Th1  1  0.000000  0.000000  0.249854  1
  Th  Th2  1  0.497617  0.502383  0.749322  1
  Th  Th3  1  0.497617  0.995236  0.749322  1
  Th  Th4  1  0.004764  0.502383  0.749322  1
  Th  Th5  1  0.498982  0.501018  0.250568  1
  Th  Th6  1  0.002038  0.501018  0.250568  1
  Th  Th7  1  0.498982  0.997962  0.250568  1
  Zn  Zn8  1  0.666667  0.333333  0.996611  1
  Si  Si9  1  0.834239  0.165761  0.999573  1
  Si  Si10  1  0.834239  0.668479  0.999573  1
  Si  Si11  1  0.331521  0.165761  0.999573  1
  Si  Si12  1  0.832867  0.167133  0.500740  1
  Si  Si13  1  0.832867  0.665734  0.500740  1
  Si  Si14  1  0.334266  0.167133  0.500740  1
  Si  Si15  1  0.165793  0.834207  0.499292  1
  Si  Si16  1  0.668414  0.834207  0.499292  1
  Si  Si17  1  0.165793  0.331586  0.499292  1
  Si  Si18  1  0.167241  0.832759  0.000561  1
  Si  Si19  1  0.665520  0.832759  0.000561  1
  Si  Si20  1  0.167241  0.334480  0.000561  1
  Rh  Rh21  1  0.666667  0.333333  0.502958  1
  Rh  Rh22  1  0.333333  0.666667  0.497916  1
  Rh  Rh23  1  0.333333  0.666667  0.002214  1
