# generated using pymatgen
data_Sc2Tc6P7Ir6
_symmetry_space_group_name_H-M   'P 1'
_cell_length_a   9.44768500
_cell_length_b   9.44768593
_cell_length_c   3.94937800
_cell_angle_alpha   90.00000000
_cell_angle_beta   90.00000000
_cell_angle_gamma   120.00000025
_symmetry_Int_Tables_number   1
_chemical_formula_structural   Sc2Tc6P7Ir6
_chemical_formula_sum   'Sc2 Tc6 P7 Ir6'
_cell_volume   305.28831755
_cell_formula_units_Z   1
loop_
 _symmetry_equiv_pos_site_id
 _symmetry_equiv_pos_as_xyz
  1  'x, y, z'
loop_
 _atom_site_type_symbol
 _atom_site_label
 _atom_site_symmetry_multiplicity
 _atom_site_fract_x
 _atom_site_fract_y
 _atom_site_fract_z
 _atom_site_occupancy
  Sc  Sc0  1  0.000000  0.000000  0.000000  1
  Sc  Sc1  1  0.666667  0.333333  0.500000  1
  Tc  Tc2  1  0.608751  0.779434  0.000000  1
  Tc  Tc3  1  0.170683  0.391249  0.000000  1
  Tc  Tc4  1  0.220566  0.829317  0.000000  1
  Tc  Tc5  1  0.426282  0.541036  0.500000  1
  Tc  Tc6  1  0.114754  0.573718  0.500000  1
  Tc  Tc7  1  0.458964  0.885246  0.500000  1
  P  P8  1  0.632509  0.548977  0.000000  1
  P  P9  1  0.916468  0.367491  0.000000  1
  P  P10  1  0.451023  0.083532  0.000000  1
  P  P11  1  0.735111  0.945338  0.500000  1
  P  P12  1  0.210227  0.264889  0.500000  1
  P  P13  1  0.054662  0.789773  0.500000  1
  P  P14  1  0.333333  0.666667  0.000000  1
  Ir  Ir15  1  0.407055  0.301867  0.000000  1
  Ir  Ir16  1  0.894811  0.592945  0.000000  1
  Ir  Ir17  1  0.698133  0.105189  0.000000  1
  Ir  Ir18  1  0.785663  0.726837  0.500000  1
  Ir  Ir19  1  0.941174  0.214337  0.500000  1
  Ir  Ir20  1  0.273163  0.058826  0.500000  1
