# generated using pymatgen
data_CsRb11Na6(GaSb4)2
_symmetry_space_group_name_H-M   'P 1'
_cell_length_a   10.59529100
_cell_length_b   10.57437726
_cell_length_c   10.93704448
_cell_angle_alpha   90.07942519
_cell_angle_beta   90.00000000
_cell_angle_gamma   120.06543649
_symmetry_Int_Tables_number   1
_chemical_formula_structural   CsRb11Na6(GaSb4)2
_chemical_formula_sum   'Cs1 Rb11 Na6 Ga2 Sb8'
_cell_volume   1060.50079630
_cell_formula_units_Z   1
loop_
 _symmetry_equiv_pos_site_id
 _symmetry_equiv_pos_as_xyz
  1  'x, y, z'
loop_
 _atom_site_type_symbol
 _atom_site_label
 _atom_site_symmetry_multiplicity
 _atom_site_fract_x
 _atom_site_fract_y
 _atom_site_fract_z
 _atom_site_occupancy
  Cs  Cs0  1  0.208907  0.417813  0.541948  1
  Rb  Rb1  1  0.792202  0.207895  0.041312  1
  Rb  Rb2  1  0.415692  0.207895  0.041312  1
  Rb  Rb3  1  0.584755  0.792478  0.541412  1
  Rb  Rb4  1  0.207724  0.792478  0.541412  1
  Rb  Rb5  1  0.792143  0.584287  0.458544  1
  Rb  Rb6  1  0.791826  0.207662  0.458589  1
  Rb  Rb7  1  0.792236  0.584474  0.041217  1
  Rb  Rb8  1  0.415835  0.207662  0.458589  1
  Rb  Rb9  1  0.584493  0.792186  0.958597  1
  Rb  Rb10  1  0.207809  0.415617  0.958965  1
  Rb  Rb11  1  0.207694  0.792186  0.958597  1
  Na  Na12  1  0.115534  0.231066  0.249115  1
  Na  Na13  1  0.883595  0.115373  0.750390  1
  Na  Na14  1  0.231777  0.115373  0.750390  1
  Na  Na15  1  0.768406  0.884033  0.249933  1
  Na  Na16  1  0.115628  0.884033  0.249933  1
  Na  Na17  1  0.884072  0.768146  0.750134  1
  Ga  Ga18  1  0.333450  0.666902  0.249145  1
  Ga  Ga19  1  0.666811  0.333620  0.751086  1
  Sb  Sb20  1  0.477950  0.523194  0.248774  1
  Sb  Sb21  1  0.953248  0.477052  0.751049  1
  Sb  Sb22  1  0.522536  0.045072  0.749946  1
  Sb  Sb23  1  0.477471  0.954941  0.250053  1
  Sb  Sb24  1  0.045246  0.523194  0.248774  1
  Sb  Sb25  1  0.523802  0.477052  0.751049  1
  Sb  Sb26  1  0.000131  0.000263  0.999911  1
  Sb  Sb27  1  0.999028  0.998055  0.499827  1
