# generated using pymatgen
data_SICl5
_symmetry_space_group_name_H-M   'P 1'
_cell_length_a   8.37963000
_cell_length_b   8.86744257
_cell_length_c   15.30058315
_cell_angle_alpha   63.47936687
_cell_angle_beta   90.00000000
_cell_angle_gamma   90.00000000
_symmetry_Int_Tables_number   1
_chemical_formula_structural   SICl5
_chemical_formula_sum   'S4 I4 Cl20'
_cell_volume   1017.28907925
_cell_formula_units_Z   4
loop_
 _symmetry_equiv_pos_site_id
 _symmetry_equiv_pos_as_xyz
  1  'x, y, z'
loop_
 _atom_site_type_symbol
 _atom_site_label
 _atom_site_symmetry_multiplicity
 _atom_site_fract_x
 _atom_site_fract_y
 _atom_site_fract_z
 _atom_site_occupancy
  S  S0  1  0.781581  0.755929  0.040641  1
  S  S1  1  0.718419  0.755929  0.540641  1
  S  S2  1  0.218419  0.244071  0.959359  1
  S  S3  1  0.281581  0.244071  0.459359  1
  I  I4  1  0.664791  0.913935  0.664974  1
  I  I5  1  0.164791  0.086065  0.835026  1
  I  I6  1  0.335209  0.086065  0.335026  1
  I  I7  1  0.835209  0.913935  0.164974  1
  Cl  Cl8  1  0.668404  0.509939  0.617704  1
  Cl  Cl9  1  0.831596  0.509939  0.117704  1
  Cl  Cl10  1  0.331596  0.490061  0.382296  1
  Cl  Cl11  1  0.168404  0.490061  0.882296  1
  Cl  Cl12  1  0.842019  0.161159  0.992966  1
  Cl  Cl13  1  0.342019  0.838841  0.507034  1
  Cl  Cl14  1  0.157981  0.838841  0.007034  1
  Cl  Cl15  1  0.657981  0.161159  0.492966  1
  Cl  Cl16  1  0.878387  0.090610  0.250011  1
  Cl  Cl17  1  0.378387  0.909390  0.249989  1
  Cl  Cl18  1  0.121613  0.909390  0.749989  1
  Cl  Cl19  1  0.621613  0.090610  0.750011  1
  Cl  Cl20  1  0.812278  0.644838  0.313112  1
  Cl  Cl21  1  0.312278  0.355162  0.186888  1
  Cl  Cl22  1  0.187722  0.355162  0.686888  1
  Cl  Cl23  1  0.687722  0.644838  0.813112  1
  Cl  Cl24  1  0.540245  0.761180  0.038376  1
  Cl  Cl25  1  0.040245  0.238820  0.461624  1
  Cl  Cl26  1  0.459755  0.238820  0.961624  1
  Cl  Cl27  1  0.959755  0.761180  0.538376  1
