# generated using pymatgen
data_DyZr3F15
_symmetry_space_group_name_H-M   'P 1'
_cell_length_a   7.42695609
_cell_length_b   7.42695618
_cell_length_c   7.42695610
_cell_angle_alpha   112.78891644
_cell_angle_beta   112.78891947
_cell_angle_gamma   112.78891655
_symmetry_Int_Tables_number   1
_chemical_formula_structural   DyZr3F15
_chemical_formula_sum   'Dy1 Zr3 F15'
_cell_volume   269.78622192
_cell_formula_units_Z   1
loop_
 _symmetry_equiv_pos_site_id
 _symmetry_equiv_pos_as_xyz
  1  'x, y, z'
loop_
 _atom_site_type_symbol
 _atom_site_label
 _atom_site_symmetry_multiplicity
 _atom_site_fract_x
 _atom_site_fract_y
 _atom_site_fract_z
 _atom_site_occupancy
  Dy  Dy0  1  0.995960  0.995960  0.995960  1
  Zr  Zr1  1  0.357387  0.784737  0.357387  1
  Zr  Zr2  1  0.357387  0.357387  0.784737  1
  Zr  Zr3  1  0.784737  0.357387  0.357387  1
  F  F4  1  0.649816  0.436909  0.106812  1
  F  F5  1  0.106812  0.649816  0.436909  1
  F  F6  1  0.106812  0.436909  0.649816  1
  F  F7  1  0.436909  0.106812  0.649816  1
  F  F8  1  0.436909  0.649816  0.106812  1
  F  F9  1  0.649816  0.106812  0.436909  1
  F  F10  1  0.100887  0.765055  0.100887  1
  F  F11  1  0.100887  0.100887  0.765054  1
  F  F12  1  0.765054  0.100887  0.100887  1
  F  F13  1  0.650895  0.870069  0.650895  1
  F  F14  1  0.650895  0.650895  0.870069  1
  F  F15  1  0.870069  0.650895  0.650895  1
  F  F16  1  0.177508  0.406680  0.177508  1
  F  F17  1  0.177508  0.177508  0.406680  1
  F  F18  1  0.406680  0.177508  0.177508  1
