# generated using pymatgen
data_HfSc(SiRu)2
_symmetry_space_group_name_H-M   'P 1'
_cell_length_a   7.64235569
_cell_length_b   7.64246276
_cell_length_c   7.64235553
_cell_angle_alpha   127.34870927
_cell_angle_beta   124.29783069
_cell_angle_gamma   80.20257056
_symmetry_Int_Tables_number   1
_chemical_formula_structural   HfSc(SiRu)2
_chemical_formula_sum   'Hf3 Sc3 Si6 Ru6'
_cell_volume   282.94547196
_cell_formula_units_Z   3
loop_
 _symmetry_equiv_pos_site_id
 _symmetry_equiv_pos_as_xyz
  1  'x, y, z'
loop_
 _atom_site_type_symbol
 _atom_site_label
 _atom_site_symmetry_multiplicity
 _atom_site_fract_x
 _atom_site_fract_y
 _atom_site_fract_z
 _atom_site_occupancy
  Hf  Hf0  1  0.251658  0.843288  0.091632  1
  Hf  Hf1  1  0.051612  0.256161  0.704548  1
  Hf  Hf2  1  0.948096  0.650417  0.202321  1
  Sc  Sc3  1  0.461599  0.679160  0.717561  1
  Sc  Sc4  1  0.539081  0.254416  0.215335  1
  Sc  Sc5  1  0.748121  0.839216  0.591095  1
  Si  Si6  1  0.265153  0.268796  0.503643  1
  Si  Si7  1  0.734953  0.233699  0.998747  1
  Si  Si8  1  0.330798  0.587307  0.252563  1
  Si  Si9  1  0.670155  0.921787  0.257810  1
  Si  Si10  1  0.163977  0.921787  0.751632  1
  Si  Si11  1  0.834744  0.587307  0.756509  1
  Ru  Ru12  1  0.500908  0.500987  0.001686  1
  Ru  Ru13  1  0.999301  0.500987  0.500079  1
  Ru  Ru14  1  0.104487  0.252368  0.109026  1
  Ru  Ru15  1  0.897618  0.004775  0.150379  1
  Ru  Ru16  1  0.354396  0.004775  0.607156  1
  Ru  Ru17  1  0.643344  0.252368  0.647882  1
