# generated using pymatgen
data_SmEr2Zr(NiAs)4
_symmetry_space_group_name_H-M   'P 1'
_cell_length_a   4.02691200
_cell_length_b   4.02691156
_cell_length_c   15.26113700
_cell_angle_alpha   90.00000000
_cell_angle_beta   90.00000000
_cell_angle_gamma   120.00002008
_symmetry_Int_Tables_number   1
_chemical_formula_structural   SmEr2Zr(NiAs)4
_chemical_formula_sum   'Sm1 Er2 Zr1 Ni4 As4'
_cell_volume   214.31948898
_cell_formula_units_Z   1
loop_
 _symmetry_equiv_pos_site_id
 _symmetry_equiv_pos_as_xyz
  1  'x, y, z'
loop_
 _atom_site_type_symbol
 _atom_site_label
 _atom_site_symmetry_multiplicity
 _atom_site_fract_x
 _atom_site_fract_y
 _atom_site_fract_z
 _atom_site_occupancy
  Sm  Sm0  1  0.000000  0.000000  0.006428  1
  Er  Er1  1  0.000000  0.000000  0.746493  1
  Er  Er2  1  0.000000  0.000000  0.494606  1
  Zr  Zr3  1  0.000000  0.000000  0.253356  1
  Ni  Ni4  1  0.333333  0.666667  0.162405  1
  Ni  Ni5  1  0.666667  0.333333  0.864200  1
  Ni  Ni6  1  0.666667  0.333333  0.627332  1
  Ni  Ni7  1  0.333333  0.666667  0.344641  1
  As  As8  1  0.333333  0.666667  0.616389  1
  As  As9  1  0.666667  0.333333  0.379088  1
  As  As10  1  0.666667  0.333333  0.128373  1
  As  As11  1  0.333333  0.666667  0.876689  1
