# generated using pymatgen
data_Yb6Pa2InPd24
_symmetry_space_group_name_H-M   'P 1'
_cell_length_a   8.36547364
_cell_length_b   8.36547368
_cell_length_c   8.36547400
_cell_angle_alpha   89.30657559
_cell_angle_beta   89.30657559
_cell_angle_gamma   89.30657615
_symmetry_Int_Tables_number   1
_chemical_formula_structural   Yb6Pa2InPd24
_chemical_formula_sum   'Yb6 Pa2 In1 Pd24'
_cell_volume   585.29789527
_cell_formula_units_Z   1
loop_
 _symmetry_equiv_pos_site_id
 _symmetry_equiv_pos_as_xyz
  1  'x, y, z'
loop_
 _atom_site_type_symbol
 _atom_site_label
 _atom_site_symmetry_multiplicity
 _atom_site_fract_x
 _atom_site_fract_y
 _atom_site_fract_z
 _atom_site_occupancy
  Yb  Yb0  1  0.749497  0.749497  0.248021  1
  Yb  Yb1  1  0.749497  0.248021  0.749497  1
  Yb  Yb2  1  0.250503  0.250503  0.751979  1
  Yb  Yb3  1  0.250503  0.751979  0.250503  1
  Yb  Yb4  1  0.248021  0.749497  0.749497  1
  Yb  Yb5  1  0.751979  0.250503  0.250503  1
  Pa  Pa6  1  0.258828  0.258828  0.258828  1
  Pa  Pa7  1  0.741172  0.741172  0.741172  1
  In  In8  1  0.000000  0.000000  0.000000  1
  Pd  Pd9  1  0.265352  0.499013  0.006416  1
  Pd  Pd10  1  0.734648  0.500987  0.993584  1
  Pd  Pd11  1  0.006416  0.265352  0.499013  1
  Pd  Pd12  1  0.499013  0.265352  0.006416  1
  Pd  Pd13  1  0.993584  0.734648  0.500987  1
  Pd  Pd14  1  0.500987  0.734648  0.993584  1
  Pd  Pd15  1  0.499013  0.006416  0.265352  1
  Pd  Pd16  1  0.265352  0.006416  0.499013  1
  Pd  Pd17  1  0.500987  0.993584  0.734648  1
  Pd  Pd18  1  0.734648  0.993584  0.500987  1
  Pd  Pd19  1  0.006416  0.499013  0.265352  1
  Pd  Pd20  1  0.993584  0.500987  0.734648  1
  Pd  Pd21  1  0.254739  0.499388  0.499388  1
  Pd  Pd22  1  0.745261  0.500612  0.500612  1
  Pd  Pd23  1  0.499388  0.254739  0.499388  1
  Pd  Pd24  1  0.500612  0.745261  0.500612  1
  Pd  Pd25  1  0.499388  0.499388  0.254739  1
  Pd  Pd26  1  0.500612  0.500612  0.745261  1
  Pd  Pd27  1  0.309599  0.003843  0.003843  1
  Pd  Pd28  1  0.690401  0.996157  0.996157  1
  Pd  Pd29  1  0.003843  0.309599  0.003843  1
  Pd  Pd30  1  0.996157  0.690401  0.996157  1
  Pd  Pd31  1  0.003843  0.003843  0.309599  1
  Pd  Pd32  1  0.996157  0.996157  0.690401  1
