# generated using pymatgen
data_TmLu11TcOs3
_symmetry_space_group_name_H-M   'P 1'
_cell_length_a   7.32241543
_cell_length_b   8.81744864
_cell_length_c   6.15715344
_cell_angle_alpha   90.09428933
_cell_angle_beta   90.10765709
_cell_angle_gamma   89.99226931
_symmetry_Int_Tables_number   1
_chemical_formula_structural   TmLu11TcOs3
_chemical_formula_sum   'Tm1 Lu11 Tc1 Os3'
_cell_volume   397.53550351
_cell_formula_units_Z   1
loop_
 _symmetry_equiv_pos_site_id
 _symmetry_equiv_pos_as_xyz
  1  'x, y, z'
loop_
 _atom_site_type_symbol
 _atom_site_label
 _atom_site_symmetry_multiplicity
 _atom_site_fract_x
 _atom_site_fract_y
 _atom_site_fract_z
 _atom_site_occupancy
  Tm  Tm0  1  0.675023  0.061653  0.334781  1
  Lu  Lu1  1  0.174772  0.438158  0.165119  1
  Lu  Lu2  1  0.325332  0.561385  0.665606  1
  Lu  Lu3  1  0.825551  0.938084  0.834684  1
  Lu  Lu4  1  0.325028  0.938198  0.665906  1
  Lu  Lu5  1  0.825468  0.561793  0.835122  1
  Lu  Lu6  1  0.674339  0.438715  0.334987  1
  Lu  Lu7  1  0.174470  0.061685  0.165239  1
  Lu  Lu8  1  0.539384  0.250397  0.873194  1
  Lu  Lu9  1  0.039931  0.250259  0.626324  1
  Lu  Lu10  1  0.459674  0.749530  0.126622  1
  Lu  Lu11  1  0.961008  0.749404  0.373164  1
  Tc  Tc12  1  0.882644  0.250402  0.037117  1
  Os  Os13  1  0.381664  0.250673  0.462866  1
  Os  Os14  1  0.117939  0.750488  0.961701  1
  Os  Os15  1  0.617773  0.749176  0.537568  1
