# generated using pymatgen
data_Li2GdCd20
_symmetry_space_group_name_H-M   'P 1'
_cell_length_a   11.44005007
_cell_length_b   11.44005024
_cell_length_c   11.44005000
_cell_angle_alpha   60.00000071
_cell_angle_beta   60.00000020
_cell_angle_gamma   60.00000064
_symmetry_Int_Tables_number   1
_chemical_formula_structural   Li2GdCd20
_chemical_formula_sum   'Li4 Gd2 Cd40'
_cell_volume   1058.68994142
_cell_formula_units_Z   2
loop_
 _symmetry_equiv_pos_site_id
 _symmetry_equiv_pos_as_xyz
  1  'x, y, z'
loop_
 _atom_site_type_symbol
 _atom_site_label
 _atom_site_symmetry_multiplicity
 _atom_site_fract_x
 _atom_site_fract_y
 _atom_site_fract_z
 _atom_site_occupancy
  Li  Li0  1  0.625000  0.125000  0.125000  1
  Li  Li1  1  0.125000  0.625000  0.125000  1
  Li  Li2  1  0.125000  0.125000  0.625000  1
  Li  Li3  1  0.125000  0.125000  0.125000  1
  Gd  Gd4  1  0.500000  0.500000  0.500000  1
  Gd  Gd5  1  0.750000  0.750000  0.750000  1
  Cd  Cd6  1  0.567378  0.303157  0.303157  1
  Cd  Cd7  1  0.303157  0.567378  0.826309  1
  Cd  Cd8  1  0.303157  0.826309  0.567378  1
  Cd  Cd9  1  0.826309  0.303157  0.303157  1
  Cd  Cd10  1  0.303157  0.303157  0.567378  1
  Cd  Cd11  1  0.567378  0.826309  0.303157  1
  Cd  Cd12  1  0.826309  0.567378  0.303157  1
  Cd  Cd13  1  0.303157  0.303157  0.826309  1
  Cd  Cd14  1  0.303157  0.567378  0.303157  1
  Cd  Cd15  1  0.826309  0.303157  0.567378  1
  Cd  Cd16  1  0.567378  0.303157  0.826309  1
  Cd  Cd17  1  0.303157  0.826309  0.303157  1
  Cd  Cd18  1  0.682622  0.946843  0.946843  1
  Cd  Cd19  1  0.946843  0.682622  0.423691  1
  Cd  Cd20  1  0.946843  0.423691  0.682622  1
  Cd  Cd21  1  0.423691  0.946843  0.946843  1
  Cd  Cd22  1  0.946843  0.946843  0.682622  1
  Cd  Cd23  1  0.682622  0.423691  0.946843  1
  Cd  Cd24  1  0.423691  0.682622  0.946843  1
  Cd  Cd25  1  0.946843  0.946843  0.423691  1
  Cd  Cd26  1  0.946843  0.682622  0.946843  1
  Cd  Cd27  1  0.423691  0.946843  0.682622  1
  Cd  Cd28  1  0.682622  0.946843  0.423691  1
  Cd  Cd29  1  0.946843  0.423691  0.946843  1
  Cd  Cd30  1  0.862588  0.862588  0.137412  1
  Cd  Cd31  1  0.137412  0.137412  0.862588  1
  Cd  Cd32  1  0.862588  0.137412  0.862588  1
  Cd  Cd33  1  0.137412  0.862588  0.137412  1
  Cd  Cd34  1  0.137412  0.862588  0.862588  1
  Cd  Cd35  1  0.862588  0.137412  0.137412  1
  Cd  Cd36  1  0.387412  0.387412  0.112588  1
  Cd  Cd37  1  0.112588  0.112588  0.387412  1
  Cd  Cd38  1  0.387412  0.112588  0.387412  1
  Cd  Cd39  1  0.112588  0.387412  0.112588  1
  Cd  Cd40  1  0.112588  0.387412  0.387412  1
  Cd  Cd41  1  0.387412  0.112588  0.112588  1
  Cd  Cd42  1  0.125000  0.625000  0.625000  1
  Cd  Cd43  1  0.625000  0.125000  0.625000  1
  Cd  Cd44  1  0.625000  0.625000  0.125000  1
  Cd  Cd45  1  0.625000  0.625000  0.625000  1
