# generated using pymatgen
data_Ce8Sc12Si15Ge
_symmetry_space_group_name_H-M   'P 1'
_cell_length_a   7.18853923
_cell_length_b   7.46270359
_cell_length_c   14.14254400
_cell_angle_alpha   90.00888300
_cell_angle_beta   89.89005576
_cell_angle_gamma   90.02089245
_symmetry_Int_Tables_number   1
_chemical_formula_structural   Ce8Sc12Si15Ge
_chemical_formula_sum   'Ce8 Sc12 Si15 Ge1'
_cell_volume   758.68857548
_cell_formula_units_Z   1
loop_
 _symmetry_equiv_pos_site_id
 _symmetry_equiv_pos_as_xyz
  1  'x, y, z'
loop_
 _atom_site_type_symbol
 _atom_site_label
 _atom_site_symmetry_multiplicity
 _atom_site_fract_x
 _atom_site_fract_y
 _atom_site_fract_z
 _atom_site_occupancy
  Ce  Ce0  1  0.011616  0.172587  0.096491  1
  Ce  Ce1  1  0.988671  0.827681  0.903285  1
  Ce  Ce2  1  0.488540  0.673028  0.902721  1
  Ce  Ce3  1  0.988294  0.828847  0.596881  1
  Ce  Ce4  1  0.510735  0.327622  0.096451  1
  Ce  Ce5  1  0.009936  0.171405  0.403248  1
  Ce  Ce6  1  0.512222  0.325814  0.402268  1
  Ce  Ce7  1  0.491675  0.675054  0.597865  1
  Sc  Sc8  1  0.162172  0.505087  0.751618  1
  Sc  Sc9  1  0.837606  0.494855  0.250002  1
  Sc  Sc10  1  0.337846  0.004810  0.250086  1
  Sc  Sc11  1  0.662571  0.994968  0.750382  1
  Sc  Sc12  1  0.331812  0.173189  0.625321  1
  Sc  Sc13  1  0.669598  0.824696  0.375532  1
  Sc  Sc14  1  0.168305  0.676762  0.375197  1
  Sc  Sc15  1  0.669796  0.823606  0.123862  1
  Sc  Sc16  1  0.829089  0.324244  0.624502  1
  Sc  Sc17  1  0.329653  0.175663  0.875620  1
  Sc  Sc18  1  0.829646  0.324169  0.875544  1
  Sc  Sc19  1  0.170038  0.676033  0.124175  1
  Si  Si20  1  0.034597  0.119886  0.749987  1
  Si  Si21  1  0.964903  0.880738  0.249551  1
  Si  Si22  1  0.464677  0.619482  0.249931  1
  Si  Si23  1  0.534482  0.380519  0.750087  1
  Si  Si24  1  0.287367  0.876917  0.750249  1
  Si  Si25  1  0.712357  0.122232  0.249329  1
  Si  Si26  1  0.211982  0.377466  0.250164  1
  Si  Si27  1  0.788964  0.622603  0.750123  1
  Si  Si28  1  0.840432  0.536640  0.460392  1
  Si  Si29  1  0.344780  0.964257  0.461149  1
  Si  Si30  1  0.845611  0.535049  0.038826  1
  Si  Si31  1  0.655106  0.036320  0.538823  1
  Si  Si32  1  0.154451  0.464869  0.961006  1
  Si  Si33  1  0.654191  0.035304  0.960867  1
  Si  Si34  1  0.345897  0.964634  0.038754  1
  Ge  Ge35  1  0.160384  0.462963  0.539710  1
