# generated using pymatgen
data_TbNd2HoAu2
_symmetry_space_group_name_H-M   'P 1'
_cell_length_a   5.01986900
_cell_length_b   7.31214903
_cell_length_c   9.08781971
_cell_angle_alpha   90.03620368
_cell_angle_beta   90.00000000
_cell_angle_gamma   90.00000000
_symmetry_Int_Tables_number   1
_chemical_formula_structural   TbNd2HoAu2
_chemical_formula_sum   'Tb2 Nd4 Ho2 Au4'
_cell_volume   333.57771876
_cell_formula_units_Z   2
loop_
 _symmetry_equiv_pos_site_id
 _symmetry_equiv_pos_as_xyz
  1  'x, y, z'
loop_
 _atom_site_type_symbol
 _atom_site_label
 _atom_site_symmetry_multiplicity
 _atom_site_fract_x
 _atom_site_fract_y
 _atom_site_fract_z
 _atom_site_occupancy
  Tb  Tb0  1  0.750000  0.650025  0.416479  1
  Tb  Tb1  1  0.250000  0.349975  0.583521  1
  Nd  Nd2  1  0.250000  0.488204  0.177726  1
  Nd  Nd3  1  0.750000  0.511796  0.822274  1
  Nd  Nd4  1  0.250000  0.988420  0.322479  1
  Nd  Nd5  1  0.750000  0.011580  0.677521  1
  Ho  Ho6  1  0.750000  0.149177  0.080768  1
  Ho  Ho7  1  0.250000  0.850823  0.919232  1
  Au  Au8  1  0.250000  0.244431  0.903936  1
  Au  Au9  1  0.750000  0.755569  0.096064  1
  Au  Au10  1  0.250000  0.747370  0.600295  1
  Au  Au11  1  0.750000  0.252630  0.399705  1
