# generated using pymatgen
data_Sc4TcMo4Os3
_symmetry_space_group_name_H-M   'P 1'
_cell_length_a   5.27387010
_cell_length_b   5.27674617
_cell_length_c   8.78631300
_cell_angle_alpha   90.00000000
_cell_angle_beta   90.00000000
_cell_angle_gamma   120.37143659
_symmetry_Int_Tables_number   1
_chemical_formula_structural   Sc4TcMo4Os3
_chemical_formula_sum   'Sc4 Tc1 Mo4 Os3'
_cell_volume   210.95763139
_cell_formula_units_Z   1
loop_
 _symmetry_equiv_pos_site_id
 _symmetry_equiv_pos_as_xyz
  1  'x, y, z'
loop_
 _atom_site_type_symbol
 _atom_site_label
 _atom_site_symmetry_multiplicity
 _atom_site_fract_x
 _atom_site_fract_y
 _atom_site_fract_z
 _atom_site_occupancy
  Sc  Sc0  1  0.334371  0.665733  0.437668  1
  Sc  Sc1  1  0.667802  0.333787  0.558209  1
  Sc  Sc2  1  0.667802  0.333787  0.941791  1
  Sc  Sc3  1  0.334371  0.665733  0.062332  1
  Tc  Tc4  1  0.653520  0.827252  0.750000  1
  Mo  Mo5  1  0.171384  0.340088  0.750000  1
  Mo  Mo6  1  0.173373  0.830339  0.750000  1
  Mo  Mo7  1  0.338990  0.168650  0.250000  1
  Mo  Mo8  1  0.832335  0.662529  0.250000  1
  Os  Os9  1  0.000098  0.999435  0.998827  1
  Os  Os10  1  0.825855  0.173232  0.250000  1
  Os  Os11  1  0.000098  0.999435  0.501173  1
