# generated using pymatgen
data_Ca20VSi4P7O48
_symmetry_space_group_name_H-M   'P 1'
_cell_length_a   6.82916145
_cell_length_b   10.23902070
_cell_length_c   15.58136509
_cell_angle_alpha   89.99009438
_cell_angle_beta   89.99277153
_cell_angle_gamma   90.04114752
_symmetry_Int_Tables_number   1
_chemical_formula_structural   Ca20VSi4P7O48
_chemical_formula_sum   'Ca20 V1 Si4 P7 O48'
_cell_volume   1089.50990543
_cell_formula_units_Z   1
loop_
 _symmetry_equiv_pos_site_id
 _symmetry_equiv_pos_as_xyz
  1  'x, y, z'
loop_
 _atom_site_type_symbol
 _atom_site_label
 _atom_site_symmetry_multiplicity
 _atom_site_fract_x
 _atom_site_fract_y
 _atom_site_fract_z
 _atom_site_occupancy
  Ca  Ca0  1  0.210818  0.689856  0.497235  1
  Ca  Ca1  1  0.705673  0.809153  0.502754  1
  Ca  Ca2  1  0.292736  0.309025  0.997418  1
  Ca  Ca3  1  0.793820  0.191310  0.002606  1
  Ca  Ca4  1  0.885760  0.567564  0.661283  1
  Ca  Ca5  1  0.387751  0.929527  0.335911  1
  Ca  Ca6  1  0.614703  0.432835  0.159495  1
  Ca  Ca7  1  0.114760  0.068193  0.839378  1
  Ca  Ca8  1  0.617286  0.442282  0.846326  1
  Ca  Ca9  1  0.117510  0.059104  0.154796  1
  Ca  Ca10  1  0.882568  0.559122  0.344527  1
  Ca  Ca11  1  0.384874  0.938520  0.658214  1
  Ca  Ca12  1  0.077335  0.661168  0.858420  1
  Ca  Ca13  1  0.578893  0.839920  0.140664  1
  Ca  Ca14  1  0.423857  0.342027  0.356069  1
  Ca  Ca15  1  0.917702  0.161643  0.644940  1
  Ca  Ca16  1  0.413000  0.335966  0.648668  1
  Ca  Ca17  1  0.907382  0.168335  0.351776  1
  Ca  Ca18  1  0.088248  0.667365  0.145063  1
  Ca  Ca19  1  0.589738  0.833517  0.855288  1
  V  V20  1  0.219421  0.077372  0.496533  1
  Si  Si21  1  0.899775  0.866884  0.677591  1
  Si  Si22  1  0.401066  0.632351  0.321437  1
  Si  Si23  1  0.600505  0.133096  0.175710  1
  Si  Si24  1  0.099603  0.368048  0.824250  1
  P  P25  1  0.723239  0.419419  0.503421  1
  P  P26  1  0.275977  0.919583  0.996534  1
  P  P27  1  0.776857  0.581437  0.003428  1
  P  P28  1  0.602381  0.131883  0.823355  1
  P  P29  1  0.101553  0.369411  0.176705  1
  P  P30  1  0.898046  0.868351  0.321483  1
  P  P31  1  0.399632  0.631376  0.679298  1
  O  O32  1  0.715621  0.953564  0.638297  1
  O  O33  1  0.217098  0.546463  0.362136  1
  O  O34  1  0.784445  0.046848  0.135455  1
  O  O35  1  0.283572  0.454191  0.864681  1
  O  O36  1  0.775357  0.048375  0.858452  1
  O  O37  1  0.274594  0.452752  0.141249  1
  O  O38  1  0.724575  0.952284  0.355423  1
  O  O39  1  0.226350  0.547902  0.644366  1
  O  O40  1  0.300506  0.149642  0.590678  1
  O  O41  1  0.796041  0.352245  0.419317  1
  O  O42  1  0.202661  0.851838  0.080149  1
  O  O43  1  0.703386  0.649237  0.919884  1
  O  O44  1  0.202452  0.854799  0.912263  1
  O  O45  1  0.703324  0.646298  0.087619  1
  O  O46  1  0.298193  0.146494  0.401080  1
  O  O47  1  0.797509  0.355050  0.587835  1
  O  O48  1  0.967166  0.086545  0.496739  1
  O  O49  1  0.496241  0.413432  0.503637  1
  O  O50  1  0.502937  0.914121  0.996532  1
  O  O51  1  0.003556  0.586741  0.003306  1
  O  O52  1  0.067306  0.975105  0.705092  1
  O  O53  1  0.568082  0.524568  0.293106  1
  O  O54  1  0.433436  0.024590  0.202993  1
  O  O55  1  0.932377  0.476017  0.796398  1
  O  O56  1  0.441701  0.031343  0.797097  1
  O  O57  1  0.941071  0.469835  0.203337  1
  O  O58  1  0.059271  0.968693  0.295173  1
  O  O59  1  0.559600  0.531123  0.706856  1
  O  O60  1  0.845081  0.769944  0.758973  1
  O  O61  1  0.345081  0.730263  0.240737  1
  O  O62  1  0.656051  0.230545  0.256638  1
  O  O63  1  0.154518  0.271048  0.743262  1
  O  O64  1  0.655220  0.222435  0.746669  1
  O  O65  1  0.153923  0.279144  0.253382  1
  O  O66  1  0.846571  0.777568  0.244712  1
  O  O67  1  0.346577  0.723064  0.755408  1
  O  O68  1  0.316872  0.919727  0.499632  1
  O  O69  1  0.808764  0.561501  0.501329  1
  O  O70  1  0.191205  0.061736  0.998534  1
  O  O71  1  0.691461  0.439358  0.001460  1
  O  O72  1  0.972344  0.770693  0.598033  1
  O  O73  1  0.477888  0.727021  0.400495  1
  O  O74  1  0.527249  0.229700  0.096727  1
  O  O75  1  0.026648  0.271052  0.903205  1
  O  O76  1  0.532839  0.222111  0.898071  1
  O  O77  1  0.031855  0.279046  0.101944  1
  O  O78  1  0.967012  0.779027  0.396935  1
  O  O79  1  0.471943  0.719284  0.604127  1
