# generated using pymatgen
data_Tb8Tm2Ir5Pt
_symmetry_space_group_name_H-M   'P 1'
_cell_length_a   10.95788902
_cell_length_b   10.97144900
_cell_length_c   6.35264801
_cell_angle_alpha   90.00000000
_cell_angle_beta   90.00745079
_cell_angle_gamma   90.00000000
_symmetry_Int_Tables_number   1
_chemical_formula_structural   Tb8Tm2Ir5Pt
_chemical_formula_sum   'Tb16 Tm4 Ir10 Pt2'
_cell_volume   763.74024369
_cell_formula_units_Z   2
loop_
 _symmetry_equiv_pos_site_id
 _symmetry_equiv_pos_as_xyz
  1  'x, y, z'
loop_
 _atom_site_type_symbol
 _atom_site_label
 _atom_site_symmetry_multiplicity
 _atom_site_fract_x
 _atom_site_fract_y
 _atom_site_fract_z
 _atom_site_occupancy
  Tb  Tb0  1  0.290505  0.087914  0.376785  1
  Tb  Tb1  1  0.290505  0.912086  0.876785  1
  Tb  Tb2  1  0.706545  0.089394  0.874554  1
  Tb  Tb3  1  0.706545  0.910606  0.374554  1
  Tb  Tb4  1  0.584628  0.789854  0.879182  1
  Tb  Tb5  1  0.584628  0.210146  0.379182  1
  Tb  Tb6  1  0.411601  0.790352  0.378007  1
  Tb  Tb7  1  0.411601  0.209648  0.878007  1
  Tb  Tb8  1  0.209764  0.412028  0.621909  1
  Tb  Tb9  1  0.209764  0.587972  0.121909  1
  Tb  Tb10  1  0.789733  0.414787  0.121833  1
  Tb  Tb11  1  0.789733  0.585213  0.621833  1
  Tb  Tb12  1  0.913537  0.707912  0.125816  1
  Tb  Tb13  1  0.913537  0.292088  0.625816  1
  Tb  Tb14  1  0.090685  0.707947  0.622055  1
  Tb  Tb15  1  0.090685  0.292053  0.122055  1
  Tm  Tm16  1  0.003006  0.999780  0.500062  1
  Tm  Tm17  1  0.003006  0.000220  0.000062  1
  Tm  Tm18  1  0.499805  0.499793  0.000015  1
  Tm  Tm19  1  0.499805  0.500207  0.500015  1
  Ir  Ir20  1  0.150696  0.151513  0.750021  1
  Ir  Ir21  1  0.150696  0.848487  0.250021  1
  Ir  Ir22  1  0.652726  0.347742  0.749741  1
  Ir  Ir23  1  0.652726  0.652258  0.249741  1
  Ir  Ir24  1  0.348348  0.348208  0.250126  1
  Ir  Ir25  1  0.348348  0.651792  0.750126  1
  Ir  Ir26  1  0.500933  0.999879  0.122953  1
  Ir  Ir27  1  0.500933  0.000121  0.622953  1
  Ir  Ir28  1  0.999522  0.500137  0.877164  1
  Ir  Ir29  1  0.999522  0.499863  0.377164  1
  Pt  Pt30  1  0.847964  0.151218  0.249777  1
  Pt  Pt31  1  0.847964  0.848782  0.749777  1
