# generated using pymatgen
data_Tb8Pr9Lu3Pb16
_symmetry_space_group_name_H-M   'P 1'
_cell_length_a   8.33628621
_cell_length_b   8.41332907
_cell_length_c   15.95704900
_cell_angle_alpha   90.03127207
_cell_angle_beta   90.14906993
_cell_angle_gamma   90.27620534
_symmetry_Int_Tables_number   1
_chemical_formula_structural   Tb8Pr9Lu3Pb16
_chemical_formula_sum   'Tb8 Pr9 Lu3 Pb16'
_cell_volume   1119.14533210
_cell_formula_units_Z   1
loop_
 _symmetry_equiv_pos_site_id
 _symmetry_equiv_pos_as_xyz
  1  'x, y, z'
loop_
 _atom_site_type_symbol
 _atom_site_label
 _atom_site_symmetry_multiplicity
 _atom_site_fract_x
 _atom_site_fract_y
 _atom_site_fract_z
 _atom_site_occupancy
  Tb  Tb0  1  0.631562  0.159033  0.622507  1
  Tb  Tb1  1  0.133285  0.340997  0.878855  1
  Tb  Tb2  1  0.367475  0.841615  0.122217  1
  Tb  Tb3  1  0.868082  0.657587  0.377907  1
  Tb  Tb4  1  0.370651  0.841711  0.375885  1
  Tb  Tb5  1  0.867851  0.659159  0.122483  1
  Tb  Tb6  1  0.631111  0.158505  0.879616  1
  Tb  Tb7  1  0.798429  0.495107  0.750936  1
  Pr  Pr8  1  0.129161  0.339193  0.619091  1
  Pr  Pr9  1  0.472298  0.678513  0.598571  1
  Pr  Pr10  1  0.974990  0.822860  0.903565  1
  Pr  Pr11  1  0.525440  0.322833  0.097968  1
  Pr  Pr12  1  0.027426  0.176431  0.399766  1
  Pr  Pr13  1  0.525430  0.323098  0.400797  1
  Pr  Pr14  1  0.025259  0.177313  0.098154  1
  Pr  Pr15  1  0.475375  0.678261  0.902669  1
  Pr  Pr16  1  0.974036  0.823199  0.598390  1
  Lu  Lu17  1  0.299497  0.004808  0.750612  1
  Lu  Lu18  1  0.201615  0.506093  0.248981  1
  Lu  Lu19  1  0.701811  0.994755  0.249962  1
  Pb  Pb20  1  0.708875  0.962008  0.455405  1
  Pb  Pb21  1  0.206831  0.538568  0.044531  1
  Pb  Pb22  1  0.293066  0.038870  0.956628  1
  Pb  Pb23  1  0.784170  0.464524  0.542998  1
  Pb  Pb24  1  0.296291  0.032817  0.542822  1
  Pb  Pb25  1  0.794512  0.461134  0.957095  1
  Pb  Pb26  1  0.706790  0.960723  0.045281  1
  Pb  Pb27  1  0.208744  0.541229  0.452001  1
  Pb  Pb28  1  0.436694  0.370533  0.751848  1
  Pb  Pb29  1  0.935655  0.125039  0.752178  1
  Pb  Pb30  1  0.563463  0.628760  0.249203  1
  Pb  Pb31  1  0.062206  0.870716  0.250057  1
  Pb  Pb32  1  0.664363  0.851405  0.750697  1
  Pb  Pb33  1  0.163812  0.652746  0.751675  1
  Pb  Pb34  1  0.336542  0.151076  0.249138  1
  Pb  Pb35  1  0.837200  0.348785  0.249512  1
