# generated using pymatgen
data_Tb6Fe11Co6MoP12
_symmetry_space_group_name_H-M   'P 1'
_cell_length_a   3.73515600
_cell_length_b   10.57523000
_cell_length_c   12.18593500
_cell_angle_alpha   90.00000000
_cell_angle_beta   90.00000000
_cell_angle_gamma   90.00000000
_symmetry_Int_Tables_number   1
_chemical_formula_structural   Tb6Fe11Co6MoP12
_chemical_formula_sum   'Tb6 Fe11 Co6 Mo1 P12'
_cell_volume   481.34606281
_cell_formula_units_Z   1
loop_
 _symmetry_equiv_pos_site_id
 _symmetry_equiv_pos_as_xyz
  1  'x, y, z'
loop_
 _atom_site_type_symbol
 _atom_site_label
 _atom_site_symmetry_multiplicity
 _atom_site_fract_x
 _atom_site_fract_y
 _atom_site_fract_z
 _atom_site_occupancy
  Tb  Tb0  1  0.000000  0.500000  0.525225  1
  Tb  Tb1  1  0.500000  0.000000  0.475784  1
  Tb  Tb2  1  0.500000  0.820832  0.206650  1
  Tb  Tb3  1  0.500000  0.179168  0.206650  1
  Tb  Tb4  1  0.000000  0.679778  0.794586  1
  Tb  Tb5  1  0.000000  0.320222  0.794586  1
  Fe  Fe6  1  0.000000  0.000000  0.844833  1
  Fe  Fe7  1  0.000000  0.500000  0.986364  1
  Fe  Fe8  1  0.500000  0.000000  0.009705  1
  Fe  Fe9  1  0.500000  0.327839  0.993990  1
  Fe  Fe10  1  0.500000  0.672161  0.993990  1
  Fe  Fe11  1  0.000000  0.167462  0.002243  1
  Fe  Fe12  1  0.000000  0.832538  0.002243  1
  Fe  Fe13  1  0.500000  0.297105  0.431295  1
  Fe  Fe14  1  0.500000  0.702895  0.431295  1
  Fe  Fe15  1  0.000000  0.200722  0.572420  1
  Fe  Fe16  1  0.000000  0.799278  0.572420  1
  Co  Co17  1  0.500000  0.500000  0.700157  1
  Co  Co18  1  0.000000  0.000000  0.299450  1
  Co  Co19  1  0.500000  0.882173  0.710228  1
  Co  Co20  1  0.500000  0.117827  0.710228  1
  Co  Co21  1  0.000000  0.621013  0.291599  1
  Co  Co22  1  0.000000  0.378987  0.291599  1
  Mo  Mo23  1  0.500000  0.500000  0.151185  1
  P  P24  1  0.500000  0.500000  0.885629  1
  P  P25  1  0.000000  0.000000  0.113718  1
  P  P26  1  0.500000  0.500000  0.348482  1
  P  P27  1  0.000000  0.000000  0.658076  1
  P  P28  1  0.500000  0.305936  0.614849  1
  P  P29  1  0.500000  0.694064  0.614849  1
  P  P30  1  0.000000  0.193623  0.387626  1
  P  P31  1  0.000000  0.806377  0.387626  1
  P  P32  1  0.500000  0.848986  0.891508  1
  P  P33  1  0.500000  0.151014  0.891508  1
  P  P34  1  0.000000  0.656608  0.103704  1
  P  P35  1  0.000000  0.343392  0.103704  1
