# generated using pymatgen
data_Sm12Ru(PtBr4)3
_symmetry_space_group_name_H-M   'P 1'
_cell_length_a   10.33075617
_cell_length_b   10.33075679
_cell_length_c   10.33075701
_cell_angle_alpha   109.23446502
_cell_angle_beta   109.23446694
_cell_angle_gamma   109.23446488
_symmetry_Int_Tables_number   1
_chemical_formula_structural   Sm12Ru(PtBr4)3
_chemical_formula_sum   'Sm12 Ru1 Pt3 Br12'
_cell_volume   856.09858065
_cell_formula_units_Z   1
loop_
 _symmetry_equiv_pos_site_id
 _symmetry_equiv_pos_as_xyz
  1  'x, y, z'
loop_
 _atom_site_type_symbol
 _atom_site_label
 _atom_site_symmetry_multiplicity
 _atom_site_fract_x
 _atom_site_fract_y
 _atom_site_fract_z
 _atom_site_occupancy
  Sm  Sm0  1  0.264327  0.750000  0.235673  1
  Sm  Sm1  1  0.485598  0.750000  0.014402  1
  Sm  Sm2  1  0.238091  0.468932  0.480263  1
  Sm  Sm3  1  0.019737  0.031068  0.261909  1
  Sm  Sm4  1  0.235673  0.264327  0.750000  1
  Sm  Sm5  1  0.014402  0.485598  0.750000  1
  Sm  Sm6  1  0.480263  0.238091  0.468932  1
  Sm  Sm7  1  0.261909  0.019737  0.031068  1
  Sm  Sm8  1  0.750000  0.235673  0.264327  1
  Sm  Sm9  1  0.750000  0.014402  0.485598  1
  Sm  Sm10  1  0.468932  0.480263  0.238091  1
  Sm  Sm11  1  0.031068  0.261909  0.019737  1
  Ru  Ru12  1  0.250000  0.250000  0.250000  1
  Pt  Pt13  1  0.499789  0.000211  0.250000  1
  Pt  Pt14  1  0.250000  0.499789  0.000211  1
  Pt  Pt15  1  0.000211  0.250000  0.499789  1
  Br  Br16  1  0.250000  0.994025  0.505975  1
  Br  Br17  1  0.511377  0.505982  0.756282  1
  Br  Br18  1  0.250000  0.754922  0.745078  1
  Br  Br19  1  0.988623  0.743718  0.994018  1
  Br  Br20  1  0.994025  0.505975  0.250000  1
  Br  Br21  1  0.743718  0.994018  0.988623  1
  Br  Br22  1  0.754922  0.745078  0.250000  1
  Br  Br23  1  0.505982  0.756282  0.511377  1
  Br  Br24  1  0.505975  0.250000  0.994025  1
  Br  Br25  1  0.756282  0.511377  0.505982  1
  Br  Br26  1  0.745078  0.250000  0.754922  1
  Br  Br27  1  0.994018  0.988623  0.743718  1
