# generated using pymatgen
data_PrTl(SO4)2
_symmetry_space_group_name_H-M   'P 1'
_cell_length_a   5.50985700
_cell_length_b   9.72887400
_cell_length_c   14.54291500
_cell_angle_alpha   90.00000000
_cell_angle_beta   90.00000000
_cell_angle_gamma   90.00000000
_symmetry_Int_Tables_number   1
_chemical_formula_structural   PrTl(SO4)2
_chemical_formula_sum   'Pr4 Tl4 S8 O32'
_cell_volume   779.56866130
_cell_formula_units_Z   4
loop_
 _symmetry_equiv_pos_site_id
 _symmetry_equiv_pos_as_xyz
  1  'x, y, z'
loop_
 _atom_site_type_symbol
 _atom_site_label
 _atom_site_symmetry_multiplicity
 _atom_site_fract_x
 _atom_site_fract_y
 _atom_site_fract_z
 _atom_site_occupancy
  Pr  Pr0  1  0.676354  0.250000  0.500000  1
  Pr  Pr1  1  0.823646  0.250000  0.000000  1
  Pr  Pr2  1  0.323646  0.750000  0.500000  1
  Pr  Pr3  1  0.176354  0.750000  0.000000  1
  Tl  Tl4  1  0.250000  0.077670  0.250000  1
  Tl  Tl5  1  0.250000  0.422330  0.750000  1
  Tl  Tl6  1  0.750000  0.922330  0.750000  1
  Tl  Tl7  1  0.750000  0.577670  0.250000  1
  S  S8  1  0.236744  0.413748  0.414843  1
  S  S9  1  0.236744  0.086252  0.585157  1
  S  S10  1  0.263256  0.413748  0.085157  1
  S  S11  1  0.263256  0.086252  0.914843  1
  S  S12  1  0.763256  0.586252  0.585157  1
  S  S13  1  0.763256  0.913748  0.414843  1
  S  S14  1  0.736744  0.586252  0.914843  1
  S  S15  1  0.736744  0.913748  0.085157  1
  O  O16  1  0.306089  0.402373  0.514241  1
  O  O17  1  0.306089  0.097627  0.485759  1
  O  O18  1  0.193911  0.402373  0.985759  1
  O  O19  1  0.193911  0.097627  0.014241  1
  O  O20  1  0.693911  0.597627  0.485759  1
  O  O21  1  0.693911  0.902373  0.514241  1
  O  O22  1  0.806089  0.597627  0.014241  1
  O  O23  1  0.806089  0.902373  0.985759  1
  O  O24  1  0.224896  0.561625  0.387462  1
  O  O25  1  0.224896  0.938375  0.612538  1
  O  O26  1  0.275104  0.561625  0.112538  1
  O  O27  1  0.275104  0.938375  0.887462  1
  O  O28  1  0.775104  0.438375  0.612538  1
  O  O29  1  0.775104  0.061625  0.387462  1
  O  O30  1  0.724896  0.438375  0.887462  1
  O  O31  1  0.724896  0.061625  0.112538  1
  O  O32  1  0.431212  0.340717  0.361465  1
  O  O33  1  0.431212  0.159283  0.638535  1
  O  O34  1  0.068788  0.340717  0.138535  1
  O  O35  1  0.068788  0.159283  0.861465  1
  O  O36  1  0.568788  0.659283  0.638535  1
  O  O37  1  0.568788  0.840717  0.361465  1
  O  O38  1  0.931212  0.659283  0.861465  1
  O  O39  1  0.931212  0.840717  0.138535  1
  O  O40  1  0.995541  0.348962  0.398512  1
  O  O41  1  0.995541  0.151038  0.601488  1
  O  O42  1  0.504459  0.348962  0.101488  1
  O  O43  1  0.504459  0.151038  0.898512  1
  O  O44  1  0.004459  0.651038  0.601488  1
  O  O45  1  0.004459  0.848962  0.398512  1
  O  O46  1  0.495541  0.651038  0.898512  1
  O  O47  1  0.495541  0.848962  0.101488  1
