# generated using pymatgen
data_Sc5Fe12Co7P12
_symmetry_space_group_name_H-M   'P 1'
_cell_length_a   11.75066600
_cell_length_b   11.75066713
_cell_length_c   3.61509300
_cell_angle_alpha   90.00000000
_cell_angle_beta   90.00000000
_cell_angle_gamma   120.00000244
_symmetry_Int_Tables_number   1
_chemical_formula_structural   Sc5Fe12Co7P12
_chemical_formula_sum   'Sc5 Fe12 Co7 P12'
_cell_volume   432.28991248
_cell_formula_units_Z   1
loop_
 _symmetry_equiv_pos_site_id
 _symmetry_equiv_pos_as_xyz
  1  'x, y, z'
loop_
 _atom_site_type_symbol
 _atom_site_label
 _atom_site_symmetry_multiplicity
 _atom_site_fract_x
 _atom_site_fract_y
 _atom_site_fract_z
 _atom_site_occupancy
  Sc  Sc0  1  0.333333  0.666667  0.500000  1
  Sc  Sc1  1  0.666667  0.333333  0.500000  1
  Sc  Sc2  1  0.814782  0.000000  0.000000  1
  Sc  Sc3  1  0.000000  0.814782  0.000000  1
  Sc  Sc4  1  0.185218  0.185218  0.000000  1
  Fe  Fe5  1  0.620906  0.801904  0.500000  1
  Fe  Fe6  1  0.198096  0.819003  0.500000  1
  Fe  Fe7  1  0.180997  0.379094  0.500000  1
  Fe  Fe8  1  0.379094  0.180997  0.500000  1
  Fe  Fe9  1  0.801904  0.620906  0.500000  1
  Fe  Fe10  1  0.819003  0.198096  0.500000  1
  Fe  Fe11  1  0.284140  0.000000  0.000000  1
  Fe  Fe12  1  0.000000  0.284140  0.000000  1
  Fe  Fe13  1  0.715860  0.715860  0.000000  1
  Fe  Fe14  1  0.447258  0.000000  0.500000  1
  Fe  Fe15  1  0.000000  0.447258  0.500000  1
  Fe  Fe16  1  0.552742  0.552742  0.500000  1
  Co  Co17  1  0.514968  0.874462  0.000000  1
  Co  Co18  1  0.125538  0.640506  0.000000  1
  Co  Co19  1  0.359494  0.485032  0.000000  1
  Co  Co20  1  0.485032  0.359494  0.000000  1
  Co  Co21  1  0.874462  0.514968  0.000000  1
  Co  Co22  1  0.640506  0.125538  0.000000  1
  Co  Co23  1  0.000000  0.000000  0.500000  1
  P  P24  1  0.181047  0.000000  0.500000  1
  P  P25  1  0.000000  0.181047  0.500000  1
  P  P26  1  0.818953  0.818953  0.500000  1
  P  P27  1  0.519446  0.686084  0.000000  1
  P  P28  1  0.313916  0.833362  0.000000  1
  P  P29  1  0.166638  0.480554  0.000000  1
  P  P30  1  0.480554  0.166638  0.000000  1
  P  P31  1  0.686084  0.519446  0.000000  1
  P  P32  1  0.833362  0.313916  0.000000  1
  P  P33  1  0.636447  0.000000  0.500000  1
  P  P34  1  0.000000  0.636447  0.500000  1
  P  P35  1  0.363553  0.363553  0.500000  1
