# generated using pymatgen
data_Dy3CoSn3HgIr
_symmetry_space_group_name_H-M   'P 1'
_cell_length_a   7.62723300
_cell_length_b   7.62723228
_cell_length_c   3.92573400
_cell_angle_alpha   90.00000000
_cell_angle_beta   90.00000000
_cell_angle_gamma   119.99999877
_symmetry_Int_Tables_number   1
_chemical_formula_structural   Dy3CoSn3HgIr
_chemical_formula_sum   'Dy3 Co1 Sn3 Hg1 Ir1'
_cell_volume   197.78142099
_cell_formula_units_Z   1
loop_
 _symmetry_equiv_pos_site_id
 _symmetry_equiv_pos_as_xyz
  1  'x, y, z'
loop_
 _atom_site_type_symbol
 _atom_site_label
 _atom_site_symmetry_multiplicity
 _atom_site_fract_x
 _atom_site_fract_y
 _atom_site_fract_z
 _atom_site_occupancy
  Dy  Dy0  1  0.975998  0.387188  0.500000  1
  Dy  Dy1  1  0.612812  0.588810  0.500000  1
  Dy  Dy2  1  0.411190  0.024002  0.500000  1
  Co  Co3  1  0.000000  0.000000  0.500000  1
  Sn  Sn4  1  0.995677  0.754307  0.000000  1
  Sn  Sn5  1  0.245693  0.241370  0.000000  1
  Sn  Sn6  1  0.758630  0.004323  0.000000  1
  Hg  Hg7  1  0.333333  0.666667  0.000000  1
  Ir  Ir8  1  0.666667  0.333333  0.000000  1
