# generated using pymatgen
data_Hf9GaRe3W
_symmetry_space_group_name_H-M   'P 1'
_cell_length_a   8.65282700
_cell_length_b   8.65282675
_cell_length_c   8.63232300
_cell_angle_alpha   90.00000000
_cell_angle_beta   90.00000000
_cell_angle_gamma   119.99999712
_symmetry_Int_Tables_number   1
_chemical_formula_structural   Hf9GaRe3W
_chemical_formula_sum   'Hf18 Ga2 Re6 W2'
_cell_volume   559.72454966
_cell_formula_units_Z   2
loop_
 _symmetry_equiv_pos_site_id
 _symmetry_equiv_pos_as_xyz
  1  'x, y, z'
loop_
 _atom_site_type_symbol
 _atom_site_label
 _atom_site_symmetry_multiplicity
 _atom_site_fract_x
 _atom_site_fract_y
 _atom_site_fract_z
 _atom_site_occupancy
  Hf  Hf0  1  0.195241  0.804759  0.453393  1
  Hf  Hf1  1  0.195241  0.390481  0.453393  1
  Hf  Hf2  1  0.609519  0.804759  0.453393  1
  Hf  Hf3  1  0.804759  0.195241  0.546607  1
  Hf  Hf4  1  0.804759  0.609519  0.546607  1
  Hf  Hf5  1  0.390481  0.195241  0.546607  1
  Hf  Hf6  1  0.804759  0.195241  0.953393  1
  Hf  Hf7  1  0.804759  0.609519  0.953393  1
  Hf  Hf8  1  0.390481  0.195241  0.953393  1
  Hf  Hf9  1  0.195241  0.804759  0.046607  1
  Hf  Hf10  1  0.195241  0.390481  0.046607  1
  Hf  Hf11  1  0.609519  0.804759  0.046607  1
  Hf  Hf12  1  0.539953  0.460047  0.250000  1
  Hf  Hf13  1  0.539953  0.079904  0.250000  1
  Hf  Hf14  1  0.920096  0.460047  0.250000  1
  Hf  Hf15  1  0.460047  0.539953  0.750000  1
  Hf  Hf16  1  0.460047  0.920096  0.750000  1
  Hf  Hf17  1  0.079904  0.539953  0.750000  1
  Ga  Ga18  1  0.333333  0.666667  0.250000  1
  Ga  Ga19  1  0.666667  0.333333  0.750000  1
  Re  Re20  1  0.889467  0.110533  0.250000  1
  Re  Re21  1  0.889467  0.778934  0.250000  1
  Re  Re22  1  0.221066  0.110533  0.250000  1
  Re  Re23  1  0.110533  0.889467  0.750000  1
  Re  Re24  1  0.110533  0.221066  0.750000  1
  Re  Re25  1  0.778934  0.889467  0.750000  1
  W  W26  1  0.000000  0.000000  0.500000  1
  W  W27  1  0.000000  0.000000  0.000000  1
