# generated using pymatgen
data_HoLu3Zr4F28
_symmetry_space_group_name_H-M   'P 1'
_cell_length_a   5.67917918
_cell_length_b   8.98116722
_cell_length_c   12.09248845
_cell_angle_alpha   62.55634110
_cell_angle_beta   89.98296907
_cell_angle_gamma   90.03580909
_symmetry_Int_Tables_number   1
_chemical_formula_structural   HoLu3Zr4F28
_chemical_formula_sum   'Ho1 Lu3 Zr4 F28'
_cell_volume   547.37483154
_cell_formula_units_Z   1
loop_
 _symmetry_equiv_pos_site_id
 _symmetry_equiv_pos_as_xyz
  1  'x, y, z'
loop_
 _atom_site_type_symbol
 _atom_site_label
 _atom_site_symmetry_multiplicity
 _atom_site_fract_x
 _atom_site_fract_y
 _atom_site_fract_z
 _atom_site_occupancy
  Ho  Ho0  1  0.756712  0.818093  0.765930  1
  Lu  Lu1  1  0.743679  0.818711  0.265834  1
  Lu  Lu2  1  0.243677  0.182662  0.234213  1
  Lu  Lu3  1  0.257462  0.184410  0.733998  1
  Zr  Zr4  1  0.743953  0.276329  0.453573  1
  Zr  Zr5  1  0.244234  0.725223  0.047548  1
  Zr  Zr6  1  0.255090  0.725323  0.543154  1
  Zr  Zr7  1  0.755619  0.272693  0.955598  1
  F  F8  1  0.467081  0.710263  0.921547  1
  F  F9  1  0.969632  0.288931  0.579592  1
  F  F10  1  0.529119  0.287738  0.080504  1
  F  F11  1  0.029180  0.710729  0.417967  1
  F  F12  1  0.449645  0.279893  0.551410  1
  F  F13  1  0.949782  0.718675  0.951847  1
  F  F14  1  0.551465  0.720886  0.446887  1
  F  F15  1  0.049792  0.278123  0.053028  1
  F  F16  1  0.769459  0.526155  0.857699  1
  F  F17  1  0.268207  0.470924  0.641990  1
  F  F18  1  0.233545  0.470598  0.144580  1
  F  F19  1  0.732111  0.530176  0.355530  1
  F  F20  1  0.759531  0.018577  0.060173  1
  F  F21  1  0.259052  0.979549  0.439407  1
  F  F22  1  0.240144  0.978817  0.941023  1
  F  F23  1  0.739792  0.022267  0.557374  1
  F  F24  1  0.981172  0.733095  0.648862  1
  F  F25  1  0.481612  0.265623  0.848852  1
  F  F26  1  0.015722  0.264991  0.347013  1
  F  F27  1  0.517099  0.735150  0.153841  1
  F  F28  1  0.029910  0.747448  0.176458  1
  F  F29  1  0.528405  0.253117  0.325150  1
  F  F30  1  0.970685  0.251242  0.826331  1
  F  F31  1  0.466060  0.745615  0.673360  1
  F  F32  1  0.433094  0.975832  0.235832  1
  F  F33  1  0.933290  0.025130  0.264299  1
  F  F34  1  0.569273  0.030702  0.765075  1
  F  F35  1  0.075717  0.976306  0.734519  1
