# generated using pymatgen
data_TaReMoS6
_symmetry_space_group_name_H-M   'P 1'
_cell_length_a   5.55899899
_cell_length_b   5.55882515
_cell_length_c   6.59798016
_cell_angle_alpha   81.97213980
_cell_angle_beta   81.95074568
_cell_angle_gamma   119.98229969
_symmetry_Int_Tables_number   1
_chemical_formula_structural   TaReMoS6
_chemical_formula_sum   'Ta1 Re1 Mo1 S6'
_cell_volume   169.55948570
_cell_formula_units_Z   1
loop_
 _symmetry_equiv_pos_site_id
 _symmetry_equiv_pos_as_xyz
  1  'x, y, z'
loop_
 _atom_site_type_symbol
 _atom_site_label
 _atom_site_symmetry_multiplicity
 _atom_site_fract_x
 _atom_site_fract_y
 _atom_site_fract_z
 _atom_site_occupancy
  Ta  Ta0  1  0.499890  0.833278  0.499869  1
  Re  Re1  1  0.833320  0.500014  0.500014  1
  Mo  Mo2  1  0.166813  0.166752  0.499795  1
  S  S3  1  0.585472  0.257183  0.252940  1
  S  S4  1  0.240444  0.576976  0.252640  1
  S  S5  1  0.920611  0.912318  0.252784  1
  S  S6  1  0.756444  0.748144  0.747330  1
  S  S7  1  0.421187  0.093113  0.747501  1
  S  S8  1  0.075723  0.412126  0.747426  1
