# generated using pymatgen
data_Tm20(Ir3Rh)3
_symmetry_space_group_name_H-M   'P 1'
_cell_length_a   10.73176700
_cell_length_b   10.73176700
_cell_length_c   6.32206800
_cell_angle_alpha   90.00000000
_cell_angle_beta   90.00000000
_cell_angle_gamma   90.00000000
_symmetry_Int_Tables_number   1
_chemical_formula_structural   Tm20(Ir3Rh)3
_chemical_formula_sum   'Tm20 Ir9 Rh3'
_cell_volume   728.11777426
_cell_formula_units_Z   1
loop_
 _symmetry_equiv_pos_site_id
 _symmetry_equiv_pos_as_xyz
  1  'x, y, z'
loop_
 _atom_site_type_symbol
 _atom_site_label
 _atom_site_symmetry_multiplicity
 _atom_site_fract_x
 _atom_site_fract_y
 _atom_site_fract_z
 _atom_site_occupancy
  Tm  Tm0  1  0.290573  0.088032  0.377644  1
  Tm  Tm1  1  0.290532  0.911809  0.877544  1
  Tm  Tm2  1  0.709468  0.088191  0.877544  1
  Tm  Tm3  1  0.709427  0.911968  0.377644  1
  Tm  Tm4  1  0.588191  0.790532  0.877544  1
  Tm  Tm5  1  0.588032  0.209427  0.377644  1
  Tm  Tm6  1  0.411968  0.790573  0.377644  1
  Tm  Tm7  1  0.411809  0.209468  0.877544  1
  Tm  Tm8  1  0.208783  0.412076  0.621500  1
  Tm  Tm9  1  0.208996  0.588096  0.123531  1
  Tm  Tm10  1  0.791004  0.411904  0.123531  1
  Tm  Tm11  1  0.791217  0.587924  0.621500  1
  Tm  Tm12  1  0.911904  0.708996  0.123531  1
  Tm  Tm13  1  0.912076  0.291217  0.621500  1
  Tm  Tm14  1  0.087924  0.708783  0.621500  1
  Tm  Tm15  1  0.088096  0.291004  0.123531  1
  Tm  Tm16  1  0.000000  0.000000  0.500256  1
  Tm  Tm17  1  0.000000  0.000000  0.000111  1
  Tm  Tm18  1  0.500000  0.500000  0.000111  1
  Tm  Tm19  1  0.500000  0.500000  0.500256  1
  Ir  Ir20  1  0.845699  0.153449  0.249686  1
  Ir  Ir21  1  0.845810  0.846399  0.749948  1
  Ir  Ir22  1  0.154190  0.153601  0.749948  1
  Ir  Ir23  1  0.154301  0.846551  0.249686  1
  Ir  Ir24  1  0.653601  0.345810  0.749948  1
  Ir  Ir25  1  0.653449  0.654301  0.249686  1
  Ir  Ir26  1  0.346551  0.345699  0.249686  1
  Ir  Ir27  1  0.346399  0.654190  0.749948  1
  Ir  Ir28  1  0.000000  0.500000  0.377234  1
  Rh  Rh29  1  0.500000  0.000000  0.122406  1
  Rh  Rh30  1  0.500000  0.000000  0.622428  1
  Rh  Rh31  1  0.000000  0.500000  0.877785  1
