# generated using pymatgen
data_Os3PtPb4O13
_symmetry_space_group_name_H-M   'P 1'
_cell_length_a   7.40981919
_cell_length_b   7.38853848
_cell_length_c   7.40982000
_cell_angle_alpha   59.90468216
_cell_angle_beta   60.00000531
_cell_angle_gamma   59.90467779
_symmetry_Int_Tables_number   1
_chemical_formula_structural   Os3PtPb4O13
_chemical_formula_sum   'Os3 Pt1 Pb4 O13'
_cell_volume   286.43864328
_cell_formula_units_Z   1
loop_
 _symmetry_equiv_pos_site_id
 _symmetry_equiv_pos_as_xyz
  1  'x, y, z'
loop_
 _atom_site_type_symbol
 _atom_site_label
 _atom_site_symmetry_multiplicity
 _atom_site_fract_x
 _atom_site_fract_y
 _atom_site_fract_z
 _atom_site_occupancy
  Os  Os0  1  0.872561  0.878744  0.376133  1
  Os  Os1  1  0.872561  0.878744  0.872561  1
  Os  Os2  1  0.376133  0.878744  0.872561  1
  Pt  Pt3  1  0.873654  0.379037  0.873654  1
  Pb  Pb4  1  0.879979  0.379646  0.370188  1
  Pb  Pb5  1  0.370188  0.379646  0.370188  1
  Pb  Pb6  1  0.370188  0.379646  0.879979  1
  Pb  Pb7  1  0.372483  0.882553  0.372483  1
  O  O8  1  0.197792  0.809765  0.794649  1
  O  O9  1  0.197792  0.809765  0.197792  1
  O  O10  1  0.565796  0.924300  0.944109  1
  O  O11  1  0.565796  0.924300  0.565796  1
  O  O12  1  0.944109  0.924300  0.565796  1
  O  O13  1  0.794649  0.809765  0.197792  1
  O  O14  1  0.539853  0.554089  0.953029  1
  O  O15  1  0.796398  0.198853  0.796398  1
  O  O16  1  0.796398  0.198853  0.208350  1
  O  O17  1  0.953029  0.554089  0.953029  1
  O  O18  1  0.953029  0.554089  0.539853  1
  O  O19  1  0.208350  0.198853  0.796398  1
  O  O20  1  0.499261  0.502217  0.499261  1
