# generated using pymatgen
data_Tb12Co3NiOsPb
_symmetry_space_group_name_H-M   'P 1'
_cell_length_a   8.36144404
_cell_length_b   8.36186569
_cell_length_c   8.36173253
_cell_angle_alpha   111.45119963
_cell_angle_beta   109.89932937
_cell_angle_gamma   107.09271480
_symmetry_Int_Tables_number   1
_chemical_formula_structural   Tb12Co3NiOsPb
_chemical_formula_sum   'Tb12 Co3 Ni1 Os1 Pb1'
_cell_volume   449.38456380
_cell_formula_units_Z   1
loop_
 _symmetry_equiv_pos_site_id
 _symmetry_equiv_pos_as_xyz
  1  'x, y, z'
loop_
 _atom_site_type_symbol
 _atom_site_label
 _atom_site_symmetry_multiplicity
 _atom_site_fract_x
 _atom_site_fract_y
 _atom_site_fract_z
 _atom_site_occupancy
  Tb  Tb0  1  0.822855  0.714569  0.537427  1
  Tb  Tb1  1  0.180366  0.282856  0.463233  1
  Tb  Tb2  1  0.180392  0.717143  0.897546  1
  Tb  Tb3  1  0.822830  0.285417  0.108250  1
  Tb  Tb4  1  0.679829  0.371949  0.687571  1
  Tb  Tb5  1  0.315616  0.628056  0.307843  1
  Tb  Tb6  1  0.679796  0.992265  0.307871  1
  Tb  Tb7  1  0.315642  0.007769  0.687567  1
  Tb  Tb8  1  0.590569  0.782368  0.808197  1
  Tb  Tb9  1  0.407864  0.216946  0.190914  1
  Tb  Tb10  1  0.973970  0.783044  0.190920  1
  Tb  Tb11  1  0.025823  0.217636  0.808192  1
  Co  Co12  1  0.362496  0.000010  0.362496  1
  Co  Co13  1  0.115402  0.612289  0.503125  1
  Co  Co14  1  0.890804  0.387693  0.503102  1
  Ni  Ni15  1  0.635016  0.999987  0.635012  1
  Os  Os16  1  0.999691  0.000001  0.999693  1
  Pb  Pb17  1  0.501041  0.500000  0.001038  1
