# generated using pymatgen
data_Tm8Ti3Re6Si16W3
_symmetry_space_group_name_H-M   'P 1'
_cell_length_a   6.79953251
_cell_length_b   6.79513008
_cell_length_c   12.78846696
_cell_angle_alpha   90.79000937
_cell_angle_beta   89.27550519
_cell_angle_gamma   89.63249972
_symmetry_Int_Tables_number   1
_chemical_formula_structural   Tm8Ti3Re6Si16W3
_chemical_formula_sum   'Tm8 Ti3 Re6 Si16 W3'
_cell_volume   590.75836578
_cell_formula_units_Z   1
loop_
 _symmetry_equiv_pos_site_id
 _symmetry_equiv_pos_as_xyz
  1  'x, y, z'
loop_
 _atom_site_type_symbol
 _atom_site_label
 _atom_site_symmetry_multiplicity
 _atom_site_fract_x
 _atom_site_fract_y
 _atom_site_fract_z
 _atom_site_occupancy
  Tm  Tm0  1  0.998847  0.663907  0.030371  1
  Tm  Tm1  1  0.997676  0.340585  0.527832  1
  Tm  Tm2  1  0.664087  0.999493  0.970295  1
  Tm  Tm3  1  0.170166  0.496151  0.780305  1
  Tm  Tm4  1  0.830101  0.509632  0.283722  1
  Tm  Tm5  1  0.494928  0.169645  0.220362  1
  Tm  Tm6  1  0.508674  0.829034  0.715917  1
  Tm  Tm7  1  0.340001  0.998655  0.471668  1
  Ti  Ti8  1  0.837328  0.159715  0.747096  1
  Ti  Ti9  1  0.161031  0.836919  0.253249  1
  Ti  Ti10  1  0.333331  0.332421  0.000015  1
  Re  Re11  1  0.307228  0.522950  0.366185  1
  Re  Re12  1  0.819207  0.022857  0.363458  1
  Re  Re13  1  0.003434  0.167338  0.123083  1
  Re  Re14  1  0.021146  0.819484  0.636717  1
  Re  Re15  1  0.523838  0.308462  0.632515  1
  Re  Re16  1  0.665430  0.664921  0.499582  1
  Si  Si17  1  0.015944  0.736757  0.444436  1
  Si  Si18  1  0.963279  0.292450  0.935576  1
  Si  Si19  1  0.735984  0.015883  0.555776  1
  Si  Si20  1  0.200266  0.466717  0.182837  1
  Si  Si21  1  0.796709  0.532874  0.686617  1
  Si  Si22  1  0.467470  0.199695  0.816240  1
  Si  Si23  1  0.534951  0.795995  0.314202  1
  Si  Si24  1  0.291032  0.963673  0.064348  1
  Si  Si25  1  0.796999  0.877770  0.180645  1
  Si  Si26  1  0.315312  0.601739  0.561617  1
  Si  Si27  1  0.702470  0.371957  0.068109  1
  Si  Si28  1  0.601587  0.316016  0.437592  1
  Si  Si29  1  0.372368  0.701655  0.932996  1
  Si  Si30  1  0.121864  0.207374  0.317145  1
  Si  Si31  1  0.209153  0.121844  0.682417  1
  Si  Si32  1  0.873610  0.793918  0.819760  1
  W  W33  1  0.164342  0.002213  0.875882  1
  W  W34  1  0.496163  0.664941  0.124132  1
  W  W35  1  0.664046  0.494360  0.877305  1
