# generated using pymatgen
data_Ca20Hg3PbAu8
_symmetry_space_group_name_H-M   'P 1'
_cell_length_a   8.07183100
_cell_length_b   8.07183100
_cell_length_c   14.81979200
_cell_angle_alpha   90.00000000
_cell_angle_beta   90.00000000
_cell_angle_gamma   90.00000000
_symmetry_Int_Tables_number   1
_chemical_formula_structural   Ca20Hg3PbAu8
_chemical_formula_sum   'Ca20 Hg3 Pb1 Au8'
_cell_volume   965.57548124
_cell_formula_units_Z   1
loop_
 _symmetry_equiv_pos_site_id
 _symmetry_equiv_pos_as_xyz
  1  'x, y, z'
loop_
 _atom_site_type_symbol
 _atom_site_label
 _atom_site_symmetry_multiplicity
 _atom_site_fract_x
 _atom_site_fract_y
 _atom_site_fract_z
 _atom_site_occupancy
  Ca  Ca0  1  0.667525  0.167448  0.109067  1
  Ca  Ca1  1  0.168022  0.667542  0.610178  1
  Ca  Ca2  1  0.332475  0.832552  0.109067  1
  Ca  Ca3  1  0.831978  0.332458  0.610178  1
  Ca  Ca4  1  0.832552  0.667525  0.109067  1
  Ca  Ca5  1  0.332458  0.168022  0.610178  1
  Ca  Ca6  1  0.167448  0.332475  0.109067  1
  Ca  Ca7  1  0.667542  0.831978  0.610178  1
  Ca  Ca8  1  0.832552  0.332475  0.890933  1
  Ca  Ca9  1  0.332458  0.831978  0.389822  1
  Ca  Ca10  1  0.167448  0.667525  0.890933  1
  Ca  Ca11  1  0.667542  0.168022  0.389822  1
  Ca  Ca12  1  0.667525  0.832552  0.890933  1
  Ca  Ca13  1  0.168022  0.332458  0.389822  1
  Ca  Ca14  1  0.332475  0.167448  0.890933  1
  Ca  Ca15  1  0.831978  0.667542  0.389822  1
  Ca  Ca16  1  0.500000  0.500000  0.752311  1
  Ca  Ca17  1  0.000000  0.000000  0.247612  1
  Ca  Ca18  1  0.000000  0.000000  0.752388  1
  Ca  Ca19  1  0.500000  0.500000  0.247689  1
  Hg  Hg20  1  0.500000  0.500000  0.500000  1
  Hg  Hg21  1  0.500000  0.500000  0.000000  1
  Hg  Hg22  1  0.000000  0.000000  0.500000  1
  Pb  Pb23  1  0.000000  0.000000  0.000000  1
  Au  Au24  1  0.629368  0.130332  0.749876  1
  Au  Au25  1  0.130332  0.629368  0.250124  1
  Au  Au26  1  0.869668  0.370632  0.250124  1
  Au  Au27  1  0.370632  0.869668  0.749876  1
  Au  Au28  1  0.869668  0.629368  0.749876  1
  Au  Au29  1  0.370632  0.130332  0.250124  1
  Au  Au30  1  0.130332  0.370632  0.749876  1
  Au  Au31  1  0.629368  0.869668  0.250124  1
