# generated using pymatgen
data_Tb7Pa(ReB6)4
_symmetry_space_group_name_H-M   'P 1'
_cell_length_a   3.71078300
_cell_length_b   9.20831805
_cell_length_c   11.58058697
_cell_angle_alpha   90.19246584
_cell_angle_beta   90.00000000
_cell_angle_gamma   90.00000000
_symmetry_Int_Tables_number   1
_chemical_formula_structural   Tb7Pa(ReB6)4
_chemical_formula_sum   'Tb7 Pa1 Re4 B24'
_cell_volume   395.70723598
_cell_formula_units_Z   1
loop_
 _symmetry_equiv_pos_site_id
 _symmetry_equiv_pos_as_xyz
  1  'x, y, z'
loop_
 _atom_site_type_symbol
 _atom_site_label
 _atom_site_symmetry_multiplicity
 _atom_site_fract_x
 _atom_site_fract_y
 _atom_site_fract_z
 _atom_site_occupancy
  Tb  Tb0  1  0.000000  0.678308  0.586825  1
  Tb  Tb1  1  0.000000  0.823871  0.085753  1
  Tb  Tb2  1  0.000000  0.175724  0.913428  1
  Tb  Tb3  1  0.000000  0.942312  0.371918  1
  Tb  Tb4  1  0.000000  0.055647  0.628903  1
  Tb  Tb5  1  0.000000  0.443098  0.127627  1
  Tb  Tb6  1  0.000000  0.557423  0.870003  1
  Pa  Pa7  1  0.000000  0.323653  0.413764  1
  Re  Re8  1  0.000000  0.634655  0.322299  1
  Re  Re9  1  0.000000  0.362410  0.675498  1
  Re  Re10  1  0.000000  0.140760  0.181904  1
  Re  Re11  1  0.000000  0.862310  0.821336  1
  B  B12  1  0.500000  0.551938  0.431921  1
  B  B13  1  0.500000  0.445740  0.566636  1
  B  B14  1  0.500000  0.053885  0.068153  1
  B  B15  1  0.500000  0.947307  0.933438  1
  B  B16  1  0.500000  0.747125  0.418649  1
  B  B17  1  0.500000  0.252162  0.580470  1
  B  B18  1  0.500000  0.247697  0.081325  1
  B  B19  1  0.500000  0.752323  0.918834  1
  B  B20  1  0.500000  0.790393  0.266732  1
  B  B21  1  0.500000  0.209028  0.733662  1
  B  B22  1  0.500000  0.291389  0.234546  1
  B  B23  1  0.500000  0.709061  0.766172  1
  B  B24  1  0.500000  0.631106  0.185761  1
  B  B25  1  0.500000  0.369315  0.812976  1
  B  B26  1  0.500000  0.132696  0.314697  1
  B  B27  1  0.500000  0.868513  0.686670  1
  B  B28  1  0.500000  0.983459  0.212697  1
  B  B29  1  0.500000  0.017171  0.788168  1
  B  B30  1  0.500000  0.482747  0.287754  1
  B  B31  1  0.500000  0.517063  0.712221  1
  B  B32  1  0.500000  0.603012  0.028360  1
  B  B33  1  0.500000  0.397165  0.970308  1
  B  B34  1  0.500000  0.108218  0.470062  1
  B  B35  1  0.500000  0.891318  0.530528  1
