# generated using pymatgen
data_YHo2(P2Ir3)3
_symmetry_space_group_name_H-M   'P 1'
_cell_length_a   3.97715000
_cell_length_b   11.18628700
_cell_length_c   12.80875300
_cell_angle_alpha   90.00000000
_cell_angle_beta   90.00000000
_cell_angle_gamma   90.00000000
_symmetry_Int_Tables_number   1
_chemical_formula_structural   YHo2(P2Ir3)3
_chemical_formula_sum   'Y2 Ho4 P12 Ir18'
_cell_volume   569.85554613
_cell_formula_units_Z   2
loop_
 _symmetry_equiv_pos_site_id
 _symmetry_equiv_pos_as_xyz
  1  'x, y, z'
loop_
 _atom_site_type_symbol
 _atom_site_label
 _atom_site_symmetry_multiplicity
 _atom_site_fract_x
 _atom_site_fract_y
 _atom_site_fract_z
 _atom_site_occupancy
  Y  Y0  1  0.000000  0.500000  0.522695  1
  Y  Y1  1  0.500000  0.000000  0.477305  1
  Ho  Ho2  1  0.500000  0.815015  0.204132  1
  Ho  Ho3  1  0.500000  0.184985  0.204132  1
  Ho  Ho4  1  0.000000  0.684985  0.795868  1
  Ho  Ho5  1  0.000000  0.315015  0.795868  1
  P  P6  1  0.500000  0.315011  0.618036  1
  P  P7  1  0.500000  0.684989  0.618036  1
  P  P8  1  0.000000  0.184989  0.381964  1
  P  P9  1  0.000000  0.815011  0.381964  1
  P  P10  1  0.500000  0.500000  0.875556  1
  P  P11  1  0.000000  0.000000  0.124444  1
  P  P12  1  0.500000  0.845195  0.893624  1
  P  P13  1  0.500000  0.154805  0.893624  1
  P  P14  1  0.000000  0.654805  0.106376  1
  P  P15  1  0.000000  0.345195  0.106376  1
  P  P16  1  0.500000  0.500000  0.359638  1
  P  P17  1  0.000000  0.000000  0.640362  1
  Ir  Ir18  1  0.000000  0.500000  0.970593  1
  Ir  Ir19  1  0.500000  0.000000  0.029407  1
  Ir  Ir20  1  0.500000  0.294365  0.430034  1
  Ir  Ir21  1  0.500000  0.705635  0.430034  1
  Ir  Ir22  1  0.000000  0.205635  0.569966  1
  Ir  Ir23  1  0.000000  0.794365  0.569966  1
  Ir  Ir24  1  0.500000  0.869157  0.714036  1
  Ir  Ir25  1  0.500000  0.130843  0.714036  1
  Ir  Ir26  1  0.000000  0.630843  0.285964  1
  Ir  Ir27  1  0.000000  0.369157  0.285964  1
  Ir  Ir28  1  0.500000  0.336609  0.001830  1
  Ir  Ir29  1  0.500000  0.663391  0.001830  1
  Ir  Ir30  1  0.000000  0.163391  0.998170  1
  Ir  Ir31  1  0.000000  0.836609  0.998170  1
  Ir  Ir32  1  0.500000  0.500000  0.181571  1
  Ir  Ir33  1  0.000000  0.000000  0.818429  1
  Ir  Ir34  1  0.500000  0.500000  0.699776  1
  Ir  Ir35  1  0.000000  0.000000  0.300224  1
