# generated using pymatgen
data_Lu8Sc4InGaCo4
_symmetry_space_group_name_H-M   'P 1'
_cell_length_a   8.01601931
_cell_length_b   8.01601096
_cell_length_c   8.01602037
_cell_angle_alpha   111.01381593
_cell_angle_beta   110.82527321
_cell_angle_gamma   106.61195799
_symmetry_Int_Tables_number   1
_chemical_formula_structural   Lu8Sc4InGaCo4
_chemical_formula_sum   'Lu8 Sc4 In1 Ga1 Co4'
_cell_volume   395.77259049
_cell_formula_units_Z   1
loop_
 _symmetry_equiv_pos_site_id
 _symmetry_equiv_pos_as_xyz
  1  'x, y, z'
loop_
 _atom_site_type_symbol
 _atom_site_label
 _atom_site_symmetry_multiplicity
 _atom_site_fract_x
 _atom_site_fract_y
 _atom_site_fract_z
 _atom_site_occupancy
  Lu  Lu0  1  0.189701  0.286150  0.475854  1
  Lu  Lu1  1  0.810299  0.713850  0.524146  1
  Lu  Lu2  1  0.189704  0.713850  0.903552  1
  Lu  Lu3  1  0.810296  0.286150  0.096448  1
  Lu  Lu4  1  0.313245  0.613790  0.300544  1
  Lu  Lu5  1  0.686755  0.386210  0.699456  1
  Lu  Lu6  1  0.313246  0.012702  0.699456  1
  Lu  Lu7  1  0.686754  0.987298  0.300544  1
  Sc  Sc8  1  0.431189  0.224371  0.206822  1
  Sc  Sc9  1  0.568811  0.775629  0.793178  1
  Sc  Sc10  1  0.017549  0.224371  0.793180  1
  Sc  Sc11  1  0.982451  0.775629  0.206820  1
  In  In12  1  0.500000  0.500000  0.000000  1
  Ga  Ga13  1  0.000000  0.000000  0.000000  1
  Co  Co14  1  0.369957  0.000000  0.369957  1
  Co  Co15  1  0.630043  0.000000  0.630043  1
  Co  Co16  1  0.115163  0.615163  0.500000  1
  Co  Co17  1  0.884837  0.384837  0.500000  1
