# generated using pymatgen
data_Yb3Pr(Ga2Ag)4
_symmetry_space_group_name_H-M   'P 1'
_cell_length_a   4.37641700
_cell_length_b   7.01408406
_cell_length_c   10.50261652
_cell_angle_alpha   90.13738436
_cell_angle_beta   90.00000000
_cell_angle_gamma   90.00000000
_symmetry_Int_Tables_number   1
_chemical_formula_structural   Yb3Pr(Ga2Ag)4
_chemical_formula_sum   'Yb3 Pr1 Ga8 Ag4'
_cell_volume   322.39323690
_cell_formula_units_Z   1
loop_
 _symmetry_equiv_pos_site_id
 _symmetry_equiv_pos_as_xyz
  1  'x, y, z'
loop_
 _atom_site_type_symbol
 _atom_site_label
 _atom_site_symmetry_multiplicity
 _atom_site_fract_x
 _atom_site_fract_y
 _atom_site_fract_z
 _atom_site_occupancy
  Yb  Yb0  1  0.750000  0.225202  0.173108  1
  Yb  Yb1  1  0.750000  0.724455  0.327905  1
  Yb  Yb2  1  0.250000  0.275191  0.668792  1
  Pr  Pr3  1  0.250000  0.779596  0.827409  1
  Ga  Ga4  1  0.250000  0.698027  0.531357  1
  Ga  Ga5  1  0.750000  0.300459  0.464888  1
  Ga  Ga6  1  0.750000  0.796935  0.039200  1
  Ga  Ga7  1  0.250000  0.205349  0.966342  1
  Ga  Ga8  1  0.250000  0.924729  0.150161  1
  Ga  Ga9  1  0.750000  0.080531  0.849473  1
  Ga  Ga10  1  0.750000  0.570369  0.648490  1
  Ga  Ga11  1  0.250000  0.425904  0.348537  1
  Ag  Ag12  1  0.250000  0.537032  0.103853  1
  Ag  Ag13  1  0.750000  0.455714  0.902670  1
  Ag  Ag14  1  0.750000  0.960307  0.597733  1
  Ag  Ag15  1  0.250000  0.040199  0.400080  1
