# generated using pymatgen
data_TbDy15Cd4Co3Os
_symmetry_space_group_name_H-M   'P 1'
_cell_length_a   9.52072257
_cell_length_b   9.51534787
_cell_length_c   9.57364210
_cell_angle_alpha   60.13670186
_cell_angle_beta   60.18268372
_cell_angle_gamma   59.98131595
_symmetry_Int_Tables_number   1
_chemical_formula_structural   TbDy15Cd4Co3Os
_chemical_formula_sum   'Tb1 Dy15 Cd4 Co3 Os1'
_cell_volume   614.66579847
_cell_formula_units_Z   1
loop_
 _symmetry_equiv_pos_site_id
 _symmetry_equiv_pos_as_xyz
  1  'x, y, z'
loop_
 _atom_site_type_symbol
 _atom_site_label
 _atom_site_symmetry_multiplicity
 _atom_site_fract_x
 _atom_site_fract_y
 _atom_site_fract_z
 _atom_site_occupancy
  Tb  Tb0  1  0.150274  0.541091  0.158361  1
  Dy  Dy1  1  0.691769  0.312332  0.685076  1
  Dy  Dy2  1  0.688390  0.312535  0.310685  1
  Dy  Dy3  1  0.937405  0.562715  0.562474  1
  Dy  Dy4  1  0.539838  0.150409  0.158599  1
  Dy  Dy5  1  0.154600  0.153090  0.537707  1
  Dy  Dy6  1  0.937313  0.937463  0.562089  1
  Dy  Dy7  1  0.311941  0.689202  0.311033  1
  Dy  Dy8  1  0.560098  0.943877  0.935928  1
  Dy  Dy9  1  0.563134  0.937463  0.562089  1
  Dy  Dy10  1  0.687824  0.689202  0.311033  1
  Dy  Dy11  1  0.560149  0.559701  0.936406  1
  Dy  Dy12  1  0.943744  0.559701  0.936406  1
  Dy  Dy13  1  0.311714  0.692142  0.684430  1
  Dy  Dy14  1  0.151153  0.150409  0.158599  1
  Dy  Dy15  1  0.310823  0.312332  0.685076  1
  Cd  Cd16  1  0.919525  0.242033  0.918918  1
  Cd  Cd17  1  0.919672  0.919983  0.919032  1
  Cd  Cd18  1  0.919009  0.919680  0.242304  1
  Cd  Cd19  1  0.241314  0.919983  0.919032  1
  Co  Co20  1  0.359311  0.920806  0.360573  1
  Co  Co21  1  0.920787  0.358038  0.361071  1
  Co  Co22  1  0.360104  0.358038  0.361071  1
  Os  Os23  1  0.360108  0.357774  0.922011  1
