# generated using pymatgen
data_CaHoLu2(B6Ru)2
_symmetry_space_group_name_H-M   'P 1'
_cell_length_a   3.61393500
_cell_length_b   9.08523915
_cell_length_c   11.48554606
_cell_angle_alpha   89.84430565
_cell_angle_beta   90.00000000
_cell_angle_gamma   90.00000000
_symmetry_Int_Tables_number   1
_chemical_formula_structural   CaHoLu2(B6Ru)2
_chemical_formula_sum   'Ca2 Ho2 Lu4 B24 Ru4'
_cell_volume   377.10886774
_cell_formula_units_Z   2
loop_
 _symmetry_equiv_pos_site_id
 _symmetry_equiv_pos_as_xyz
  1  'x, y, z'
loop_
 _atom_site_type_symbol
 _atom_site_label
 _atom_site_symmetry_multiplicity
 _atom_site_fract_x
 _atom_site_fract_y
 _atom_site_fract_z
 _atom_site_occupancy
  Ca  Ca0  1  0.000000  0.323577  0.415023  1
  Ca  Ca1  1  0.000000  0.676423  0.584977  1
  Ho  Ho2  1  0.000000  0.821894  0.085968  1
  Ho  Ho3  1  0.000000  0.178106  0.914032  1
  Lu  Lu4  1  0.000000  0.942107  0.369687  1
  Lu  Lu5  1  0.000000  0.057893  0.630313  1
  Lu  Lu6  1  0.000000  0.442924  0.130248  1
  Lu  Lu7  1  0.000000  0.557076  0.869752  1
  B  B8  1  0.500000  0.554623  0.431715  1
  B  B9  1  0.500000  0.445377  0.568285  1
  B  B10  1  0.500000  0.054047  0.066684  1
  B  B11  1  0.500000  0.945953  0.933316  1
  B  B12  1  0.500000  0.749564  0.416993  1
  B  B13  1  0.500000  0.250436  0.583007  1
  B  B14  1  0.500000  0.249668  0.081173  1
  B  B15  1  0.500000  0.750332  0.918827  1
  B  B16  1  0.500000  0.792151  0.263785  1
  B  B17  1  0.500000  0.207849  0.736215  1
  B  B18  1  0.500000  0.290860  0.234004  1
  B  B19  1  0.500000  0.709140  0.765996  1
  B  B20  1  0.500000  0.630762  0.183977  1
  B  B21  1  0.500000  0.369238  0.816023  1
  B  B22  1  0.500000  0.129764  0.314213  1
  B  B23  1  0.500000  0.870236  0.685787  1
  B  B24  1  0.500000  0.982560  0.211782  1
  B  B25  1  0.500000  0.017440  0.788218  1
  B  B26  1  0.500000  0.483589  0.286982  1
  B  B27  1  0.500000  0.516411  0.713018  1
  B  B28  1  0.500000  0.601354  0.027658  1
  B  B29  1  0.500000  0.398646  0.972342  1
  B  B30  1  0.500000  0.097401  0.473282  1
  B  B31  1  0.500000  0.902599  0.526718  1
  Ru  Ru32  1  0.000000  0.640883  0.316933  1
  Ru  Ru33  1  0.000000  0.359117  0.683067  1
  Ru  Ru34  1  0.000000  0.137430  0.178263  1
  Ru  Ru35  1  0.000000  0.862570  0.821737  1
