# generated using pymatgen
data_Tb4Dy4Sc12Si15Ru
_symmetry_space_group_name_H-M   'P 1'
_cell_length_a   7.08097150
_cell_length_b   7.44482944
_cell_length_c   13.94480401
_cell_angle_alpha   90.00149009
_cell_angle_beta   90.00487267
_cell_angle_gamma   90.14763072
_symmetry_Int_Tables_number   1
_chemical_formula_structural   Tb4Dy4Sc12Si15Ru
_chemical_formula_sum   'Tb4 Dy4 Sc12 Si15 Ru1'
_cell_volume   735.12056157
_cell_formula_units_Z   1
loop_
 _symmetry_equiv_pos_site_id
 _symmetry_equiv_pos_as_xyz
  1  'x, y, z'
loop_
 _atom_site_type_symbol
 _atom_site_label
 _atom_site_symmetry_multiplicity
 _atom_site_fract_x
 _atom_site_fract_y
 _atom_site_fract_z
 _atom_site_occupancy
  Tb  Tb0  1  0.511107  0.323248  0.095898  1
  Tb  Tb1  1  0.011180  0.178242  0.404172  1
  Tb  Tb2  1  0.511049  0.323244  0.404014  1
  Tb  Tb3  1  0.489054  0.676205  0.595786  1
  Dy  Dy4  1  0.011292  0.178457  0.095996  1
  Dy  Dy5  1  0.991024  0.826812  0.904109  1
  Dy  Dy6  1  0.488971  0.676469  0.904045  1
  Dy  Dy7  1  0.990992  0.826831  0.595982  1
  Sc  Sc8  1  0.157279  0.501123  0.750025  1
  Sc  Sc9  1  0.838502  0.495488  0.249975  1
  Sc  Sc10  1  0.339047  0.005300  0.249975  1
  Sc  Sc11  1  0.669678  0.999046  0.750021  1
  Sc  Sc12  1  0.316581  0.171641  0.628067  1
  Sc  Sc13  1  0.671917  0.825903  0.374012  1
  Sc  Sc14  1  0.171359  0.677797  0.374069  1
  Sc  Sc15  1  0.671869  0.825824  0.125924  1
  Sc  Sc16  1  0.837087  0.319865  0.627651  1
  Sc  Sc17  1  0.316488  0.171717  0.871992  1
  Sc  Sc18  1  0.837203  0.319760  0.872342  1
  Sc  Sc19  1  0.171386  0.677853  0.125895  1
  Si  Si20  1  0.968545  0.884311  0.249867  1
  Si  Si21  1  0.469179  0.615013  0.249919  1
  Si  Si22  1  0.529284  0.387646  0.750144  1
  Si  Si23  1  0.286417  0.867749  0.750190  1
  Si  Si24  1  0.713425  0.128530  0.249806  1
  Si  Si25  1  0.213763  0.371793  0.249808  1
  Si  Si26  1  0.780041  0.626679  0.750201  1
  Si  Si27  1  0.159071  0.468480  0.537489  1
  Si  Si28  1  0.844875  0.536340  0.461563  1
  Si  Si29  1  0.344947  0.965407  0.460274  1
  Si  Si30  1  0.844811  0.536091  0.038485  1
  Si  Si31  1  0.655630  0.034690  0.538871  1
  Si  Si32  1  0.159455  0.468414  0.962544  1
  Si  Si33  1  0.655663  0.034441  0.961129  1
  Si  Si34  1  0.344586  0.965323  0.039720  1
  Ru  Ru35  1  0.027242  0.108268  0.750038  1
