# generated using pymatgen
data_Gd5Ir4
_symmetry_space_group_name_H-M   'P 1'
_cell_length_a   7.38511800
_cell_length_b   14.72900500
_cell_length_c   7.58658800
_cell_angle_alpha   90.00000000
_cell_angle_beta   90.00000000
_cell_angle_gamma   90.00000000
_symmetry_Int_Tables_number   1
_chemical_formula_structural   Gd5Ir4
_chemical_formula_sum   'Gd20 Ir16'
_cell_volume   825.23444740
_cell_formula_units_Z   4
loop_
 _symmetry_equiv_pos_site_id
 _symmetry_equiv_pos_as_xyz
  1  'x, y, z'
loop_
 _atom_site_type_symbol
 _atom_site_label
 _atom_site_symmetry_multiplicity
 _atom_site_fract_x
 _atom_site_fract_y
 _atom_site_fract_z
 _atom_site_occupancy
  Gd  Gd0  1  0.320481  0.250000  0.990128  1
  Gd  Gd1  1  0.179519  0.750000  0.490127  1
  Gd  Gd2  1  0.820481  0.250000  0.509873  1
  Gd  Gd3  1  0.679518  0.750000  0.009874  1
  Gd  Gd4  1  0.005633  0.091926  0.820912  1
  Gd  Gd5  1  0.494368  0.908073  0.320911  1
  Gd  Gd6  1  0.505632  0.408074  0.679088  1
  Gd  Gd7  1  0.994367  0.591926  0.179088  1
  Gd  Gd8  1  0.994367  0.908073  0.179088  1
  Gd  Gd9  1  0.505632  0.091926  0.679088  1
  Gd  Gd10  1  0.494368  0.591926  0.320911  1
  Gd  Gd11  1  0.005633  0.408074  0.820912  1
  Gd  Gd12  1  0.155029  0.122800  0.327595  1
  Gd  Gd13  1  0.344973  0.877199  0.827597  1
  Gd  Gd14  1  0.655027  0.377200  0.172405  1
  Gd  Gd15  1  0.844973  0.622801  0.672404  1
  Gd  Gd16  1  0.844973  0.877199  0.672404  1
  Gd  Gd17  1  0.655027  0.122800  0.172405  1
  Gd  Gd18  1  0.344973  0.622801  0.827597  1
  Gd  Gd19  1  0.155029  0.377200  0.327595  1
  Ir  Ir20  1  0.179145  0.961615  0.532058  1
  Ir  Ir21  1  0.320857  0.038385  0.032058  1
  Ir  Ir22  1  0.679143  0.538384  0.967943  1
  Ir  Ir23  1  0.820855  0.461615  0.467941  1
  Ir  Ir24  1  0.820855  0.038385  0.467941  1
  Ir  Ir25  1  0.679143  0.961615  0.967943  1
  Ir  Ir26  1  0.320857  0.461615  0.032058  1
  Ir  Ir27  1  0.179145  0.538384  0.532058  1
  Ir  Ir28  1  0.950771  0.250000  0.096818  1
  Ir  Ir29  1  0.549229  0.750000  0.596818  1
  Ir  Ir30  1  0.450771  0.250000  0.403182  1
  Ir  Ir31  1  0.049229  0.750000  0.903181  1
  Ir  Ir32  1  0.191715  0.250000  0.643987  1
  Ir  Ir33  1  0.308286  0.750000  0.143987  1
  Ir  Ir34  1  0.691715  0.250000  0.856012  1
  Ir  Ir35  1  0.808285  0.750000  0.356012  1
