# generated using pymatgen
data_Ti2NbSi2
_symmetry_space_group_name_H-M   'P 1'
_cell_length_a   6.68544779
_cell_length_b   6.68544779
_cell_length_c   3.47711400
_cell_angle_alpha   90.00000000
_cell_angle_beta   90.00000000
_cell_angle_gamma   90.54565103
_symmetry_Int_Tables_number   1
_chemical_formula_structural   Ti2NbSi2
_chemical_formula_sum   'Ti4 Nb2 Si4'
_cell_volume   155.40330057
_cell_formula_units_Z   2
loop_
 _symmetry_equiv_pos_site_id
 _symmetry_equiv_pos_as_xyz
  1  'x, y, z'
loop_
 _atom_site_type_symbol
 _atom_site_label
 _atom_site_symmetry_multiplicity
 _atom_site_fract_x
 _atom_site_fract_y
 _atom_site_fract_z
 _atom_site_occupancy
  Ti  Ti0  1  0.500000  0.500000  0.000000  1
  Ti  Ti1  1  0.000000  0.000000  0.000000  1
  Ti  Ti2  1  0.670783  0.170783  0.500000  1
  Ti  Ti3  1  0.329217  0.829217  0.500000  1
  Nb  Nb4  1  0.171822  0.328178  0.500000  1
  Nb  Nb5  1  0.828178  0.671822  0.500000  1
  Si  Si6  1  0.129800  0.629800  0.000000  1
  Si  Si7  1  0.870200  0.370200  0.000000  1
  Si  Si8  1  0.624856  0.875144  0.000000  1
  Si  Si9  1  0.375144  0.124856  0.000000  1
