# generated using pymatgen
data_YbCePr2(B2Ir5)2
_symmetry_space_group_name_H-M   'P 1'
_cell_length_a   11.12982330
_cell_length_b   11.12982305
_cell_length_c   11.12982483
_cell_angle_alpha   28.70805805
_cell_angle_beta   28.70805900
_cell_angle_gamma   28.70806032
_symmetry_Int_Tables_number   1
_chemical_formula_structural   YbCePr2(B2Ir5)2
_chemical_formula_sum   'Yb1 Ce1 Pr2 B4 Ir10'
_cell_volume   281.24621936
_cell_formula_units_Z   1
loop_
 _symmetry_equiv_pos_site_id
 _symmetry_equiv_pos_as_xyz
  1  'x, y, z'
loop_
 _atom_site_type_symbol
 _atom_site_label
 _atom_site_symmetry_multiplicity
 _atom_site_fract_x
 _atom_site_fract_y
 _atom_site_fract_z
 _atom_site_occupancy
  Yb  Yb0  1  0.152430  0.152430  0.152430  1
  Ce  Ce1  1  0.052081  0.052081  0.052081  1
  Pr  Pr2  1  0.950291  0.950291  0.950291  1
  Pr  Pr3  1  0.847448  0.847448  0.847448  1
  B  B4  1  0.617377  0.617377  0.617377  1
  B  B5  1  0.716247  0.716247  0.716247  1
  B  B6  1  0.381717  0.381717  0.381717  1
  B  B7  1  0.283485  0.283485  0.283485  1
  Ir  Ir8  1  0.407195  0.898699  0.407195  1
  Ir  Ir9  1  0.898699  0.407195  0.407195  1
  Ir  Ir10  1  0.500510  0.500510  0.000166  1
  Ir  Ir11  1  0.500510  0.000166  0.500510  1
  Ir  Ir12  1  0.000166  0.500510  0.500510  1
  Ir  Ir13  1  0.499429  0.499429  0.499429  1
  Ir  Ir14  1  0.591526  0.102169  0.591526  1
  Ir  Ir15  1  0.591526  0.591526  0.102169  1
  Ir  Ir16  1  0.102169  0.591526  0.591526  1
  Ir  Ir17  1  0.407195  0.407195  0.898699  1
