# generated using pymatgen
data_BiIr2O6F
_symmetry_space_group_name_H-M   'P 1'
_cell_length_a   7.22893151
_cell_length_b   7.22893124
_cell_length_c   7.22893154
_cell_angle_alpha   120.44611444
_cell_angle_beta   118.93769371
_cell_angle_gamma   90.53938463
_symmetry_Int_Tables_number   1
_chemical_formula_structural   BiIr2O6F
_chemical_formula_sum   'Bi2 Ir4 O12 F2'
_cell_volume   268.29418256
_cell_formula_units_Z   2
loop_
 _symmetry_equiv_pos_site_id
 _symmetry_equiv_pos_as_xyz
  1  'x, y, z'
loop_
 _atom_site_type_symbol
 _atom_site_label
 _atom_site_symmetry_multiplicity
 _atom_site_fract_x
 _atom_site_fract_y
 _atom_site_fract_z
 _atom_site_occupancy
  Bi  Bi0  1  0.500000  0.500000  0.000000  1
  Bi  Bi1  1  0.000000  0.500000  0.500000  1
  Ir  Ir2  1  0.000000  0.000000  0.000000  1
  Ir  Ir3  1  0.500000  0.000000  0.500000  1
  Ir  Ir4  1  0.500000  0.000000  0.000000  1
  Ir  Ir5  1  0.500000  0.500000  0.500000  1
  O  O6  1  0.193183  0.943183  0.250000  1
  O  O7  1  0.581369  0.331369  0.250000  1
  O  O8  1  0.177075  0.912947  0.848554  1
  O  O9  1  0.564394  0.328521  0.651446  1
  O  O10  1  0.564394  0.912947  0.235873  1
  O  O11  1  0.177075  0.328521  0.264127  1
  O  O12  1  0.806817  0.056817  0.750000  1
  O  O13  1  0.418631  0.668631  0.750000  1
  O  O14  1  0.822925  0.087053  0.151446  1
  O  O15  1  0.435606  0.671479  0.348554  1
  O  O16  1  0.435606  0.087053  0.764127  1
  O  O17  1  0.822925  0.671479  0.735873  1
  F  F18  1  0.877431  0.627431  0.250000  1
  F  F19  1  0.122569  0.372569  0.750000  1
