# generated using pymatgen
data_La7YMgPt6
_symmetry_space_group_name_H-M   'P 1'
_cell_length_a   7.84270778
_cell_length_b   7.84270793
_cell_length_c   7.84270812
_cell_angle_alpha   69.75420559
_cell_angle_beta   69.75421494
_cell_angle_gamma   69.75420660
_symmetry_Int_Tables_number   1
_chemical_formula_structural   La7YMgPt6
_chemical_formula_sum   'La7 Y1 Mg1 Pt6'
_cell_volume   410.35189574
_cell_formula_units_Z   1
loop_
 _symmetry_equiv_pos_site_id
 _symmetry_equiv_pos_as_xyz
  1  'x, y, z'
loop_
 _atom_site_type_symbol
 _atom_site_label
 _atom_site_symmetry_multiplicity
 _atom_site_fract_x
 _atom_site_fract_y
 _atom_site_fract_z
 _atom_site_occupancy
  La  La0  1  0.188333  0.188333  0.188333  1
  La  La1  1  0.318574  0.614201  0.853718  1
  La  La2  1  0.853718  0.318574  0.614201  1
  La  La3  1  0.614201  0.853718  0.318574  1
  La  La4  1  0.683494  0.389739  0.141372  1
  La  La5  1  0.141372  0.683494  0.389739  1
  La  La6  1  0.389739  0.141372  0.683494  1
  Y  Y7  1  0.814385  0.814385  0.814385  1
  Mg  Mg8  1  0.997944  0.997944  0.997944  1
  Pt  Pt9  1  0.170678  0.953955  0.586539  1
  Pt  Pt10  1  0.586539  0.170678  0.953955  1
  Pt  Pt11  1  0.953955  0.586539  0.170678  1
  Pt  Pt12  1  0.822719  0.042114  0.422234  1
  Pt  Pt13  1  0.422234  0.822719  0.042114  1
  Pt  Pt14  1  0.042114  0.422234  0.822719  1
