# generated using pymatgen
data_YbZnCdPt3
_symmetry_space_group_name_H-M   'P 1'
_cell_length_a   5.16956333
_cell_length_b   5.44783467
_cell_length_c   5.44783600
_cell_angle_alpha   60.00000404
_cell_angle_beta   58.20279535
_cell_angle_gamma   58.20280092
_symmetry_Int_Tables_number   1
_chemical_formula_structural   YbZnCdPt3
_chemical_formula_sum   'Yb1 Zn1 Cd1 Pt3'
_cell_volume   105.44815515
_cell_formula_units_Z   1
loop_
 _symmetry_equiv_pos_site_id
 _symmetry_equiv_pos_as_xyz
  1  'x, y, z'
loop_
 _atom_site_type_symbol
 _atom_site_label
 _atom_site_symmetry_multiplicity
 _atom_site_fract_x
 _atom_site_fract_y
 _atom_site_fract_z
 _atom_site_occupancy
  Yb  Yb0  1  0.994623  0.001792  0.001792  1
  Zn  Zn1  1  0.125581  0.624807  0.624807  1
  Cd  Cd2  1  0.249361  0.250213  0.250213  1
  Pt  Pt3  1  0.626812  0.623773  0.623773  1
  Pt  Pt4  1  0.626812  0.623773  0.125642  1
  Pt  Pt5  1  0.626812  0.125642  0.623773  1
