# generated using pymatgen
data_AcAsO4
_symmetry_space_group_name_H-M   'P 1'
_cell_length_a   7.13554544
_cell_length_b   7.13554553
_cell_length_c   7.13554500
_cell_angle_alpha   136.56893869
_cell_angle_beta   136.56893947
_cell_angle_gamma   63.10196124
_symmetry_Int_Tables_number   1
_chemical_formula_structural   AcAsO4
_chemical_formula_sum   'Ac2 As2 O8'
_cell_volume   169.53930150
_cell_formula_units_Z   2
loop_
 _symmetry_equiv_pos_site_id
 _symmetry_equiv_pos_as_xyz
  1  'x, y, z'
loop_
 _atom_site_type_symbol
 _atom_site_label
 _atom_site_symmetry_multiplicity
 _atom_site_fract_x
 _atom_site_fract_y
 _atom_site_fract_z
 _atom_site_occupancy
  Ac  Ac0  1  0.250000  0.750000  0.500000  1
  Ac  Ac1  1  0.500000  0.500000  0.000000  1
  As  As2  1  0.750000  0.250000  0.500000  1
  As  As3  1  0.000000  0.000000  0.000000  1
  O  O4  1  0.547018  0.416617  0.616482  1
  O  O5  1  0.202982  0.833383  0.883518  1
  O  O6  1  0.583383  0.199865  0.130403  1
  O  O7  1  0.800135  0.930537  0.383518  1
  O  O8  1  0.680537  0.797018  0.630403  1
  O  O9  1  0.069463  0.452982  0.869597  1
  O  O10  1  0.949865  0.319463  0.116482  1
  O  O11  1  0.166617  0.050135  0.369597  1
