# generated using pymatgen
data_Al4Hg11(AsCl4)4
_symmetry_space_group_name_H-M   'P 1'
_cell_length_a   7.84814676
_cell_length_b   7.84814678
_cell_length_c   23.40985760
_cell_angle_alpha   80.68427532
_cell_angle_beta   80.68427615
_cell_angle_gamma   60.05936220
_symmetry_Int_Tables_number   1
_chemical_formula_structural   Al4Hg11(AsCl4)4
_chemical_formula_sum   'Al4 Hg11 As4 Cl16'
_cell_volume   1227.42803803
_cell_formula_units_Z   1
loop_
 _symmetry_equiv_pos_site_id
 _symmetry_equiv_pos_as_xyz
  1  'x, y, z'
loop_
 _atom_site_type_symbol
 _atom_site_label
 _atom_site_symmetry_multiplicity
 _atom_site_fract_x
 _atom_site_fract_y
 _atom_site_fract_z
 _atom_site_occupancy
  Al  Al0  1  0.629670  0.629670  0.616430  1
  Al  Al1  1  0.370330  0.370330  0.383570  1
  Al  Al2  1  0.212783  0.212783  0.882682  1
  Al  Al3  1  0.787217  0.787217  0.117318  1
  Hg  Hg4  1  0.520577  0.520577  0.942087  1
  Hg  Hg5  1  0.479423  0.479423  0.057913  1
  Hg  Hg6  1  0.962078  0.962078  0.616255  1
  Hg  Hg7  1  0.037922  0.037922  0.383745  1
  Hg  Hg8  1  0.000000  0.000000  0.500000  1
  Hg  Hg9  1  0.744797  0.744797  0.780468  1
  Hg  Hg10  1  0.255203  0.255203  0.219532  1
  Hg  Hg11  1  0.243877  0.744457  0.779666  1
  Hg  Hg12  1  0.744457  0.243877  0.779666  1
  Hg  Hg13  1  0.756123  0.255543  0.220334  1
  Hg  Hg14  1  0.255543  0.756123  0.220334  1
  As  As15  1  0.561661  0.561661  0.828934  1
  As  As16  1  0.438339  0.438339  0.171066  1
  As  As17  1  0.926669  0.926669  0.730747  1
  As  As18  1  0.073331  0.073331  0.269253  1
  Cl  Cl19  1  0.242026  0.242026  0.788148  1
  Cl  Cl20  1  0.757974  0.757974  0.211852  1
  Cl  Cl21  1  0.052413  0.052413  0.912000  1
  Cl  Cl22  1  0.947587  0.947587  0.088000  1
  Cl  Cl23  1  0.470019  0.915618  0.651346  1
  Cl  Cl24  1  0.915618  0.470019  0.651346  1
  Cl  Cl25  1  0.529981  0.084382  0.348654  1
  Cl  Cl26  1  0.084382  0.529981  0.348654  1
  Cl  Cl27  1  0.469838  0.469838  0.651682  1
  Cl  Cl28  1  0.530162  0.530162  0.348318  1
  Cl  Cl29  1  0.053352  0.506128  0.911355  1
  Cl  Cl30  1  0.506128  0.053352  0.911355  1
  Cl  Cl31  1  0.946648  0.493872  0.088645  1
  Cl  Cl32  1  0.493872  0.946648  0.088645  1
  Cl  Cl33  1  0.658551  0.658551  0.523726  1
  Cl  Cl34  1  0.341449  0.341449  0.476274  1
