# generated using pymatgen
data_Li2Sb2Pd3Pt
_symmetry_space_group_name_H-M   'P 1'
_cell_length_a   4.61046100
_cell_length_b   6.08912302
_cell_length_c   13.81923702
_cell_angle_alpha   89.99223960
_cell_angle_beta   90.00002071
_cell_angle_gamma   89.99978163
_symmetry_Int_Tables_number   1
_chemical_formula_structural   Li2Sb2Pd3Pt
_chemical_formula_sum   'Li6 Sb6 Pd9 Pt3'
_cell_volume   387.95661613
_cell_formula_units_Z   3
loop_
 _symmetry_equiv_pos_site_id
 _symmetry_equiv_pos_as_xyz
  1  'x, y, z'
loop_
 _atom_site_type_symbol
 _atom_site_label
 _atom_site_symmetry_multiplicity
 _atom_site_fract_x
 _atom_site_fract_y
 _atom_site_fract_z
 _atom_site_occupancy
  Li  Li0  1  0.999992  0.000131  0.000156  1
  Li  Li1  1  0.500065  0.498416  0.166420  1
  Li  Li2  1  0.000095  0.000543  0.333098  1
  Li  Li3  1  0.499993  0.499912  0.500180  1
  Li  Li4  1  0.999904  0.000789  0.666509  1
  Li  Li5  1  0.499965  0.500219  0.833560  1
  Sb  Sb6  1  0.999991  0.499985  0.999784  1
  Sb  Sb7  1  0.499989  0.001820  0.167746  1
  Sb  Sb8  1  0.000015  0.499878  0.333442  1
  Sb  Sb9  1  0.499994  0.999964  0.500185  1
  Sb  Sb10  1  0.999967  0.499396  0.666517  1
  Sb  Sb11  1  0.500028  0.999579  0.832351  1
  Pd  Pd12  1  0.999906  0.747354  0.167197  1
  Pd  Pd13  1  0.499962  0.250479  0.335731  1
  Pd  Pd14  1  0.499964  0.749514  0.333895  1
  Pd  Pd15  1  0.999997  0.250894  0.499455  1
  Pd  Pd16  1  0.999988  0.750866  0.500842  1
  Pd  Pd17  1  0.500008  0.249909  0.666145  1
  Pd  Pd18  1  0.500014  0.748732  0.665878  1
  Pd  Pd19  1  0.000146  0.250473  0.832898  1
  Pd  Pd20  1  0.000137  0.750800  0.831951  1
  Pt  Pt21  1  0.499987  0.247582  0.998381  1
  Pt  Pt22  1  0.499989  0.753292  0.000570  1
  Pt  Pt23  1  0.999914  0.249461  0.167109  1
