# generated using pymatgen
data_Sc12Tc2RuBr16
_symmetry_space_group_name_H-M   'P 1'
_cell_length_a   9.04583049
_cell_length_b   11.48338711
_cell_length_c   12.23397400
_cell_angle_alpha   116.82679916
_cell_angle_beta   101.33127948
_cell_angle_gamma   101.10673938
_symmetry_Int_Tables_number   1
_chemical_formula_structural   Sc12Tc2RuBr16
_chemical_formula_sum   'Sc12 Tc2 Ru1 Br16'
_cell_volume   1052.91265996
_cell_formula_units_Z   1
loop_
 _symmetry_equiv_pos_site_id
 _symmetry_equiv_pos_as_xyz
  1  'x, y, z'
loop_
 _atom_site_type_symbol
 _atom_site_label
 _atom_site_symmetry_multiplicity
 _atom_site_fract_x
 _atom_site_fract_y
 _atom_site_fract_z
 _atom_site_occupancy
  Sc  Sc0  1  0.085751  0.266343  0.357678  1
  Sc  Sc1  1  0.918275  0.735408  0.643775  1
  Sc  Sc2  1  0.782448  0.537391  0.326142  1
  Sc  Sc3  1  0.219065  0.462257  0.671748  1
  Sc  Sc4  1  0.276529  0.733767  0.642795  1
  Sc  Sc5  1  0.725825  0.264555  0.355622  1
  Sc  Sc6  1  0.142492  0.537346  0.328975  1
  Sc  Sc7  1  0.860993  0.463010  0.673213  1
  Sc  Sc8  1  0.407109  0.360457  0.277012  1
  Sc  Sc9  1  0.594187  0.639518  0.723285  1
  Sc  Sc10  1  0.459204  0.309716  0.520309  1
  Sc  Sc11  1  0.540964  0.690132  0.479841  1
  Tc  Tc12  1  0.999086  0.500003  0.500010  1
  Tc  Tc13  1  0.672911  0.499978  0.500182  1
  Ru  Ru14  1  0.340022  0.500009  0.499932  1
  Br  Br15  1  0.393262  0.730795  0.868661  1
  Br  Br16  1  0.605154  0.268433  0.130483  1
  Br  Br17  1  0.185834  0.952519  0.776333  1
  Br  Br18  1  0.817269  0.047647  0.222939  1
  Br  Br19  1  0.335521  0.107034  0.260716  1
  Br  Br20  1  0.650328  0.892808  0.739379  1
  Br  Br21  1  0.548982  0.436699  0.787754  1
  Br  Br22  1  0.438275  0.563019  0.212198  1
  Br  Br23  1  0.307920  0.817401  0.464953  1
  Br  Br24  1  0.691515  0.183559  0.534760  1
  Br  Br25  1  0.170108  0.181146  0.532496  1
  Br  Br26  1  0.828051  0.817879  0.467634  1
  Br  Br27  1  0.929662  0.571923  0.168210  1
  Br  Br28  1  0.073620  0.428360  0.832048  1
  Br  Br29  1  0.914291  0.730659  0.869131  1
  Br  Br30  1  0.085347  0.270223  0.131790  1
