# generated using pymatgen
data_Al4VZn3Rh8
_symmetry_space_group_name_H-M   'P 1'
_cell_length_a   6.03942700
_cell_length_b   6.03949300
_cell_length_c   6.01229900
_cell_angle_alpha   90.00000000
_cell_angle_beta   90.00025675
_cell_angle_gamma   90.00000000
_symmetry_Int_Tables_number   1
_chemical_formula_structural   Al4VZn3Rh8
_chemical_formula_sum   'Al4 V1 Zn3 Rh8'
_cell_volume   219.29906952
_cell_formula_units_Z   1
loop_
 _symmetry_equiv_pos_site_id
 _symmetry_equiv_pos_as_xyz
  1  'x, y, z'
loop_
 _atom_site_type_symbol
 _atom_site_label
 _atom_site_symmetry_multiplicity
 _atom_site_fract_x
 _atom_site_fract_y
 _atom_site_fract_z
 _atom_site_occupancy
  Al  Al0  1  0.750139  0.250000  0.999955  1
  Al  Al1  1  0.249803  0.750001  0.999938  1
  Al  Al2  1  0.250163  0.750001  0.500060  1
  Al  Al3  1  0.749816  0.250000  0.500061  1
  V  V4  1  0.249993  0.250000  0.000037  1
  Zn  Zn5  1  0.750103  0.750001  0.000031  1
  Zn  Zn6  1  0.250126  0.250000  0.500015  1
  Zn  Zn7  1  0.749895  0.750001  0.499978  1
  Rh  Rh8  1  0.497828  0.002154  0.247593  1
  Rh  Rh9  1  0.497828  0.497848  0.247593  1
  Rh  Rh10  1  0.002159  0.002167  0.247774  1
  Rh  Rh11  1  0.002159  0.497832  0.247774  1
  Rh  Rh12  1  0.002156  0.002152  0.752200  1
  Rh  Rh13  1  0.002156  0.497848  0.752200  1
  Rh  Rh14  1  0.497838  0.002156  0.752396  1
  Rh  Rh15  1  0.497838  0.497841  0.752396  1
