# generated using pymatgen
data_NaPr5SmCoBr12
_symmetry_space_group_name_H-M   'P 1'
_cell_length_a   9.51268116
_cell_length_b   9.63018037
_cell_length_c   9.49503316
_cell_angle_alpha   107.39117313
_cell_angle_beta   107.08681624
_cell_angle_gamma   106.83253016
_symmetry_Int_Tables_number   1
_chemical_formula_structural   NaPr5SmCoBr12
_chemical_formula_sum   'Na1 Pr5 Sm1 Co1 Br12'
_cell_volume   722.33341631
_cell_formula_units_Z   1
loop_
 _symmetry_equiv_pos_site_id
 _symmetry_equiv_pos_as_xyz
  1  'x, y, z'
loop_
 _atom_site_type_symbol
 _atom_site_label
 _atom_site_symmetry_multiplicity
 _atom_site_fract_x
 _atom_site_fract_y
 _atom_site_fract_z
 _atom_site_occupancy
  Na  Na0  1  0.499903  0.500206  0.499801  1
  Pr  Pr1  1  0.310288  0.028804  0.107146  1
  Pr  Pr2  1  0.030292  0.108785  0.312631  1
  Pr  Pr3  1  0.970397  0.893493  0.688141  1
  Pr  Pr4  1  0.689792  0.970937  0.892947  1
  Pr  Pr5  1  0.887038  0.674413  0.968859  1
  Sm  Sm6  1  0.111857  0.321138  0.030971  1
  Co  Co7  1  0.000380  0.000235  0.000688  1
  Br  Br8  1  0.218941  0.681002  0.072583  1
  Br  Br9  1  0.447245  0.371736  0.151186  1
  Br  Br10  1  0.684198  0.073754  0.221220  1
  Br  Br11  1  0.927748  0.782515  0.317333  1
  Br  Br12  1  0.153263  0.452533  0.367236  1
  Br  Br13  1  0.373809  0.155476  0.455487  1
  Br  Br14  1  0.626254  0.844874  0.544736  1
  Br  Br15  1  0.846133  0.547519  0.625987  1
  Br  Br16  1  0.074003  0.222084  0.689529  1
  Br  Br17  1  0.315885  0.926475  0.779063  1
  Br  Br18  1  0.546063  0.628672  0.845747  1
  Br  Br19  1  0.786514  0.315354  0.928714  1
