# generated using pymatgen
data_Er12Ni6Bi
_symmetry_space_group_name_H-M   'P 1'
_cell_length_a   8.37290311
_cell_length_b   8.37290289
_cell_length_c   8.37290300
_cell_angle_alpha   109.47121606
_cell_angle_beta   109.47121554
_cell_angle_gamma   109.47122282
_symmetry_Int_Tables_number   1
_chemical_formula_structural   Er12Ni6Bi
_chemical_formula_sum   'Er12 Ni6 Bi1'
_cell_volume   451.86252936
_cell_formula_units_Z   1
loop_
 _symmetry_equiv_pos_site_id
 _symmetry_equiv_pos_as_xyz
  1  'x, y, z'
loop_
 _atom_site_type_symbol
 _atom_site_label
 _atom_site_symmetry_multiplicity
 _atom_site_fract_x
 _atom_site_fract_y
 _atom_site_fract_z
 _atom_site_occupancy
  Er  Er0  1  0.812170  0.693036  0.505208  1
  Er  Er1  1  0.187830  0.306964  0.494792  1
  Er  Er2  1  0.187830  0.693036  0.880866  1
  Er  Er3  1  0.812170  0.306964  0.119134  1
  Er  Er4  1  0.693036  0.505208  0.812170  1
  Er  Er5  1  0.306964  0.494792  0.187830  1
  Er  Er6  1  0.693036  0.880866  0.187830  1
  Er  Er7  1  0.306964  0.119134  0.812170  1
  Er  Er8  1  0.505208  0.812170  0.693036  1
  Er  Er9  1  0.494792  0.187830  0.306964  1
  Er  Er10  1  0.119134  0.812170  0.306964  1
  Er  Er11  1  0.880866  0.187830  0.693036  1
  Ni  Ni12  1  0.875310  0.375310  0.500000  1
  Ni  Ni13  1  0.124690  0.624690  0.500000  1
  Ni  Ni14  1  0.375310  0.500000  0.875310  1
  Ni  Ni15  1  0.624690  0.500000  0.124690  1
  Ni  Ni16  1  0.500000  0.875310  0.375310  1
  Ni  Ni17  1  0.500000  0.124690  0.624690  1
  Bi  Bi18  1  0.000000  0.000000  0.000000  1
