# generated using pymatgen
data_HoNb(SnPt)2
_symmetry_space_group_name_H-M   'P 1'
_cell_length_a   6.44589900
_cell_length_b   4.54428200
_cell_length_c   9.10103600
_cell_angle_alpha   90.00000000
_cell_angle_beta   90.00000000
_cell_angle_gamma   90.00000000
_symmetry_Int_Tables_number   1
_chemical_formula_structural   HoNb(SnPt)2
_chemical_formula_sum   'Ho2 Nb2 Sn4 Pt4'
_cell_volume   266.58738997
_cell_formula_units_Z   2
loop_
 _symmetry_equiv_pos_site_id
 _symmetry_equiv_pos_as_xyz
  1  'x, y, z'
loop_
 _atom_site_type_symbol
 _atom_site_label
 _atom_site_symmetry_multiplicity
 _atom_site_fract_x
 _atom_site_fract_y
 _atom_site_fract_z
 _atom_site_occupancy
  Ho  Ho0  1  0.002964  0.000000  0.375948  1
  Ho  Ho1  1  0.502965  0.500001  0.624053  1
  Nb  Nb2  1  0.497478  0.500001  0.124148  1
  Nb  Nb3  1  0.997479  0.000000  0.875851  1
  Sn  Sn4  1  0.987531  0.500001  0.124714  1
  Sn  Sn5  1  0.509590  0.000000  0.372813  1
  Sn  Sn6  1  0.009590  0.500001  0.627189  1
  Sn  Sn7  1  0.487532  0.000000  0.875288  1
  Pt  Pt8  1  0.737205  0.000000  0.112451  1
  Pt  Pt9  1  0.265229  0.500001  0.358911  1
  Pt  Pt10  1  0.765230  0.000000  0.641090  1
  Pt  Pt11  1  0.237205  0.500001  0.887550  1
