# generated using pymatgen
data_Yb3Ho3Si24Os5Ru3
_symmetry_space_group_name_H-M   'P 1'
_cell_length_a   10.14324418
_cell_length_b   10.14326845
_cell_length_c   8.13707577
_cell_angle_alpha   89.95433478
_cell_angle_beta   90.00870696
_cell_angle_gamma   132.69519244
_symmetry_Int_Tables_number   1
_chemical_formula_structural   Yb3Ho3Si24Os5Ru3
_chemical_formula_sum   'Yb3 Ho3 Si24 Os5 Ru3'
_cell_volume   615.30926929
_cell_formula_units_Z   1
loop_
 _symmetry_equiv_pos_site_id
 _symmetry_equiv_pos_as_xyz
  1  'x, y, z'
loop_
 _atom_site_type_symbol
 _atom_site_label
 _atom_site_symmetry_multiplicity
 _atom_site_fract_x
 _atom_site_fract_y
 _atom_site_fract_z
 _atom_site_occupancy
  Yb  Yb0  1  0.499707  0.499691  0.500163  1
  Yb  Yb1  1  0.000071  0.000078  0.999281  1
  Yb  Yb2  1  0.500789  0.000827  0.750080  1
  Ho  Ho3  1  0.000411  0.500808  0.250027  1
  Ho  Ho4  1  0.500208  0.999783  0.250079  1
  Ho  Ho5  1  0.000129  0.500135  0.750023  1
  Si  Si6  1  0.795668  0.202986  0.500710  1
  Si  Si7  1  0.297655  0.705192  0.998686  1
  Si  Si8  1  0.205131  0.797581  0.501492  1
  Si  Si9  1  0.702929  0.295654  0.999447  1
  Si  Si10  1  0.333435  0.334583  0.832489  1
  Si  Si11  1  0.666119  0.667989  0.167424  1
  Si  Si12  1  0.167195  0.165310  0.330761  1
  Si  Si13  1  0.832571  0.831408  0.667103  1
  Si  Si14  1  0.122073  0.889257  0.730783  1
  Si  Si15  1  0.109969  0.878674  0.270651  1
  Si  Si16  1  0.608533  0.377120  0.229469  1
  Si  Si17  1  0.623492  0.390673  0.769688  1
  Si  Si18  1  0.878139  0.109542  0.270527  1
  Si  Si19  1  0.889754  0.122690  0.730753  1
  Si  Si20  1  0.389936  0.622687  0.769691  1
  Si  Si21  1  0.377663  0.608962  0.229304  1
  Si  Si22  1  0.346869  0.113933  0.505681  1
  Si  Si23  1  0.886349  0.654579  0.494388  1
  Si  Si24  1  0.386172  0.153036  0.007070  1
  Si  Si25  1  0.845317  0.613750  0.992516  1
  Si  Si26  1  0.653028  0.885657  0.494228  1
  Si  Si27  1  0.113745  0.345772  0.507185  1
  Si  Si28  1  0.613908  0.846405  0.994063  1
  Si  Si29  1  0.154636  0.386887  0.006873  1
  Os  Os30  1  0.672480  0.329501  0.498472  1
  Os  Os31  1  0.169709  0.827110  0.001543  1
  Os  Os32  1  0.327235  0.669670  0.498417  1
  Os  Os33  1  0.829428  0.172552  0.001471  1
  Os  Os34  1  0.126284  0.126310  0.625703  1
  Ru  Ru35  1  0.873030  0.873728  0.374497  1
  Ru  Ru36  1  0.373741  0.373058  0.125183  1
  Ru  Ru37  1  0.626493  0.626419  0.874074  1
