# generated using pymatgen
data_TlHg2Ir4PbO14
_symmetry_space_group_name_H-M   'P 1'
_cell_length_a   7.31430521
_cell_length_b   7.33934592
_cell_length_c   7.28007100
_cell_angle_alpha   60.26680039
_cell_angle_beta   60.15470297
_cell_angle_gamma   60.67293871
_symmetry_Int_Tables_number   1
_chemical_formula_structural   TlHg2Ir4PbO14
_chemical_formula_sum   'Tl1 Hg2 Ir4 Pb1 O14'
_cell_volume   278.61252761
_cell_formula_units_Z   1
loop_
 _symmetry_equiv_pos_site_id
 _symmetry_equiv_pos_as_xyz
  1  'x, y, z'
loop_
 _atom_site_type_symbol
 _atom_site_label
 _atom_site_symmetry_multiplicity
 _atom_site_fract_x
 _atom_site_fract_y
 _atom_site_fract_z
 _atom_site_occupancy
  Tl  Tl0  1  0.625000  0.125000  0.125000  1
  Hg  Hg1  1  0.125000  0.125000  0.625000  1
  Hg  Hg2  1  0.125000  0.125000  0.125000  1
  Ir  Ir3  1  0.125000  0.625000  0.625000  1
  Ir  Ir4  1  0.625000  0.125000  0.625000  1
  Ir  Ir5  1  0.625000  0.625000  0.125000  1
  Ir  Ir6  1  0.625000  0.625000  0.625000  1
  Pb  Pb7  1  0.125000  0.625000  0.125000  1
  O  O8  1  0.705179  0.704121  0.295350  1
  O  O9  1  0.309024  0.309400  0.690788  1
  O  O10  1  0.685880  0.304667  0.708800  1
  O  O11  1  0.303296  0.687671  0.300124  1
  O  O12  1  0.303296  0.687671  0.708909  1
  O  O13  1  0.685880  0.304667  0.300653  1
  O  O14  1  0.544821  0.545879  0.954650  1
  O  O15  1  0.940976  0.940600  0.559212  1
  O  O16  1  0.564120  0.945333  0.541200  1
  O  O17  1  0.946704  0.562329  0.949876  1
  O  O18  1  0.946704  0.562329  0.541091  1
  O  O19  1  0.564120  0.945333  0.949347  1
  O  O20  1  0.234786  0.234315  0.265449  1
  O  O21  1  0.015214  0.015685  0.984551  1
