# generated using pymatgen
data_Dy12Co3Si8Os
_symmetry_space_group_name_H-M   'P 1'
_cell_length_a   4.12366800
_cell_length_b   11.17089677
_cell_length_c   11.42732397
_cell_angle_alpha   89.78281114
_cell_angle_beta   90.00000000
_cell_angle_gamma   90.00000000
_symmetry_Int_Tables_number   1
_chemical_formula_structural   Dy12Co3Si8Os
_chemical_formula_sum   'Dy12 Co3 Si8 Os1'
_cell_volume   526.39669127
_cell_formula_units_Z   1
loop_
 _symmetry_equiv_pos_site_id
 _symmetry_equiv_pos_as_xyz
  1  'x, y, z'
loop_
 _atom_site_type_symbol
 _atom_site_label
 _atom_site_symmetry_multiplicity
 _atom_site_fract_x
 _atom_site_fract_y
 _atom_site_fract_z
 _atom_site_occupancy
  Dy  Dy0  1  0.250000  0.060781  0.881901  1
  Dy  Dy1  1  0.250000  0.442134  0.381971  1
  Dy  Dy2  1  0.750000  0.943663  0.122173  1
  Dy  Dy3  1  0.750000  0.557701  0.618293  1
  Dy  Dy4  1  0.250000  0.128332  0.556658  1
  Dy  Dy5  1  0.250000  0.374205  0.059175  1
  Dy  Dy6  1  0.750000  0.873111  0.441244  1
  Dy  Dy7  1  0.750000  0.619177  0.940625  1
  Dy  Dy8  1  0.250000  0.799477  0.712594  1
  Dy  Dy9  1  0.250000  0.698203  0.216604  1
  Dy  Dy10  1  0.750000  0.200017  0.282419  1
  Dy  Dy11  1  0.750000  0.300178  0.781725  1
  Co  Co12  1  0.250000  0.365526  0.629740  1
  Co  Co13  1  0.250000  0.136426  0.130682  1
  Co  Co14  1  0.750000  0.634937  0.369282  1
  Si  Si15  1  0.250000  0.814521  0.980439  1
  Si  Si16  1  0.250000  0.683131  0.473122  1
  Si  Si17  1  0.750000  0.185143  0.026438  1
  Si  Si18  1  0.750000  0.316988  0.525354  1
  Si  Si19  1  0.250000  0.490852  0.801051  1
  Si  Si20  1  0.250000  0.008424  0.303084  1
  Si  Si21  1  0.750000  0.505552  0.199084  1
  Si  Si22  1  0.750000  0.997968  0.694530  1
  Os  Os23  1  0.750000  0.863556  0.871808  1
