# generated using pymatgen
data_Zr4Cu4Si3Ge
_symmetry_space_group_name_H-M   'P 1'
_cell_length_a   3.95164100
_cell_length_b   6.55891840
_cell_length_c   7.35308874
_cell_angle_alpha   90.09852884
_cell_angle_beta   90.00000000
_cell_angle_gamma   90.00000000
_symmetry_Int_Tables_number   1
_chemical_formula_structural   Zr4Cu4Si3Ge
_chemical_formula_sum   'Zr4 Cu4 Si3 Ge1'
_cell_volume   190.58068169
_cell_formula_units_Z   1
loop_
 _symmetry_equiv_pos_site_id
 _symmetry_equiv_pos_as_xyz
  1  'x, y, z'
loop_
 _atom_site_type_symbol
 _atom_site_label
 _atom_site_symmetry_multiplicity
 _atom_site_fract_x
 _atom_site_fract_y
 _atom_site_fract_z
 _atom_site_occupancy
  Zr  Zr0  1  0.250000  0.511120  0.690792  1
  Zr  Zr1  1  0.750000  0.491794  0.309631  1
  Zr  Zr2  1  0.250000  0.007878  0.805266  1
  Zr  Zr3  1  0.750000  0.986326  0.194086  1
  Cu  Cu4  1  0.750000  0.830681  0.576072  1
  Cu  Cu5  1  0.250000  0.165484  0.428918  1
  Cu  Cu6  1  0.750000  0.333134  0.917956  1
  Cu  Cu7  1  0.250000  0.674406  0.075443  1
  Si  Si8  1  0.750000  0.719592  0.899040  1
  Si  Si9  1  0.250000  0.780513  0.399361  1
  Si  Si10  1  0.750000  0.219977  0.600875  1
  Ge  Ge11  1  0.250000  0.279095  0.102560  1
