# generated using pymatgen
data_Tm4OsWC4
_symmetry_space_group_name_H-M   'P 1'
_cell_length_a   5.03313100
_cell_length_b   6.52914227
_cell_length_c   9.77376313
_cell_angle_alpha   89.27226288
_cell_angle_beta   90.00000000
_cell_angle_gamma   90.00000000
_symmetry_Int_Tables_number   1
_chemical_formula_structural   Tm4OsWC4
_chemical_formula_sum   'Tm8 Os2 W2 C8'
_cell_volume   321.15977389
_cell_formula_units_Z   2
loop_
 _symmetry_equiv_pos_site_id
 _symmetry_equiv_pos_as_xyz
  1  'x, y, z'
loop_
 _atom_site_type_symbol
 _atom_site_label
 _atom_site_symmetry_multiplicity
 _atom_site_fract_x
 _atom_site_fract_y
 _atom_site_fract_z
 _atom_site_occupancy
  Tm  Tm0  1  0.250000  0.677435  0.557797  1
  Tm  Tm1  1  0.750000  0.322565  0.442203  1
  Tm  Tm2  1  0.750000  0.825108  0.058711  1
  Tm  Tm3  1  0.250000  0.174892  0.941289  1
  Tm  Tm4  1  0.250000  0.540321  0.218917  1
  Tm  Tm5  1  0.750000  0.459679  0.781083  1
  Tm  Tm6  1  0.750000  0.968623  0.717858  1
  Tm  Tm7  1  0.250000  0.031377  0.282142  1
  Os  Os8  1  0.750000  0.781488  0.369123  1
  Os  Os9  1  0.250000  0.218512  0.630877  1
  W  W10  1  0.250000  0.713880  0.869964  1
  W  W11  1  0.750000  0.286120  0.130036  1
  C  C12  1  0.250000  0.447427  0.758104  1
  C  C13  1  0.750000  0.552573  0.241896  1
  C  C14  1  0.750000  0.049315  0.259916  1
  C  C15  1  0.250000  0.950685  0.740084  1
  C  C16  1  0.250000  0.828021  0.056837  1
  C  C17  1  0.750000  0.171979  0.943163  1
  C  C18  1  0.750000  0.673629  0.552214  1
  C  C19  1  0.250000  0.326371  0.447786  1
