# generated using pymatgen
data_NaThFeH6
_symmetry_space_group_name_H-M   'P 1'
_cell_length_a   4.94776236
_cell_length_b   4.94776224
_cell_length_c   4.94776200
_cell_angle_alpha   60.00000160
_cell_angle_beta   60.00000241
_cell_angle_gamma   60.00000080
_symmetry_Int_Tables_number   1
_chemical_formula_structural   NaThFeH6
_chemical_formula_sum   'Na1 Th1 Fe1 H6'
_cell_volume   85.64686542
_cell_formula_units_Z   1
loop_
 _symmetry_equiv_pos_site_id
 _symmetry_equiv_pos_as_xyz
  1  'x, y, z'
loop_
 _atom_site_type_symbol
 _atom_site_label
 _atom_site_symmetry_multiplicity
 _atom_site_fract_x
 _atom_site_fract_y
 _atom_site_fract_z
 _atom_site_occupancy
  Na  Na0  1  0.750000  0.750000  0.750000  1
  Th  Th1  1  0.250000  0.250000  0.250000  1
  Fe  Fe2  1  0.000000  0.000000  0.000000  1
  H  H3  1  0.767296  0.767296  0.232704  1
  H  H4  1  0.232704  0.767296  0.232704  1
  H  H5  1  0.767296  0.232704  0.232704  1
  H  H6  1  0.232704  0.232704  0.767296  1
  H  H7  1  0.767296  0.232704  0.767296  1
  H  H8  1  0.232704  0.767296  0.767296  1
