# generated using pymatgen
data_HoFe4P3W
_symmetry_space_group_name_H-M   'P 1'
_cell_length_a   3.69634700
_cell_length_b   10.44511000
_cell_length_c   11.93739300
_cell_angle_alpha   90.00000000
_cell_angle_beta   90.00000000
_cell_angle_gamma   90.00000000
_symmetry_Int_Tables_number   1
_chemical_formula_structural   HoFe4P3W
_chemical_formula_sum   'Ho4 Fe16 P12 W4'
_cell_volume   460.88783408
_cell_formula_units_Z   4
loop_
 _symmetry_equiv_pos_site_id
 _symmetry_equiv_pos_as_xyz
  1  'x, y, z'
loop_
 _atom_site_type_symbol
 _atom_site_label
 _atom_site_symmetry_multiplicity
 _atom_site_fract_x
 _atom_site_fract_y
 _atom_site_fract_z
 _atom_site_occupancy
  Ho  Ho0  1  0.250000  0.581980  0.706680  1
  Ho  Ho1  1  0.250000  0.918020  0.206680  1
  Ho  Ho2  1  0.750000  0.418020  0.293320  1
  Ho  Ho3  1  0.750000  0.081980  0.793320  1
  Fe  Fe4  1  0.250000  0.406928  0.491744  1
  Fe  Fe5  1  0.250000  0.093072  0.991744  1
  Fe  Fe6  1  0.750000  0.593072  0.508256  1
  Fe  Fe7  1  0.750000  0.906928  0.008256  1
  Fe  Fe8  1  0.250000  0.218567  0.177025  1
  Fe  Fe9  1  0.250000  0.281433  0.677025  1
  Fe  Fe10  1  0.750000  0.781433  0.822975  1
  Fe  Fe11  1  0.750000  0.718567  0.322975  1
  Fe  Fe12  1  0.250000  0.877217  0.701216  1
  Fe  Fe13  1  0.250000  0.622783  0.201216  1
  Fe  Fe14  1  0.750000  0.122783  0.298784  1
  Fe  Fe15  1  0.750000  0.377217  0.798784  1
  Fe  Fe16  1  0.250000  0.462617  0.933400  1
  Fe  Fe17  1  0.250000  0.037383  0.433400  1
  Fe  Fe18  1  0.750000  0.537383  0.066600  1
  Fe  Fe19  1  0.750000  0.962617  0.566600  1
  P  P20  1  0.250000  0.425350  0.115131  1
  P  P21  1  0.250000  0.074650  0.615131  1
  P  P22  1  0.750000  0.574650  0.884869  1
  P  P23  1  0.750000  0.925350  0.384869  1
  P  P24  1  0.250000  0.265223  0.866278  1
  P  P25  1  0.250000  0.234777  0.366278  1
  P  P26  1  0.750000  0.734777  0.133722  1
  P  P27  1  0.750000  0.765223  0.633722  1
  P  P28  1  0.250000  0.592661  0.390298  1
  P  P29  1  0.250000  0.907339  0.890298  1
  P  P30  1  0.750000  0.407339  0.609702  1
  P  P31  1  0.750000  0.092661  0.109702  1
  W  W32  1  0.250000  0.704048  0.988217  1
  W  W33  1  0.250000  0.795952  0.488217  1
  W  W34  1  0.750000  0.295952  0.011783  1
  W  W35  1  0.750000  0.204048  0.511783  1
