# generated using pymatgen
data_Na4HoP12Rh19
_symmetry_space_group_name_H-M   'P 1'
_cell_length_a   12.61064500
_cell_length_b   12.61064568
_cell_length_c   3.91560700
_cell_angle_alpha   90.00000000
_cell_angle_beta   90.00000000
_cell_angle_gamma   119.99999560
_symmetry_Int_Tables_number   1
_chemical_formula_structural   Na4HoP12Rh19
_chemical_formula_sum   'Na4 Ho1 P12 Rh19'
_cell_volume   539.26765311
_cell_formula_units_Z   1
loop_
 _symmetry_equiv_pos_site_id
 _symmetry_equiv_pos_as_xyz
  1  'x, y, z'
loop_
 _atom_site_type_symbol
 _atom_site_label
 _atom_site_symmetry_multiplicity
 _atom_site_fract_x
 _atom_site_fract_y
 _atom_site_fract_z
 _atom_site_occupancy
  Na  Na0  1  0.999446  0.180899  0.500000  1
  Na  Na1  1  0.819101  0.818546  0.500000  1
  Na  Na2  1  0.181454  0.000554  0.500000  1
  Na  Na3  1  0.333333  0.666667  0.000000  1
  Ho  Ho4  1  0.666667  0.333333  0.000000  1
  P  P5  1  0.478897  0.311241  0.500000  1
  P  P6  1  0.820380  0.999236  0.000000  1
  P  P7  1  0.178856  0.179620  0.000000  1
  P  P8  1  0.000764  0.821144  0.000000  1
  P  P9  1  0.363284  0.996975  0.000000  1
  P  P10  1  0.688759  0.167656  0.500000  1
  P  P11  1  0.832344  0.521103  0.500000  1
  P  P12  1  0.518699  0.833545  0.500000  1
  P  P13  1  0.166455  0.685154  0.500000  1
  P  P14  1  0.314846  0.481301  0.500000  1
  P  P15  1  0.003025  0.366309  0.000000  1
  P  P16  1  0.633691  0.636716  0.000000  1
  Rh  Rh17  1  0.807006  0.183135  0.000000  1
  Rh  Rh18  1  0.376130  0.192994  0.000000  1
  Rh  Rh19  1  0.638949  0.507905  0.500000  1
  Rh  Rh20  1  0.868955  0.361051  0.500000  1
  Rh  Rh21  1  0.358249  0.871695  0.500000  1
  Rh  Rh22  1  0.513447  0.641751  0.500000  1
  Rh  Rh23  1  0.128305  0.486553  0.500000  1
  Rh  Rh24  1  0.816865  0.623870  0.000000  1
  Rh  Rh25  1  0.622636  0.819443  0.000000  1
  Rh  Rh26  1  0.180557  0.803193  0.000000  1
  Rh  Rh27  1  0.196807  0.377364  0.000000  1
  Rh  Rh28  1  0.999688  0.718386  0.500000  1
  Rh  Rh29  1  0.281614  0.281302  0.500000  1
  Rh  Rh30  1  0.718698  0.000312  0.500000  1
  Rh  Rh31  1  0.999459  0.545285  0.000000  1
  Rh  Rh32  1  0.454715  0.454174  0.000000  1
  Rh  Rh33  1  0.545826  0.000541  0.000000  1
  Rh  Rh34  1  0.000000  0.000000  0.000000  1
  Rh  Rh35  1  0.492095  0.131045  0.500000  1
