# generated using pymatgen
data_SrY6NiI12
_symmetry_space_group_name_H-M   'P 1'
_cell_length_a   9.77726315
_cell_length_b   9.77726208
_cell_length_c   9.77726246
_cell_angle_alpha   106.30773778
_cell_angle_beta   106.30773669
_cell_angle_gamma   106.30773117
_symmetry_Int_Tables_number   1
_chemical_formula_structural   SrY6NiI12
_chemical_formula_sum   'Sr1 Y6 Ni1 I12'
_cell_volume   792.63062179
_cell_formula_units_Z   1
loop_
 _symmetry_equiv_pos_site_id
 _symmetry_equiv_pos_as_xyz
  1  'x, y, z'
loop_
 _atom_site_type_symbol
 _atom_site_label
 _atom_site_symmetry_multiplicity
 _atom_site_fract_x
 _atom_site_fract_y
 _atom_site_fract_z
 _atom_site_occupancy
  Sr  Sr0  1  0.500000  0.500000  0.500000  1
  Y  Y1  1  0.708765  0.980240  0.907947  1
  Y  Y2  1  0.980240  0.907947  0.708765  1
  Y  Y3  1  0.092053  0.291235  0.019760  1
  Y  Y4  1  0.291235  0.019760  0.092053  1
  Y  Y5  1  0.907947  0.708765  0.980240  1
  Y  Y6  1  0.019760  0.092053  0.291235  1
  Ni  Ni7  1  0.000000  0.000000  0.000000  1
  I  I8  1  0.073663  0.223162  0.676077  1
  I  I9  1  0.368019  0.134806  0.447881  1
  I  I10  1  0.631981  0.865194  0.552119  1
  I  I11  1  0.223162  0.676077  0.073663  1
  I  I12  1  0.776838  0.323923  0.926337  1
  I  I13  1  0.676077  0.073663  0.223162  1
  I  I14  1  0.552119  0.631981  0.865194  1
  I  I15  1  0.865194  0.552119  0.631981  1
  I  I16  1  0.926337  0.776838  0.323923  1
  I  I17  1  0.323923  0.926337  0.776838  1
  I  I18  1  0.447881  0.368019  0.134806  1
  I  I19  1  0.134806  0.447881  0.368019  1
