# generated using pymatgen
data_Dy5Co16Si9(MoP)3
_symmetry_space_group_name_H-M   'P 1'
_cell_length_a   12.27579600
_cell_length_b   12.27579570
_cell_length_c   3.72868600
_cell_angle_alpha   90.00000000
_cell_angle_beta   90.00000000
_cell_angle_gamma   119.99999002
_symmetry_Int_Tables_number   1
_chemical_formula_structural   Dy5Co16Si9(MoP)3
_chemical_formula_sum   'Dy5 Co16 Si9 Mo3 P3'
_cell_volume   486.61534773
_cell_formula_units_Z   1
loop_
 _symmetry_equiv_pos_site_id
 _symmetry_equiv_pos_as_xyz
  1  'x, y, z'
loop_
 _atom_site_type_symbol
 _atom_site_label
 _atom_site_symmetry_multiplicity
 _atom_site_fract_x
 _atom_site_fract_y
 _atom_site_fract_z
 _atom_site_occupancy
  Dy  Dy0  1  0.666667  0.333333  0.000000  1
  Dy  Dy1  1  0.333333  0.666667  0.000000  1
  Dy  Dy2  1  0.182616  0.182616  0.500000  1
  Dy  Dy3  1  0.817384  0.000000  0.500000  1
  Dy  Dy4  1  0.000000  0.817384  0.500000  1
  Co  Co5  1  0.824171  0.194891  0.000000  1
  Co  Co6  1  0.805109  0.629281  0.000000  1
  Co  Co7  1  0.370719  0.175829  0.000000  1
  Co  Co8  1  0.194891  0.824171  0.000000  1
  Co  Co9  1  0.629281  0.805109  0.000000  1
  Co  Co10  1  0.175829  0.370719  0.000000  1
  Co  Co11  1  0.645282  0.123222  0.500000  1
  Co  Co12  1  0.876778  0.522062  0.500000  1
  Co  Co13  1  0.477938  0.354718  0.500000  1
  Co  Co14  1  0.123222  0.645282  0.500000  1
  Co  Co15  1  0.522062  0.876778  0.500000  1
  Co  Co16  1  0.354718  0.477938  0.500000  1
  Co  Co17  1  0.723923  0.723923  0.500000  1
  Co  Co18  1  0.276077  0.000000  0.500000  1
  Co  Co19  1  0.000000  0.276077  0.500000  1
  Co  Co20  1  0.000000  0.000000  0.000000  1
  Si  Si21  1  0.362907  0.362907  0.000000  1
  Si  Si22  1  0.637093  0.000000  0.000000  1
  Si  Si23  1  0.000000  0.637093  0.000000  1
  Si  Si24  1  0.834484  0.312109  0.500000  1
  Si  Si25  1  0.687891  0.522374  0.500000  1
  Si  Si26  1  0.477626  0.165516  0.500000  1
  Si  Si27  1  0.312109  0.834484  0.500000  1
  Si  Si28  1  0.522374  0.687891  0.500000  1
  Si  Si29  1  0.165516  0.477626  0.500000  1
  Mo  Mo30  1  0.562842  0.562842  0.000000  1
  Mo  Mo31  1  0.437158  0.000000  0.000000  1
  Mo  Mo32  1  0.000000  0.437158  0.000000  1
  P  P33  1  0.819145  0.819145  0.000000  1
  P  P34  1  0.180855  0.000000  0.000000  1
  P  P35  1  0.000000  0.180855  0.000000  1
