# generated using pymatgen
data_YbH5Ir
_symmetry_space_group_name_H-M   'P 1'
_cell_length_a   4.43658100
_cell_length_b   4.84375500
_cell_length_c   11.78091800
_cell_angle_alpha   90.00000000
_cell_angle_beta   90.00000000
_cell_angle_gamma   90.00000000
_symmetry_Int_Tables_number   1
_chemical_formula_structural   YbH5Ir
_chemical_formula_sum   'Yb4 H20 Ir4'
_cell_volume   253.16852787
_cell_formula_units_Z   4
loop_
 _symmetry_equiv_pos_site_id
 _symmetry_equiv_pos_as_xyz
  1  'x, y, z'
loop_
 _atom_site_type_symbol
 _atom_site_label
 _atom_site_symmetry_multiplicity
 _atom_site_fract_x
 _atom_site_fract_y
 _atom_site_fract_z
 _atom_site_occupancy
  Yb  Yb0  1  0.729963  0.343994  0.146627  1
  Yb  Yb1  1  0.229963  0.156006  0.853373  1
  Yb  Yb2  1  0.270037  0.843994  0.353373  1
  Yb  Yb3  1  0.770037  0.656006  0.646627  1
  H  H4  1  0.905916  0.370849  0.970144  1
  H  H5  1  0.396786  0.986700  0.680815  1
  H  H6  1  0.972478  0.898070  0.005511  1
  H  H7  1  0.710715  0.955019  0.840596  1
  H  H8  1  0.408278  0.352642  0.325537  1
  H  H9  1  0.789285  0.044981  0.340596  1
  H  H10  1  0.472478  0.601930  0.994489  1
  H  H11  1  0.289285  0.455019  0.659404  1
  H  H12  1  0.896786  0.513300  0.319185  1
  H  H13  1  0.594084  0.629151  0.470144  1
  H  H14  1  0.027522  0.398070  0.494489  1
  H  H15  1  0.094084  0.870849  0.529856  1
  H  H16  1  0.591722  0.852642  0.174463  1
  H  H17  1  0.908278  0.147358  0.674463  1
  H  H18  1  0.091722  0.647358  0.825537  1
  H  H19  1  0.103214  0.013300  0.180815  1
  H  H20  1  0.405916  0.129151  0.029856  1
  H  H21  1  0.603214  0.486700  0.819185  1
  H  H22  1  0.527522  0.101930  0.505511  1
  H  H23  1  0.210715  0.544981  0.159404  1
  Ir  Ir24  1  0.198226  0.163501  0.589698  1
  Ir  Ir25  1  0.301774  0.836499  0.089698  1
  Ir  Ir26  1  0.801774  0.663501  0.910302  1
  Ir  Ir27  1  0.698226  0.336499  0.410302  1
