# generated using pymatgen
data_Tb3Yb2Sb3O14
_symmetry_space_group_name_H-M   'P 1'
_cell_length_a   7.38516640
_cell_length_b   7.38516286
_cell_length_c   7.38517135
_cell_angle_alpha   119.20187207
_cell_angle_beta   60.79812870
_cell_angle_gamma   119.20192011
_symmetry_Int_Tables_number   1
_chemical_formula_structural   Tb3Yb2Sb3O14
_chemical_formula_sum   'Tb3 Yb2 Sb3 O14'
_cell_volume   289.94423592
_cell_formula_units_Z   1
loop_
 _symmetry_equiv_pos_site_id
 _symmetry_equiv_pos_as_xyz
  1  'x, y, z'
loop_
 _atom_site_type_symbol
 _atom_site_label
 _atom_site_symmetry_multiplicity
 _atom_site_fract_x
 _atom_site_fract_y
 _atom_site_fract_z
 _atom_site_occupancy
  Tb  Tb0  1  0.999999  0.500000  0.999998  1
  Tb  Tb1  1  0.499999  0.000000  0.000001  1
  Tb  Tb2  1  0.499999  0.500000  0.499998  1
  Yb  Yb3  1  0.500000  0.500002  0.999999  1
  Yb  Yb4  1  0.000001  0.999999  0.500002  1
  Sb  Sb5  1  0.500001  0.000000  0.499999  1
  Sb  Sb6  1  0.000000  0.499999  0.500000  1
  Sb  Sb7  1  0.000001  0.000001  0.000001  1
  O  O8  1  0.624454  0.375546  0.124453  1
  O  O9  1  0.375544  0.624454  0.875544  1
  O  O10  1  0.092684  0.320104  0.179897  1
  O  O11  1  0.679898  0.907317  0.179897  1
  O  O12  1  0.679896  0.320104  0.592685  1
  O  O13  1  0.907319  0.679898  0.820103  1
  O  O14  1  0.320103  0.092681  0.820103  1
  O  O15  1  0.320104  0.679896  0.407318  1
  O  O16  1  0.628794  0.900079  0.599922  1
  O  O17  1  0.099919  0.371207  0.599920  1
  O  O18  1  0.099921  0.900079  0.128795  1
  O  O19  1  0.371210  0.099921  0.400078  1
  O  O20  1  0.900077  0.628791  0.400078  1
  O  O21  1  0.900079  0.099921  0.871209  1
