# generated using pymatgen
data_Er3In3Ag2Au
_symmetry_space_group_name_H-M   'P 1'
_cell_length_a   7.82933400
_cell_length_b   7.82933301
_cell_length_c   3.92195500
_cell_angle_alpha   90.00000000
_cell_angle_beta   90.00000000
_cell_angle_gamma   120.00000417
_symmetry_Int_Tables_number   1
_chemical_formula_structural   Er3In3Ag2Au
_chemical_formula_sum   'Er3 In3 Ag2 Au1'
_cell_volume   208.20099758
_cell_formula_units_Z   1
loop_
 _symmetry_equiv_pos_site_id
 _symmetry_equiv_pos_as_xyz
  1  'x, y, z'
loop_
 _atom_site_type_symbol
 _atom_site_label
 _atom_site_symmetry_multiplicity
 _atom_site_fract_x
 _atom_site_fract_y
 _atom_site_fract_z
 _atom_site_occupancy
  Er  Er0  1  0.590699  0.994190  0.500000  1
  Er  Er1  1  0.403491  0.409301  0.500000  1
  Er  Er2  1  0.005810  0.596509  0.500000  1
  In  In3  1  0.995691  0.259126  0.000000  1
  In  In4  1  0.740874  0.736565  0.000000  1
  In  In5  1  0.263435  0.004309  0.000000  1
  Ag  Ag6  1  0.666667  0.333333  0.000000  1
  Ag  Ag7  1  0.000000  0.000000  0.500000  1
  Au  Au8  1  0.333333  0.666667  0.000000  1
