# generated using pymatgen
data_Ti4Pd2O
_symmetry_space_group_name_H-M   'P 1'
_cell_length_a   8.29730756
_cell_length_b   8.29730654
_cell_length_c   8.29730700
_cell_angle_alpha   59.99999417
_cell_angle_beta   59.99999824
_cell_angle_gamma   59.99999706
_symmetry_Int_Tables_number   1
_chemical_formula_structural   Ti4Pd2O
_chemical_formula_sum   'Ti16 Pd8 O4'
_cell_volume   403.92101626
_cell_formula_units_Z   4
loop_
 _symmetry_equiv_pos_site_id
 _symmetry_equiv_pos_as_xyz
  1  'x, y, z'
loop_
 _atom_site_type_symbol
 _atom_site_label
 _atom_site_symmetry_multiplicity
 _atom_site_fract_x
 _atom_site_fract_y
 _atom_site_fract_z
 _atom_site_occupancy
  Ti  Ti0  1  0.125000  0.625000  0.625000  1
  Ti  Ti1  1  0.625000  0.125000  0.625000  1
  Ti  Ti2  1  0.625000  0.625000  0.125000  1
  Ti  Ti3  1  0.625000  0.625000  0.625000  1
  Ti  Ti4  1  0.821488  0.821488  0.178512  1
  Ti  Ti5  1  0.178512  0.178512  0.821488  1
  Ti  Ti6  1  0.821488  0.178512  0.821488  1
  Ti  Ti7  1  0.178512  0.821488  0.178512  1
  Ti  Ti8  1  0.178512  0.821488  0.821488  1
  Ti  Ti9  1  0.821488  0.178512  0.178512  1
  Ti  Ti10  1  0.428512  0.428512  0.071488  1
  Ti  Ti11  1  0.071488  0.071488  0.428512  1
  Ti  Ti12  1  0.428512  0.071488  0.428512  1
  Ti  Ti13  1  0.071488  0.428512  0.071488  1
  Ti  Ti14  1  0.071488  0.428512  0.428512  1
  Ti  Ti15  1  0.428512  0.071488  0.071488  1
  Pd  Pd16  1  0.767166  0.410945  0.410945  1
  Pd  Pd17  1  0.410945  0.767166  0.410945  1
  Pd  Pd18  1  0.410945  0.410945  0.767166  1
  Pd  Pd19  1  0.410945  0.410945  0.410945  1
  Pd  Pd20  1  0.482834  0.839055  0.839055  1
  Pd  Pd21  1  0.839055  0.482834  0.839055  1
  Pd  Pd22  1  0.839055  0.839055  0.482834  1
  Pd  Pd23  1  0.839055  0.839055  0.839055  1
  O  O24  1  0.625000  0.125000  0.125000  1
  O  O25  1  0.125000  0.625000  0.125000  1
  O  O26  1  0.125000  0.125000  0.625000  1
  O  O27  1  0.125000  0.125000  0.125000  1
