# generated using pymatgen
data_Tb3Mg3GaSiAg
_symmetry_space_group_name_H-M   'P 1'
_cell_length_a   7.30071700
_cell_length_b   7.30071641
_cell_length_c   4.34365400
_cell_angle_alpha   90.00000000
_cell_angle_beta   90.00000000
_cell_angle_gamma   119.99999812
_symmetry_Int_Tables_number   1
_chemical_formula_structural   Tb3Mg3GaSiAg
_chemical_formula_sum   'Tb3 Mg3 Ga1 Si1 Ag1'
_cell_volume   200.50114487
_cell_formula_units_Z   1
loop_
 _symmetry_equiv_pos_site_id
 _symmetry_equiv_pos_as_xyz
  1  'x, y, z'
loop_
 _atom_site_type_symbol
 _atom_site_label
 _atom_site_symmetry_multiplicity
 _atom_site_fract_x
 _atom_site_fract_y
 _atom_site_fract_z
 _atom_site_occupancy
  Tb  Tb0  1  0.578713  0.002666  0.000000  1
  Tb  Tb1  1  0.997334  0.576048  0.000000  1
  Tb  Tb2  1  0.423952  0.421287  0.000000  1
  Mg  Mg3  1  0.247376  0.000816  0.500000  1
  Mg  Mg4  1  0.999184  0.246559  0.500000  1
  Mg  Mg5  1  0.753441  0.752624  0.500000  1
  Ga  Ga6  1  0.333333  0.666667  0.500000  1
  Si  Si7  1  0.666667  0.333333  0.500000  1
  Ag  Ag8  1  0.000000  0.000000  0.000000  1
