# generated using pymatgen
data_Tb3Yb6Er2In9Pd4
_symmetry_space_group_name_H-M   'P 1'
_cell_length_a   13.32583728
_cell_length_b   13.32578297
_cell_length_c   3.66339000
_cell_angle_alpha   90.00000000
_cell_angle_beta   90.00000000
_cell_angle_gamma   112.12171581
_symmetry_Int_Tables_number   1
_chemical_formula_structural   Tb3Yb6Er2In9Pd4
_chemical_formula_sum   'Tb3 Yb6 Er2 In9 Pd4'
_cell_volume   602.64612274
_cell_formula_units_Z   1
loop_
 _symmetry_equiv_pos_site_id
 _symmetry_equiv_pos_as_xyz
  1  'x, y, z'
loop_
 _atom_site_type_symbol
 _atom_site_label
 _atom_site_symmetry_multiplicity
 _atom_site_fract_x
 _atom_site_fract_y
 _atom_site_fract_z
 _atom_site_occupancy
  Tb  Tb0  1  0.310771  0.310771  0.000000  1
  Tb  Tb1  1  0.689229  0.689229  0.000000  1
  Tb  Tb2  1  0.000000  0.000000  0.000000  1
  Yb  Yb3  1  0.413900  0.069277  0.000000  1
  Yb  Yb4  1  0.586100  0.930723  0.000000  1
  Yb  Yb5  1  0.069263  0.413899  0.000000  1
  Yb  Yb6  1  0.930737  0.586101  0.000000  1
  Yb  Yb7  1  0.160207  0.839792  0.000000  1
  Yb  Yb8  1  0.839793  0.160208  0.000000  1
  Er  Er9  1  0.377536  0.622472  0.000000  1
  Er  Er10  1  0.622464  0.377528  0.000000  1
  In  In11  1  0.369096  0.834269  0.500000  1
  In  In12  1  0.630904  0.165731  0.500000  1
  In  In13  1  0.834266  0.369094  0.500000  1
  In  In14  1  0.165734  0.630906  0.500000  1
  In  In15  1  0.217960  0.077739  0.500000  1
  In  In16  1  0.782040  0.922261  0.500000  1
  In  In17  1  0.077739  0.217959  0.500000  1
  In  In18  1  0.922261  0.782041  0.500000  1
  In  In19  1  0.500000  0.500000  0.500000  1
  Pd  Pd20  1  0.448170  0.245193  0.500000  1
  Pd  Pd21  1  0.551830  0.754807  0.500000  1
  Pd  Pd22  1  0.245190  0.448171  0.500000  1
  Pd  Pd23  1  0.754810  0.551829  0.500000  1
