# generated using pymatgen
data_Y4Ga6AgIr
_symmetry_space_group_name_H-M   'P 1'
_cell_length_a   7.12227800
_cell_length_b   9.03782558
_cell_length_c   9.03782700
_cell_angle_alpha   119.99999423
_cell_angle_beta   90.00000000
_cell_angle_gamma   90.00000000
_symmetry_Int_Tables_number   1
_chemical_formula_structural   Y4Ga6AgIr
_chemical_formula_sum   'Y8 Ga12 Ag2 Ir2'
_cell_volume   503.82249893
_cell_formula_units_Z   2
loop_
 _symmetry_equiv_pos_site_id
 _symmetry_equiv_pos_as_xyz
  1  'x, y, z'
loop_
 _atom_site_type_symbol
 _atom_site_label
 _atom_site_symmetry_multiplicity
 _atom_site_fract_x
 _atom_site_fract_y
 _atom_site_fract_z
 _atom_site_occupancy
  Y  Y0  1  0.746151  0.000000  0.000000  1
  Y  Y1  1  0.253849  0.000000  0.000000  1
  Y  Y2  1  0.739490  0.479401  0.520599  1
  Y  Y3  1  0.260510  0.520599  0.479401  1
  Y  Y4  1  0.739490  0.041197  0.520599  1
  Y  Y5  1  0.260510  0.958803  0.479401  1
  Y  Y6  1  0.739490  0.479401  0.958803  1
  Y  Y7  1  0.260510  0.520599  0.041197  1
  Ga  Ga8  1  0.953747  0.835463  0.164537  1
  Ga  Ga9  1  0.046253  0.164537  0.835463  1
  Ga  Ga10  1  0.953747  0.329076  0.164537  1
  Ga  Ga11  1  0.453427  0.169566  0.830434  1
  Ga  Ga12  1  0.046253  0.670924  0.835463  1
  Ga  Ga13  1  0.546573  0.830434  0.169566  1
  Ga  Ga14  1  0.953747  0.835463  0.670924  1
  Ga  Ga15  1  0.453427  0.660868  0.830434  1
  Ga  Ga16  1  0.046253  0.164537  0.329076  1
  Ga  Ga17  1  0.546573  0.339132  0.169566  1
  Ga  Ga18  1  0.453427  0.169566  0.339132  1
  Ga  Ga19  1  0.546573  0.830434  0.660868  1
  Ag  Ag20  1  0.944643  0.666667  0.333333  1
  Ag  Ag21  1  0.055357  0.333333  0.666667  1
  Ir  Ir22  1  0.483508  0.333333  0.666667  1
  Ir  Ir23  1  0.516492  0.666667  0.333333  1
