# generated using pymatgen
data_Pr12Os2RuPt
_symmetry_space_group_name_H-M   'P 1'
_cell_length_a   6.57334969
_cell_length_b   7.50106551
_cell_length_c   9.89837100
_cell_angle_alpha   90.00000000
_cell_angle_beta   90.00000000
_cell_angle_gamma   90.23432631
_symmetry_Int_Tables_number   1
_chemical_formula_structural   Pr12Os2RuPt
_chemical_formula_sum   'Pr12 Os2 Ru1 Pt1'
_cell_volume   488.05615030
_cell_formula_units_Z   1
loop_
 _symmetry_equiv_pos_site_id
 _symmetry_equiv_pos_as_xyz
  1  'x, y, z'
loop_
 _atom_site_type_symbol
 _atom_site_label
 _atom_site_symmetry_multiplicity
 _atom_site_fract_x
 _atom_site_fract_y
 _atom_site_fract_z
 _atom_site_occupancy
  Pr  Pr0  1  0.335115  0.671385  0.064166  1
  Pr  Pr1  1  0.170588  0.181682  0.435916  1
  Pr  Pr2  1  0.672481  0.323358  0.567714  1
  Pr  Pr3  1  0.825980  0.825007  0.929396  1
  Pr  Pr4  1  0.672481  0.323358  0.932286  1
  Pr  Pr5  1  0.825980  0.825007  0.570604  1
  Pr  Pr6  1  0.335115  0.671385  0.435834  1
  Pr  Pr7  1  0.170588  0.181682  0.064084  1
  Pr  Pr8  1  0.854327  0.532957  0.250000  1
  Pr  Pr9  1  0.636091  0.042851  0.250000  1
  Pr  Pr10  1  0.142477  0.462918  0.750000  1
  Pr  Pr11  1  0.353272  0.960427  0.750000  1
  Os  Os12  1  0.441572  0.383602  0.250000  1
  Os  Os13  1  0.554396  0.615676  0.750000  1
  Ru  Ru14  1  0.947674  0.114201  0.750000  1
  Pt  Pt15  1  0.061867  0.884504  0.250000  1
