# generated using pymatgen
data_LiCa2La2Ir
_symmetry_space_group_name_H-M   'P 1'
_cell_length_a   10.16528460
_cell_length_b   10.16528353
_cell_length_c   10.30758000
_cell_angle_alpha   59.53585672
_cell_angle_beta   59.53586025
_cell_angle_gamma   60.92829885
_symmetry_Int_Tables_number   1
_chemical_formula_structural   LiCa2La2Ir
_chemical_formula_sum   'Li4 Ca8 La8 Ir4'
_cell_volume   752.84946873
_cell_formula_units_Z   4
loop_
 _symmetry_equiv_pos_site_id
 _symmetry_equiv_pos_as_xyz
  1  'x, y, z'
loop_
 _atom_site_type_symbol
 _atom_site_label
 _atom_site_symmetry_multiplicity
 _atom_site_fract_x
 _atom_site_fract_y
 _atom_site_fract_z
 _atom_site_occupancy
  Li  Li0  1  0.575633  0.575633  0.577424  1
  Li  Li1  1  0.575633  0.575633  0.271309  1
  Li  Li2  1  0.577424  0.271309  0.575633  1
  Li  Li3  1  0.271309  0.577424  0.575633  1
  Ca  Ca4  1  0.190257  0.190257  0.809743  1
  Ca  Ca5  1  0.809743  0.809743  0.190257  1
  Ca  Ca6  1  0.940335  0.559665  0.559665  1
  Ca  Ca7  1  0.559665  0.940335  0.940335  1
  Ca  Ca8  1  0.559665  0.940335  0.559665  1
  Ca  Ca9  1  0.940335  0.559665  0.940335  1
  Ca  Ca10  1  0.556682  0.556682  0.943318  1
  Ca  Ca11  1  0.943318  0.943318  0.556682  1
  La  La12  1  0.341647  0.341647  0.343957  1
  La  La13  1  0.341647  0.341647  0.972750  1
  La  La14  1  0.343957  0.972750  0.341647  1
  La  La15  1  0.972750  0.343957  0.341647  1
  La  La16  1  0.812914  0.187086  0.187086  1
  La  La17  1  0.187086  0.812914  0.812914  1
  La  La18  1  0.187086  0.812914  0.187086  1
  La  La19  1  0.812914  0.187086  0.812914  1
  Ir  Ir20  1  0.133289  0.133289  0.153618  1
  Ir  Ir21  1  0.133289  0.133289  0.579803  1
  Ir  Ir22  1  0.153618  0.579803  0.133289  1
  Ir  Ir23  1  0.579803  0.153618  0.133289  1
