# generated using pymatgen
data_Pr20Ir4RuPt7
_symmetry_space_group_name_H-M   'P 1'
_cell_length_a   11.52046300
_cell_length_b   11.52027401
_cell_length_c   6.60603010
_cell_angle_alpha   90.04624911
_cell_angle_beta   90.04751281
_cell_angle_gamma   89.97862615
_symmetry_Int_Tables_number   1
_chemical_formula_structural   Pr20Ir4RuPt7
_chemical_formula_sum   'Pr20 Ir4 Ru1 Pt7'
_cell_volume   876.74433686
_cell_formula_units_Z   1
loop_
 _symmetry_equiv_pos_site_id
 _symmetry_equiv_pos_as_xyz
  1  'x, y, z'
loop_
 _atom_site_type_symbol
 _atom_site_label
 _atom_site_symmetry_multiplicity
 _atom_site_fract_x
 _atom_site_fract_y
 _atom_site_fract_z
 _atom_site_occupancy
  Pr  Pr0  1  0.296108  0.088191  0.374090  1
  Pr  Pr1  1  0.296704  0.907061  0.876978  1
  Pr  Pr2  1  0.703606  0.088416  0.876452  1
  Pr  Pr3  1  0.703151  0.910803  0.373988  1
  Pr  Pr4  1  0.586101  0.794635  0.876008  1
  Pr  Pr5  1  0.588989  0.204928  0.375184  1
  Pr  Pr6  1  0.409102  0.793019  0.380848  1
  Pr  Pr7  1  0.410598  0.203157  0.876537  1
  Pr  Pr8  1  0.206786  0.413257  0.624689  1
  Pr  Pr9  1  0.208021  0.591469  0.118224  1
  Pr  Pr10  1  0.793884  0.410312  0.123571  1
  Pr  Pr11  1  0.795513  0.590196  0.624103  1
  Pr  Pr12  1  0.911196  0.704925  0.125028  1
  Pr  Pr13  1  0.910804  0.295038  0.624437  1
  Pr  Pr14  1  0.093864  0.704535  0.623775  1
  Pr  Pr15  1  0.089843  0.295826  0.125021  1
  Pr  Pr16  1  0.999358  0.999382  0.500114  1
  Pr  Pr17  1  0.000668  0.000738  0.999456  1
  Pr  Pr18  1  0.498129  0.501248  0.999719  1
  Pr  Pr19  1  0.498795  0.501874  0.499812  1
  Ir  Ir20  1  0.346913  0.652424  0.749775  1
  Ir  Ir21  1  0.500187  0.001070  0.616179  1
  Ir  Ir22  1  0.998822  0.499734  0.884797  1
  Ir  Ir23  1  0.999746  0.499844  0.383068  1
  Ru  Ru24  1  0.500262  0.000373  0.117340  1
  Pt  Pt25  1  0.846283  0.154064  0.250241  1
  Pt  Pt26  1  0.845941  0.846361  0.750668  1
  Pt  Pt27  1  0.153252  0.154430  0.749357  1
  Pt  Pt28  1  0.153230  0.846468  0.250236  1
  Pt  Pt29  1  0.653800  0.346533  0.749978  1
  Pt  Pt30  1  0.655435  0.654691  0.250170  1
  Pt  Pt31  1  0.344911  0.344998  0.250159  1
