# generated using pymatgen
data_Mn2BiPt4PbO14
_symmetry_space_group_name_H-M   'P 1'
_cell_length_a   7.24672569
_cell_length_b   7.32602897
_cell_length_c   7.24672497
_cell_angle_alpha   59.36053260
_cell_angle_beta   59.18847546
_cell_angle_gamma   59.36052438
_symmetry_Int_Tables_number   1
_chemical_formula_structural   Mn2BiPt4PbO14
_chemical_formula_sum   'Mn2 Bi1 Pt4 Pb1 O14'
_cell_volume   267.72481534
_cell_formula_units_Z   1
loop_
 _symmetry_equiv_pos_site_id
 _symmetry_equiv_pos_as_xyz
  1  'x, y, z'
loop_
 _atom_site_type_symbol
 _atom_site_label
 _atom_site_symmetry_multiplicity
 _atom_site_fract_x
 _atom_site_fract_y
 _atom_site_fract_z
 _atom_site_occupancy
  Mn  Mn0  1  0.125000  0.125000  0.625000  1
  Mn  Mn1  1  0.625000  0.125000  0.125000  1
  Bi  Bi2  1  0.125000  0.625000  0.125000  1
  Pt  Pt3  1  0.625000  0.625000  0.125000  1
  Pt  Pt4  1  0.625000  0.125000  0.625000  1
  Pt  Pt5  1  0.125000  0.625000  0.625000  1
  Pt  Pt6  1  0.625000  0.625000  0.625000  1
  Pb  Pb7  1  0.125000  0.125000  0.125000  1
  O  O8  1  0.261299  0.228881  0.261299  1
  O  O9  1  0.988701  0.021119  0.988701  1
  O  O10  1  0.537416  0.963662  0.537416  1
  O  O11  1  0.287512  0.714530  0.287512  1
  O  O12  1  0.543761  0.530812  0.964192  1
  O  O13  1  0.964192  0.530812  0.543761  1
  O  O14  1  0.539481  0.961732  0.963108  1
  O  O15  1  0.963108  0.961732  0.539481  1
  O  O16  1  0.962488  0.535470  0.962488  1
  O  O17  1  0.710519  0.288268  0.286892  1
  O  O18  1  0.285808  0.719188  0.706239  1
  O  O19  1  0.712584  0.286338  0.712584  1
  O  O20  1  0.286892  0.288268  0.710519  1
  O  O21  1  0.706239  0.719188  0.285808  1
