# generated using pymatgen
data_Er7Tm3(IrRh)2
_symmetry_space_group_name_H-M   'P 1'
_cell_length_a   6.40859016
_cell_length_b   7.13180261
_cell_length_c   8.46249835
_cell_angle_alpha   96.51545413
_cell_angle_beta   112.26011375
_cell_angle_gamma   90.00966836
_symmetry_Int_Tables_number   1
_chemical_formula_structural   Er7Tm3(IrRh)2
_chemical_formula_sum   'Er7 Tm3 Ir2 Rh2'
_cell_volume   355.24795513
_cell_formula_units_Z   1
loop_
 _symmetry_equiv_pos_site_id
 _symmetry_equiv_pos_as_xyz
  1  'x, y, z'
loop_
 _atom_site_type_symbol
 _atom_site_label
 _atom_site_symmetry_multiplicity
 _atom_site_fract_x
 _atom_site_fract_y
 _atom_site_fract_z
 _atom_site_occupancy
  Er  Er0  1  0.974271  0.918449  0.184975  1
  Er  Er1  1  0.789425  0.581692  0.814901  1
  Er  Er2  1  0.028096  0.081721  0.816902  1
  Er  Er3  1  0.211351  0.418163  0.183170  1
  Er  Er4  1  0.653560  0.816754  0.440143  1
  Er  Er5  1  0.213179  0.682963  0.559620  1
  Er  Er6  1  0.345955  0.184878  0.558522  1
  Tm  Tm7  1  0.787387  0.315446  0.441460  1
  Tm  Tm8  1  0.425687  0.750156  0.000024  1
  Tm  Tm9  1  0.571743  0.249955  0.000130  1
  Ir  Ir10  1  0.175299  0.426930  0.779841  1
  Ir  Ir11  1  0.396190  0.073203  0.219863  1
  Rh  Rh12  1  0.823162  0.571801  0.218480  1
  Rh  Rh13  1  0.604697  0.927888  0.781966  1
