# generated using pymatgen
data_La3Mg2ZnPt3
_symmetry_space_group_name_H-M   'P 1'
_cell_length_a   7.63683146
_cell_length_b   7.60772961
_cell_length_c   4.15514200
_cell_angle_alpha   90.00000000
_cell_angle_beta   90.00000000
_cell_angle_gamma   119.87402610
_symmetry_Int_Tables_number   1
_chemical_formula_structural   La3Mg2ZnPt3
_chemical_formula_sum   'La3 Mg2 Zn1 Pt3'
_cell_volume   209.33154093
_cell_formula_units_Z   1
loop_
 _symmetry_equiv_pos_site_id
 _symmetry_equiv_pos_as_xyz
  1  'x, y, z'
loop_
 _atom_site_type_symbol
 _atom_site_label
 _atom_site_symmetry_multiplicity
 _atom_site_fract_x
 _atom_site_fract_y
 _atom_site_fract_z
 _atom_site_occupancy
  La  La0  1  0.404182  0.992534  0.000000  1
  La  La1  1  0.000000  0.424431  0.000000  1
  La  La2  1  0.595819  0.588352  0.000000  1
  Mg  Mg3  1  0.764705  0.000839  0.500000  1
  Mg  Mg4  1  0.235295  0.236135  0.500000  1
  Zn  Zn5  1  0.000000  0.762138  0.500000  1
  Pt  Pt6  1  0.000000  0.998644  0.000000  1
  Pt  Pt7  1  0.665174  0.331052  0.500000  1
  Pt  Pt8  1  0.334826  0.665877  0.500000  1
