# generated using pymatgen
data_Sc20Si13As2Se
_symmetry_space_group_name_H-M   'P 1'
_cell_length_a   7.02099849
_cell_length_b   7.17901629
_cell_length_c   13.71422020
_cell_angle_alpha   90.34498139
_cell_angle_beta   86.02784730
_cell_angle_gamma   90.40815747
_symmetry_Int_Tables_number   1
_chemical_formula_structural   Sc20Si13As2Se
_chemical_formula_sum   'Sc20 Si13 As2 Se1'
_cell_volume   689.56109112
_cell_formula_units_Z   1
loop_
 _symmetry_equiv_pos_site_id
 _symmetry_equiv_pos_as_xyz
  1  'x, y, z'
loop_
 _atom_site_type_symbol
 _atom_site_label
 _atom_site_symmetry_multiplicity
 _atom_site_fract_x
 _atom_site_fract_y
 _atom_site_fract_z
 _atom_site_occupancy
  Sc  Sc0  1  0.196067  0.995259  0.754630  1
  Sc  Sc1  1  0.803520  0.004536  0.247583  1
  Sc  Sc2  1  0.303547  0.498039  0.247791  1
  Sc  Sc3  1  0.696200  0.501728  0.750482  1
  Sc  Sc4  1  0.038397  0.665663  0.609650  1
  Sc  Sc5  1  0.950851  0.332255  0.388731  1
  Sc  Sc6  1  0.465659  0.182622  0.390051  1
  Sc  Sc7  1  0.998184  0.321699  0.097548  1
  Sc  Sc8  1  0.546264  0.819013  0.610754  1
  Sc  Sc9  1  0.002234  0.677379  0.902891  1
  Sc  Sc10  1  0.502838  0.820998  0.902933  1
  Sc  Sc11  1  0.496656  0.178201  0.097959  1
  Sc  Sc12  1  0.385331  0.340514  0.619813  1
  Sc  Sc13  1  0.617796  0.663252  0.380865  1
  Sc  Sc14  1  0.112629  0.833835  0.379188  1
  Sc  Sc15  1  0.648040  0.679819  0.124597  1
  Sc  Sc16  1  0.882444  0.166916  0.619043  1
  Sc  Sc17  1  0.350531  0.320800  0.875518  1
  Sc  Sc18  1  0.851114  0.177491  0.875114  1
  Sc  Sc19  1  0.149766  0.823236  0.125429  1
  Si  Si20  1  0.069807  0.384464  0.748511  1
  Si  Si21  1  0.930000  0.615119  0.249843  1
  Si  Si22  1  0.430490  0.887224  0.253368  1
  Si  Si23  1  0.569162  0.113316  0.747403  1
  Si  Si24  1  0.319879  0.632011  0.754043  1
  Si  Si25  1  0.678340  0.369220  0.245006  1
  Si  Si26  1  0.180204  0.133617  0.248127  1
  Si  Si27  1  0.821765  0.867093  0.752453  1
  Si  Si28  1  0.830925  0.968800  0.038758  1
  Si  Si29  1  0.726800  0.479378  0.544668  1
  Si  Si30  1  0.168814  0.030863  0.961600  1
  Si  Si31  1  0.669112  0.467254  0.961221  1
  Si  Si32  1  0.330598  0.532575  0.039000  1
  As  As33  1  0.771902  0.984932  0.453520  1
  As  As34  1  0.268635  0.517954  0.454392  1
  Se  Se35  1  0.235500  0.012928  0.547519  1
