# generated using pymatgen
data_Ac4CoRu3I2
_symmetry_space_group_name_H-M   'P 1'
_cell_length_a   4.37188500
_cell_length_b   4.37188434
_cell_length_c   18.87847400
_cell_angle_alpha   90.00000000
_cell_angle_beta   90.00000000
_cell_angle_gamma   119.99999742
_symmetry_Int_Tables_number   1
_chemical_formula_structural   Ac4CoRu3I2
_chemical_formula_sum   'Ac4 Co1 Ru3 I2'
_cell_volume   312.48913564
_cell_formula_units_Z   1
loop_
 _symmetry_equiv_pos_site_id
 _symmetry_equiv_pos_as_xyz
  1  'x, y, z'
loop_
 _atom_site_type_symbol
 _atom_site_label
 _atom_site_symmetry_multiplicity
 _atom_site_fract_x
 _atom_site_fract_y
 _atom_site_fract_z
 _atom_site_occupancy
  Ac  Ac0  1  0.000000  0.000000  0.104978  1
  Ac  Ac1  1  0.000000  0.000000  0.398836  1
  Ac  Ac2  1  0.000000  0.000000  0.894859  1
  Ac  Ac3  1  0.000000  0.000000  0.601222  1
  Co  Co4  1  0.666667  0.333333  0.500905  1
  Ru  Ru5  1  0.333333  0.666667  0.003484  1
  Ru  Ru6  1  0.666667  0.333333  0.996466  1
  Ru  Ru7  1  0.333333  0.666667  0.499117  1
  I  I8  1  0.333333  0.666667  0.748078  1
  I  I9  1  0.666667  0.333333  0.252055  1
