# generated using pymatgen
data_Ac2Se2O
_symmetry_space_group_name_H-M   'P 1'
_cell_length_a   7.78550300
_cell_length_b   7.69680540
_cell_length_c   9.31078268
_cell_angle_alpha   81.10679562
_cell_angle_beta   90.00000000
_cell_angle_gamma   90.00000000
_symmetry_Int_Tables_number   1
_chemical_formula_structural   Ac2Se2O
_chemical_formula_sum   'Ac8 Se8 O4'
_cell_volume   551.22732559
_cell_formula_units_Z   4
loop_
 _symmetry_equiv_pos_site_id
 _symmetry_equiv_pos_as_xyz
  1  'x, y, z'
loop_
 _atom_site_type_symbol
 _atom_site_label
 _atom_site_symmetry_multiplicity
 _atom_site_fract_x
 _atom_site_fract_y
 _atom_site_fract_z
 _atom_site_occupancy
  Ac  Ac0  1  0.446286  0.244987  0.143646  1
  Ac  Ac1  1  0.053714  0.744987  0.143646  1
  Ac  Ac2  1  0.859395  0.319706  0.422204  1
  Ac  Ac3  1  0.640605  0.819706  0.422204  1
  Ac  Ac4  1  0.359395  0.180294  0.577796  1
  Ac  Ac5  1  0.140605  0.680294  0.577796  1
  Ac  Ac6  1  0.946286  0.255013  0.856354  1
  Ac  Ac7  1  0.553714  0.755013  0.856354  1
  Se  Se8  1  0.774163  0.474630  0.079497  1
  Se  Se9  1  0.725837  0.974630  0.079497  1
  Se  Se10  1  0.139552  0.058253  0.326134  1
  Se  Se11  1  0.360448  0.558253  0.326134  1
  Se  Se12  1  0.639552  0.441747  0.673866  1
  Se  Se13  1  0.860448  0.941747  0.673866  1
  Se  Se14  1  0.274163  0.025370  0.920503  1
  Se  Se15  1  0.225837  0.525370  0.920503  1
  O  O16  1  0.581438  0.147689  0.385041  1
  O  O17  1  0.918562  0.647689  0.385041  1
  O  O18  1  0.081438  0.352311  0.614959  1
  O  O19  1  0.418562  0.852311  0.614959  1
