# generated using pymatgen
data_NdTmIrRhO7
_symmetry_space_group_name_H-M   'P 1'
_cell_length_a   7.33418855
_cell_length_b   7.28126230
_cell_length_c   7.28126228
_cell_angle_alpha   59.60658590
_cell_angle_beta   59.75925500
_cell_angle_gamma   59.75925779
_symmetry_Int_Tables_number   1
_chemical_formula_structural   NdTmIrRhO7
_chemical_formula_sum   'Nd2 Tm2 Ir2 Rh2 O14'
_cell_volume   273.12532846
_cell_formula_units_Z   2
loop_
 _symmetry_equiv_pos_site_id
 _symmetry_equiv_pos_as_xyz
  1  'x, y, z'
loop_
 _atom_site_type_symbol
 _atom_site_label
 _atom_site_symmetry_multiplicity
 _atom_site_fract_x
 _atom_site_fract_y
 _atom_site_fract_z
 _atom_site_occupancy
  Nd  Nd0  1  0.625000  0.125000  0.125000  1
  Nd  Nd1  1  0.125000  0.125000  0.125000  1
  Tm  Tm2  1  0.125000  0.625000  0.125000  1
  Tm  Tm3  1  0.125000  0.125000  0.625000  1
  Ir  Ir4  1  0.125000  0.625000  0.625000  1
  Ir  Ir5  1  0.625000  0.625000  0.625000  1
  Rh  Rh6  1  0.625000  0.125000  0.625000  1
  Rh  Rh7  1  0.625000  0.625000  0.125000  1
  O  O8  1  0.723339  0.698321  0.292118  1
  O  O9  1  0.286221  0.292118  0.698321  1
  O  O10  1  0.723339  0.292118  0.698321  1
  O  O11  1  0.286221  0.698321  0.292118  1
  O  O12  1  0.292674  0.707326  0.707326  1
  O  O13  1  0.713217  0.286783  0.286783  1
  O  O14  1  0.526661  0.551679  0.957882  1
  O  O15  1  0.963779  0.957882  0.551679  1
  O  O16  1  0.526661  0.957882  0.551679  1
  O  O17  1  0.963779  0.551679  0.957882  1
  O  O18  1  0.957326  0.542674  0.542674  1
  O  O19  1  0.536783  0.963217  0.963217  1
  O  O20  1  0.239685  0.260315  0.260315  1
  O  O21  1  0.010315  0.989685  0.989685  1
