# generated using pymatgen
data_Cs2MnGeO4
_symmetry_space_group_name_H-M   'P 1'
_cell_length_a   7.25128230
_cell_length_b   6.15006179
_cell_length_c   8.38825700
_cell_angle_alpha   90.00000000
_cell_angle_beta   90.00000000
_cell_angle_gamma   115.09163629
_symmetry_Int_Tables_number   1
_chemical_formula_structural   Cs2MnGeO4
_chemical_formula_sum   'Cs4 Mn2 Ge2 O8'
_cell_volume   338.77953073
_cell_formula_units_Z   2
loop_
 _symmetry_equiv_pos_site_id
 _symmetry_equiv_pos_as_xyz
  1  'x, y, z'
loop_
 _atom_site_type_symbol
 _atom_site_label
 _atom_site_symmetry_multiplicity
 _atom_site_fract_x
 _atom_site_fract_y
 _atom_site_fract_z
 _atom_site_occupancy
  Cs  Cs0  1  0.173214  0.586607  0.085529  1
  Cs  Cs1  1  0.845701  0.922851  0.230086  1
  Cs  Cs2  1  0.826786  0.413392  0.585529  1
  Cs  Cs3  1  0.154299  0.077149  0.730085  1
  Mn  Mn4  1  0.409981  0.204991  0.306588  1
  Mn  Mn5  1  0.590019  0.795009  0.806589  1
  Ge  Ge6  1  0.618847  0.309423  0.017899  1
  Ge  Ge7  1  0.381154  0.690577  0.517900  1
  O  O8  1  0.348058  0.174029  0.055073  1
  O  O9  1  0.713512  0.356756  0.220721  1
  O  O10  1  0.289726  0.411190  0.415300  1
  O  O11  1  0.289726  0.878534  0.415300  1
  O  O12  1  0.651942  0.825971  0.555073  1
  O  O13  1  0.286487  0.643243  0.720722  1
  O  O14  1  0.710274  0.121465  0.915301  1
  O  O15  1  0.710274  0.588809  0.915301  1
