# generated using pymatgen
data_Tb2DyCu12
_symmetry_space_group_name_H-M   'P 1'
_cell_length_a   5.01382460
_cell_length_b   5.01382362
_cell_length_c   10.57773007
_cell_angle_alpha   94.81765651
_cell_angle_beta   94.81766752
_cell_angle_gamma   119.61012127
_symmetry_Int_Tables_number   1
_chemical_formula_structural   Tb2DyCu12
_chemical_formula_sum   'Tb2 Dy1 Cu12'
_cell_volume   227.93605863
_cell_formula_units_Z   1
loop_
 _symmetry_equiv_pos_site_id
 _symmetry_equiv_pos_as_xyz
  1  'x, y, z'
loop_
 _atom_site_type_symbol
 _atom_site_label
 _atom_site_symmetry_multiplicity
 _atom_site_fract_x
 _atom_site_fract_y
 _atom_site_fract_z
 _atom_site_occupancy
  Tb  Tb0  1  0.000147  0.000147  0.000326  1
  Tb  Tb1  1  0.866373  0.866373  0.641791  1
  Dy  Dy2  1  0.133972  0.133972  0.358075  1
  Cu  Cu3  1  0.663239  0.336812  0.000018  1
  Cu  Cu4  1  0.336812  0.663239  0.000018  1
  Cu  Cu5  1  0.568483  0.066902  0.196049  1
  Cu  Cu6  1  0.066902  0.568483  0.196049  1
  Cu  Cu7  1  0.570221  0.570221  0.202042  1
  Cu  Cu8  1  0.808034  0.470897  0.405354  1
  Cu  Cu9  1  0.470897  0.808034  0.405354  1
  Cu  Cu10  1  0.528514  0.191866  0.594256  1
  Cu  Cu11  1  0.191866  0.528514  0.594256  1
  Cu  Cu12  1  0.429894  0.429894  0.798220  1
  Cu  Cu13  1  0.933119  0.431526  0.804096  1
  Cu  Cu14  1  0.431526  0.933119  0.804096  1
