# generated using pymatgen
data_Sm8Ti(PdPt7)3
_symmetry_space_group_name_H-M   'P 1'
_cell_length_a   8.45420200
_cell_length_b   8.46935800
_cell_length_c   8.48797100
_cell_angle_alpha   90.00000000
_cell_angle_beta   90.00000000
_cell_angle_gamma   90.00000000
_symmetry_Int_Tables_number   1
_chemical_formula_structural   Sm8Ti(PdPt7)3
_chemical_formula_sum   'Sm8 Ti1 Pd3 Pt21'
_cell_volume   607.75284200
_cell_formula_units_Z   1
loop_
 _symmetry_equiv_pos_site_id
 _symmetry_equiv_pos_as_xyz
  1  'x, y, z'
loop_
 _atom_site_type_symbol
 _atom_site_label
 _atom_site_symmetry_multiplicity
 _atom_site_fract_x
 _atom_site_fract_y
 _atom_site_fract_z
 _atom_site_occupancy
  Sm  Sm0  1  0.251113  0.251251  0.251496  1
  Sm  Sm1  1  0.748748  0.748588  0.748449  1
  Sm  Sm2  1  0.748887  0.748749  0.251496  1
  Sm  Sm3  1  0.748748  0.251412  0.748449  1
  Sm  Sm4  1  0.251252  0.251412  0.748449  1
  Sm  Sm5  1  0.251113  0.748749  0.251496  1
  Sm  Sm6  1  0.251252  0.748588  0.748449  1
  Sm  Sm7  1  0.748887  0.251251  0.251496  1
  Ti  Ti8  1  0.000000  0.000000  0.000578  1
  Pd  Pd9  1  0.000000  0.500000  0.735795  1
  Pd  Pd10  1  0.500000  0.500000  0.255176  1
  Pd  Pd11  1  0.500000  0.500000  0.744521  1
  Pt  Pt12  1  0.264502  0.500000  0.999874  1
  Pt  Pt13  1  0.735498  0.500000  0.999874  1
  Pt  Pt14  1  0.000000  0.264525  0.500163  1
  Pt  Pt15  1  0.500000  0.265000  0.999904  1
  Pt  Pt16  1  0.000000  0.735475  0.500163  1
  Pt  Pt17  1  0.500000  0.735000  0.999904  1
  Pt  Pt18  1  0.500000  0.000000  0.264122  1
  Pt  Pt19  1  0.264276  0.000000  0.499986  1
  Pt  Pt20  1  0.500000  0.000000  0.735863  1
  Pt  Pt21  1  0.735724  0.000000  0.499986  1
  Pt  Pt22  1  0.000000  0.500000  0.264400  1
  Pt  Pt23  1  0.254761  0.500000  0.499761  1
  Pt  Pt24  1  0.745239  0.500000  0.499761  1
  Pt  Pt25  1  0.500000  0.255256  0.500121  1
  Pt  Pt26  1  0.500000  0.744744  0.500121  1
  Pt  Pt27  1  0.301824  0.000000  0.999831  1
  Pt  Pt28  1  0.698176  0.000000  0.999831  1
  Pt  Pt29  1  0.000000  0.301837  0.000090  1
  Pt  Pt30  1  0.000000  0.698163  0.000090  1
  Pt  Pt31  1  0.000000  0.000000  0.300716  1
  Pt  Pt32  1  0.000000  0.000000  0.699592  1
