# generated using pymatgen
data_Er2Hf4Sn5
_symmetry_space_group_name_H-M   'P 1'
_cell_length_a   11.08031022
_cell_length_b   11.08030994
_cell_length_c   11.08030956
_cell_angle_alpha   148.96219567
_cell_angle_beta   131.95796485
_cell_angle_gamma   58.30398449
_symmetry_Int_Tables_number   1
_chemical_formula_structural   Er2Hf4Sn5
_chemical_formula_sum   'Er4 Hf8 Sn10'
_cell_volume   517.58351296
_cell_formula_units_Z   2
loop_
 _symmetry_equiv_pos_site_id
 _symmetry_equiv_pos_as_xyz
  1  'x, y, z'
loop_
 _atom_site_type_symbol
 _atom_site_label
 _atom_site_symmetry_multiplicity
 _atom_site_fract_x
 _atom_site_fract_y
 _atom_site_fract_z
 _atom_site_occupancy
  Er  Er0  1  0.255870  0.143315  0.112554  1
  Er  Er1  1  0.744130  0.856685  0.887446  1
  Er  Er2  1  0.030761  0.643315  0.387446  1
  Er  Er3  1  0.969239  0.356685  0.612554  1
  Hf  Hf4  1  0.311036  0.561036  0.250000  1
  Hf  Hf5  1  0.688964  0.438964  0.750000  1
  Hf  Hf6  1  0.688964  0.938964  0.250000  1
  Hf  Hf7  1  0.311036  0.061036  0.750000  1
  Hf  Hf8  1  0.673923  0.435501  0.238423  1
  Hf  Hf9  1  0.326077  0.564499  0.761577  1
  Hf  Hf10  1  0.197079  0.935501  0.261577  1
  Hf  Hf11  1  0.802921  0.064499  0.738423  1
  Sn  Sn12  1  0.589126  0.289102  0.300024  1
  Sn  Sn13  1  0.410874  0.710898  0.699976  1
  Sn  Sn14  1  0.989078  0.789102  0.199976  1
  Sn  Sn15  1  0.010922  0.210898  0.800024  1
  Sn  Sn16  1  0.000000  0.250000  0.250000  1
  Sn  Sn17  1  0.000000  0.750000  0.750000  1
  Sn  Sn18  1  0.466948  0.067011  0.399936  1
  Sn  Sn19  1  0.533052  0.932989  0.600064  1
  Sn  Sn20  1  0.667076  0.567011  0.100064  1
  Sn  Sn21  1  0.332924  0.432989  0.899936  1
