# generated using pymatgen
data_Pm5Ge4
_symmetry_space_group_name_H-M   'P 1'
_cell_length_a   4.43776255
_cell_length_b   5.99051706
_cell_length_c   11.10334250
_cell_angle_alpha   117.78494633
_cell_angle_beta   113.67309063
_cell_angle_gamma   68.17297703
_symmetry_Int_Tables_number   1
_chemical_formula_structural   Pm5Ge4
_chemical_formula_sum   'Pm5 Ge4'
_cell_volume   232.87655840
_cell_formula_units_Z   1
loop_
 _symmetry_equiv_pos_site_id
 _symmetry_equiv_pos_as_xyz
  1  'x, y, z'
loop_
 _atom_site_type_symbol
 _atom_site_label
 _atom_site_symmetry_multiplicity
 _atom_site_fract_x
 _atom_site_fract_y
 _atom_site_fract_z
 _atom_site_occupancy
  Pm  Pm0  1  0.661154  0.380172  0.795651  1
  Pm  Pm1  1  0.068999  0.895148  0.964615  1
  Pm  Pm2  1  0.357856  0.091420  0.355637  1
  Pm  Pm3  1  0.477493  0.405171  0.131445  1
  Pm  Pm4  1  0.784981  0.688247  0.572441  1
  Ge  Ge5  1  0.787700  0.810516  0.137657  1
  Ge  Ge6  1  0.058466  0.141513  0.573547  1
  Ge  Ge7  1  0.350963  0.974385  0.789925  1
  Ge  Ge8  1  0.085196  0.636490  0.353719  1
