# generated using pymatgen
data_CePrMn22C3
_symmetry_space_group_name_H-M   'P 1'
_cell_length_a   6.54242921
_cell_length_b   7.80778594
_cell_length_c   7.83616715
_cell_angle_alpha   98.90889968
_cell_angle_beta   114.94707626
_cell_angle_gamma   65.50445394
_symmetry_Int_Tables_number   1
_chemical_formula_structural   CePrMn22C3
_chemical_formula_sum   'Ce1 Pr1 Mn22 C3'
_cell_volume   330.17457728
_cell_formula_units_Z   1
loop_
 _symmetry_equiv_pos_site_id
 _symmetry_equiv_pos_as_xyz
  1  'x, y, z'
loop_
 _atom_site_type_symbol
 _atom_site_label
 _atom_site_symmetry_multiplicity
 _atom_site_fract_x
 _atom_site_fract_y
 _atom_site_fract_z
 _atom_site_occupancy
  Ce  Ce0  1  0.616212  0.250989  0.750989  1
  Pr  Pr1  1  0.380420  0.750239  0.250239  1
  Mn  Mn2  1  0.999454  0.499284  0.999284  1
  Mn  Mn3  1  0.998366  0.500559  0.499209  1
  Mn  Mn4  1  0.499715  0.999209  0.000559  1
  Mn  Mn5  1  0.999354  0.000410  0.500410  1
  Mn  Mn6  1  0.118682  0.247770  0.747770  1
  Mn  Mn7  1  0.882079  0.751743  0.251743  1
  Mn  Mn8  1  0.175683  0.176702  0.416309  1
  Mn  Mn9  1  0.436077  0.916309  0.676702  1
  Mn  Mn10  1  0.853102  0.823939  0.919258  1
  Mn  Mn11  1  0.257782  0.419258  0.323939  1
  Mn  Mn12  1  0.186882  0.573437  0.829498  1
  Mn  Mn13  1  0.430821  0.329498  0.073437  1
  Mn  Mn14  1  0.844724  0.092758  0.167503  1
  Mn  Mn15  1  0.269979  0.667503  0.592758  1
  Mn  Mn16  1  0.825383  0.824134  0.584507  1
  Mn  Mn17  1  0.565009  0.084507  0.324134  1
  Mn  Mn18  1  0.145750  0.177095  0.078997  1
  Mn  Mn19  1  0.743850  0.578997  0.677095  1
  Mn  Mn20  1  0.814304  0.425609  0.168689  1
  Mn  Mn21  1  0.571224  0.668689  0.925609  1
  Mn  Mn22  1  0.153113  0.909743  0.829965  1
  Mn  Mn23  1  0.732891  0.329965  0.409743  1
  C  C24  1  0.501905  0.496467  0.502847  1
  C  C25  1  0.995525  0.002847  0.996467  1
  C  C26  1  0.501714  0.002339  0.502339  1
