# generated using pymatgen
data_Dy3Y2Co16(P4W)3
_symmetry_space_group_name_H-M   'P 1'
_cell_length_a   12.07991201
_cell_length_b   12.07921644
_cell_length_c   3.70894700
_cell_angle_alpha   90.00000000
_cell_angle_beta   90.00000000
_cell_angle_gamma   119.99809135
_symmetry_Int_Tables_number   1
_chemical_formula_structural   Dy3Y2Co16(P4W)3
_chemical_formula_sum   'Dy3 Y2 Co16 P12 W3'
_cell_volume   468.69696952
_cell_formula_units_Z   1
loop_
 _symmetry_equiv_pos_site_id
 _symmetry_equiv_pos_as_xyz
  1  'x, y, z'
loop_
 _atom_site_type_symbol
 _atom_site_label
 _atom_site_symmetry_multiplicity
 _atom_site_fract_x
 _atom_site_fract_y
 _atom_site_fract_z
 _atom_site_occupancy
  Dy  Dy0  1  0.666664  0.333336  0.000000  1
  Dy  Dy1  1  0.333336  0.666673  0.000000  1
  Dy  Dy2  1  0.000000  0.814954  0.500000  1
  Y  Y3  1  0.185055  0.185027  0.500000  1
  Y  Y4  1  0.814945  0.999973  0.500000  1
  Co  Co5  1  0.823235  0.198704  0.000000  1
  Co  Co6  1  0.801319  0.624565  0.000000  1
  Co  Co7  1  0.375460  0.176753  0.000000  1
  Co  Co8  1  0.198681  0.823246  0.000000  1
  Co  Co9  1  0.624540  0.801292  0.000000  1
  Co  Co10  1  0.176765  0.375469  0.000000  1
  Co  Co11  1  0.644119  0.126966  0.500000  1
  Co  Co12  1  0.873042  0.517175  0.500000  1
  Co  Co13  1  0.482844  0.355876  0.500000  1
  Co  Co14  1  0.126958  0.644133  0.500000  1
  Co  Co15  1  0.517156  0.873032  0.500000  1
  Co  Co16  1  0.355881  0.482847  0.500000  1
  Co  Co17  1  0.718850  0.718836  0.500000  1
  Co  Co18  1  0.281150  0.999987  0.500000  1
  Co  Co19  1  0.000000  0.281183  0.500000  1
  Co  Co20  1  0.000000  0.999947  0.000000  1
  P  P21  1  0.359847  0.359849  0.000000  1
  P  P22  1  0.640153  0.000002  0.000000  1
  P  P23  1  0.000000  0.640195  0.000000  1
  P  P24  1  0.834150  0.313790  0.500000  1
  P  P25  1  0.686215  0.520371  0.500000  1
  P  P26  1  0.479636  0.165847  0.500000  1
  P  P27  1  0.313785  0.834157  0.500000  1
  P  P28  1  0.520364  0.686211  0.500000  1
  P  P29  1  0.165850  0.479639  0.500000  1
  P  P30  1  0.822040  0.822000  0.000000  1
  P  P31  1  0.177960  0.999960  0.000000  1
  P  P32  1  0.000000  0.177982  0.000000  1
  W  W33  1  0.553882  0.553883  0.000000  1
  W  W34  1  0.446118  0.000001  0.000000  1
  W  W35  1  0.000000  0.446141  0.000000  1
