# generated using pymatgen
data_Tb4Ho12Cd4NiRu3
_symmetry_space_group_name_H-M   'P 1'
_cell_length_a   9.57819081
_cell_length_b   9.63975334
_cell_length_c   9.63975368
_cell_angle_alpha   59.64623315
_cell_angle_beta   59.42343954
_cell_angle_gamma   59.42343995
_symmetry_Int_Tables_number   1
_chemical_formula_structural   Tb4Ho12Cd4NiRu3
_chemical_formula_sum   'Tb4 Ho12 Cd4 Ni1 Ru3'
_cell_volume   622.16572405
_cell_formula_units_Z   1
loop_
 _symmetry_equiv_pos_site_id
 _symmetry_equiv_pos_as_xyz
  1  'x, y, z'
loop_
 _atom_site_type_symbol
 _atom_site_label
 _atom_site_symmetry_multiplicity
 _atom_site_fract_x
 _atom_site_fract_y
 _atom_site_fract_z
 _atom_site_occupancy
  Tb  Tb0  1  0.557932  0.937418  0.567312  1
  Tb  Tb1  1  0.940487  0.559181  0.940126  1
  Tb  Tb2  1  0.557932  0.567312  0.937418  1
  Tb  Tb3  1  0.940487  0.940126  0.559181  1
  Ho  Ho4  1  0.350397  0.346058  0.346058  1
  Ho  Ho5  1  0.351032  0.345654  0.960445  1
  Ho  Ho6  1  0.351032  0.960445  0.345654  1
  Ho  Ho7  1  0.959775  0.346949  0.346949  1
  Ho  Ho8  1  0.810848  0.187470  0.187470  1
  Ho  Ho9  1  0.184409  0.811773  0.811773  1
  Ho  Ho10  1  0.187676  0.811148  0.188444  1
  Ho  Ho11  1  0.809994  0.188767  0.810828  1
  Ho  Ho12  1  0.187676  0.188444  0.811148  1
  Ho  Ho13  1  0.809994  0.810828  0.188767  1
  Ho  Ho14  1  0.939629  0.559648  0.559648  1
  Ho  Ho15  1  0.558045  0.938079  0.938079  1
  Cd  Cd16  1  0.579483  0.580490  0.580490  1
  Cd  Cd17  1  0.579416  0.580966  0.257684  1
  Cd  Cd18  1  0.579416  0.257684  0.580966  1
  Cd  Cd19  1  0.257509  0.580013  0.580013  1
  Ni  Ni20  1  0.578090  0.141942  0.141942  1
  Ru  Ru21  1  0.142763  0.139123  0.139123  1
  Ru  Ru22  1  0.142990  0.141924  0.578556  1
  Ru  Ru23  1  0.142990  0.578556  0.141924  1
