# generated using pymatgen
data_Sr(GaI4)2
_symmetry_space_group_name_H-M   'P 1'
_cell_length_a   8.14067700
_cell_length_b   9.01104238
_cell_length_c   14.70992138
_cell_angle_alpha   85.61323011
_cell_angle_beta   90.00000000
_cell_angle_gamma   90.00000000
_symmetry_Int_Tables_number   1
_chemical_formula_structural   Sr(GaI4)2
_chemical_formula_sum   'Sr2 Ga4 I16'
_cell_volume   1075.89960634
_cell_formula_units_Z   2
loop_
 _symmetry_equiv_pos_site_id
 _symmetry_equiv_pos_as_xyz
  1  'x, y, z'
loop_
 _atom_site_type_symbol
 _atom_site_label
 _atom_site_symmetry_multiplicity
 _atom_site_fract_x
 _atom_site_fract_y
 _atom_site_fract_z
 _atom_site_occupancy
  Sr  Sr0  1  0.849207  0.500000  0.750000  1
  Sr  Sr1  1  0.150793  0.500000  0.250000  1
  Ga  Ga2  1  0.258145  0.671042  0.580692  1
  Ga  Ga3  1  0.741855  0.671042  0.080692  1
  Ga  Ga4  1  0.741855  0.328958  0.419308  1
  Ga  Ga5  1  0.258145  0.328958  0.919308  1
  I  I6  1  0.824643  0.397270  0.117308  1
  I  I7  1  0.824643  0.602730  0.382692  1
  I  I8  1  0.305218  0.738640  0.407853  1
  I  I9  1  0.305218  0.261360  0.092147  1
  I  I10  1  0.694782  0.261360  0.592147  1
  I  I11  1  0.694782  0.738640  0.907853  1
  I  I12  1  0.017367  0.826674  0.640614  1
  I  I13  1  0.017367  0.173326  0.859386  1
  I  I14  1  0.982633  0.173326  0.359386  1
  I  I15  1  0.982633  0.826674  0.140614  1
  I  I16  1  0.532964  0.741582  0.656269  1
  I  I17  1  0.532964  0.258418  0.843731  1
  I  I18  1  0.467036  0.258418  0.343731  1
  I  I19  1  0.467036  0.741582  0.156269  1
  I  I20  1  0.175357  0.397270  0.617308  1
  I  I21  1  0.175357  0.602730  0.882692  1
