# generated using pymatgen
data_Hf13Zr5Ta5(ReO2)3
_symmetry_space_group_name_H-M   'P 1'
_cell_length_a   8.64886782
_cell_length_b   8.68289153
_cell_length_c   8.52452772
_cell_angle_alpha   90.10891591
_cell_angle_beta   89.85115252
_cell_angle_gamma   119.69081113
_symmetry_Int_Tables_number   1
_chemical_formula_structural   Hf13Zr5Ta5(ReO2)3
_chemical_formula_sum   'Hf13 Zr5 Ta5 Re3 O6'
_cell_volume   556.11894633
_cell_formula_units_Z   1
loop_
 _symmetry_equiv_pos_site_id
 _symmetry_equiv_pos_as_xyz
  1  'x, y, z'
loop_
 _atom_site_type_symbol
 _atom_site_label
 _atom_site_symmetry_multiplicity
 _atom_site_fract_x
 _atom_site_fract_y
 _atom_site_fract_z
 _atom_site_occupancy
  Hf  Hf0  1  0.452242  0.906520  0.249676  1
  Hf  Hf1  1  0.547898  0.095002  0.750318  1
  Hf  Hf2  1  0.095077  0.548846  0.249701  1
  Hf  Hf3  1  0.907266  0.452572  0.749988  1
  Hf  Hf4  1  0.452842  0.546822  0.249361  1
  Hf  Hf5  1  0.544745  0.452051  0.750208  1
  Hf  Hf6  1  0.202924  0.406514  0.937105  1
  Hf  Hf7  1  0.204362  0.797142  0.562213  1
  Hf  Hf8  1  0.406414  0.202435  0.060712  1
  Hf  Hf9  1  0.794795  0.203751  0.437717  1
  Hf  Hf10  1  0.588253  0.795120  0.936859  1
  Hf  Hf11  1  0.794362  0.203933  0.063100  1
  Hf  Hf12  1  0.204704  0.795254  0.936800  1
  Zr  Zr13  1  0.204667  0.410064  0.564849  1
  Zr  Zr14  1  0.793860  0.587263  0.437232  1
  Zr  Zr15  1  0.585436  0.793789  0.565103  1
  Zr  Zr16  1  0.792922  0.585458  0.063098  1
  Zr  Zr17  1  0.411496  0.205841  0.436076  1
  Ta  Ta18  1  0.113578  0.224192  0.249596  1
  Ta  Ta19  1  0.889876  0.778512  0.750531  1
  Ta  Ta20  1  0.777755  0.887514  0.249759  1
  Ta  Ta21  1  0.003351  0.002601  0.996967  1
  Ta  Ta22  1  0.003616  0.002521  0.503706  1
  Re  Re23  1  0.227365  0.112794  0.751574  1
  Re  Re24  1  0.114929  0.888958  0.248990  1
  Re  Re25  1  0.888054  0.115038  0.751175  1
  O  O26  1  0.498385  0.000649  0.998752  1
  O  O27  1  0.004701  0.500569  0.998371  1
  O  O28  1  0.498568  0.000590  0.501364  1
  O  O29  1  0.494782  0.497259  0.997829  1
  O  O30  1  0.001619  0.501684  0.500156  1
  O  O31  1  0.499160  0.498742  0.501114  1
