# generated using pymatgen
data_HfMn28
_symmetry_space_group_name_H-M   'P 1'
_cell_length_a   7.56195016
_cell_length_b   7.56195001
_cell_length_c   7.56195000
_cell_angle_alpha   109.47122060
_cell_angle_beta   109.47122021
_cell_angle_gamma   109.47122523
_symmetry_Int_Tables_number   1
_chemical_formula_structural   HfMn28
_chemical_formula_sum   'Hf1 Mn28'
_cell_volume   332.87371378
_cell_formula_units_Z   1
loop_
 _symmetry_equiv_pos_site_id
 _symmetry_equiv_pos_as_xyz
  1  'x, y, z'
loop_
 _atom_site_type_symbol
 _atom_site_label
 _atom_site_symmetry_multiplicity
 _atom_site_fract_x
 _atom_site_fract_y
 _atom_site_fract_z
 _atom_site_occupancy
  Hf  Hf0  1  0.000000  0.000000  0.000000  1
  Mn  Mn1  1  0.626181  0.000000  0.000000  1
  Mn  Mn2  1  0.000000  0.626181  0.000000  1
  Mn  Mn3  1  0.000000  0.000000  0.626181  1
  Mn  Mn4  1  0.373819  0.373819  0.373819  1
  Mn  Mn5  1  0.391679  0.678790  0.000000  1
  Mn  Mn6  1  0.712889  0.321210  0.321210  1
  Mn  Mn7  1  0.391679  0.000000  0.678790  1
  Mn  Mn8  1  0.678790  0.391679  0.000000  1
  Mn  Mn9  1  0.000000  0.391679  0.678790  1
  Mn  Mn10  1  0.321210  0.712889  0.321210  1
  Mn  Mn11  1  0.321210  0.321210  0.712889  1
  Mn  Mn12  1  0.000000  0.678790  0.391679  1
  Mn  Mn13  1  0.678790  0.000000  0.391679  1
  Mn  Mn14  1  0.608321  0.608321  0.287111  1
  Mn  Mn15  1  0.287111  0.608321  0.608321  1
  Mn  Mn16  1  0.608321  0.287111  0.608321  1
  Mn  Mn17  1  0.376807  0.197618  0.000000  1
  Mn  Mn18  1  0.179189  0.802382  0.802382  1
  Mn  Mn19  1  0.376807  0.000000  0.197618  1
  Mn  Mn20  1  0.197618  0.376807  0.000000  1
  Mn  Mn21  1  0.000000  0.376807  0.197618  1
  Mn  Mn22  1  0.802382  0.179189  0.802382  1
  Mn  Mn23  1  0.802382  0.802382  0.179189  1
  Mn  Mn24  1  0.000000  0.197618  0.376807  1
  Mn  Mn25  1  0.197618  0.000000  0.376807  1
  Mn  Mn26  1  0.623193  0.623193  0.820811  1
  Mn  Mn27  1  0.820811  0.623193  0.623193  1
  Mn  Mn28  1  0.623193  0.820811  0.623193  1
