# generated using pymatgen
data_Ac5PSe4
_symmetry_space_group_name_H-M   'P 1'
_cell_length_a   7.72714226
_cell_length_b   7.72596073
_cell_length_c   7.72674719
_cell_angle_alpha   99.60656681
_cell_angle_beta   99.58815241
_cell_angle_gamma   131.80852163
_symmetry_Int_Tables_number   1
_chemical_formula_structural   Ac5PSe4
_chemical_formula_sum   'Ac5 P1 Se4'
_cell_volume   313.85344317
_cell_formula_units_Z   1
loop_
 _symmetry_equiv_pos_site_id
 _symmetry_equiv_pos_as_xyz
  1  'x, y, z'
loop_
 _atom_site_type_symbol
 _atom_site_label
 _atom_site_symmetry_multiplicity
 _atom_site_fract_x
 _atom_site_fract_y
 _atom_site_fract_z
 _atom_site_occupancy
  Ac  Ac0  1  0.403297  0.789713  0.192941  1
  Ac  Ac1  1  0.000000  0.000000  0.000000  1
  Ac  Ac2  1  0.596703  0.210287  0.807059  1
  Ac  Ac3  1  0.210385  0.403229  0.613698  1
  Ac  Ac4  1  0.789615  0.596771  0.386302  1
  P  P5  1  0.500000  0.500000  0.000000  1
  Se  Se6  1  0.097045  0.698886  0.795952  1
  Se  Se7  1  0.698884  0.902952  0.601838  1
  Se  Se8  1  0.301116  0.097048  0.398162  1
  Se  Se9  1  0.902955  0.301114  0.204048  1
