# generated using pymatgen
data_SrTb2Tm4NiI12
_symmetry_space_group_name_H-M   'P 1'
_cell_length_a   9.71640754
_cell_length_b   9.71569934
_cell_length_c   9.70248938
_cell_angle_alpha   106.22299713
_cell_angle_beta   106.04252972
_cell_angle_gamma   106.21462702
_symmetry_Int_Tables_number   1
_chemical_formula_structural   SrTb2Tm4NiI12
_chemical_formula_sum   'Sr1 Tb2 Tm4 Ni1 I12'
_cell_volume   779.61247250
_cell_formula_units_Z   1
loop_
 _symmetry_equiv_pos_site_id
 _symmetry_equiv_pos_as_xyz
  1  'x, y, z'
loop_
 _atom_site_type_symbol
 _atom_site_label
 _atom_site_symmetry_multiplicity
 _atom_site_fract_x
 _atom_site_fract_y
 _atom_site_fract_z
 _atom_site_occupancy
  Sr  Sr0  1  0.499738  0.499546  0.500086  1
  Tb  Tb1  1  0.292198  0.091275  0.018779  1
  Tb  Tb2  1  0.019964  0.292729  0.092366  1
  Tm  Tm3  1  0.908557  0.979731  0.713834  1
  Tm  Tm4  1  0.714538  0.908186  0.980555  1
  Tm  Tm5  1  0.980087  0.714473  0.909305  1
  Tm  Tm6  1  0.089707  0.020178  0.285880  1
  Ni  Ni7  1  0.000724  0.001267  0.999943  1
  I  I8  1  0.924483  0.323273  0.773130  1
  I  I9  1  0.778020  0.926155  0.324319  1
  I  I10  1  0.323676  0.771992  0.924539  1
  I  I11  1  0.073912  0.678190  0.222178  1
  I  I12  1  0.217368  0.071496  0.670342  1
  I  I13  1  0.672856  0.218926  0.073251  1
  I  I14  1  0.553851  0.867980  0.633909  1
  I  I15  1  0.633279  0.552931  0.868287  1
  I  I16  1  0.868142  0.633230  0.553962  1
  I  I17  1  0.445294  0.131292  0.370426  1
  I  I18  1  0.370325  0.451039  0.134072  1
  I  I19  1  0.133278  0.366112  0.450838  1
