# generated using pymatgen
data_Eu3Dy2Si9P3Ir19
_symmetry_space_group_name_H-M   'P 1'
_cell_length_a   12.87877600
_cell_length_b   12.87877671
_cell_length_c   3.97856000
_cell_angle_alpha   90.00000000
_cell_angle_beta   90.00000000
_cell_angle_gamma   119.99999819
_symmetry_Int_Tables_number   1
_chemical_formula_structural   Eu3Dy2Si9P3Ir19
_chemical_formula_sum   'Eu3 Dy2 Si9 P3 Ir19'
_cell_volume   571.48620904
_cell_formula_units_Z   1
loop_
 _symmetry_equiv_pos_site_id
 _symmetry_equiv_pos_as_xyz
  1  'x, y, z'
loop_
 _atom_site_type_symbol
 _atom_site_label
 _atom_site_symmetry_multiplicity
 _atom_site_fract_x
 _atom_site_fract_y
 _atom_site_fract_z
 _atom_site_occupancy
  Eu  Eu0  1  0.000000  0.816533  0.000000  1
  Eu  Eu1  1  0.183467  0.183467  0.000000  1
  Eu  Eu2  1  0.816533  0.000000  0.000000  1
  Dy  Dy3  1  0.333333  0.666667  0.500000  1
  Dy  Dy4  1  0.666667  0.333333  0.500000  1
  Si  Si5  1  0.000000  0.632142  0.500000  1
  Si  Si6  1  0.367858  0.367858  0.500000  1
  Si  Si7  1  0.632142  0.000000  0.500000  1
  Si  Si8  1  0.518556  0.687226  0.000000  1
  Si  Si9  1  0.312774  0.831330  0.000000  1
  Si  Si10  1  0.168670  0.481444  0.000000  1
  Si  Si11  1  0.481444  0.168670  0.000000  1
  Si  Si12  1  0.687226  0.518556  0.000000  1
  Si  Si13  1  0.831330  0.312774  0.000000  1
  P  P14  1  0.000000  0.181759  0.500000  1
  P  P15  1  0.818241  0.818241  0.500000  1
  P  P16  1  0.181759  0.000000  0.500000  1
  Ir  Ir17  1  0.512001  0.873128  0.000000  1
  Ir  Ir18  1  0.126872  0.638873  0.000000  1
  Ir  Ir19  1  0.361127  0.487999  0.000000  1
  Ir  Ir20  1  0.487999  0.361127  0.000000  1
  Ir  Ir21  1  0.873128  0.512001  0.000000  1
  Ir  Ir22  1  0.638873  0.126872  0.000000  1
  Ir  Ir23  1  0.000000  0.447750  0.500000  1
  Ir  Ir24  1  0.552250  0.552250  0.500000  1
  Ir  Ir25  1  0.447750  0.000000  0.500000  1
  Ir  Ir26  1  0.000000  0.282257  0.000000  1
  Ir  Ir27  1  0.717743  0.717743  0.000000  1
  Ir  Ir28  1  0.282257  0.000000  0.000000  1
  Ir  Ir29  1  0.623004  0.803745  0.500000  1
  Ir  Ir30  1  0.196255  0.819259  0.500000  1
  Ir  Ir31  1  0.180741  0.376996  0.500000  1
  Ir  Ir32  1  0.376996  0.180741  0.500000  1
  Ir  Ir33  1  0.803745  0.623004  0.500000  1
  Ir  Ir34  1  0.819259  0.196255  0.500000  1
  Ir  Ir35  1  0.000000  0.000000  0.500000  1
