# generated using pymatgen
data_Sc8Be(B8Ir)3
_symmetry_space_group_name_H-M   'P 1'
_cell_length_a   3.44109200
_cell_length_b   8.89781630
_cell_length_c   11.20341538
_cell_angle_alpha   89.88752215
_cell_angle_beta   90.00000000
_cell_angle_gamma   90.00000000
_symmetry_Int_Tables_number   1
_chemical_formula_structural   Sc8Be(B8Ir)3
_chemical_formula_sum   'Sc8 Be1 B24 Ir3'
_cell_volume   343.02780207
_cell_formula_units_Z   1
loop_
 _symmetry_equiv_pos_site_id
 _symmetry_equiv_pos_as_xyz
  1  'x, y, z'
loop_
 _atom_site_type_symbol
 _atom_site_label
 _atom_site_symmetry_multiplicity
 _atom_site_fract_x
 _atom_site_fract_y
 _atom_site_fract_z
 _atom_site_occupancy
  Sc  Sc0  1  0.500000  0.312860  0.407569  1
  Sc  Sc1  1  0.500000  0.681782  0.584332  1
  Sc  Sc2  1  0.500000  0.179842  0.921067  1
  Sc  Sc3  1  0.500000  0.826489  0.088484  1
  Sc  Sc4  1  0.500000  0.439040  0.127920  1
  Sc  Sc5  1  0.500000  0.556092  0.874881  1
  Sc  Sc6  1  0.500000  0.055744  0.625977  1
  Sc  Sc7  1  0.500000  0.948507  0.370440  1
  Be  Be8  1  0.500000  0.138072  0.179387  1
  B  B9  1  0.000000  0.102970  0.470846  1
  B  B10  1  0.000000  0.899838  0.526490  1
  B  B11  1  0.000000  0.396365  0.973488  1
  B  B12  1  0.000000  0.600384  0.028378  1
  B  B13  1  0.000000  0.131756  0.316916  1
  B  B14  1  0.000000  0.868408  0.679763  1
  B  B15  1  0.000000  0.367643  0.820229  1
  B  B16  1  0.000000  0.630508  0.182142  1
  B  B17  1  0.000000  0.054182  0.065552  1
  B  B18  1  0.000000  0.947424  0.938036  1
  B  B19  1  0.000000  0.446275  0.563515  1
  B  B20  1  0.000000  0.552785  0.434884  1
  B  B21  1  0.000000  0.477232  0.286930  1
  B  B22  1  0.000000  0.520325  0.713823  1
  B  B23  1  0.000000  0.020148  0.788014  1
  B  B24  1  0.000000  0.982652  0.211298  1
  B  B25  1  0.000000  0.250329  0.079902  1
  B  B26  1  0.000000  0.748893  0.924535  1
  B  B27  1  0.000000  0.247596  0.576602  1
  B  B28  1  0.000000  0.755545  0.420427  1
  B  B29  1  0.000000  0.294757  0.236784  1
  B  B30  1  0.000000  0.704284  0.761893  1
  B  B31  1  0.000000  0.204045  0.737420  1
  B  B32  1  0.000000  0.798012  0.261838  1
  Ir  Ir33  1  0.500000  0.857485  0.818089  1
  Ir  Ir34  1  0.500000  0.360430  0.680432  1
  Ir  Ir35  1  0.500000  0.641303  0.321716  1
