# generated using pymatgen
data_Sm2Si4P2Pd20Au
_symmetry_space_group_name_H-M   'P 1'
_cell_length_a   8.70434908
_cell_length_b   8.70434964
_cell_length_c   8.69001400
_cell_angle_alpha   60.05446578
_cell_angle_beta   60.05446365
_cell_angle_gamma   59.89106827
_symmetry_Int_Tables_number   1
_chemical_formula_structural   Sm2Si4P2Pd20Au
_chemical_formula_sum   'Sm2 Si4 P2 Pd20 Au1'
_cell_volume   465.56009268
_cell_formula_units_Z   1
loop_
 _symmetry_equiv_pos_site_id
 _symmetry_equiv_pos_as_xyz
  1  'x, y, z'
loop_
 _atom_site_type_symbol
 _atom_site_label
 _atom_site_symmetry_multiplicity
 _atom_site_fract_x
 _atom_site_fract_y
 _atom_site_fract_z
 _atom_site_occupancy
  Sm  Sm0  1  0.250000  0.250000  0.250000  1
  Sm  Sm1  1  0.750000  0.750000  0.750000  1
  Si  Si2  1  0.735752  0.264248  0.264248  1
  Si  Si3  1  0.264248  0.735752  0.735752  1
  Si  Si4  1  0.264248  0.735752  0.264248  1
  Si  Si5  1  0.735752  0.264248  0.735752  1
  P  P6  1  0.265861  0.265861  0.734139  1
  P  P7  1  0.734139  0.734139  0.265861  1
  Pd  Pd8  1  0.384931  0.384931  0.386146  1
  Pd  Pd9  1  0.615069  0.615069  0.613854  1
  Pd  Pd10  1  0.384931  0.384931  0.843992  1
  Pd  Pd11  1  0.386146  0.843992  0.384931  1
  Pd  Pd12  1  0.615069  0.615069  0.156008  1
  Pd  Pd13  1  0.613854  0.156008  0.615069  1
  Pd  Pd14  1  0.843992  0.386146  0.384931  1
  Pd  Pd15  1  0.156008  0.613854  0.615069  1
  Pd  Pd16  1  0.344145  0.002114  0.997886  1
  Pd  Pd17  1  0.655855  0.997886  0.002114  1
  Pd  Pd18  1  0.002114  0.344145  0.655855  1
  Pd  Pd19  1  0.997886  0.655855  0.344145  1
  Pd  Pd20  1  0.002114  0.344145  0.997886  1
  Pd  Pd21  1  0.655855  0.997886  0.344145  1
  Pd  Pd22  1  0.997886  0.655855  0.002114  1
  Pd  Pd23  1  0.344145  0.002114  0.655855  1
  Pd  Pd24  1  0.000000  0.000000  0.345611  1
  Pd  Pd25  1  0.000000  0.000000  0.654389  1
  Pd  Pd26  1  0.654389  0.345611  0.000000  1
  Pd  Pd27  1  0.345611  0.654389  0.000000  1
  Au  Au28  1  0.000000  0.000000  0.000000  1
