# generated using pymatgen
data_Yb7NbGe2N9
_symmetry_space_group_name_H-M   'P 1'
_cell_length_a   9.90246300
_cell_length_b   5.95385169
_cell_length_c   8.91597500
_cell_angle_alpha   87.24335861
_cell_angle_beta   90.00000000
_cell_angle_gamma   90.00000000
_symmetry_Int_Tables_number   1
_chemical_formula_structural   Yb7NbGe2N9
_chemical_formula_sum   'Yb14 Nb2 Ge4 N18'
_cell_volume   525.05794429
_cell_formula_units_Z   2
loop_
 _symmetry_equiv_pos_site_id
 _symmetry_equiv_pos_as_xyz
  1  'x, y, z'
loop_
 _atom_site_type_symbol
 _atom_site_label
 _atom_site_symmetry_multiplicity
 _atom_site_fract_x
 _atom_site_fract_y
 _atom_site_fract_z
 _atom_site_occupancy
  Yb  Yb0  1  0.946112  0.428788  0.166569  1
  Yb  Yb1  1  0.080199  0.244371  0.494223  1
  Yb  Yb2  1  0.250000  0.084299  0.802151  1
  Yb  Yb3  1  0.446112  0.571212  0.833431  1
  Yb  Yb4  1  0.580199  0.755629  0.505777  1
  Yb  Yb5  1  0.578895  0.067491  0.829216  1
  Yb  Yb6  1  0.921105  0.067491  0.829216  1
  Yb  Yb7  1  0.421105  0.932509  0.170784  1
  Yb  Yb8  1  0.419801  0.244371  0.494223  1
  Yb  Yb9  1  0.078895  0.932509  0.170784  1
  Yb  Yb10  1  0.919801  0.755629  0.505777  1
  Yb  Yb11  1  0.053888  0.571212  0.833431  1
  Yb  Yb12  1  0.750000  0.915701  0.197849  1
  Yb  Yb13  1  0.553888  0.428788  0.166569  1
  Nb  Nb14  1  0.750000  0.277139  0.436228  1
  Nb  Nb15  1  0.250000  0.722861  0.563772  1
  Ge  Ge16  1  0.250000  0.320979  0.049990  1
  Ge  Ge17  1  0.750000  0.455923  0.721648  1
  Ge  Ge18  1  0.750000  0.679021  0.950010  1
  Ge  Ge19  1  0.250000  0.544077  0.278352  1
  N  N20  1  0.411060  0.224791  0.972668  1
  N  N21  1  0.250000  0.223049  0.264158  1
  N  N22  1  0.902639  0.113683  0.341445  1
  N  N23  1  0.598807  0.363508  0.626254  1
  N  N24  1  0.750000  0.560015  0.326496  1
  N  N25  1  0.250000  0.645825  0.067569  1
  N  N26  1  0.901193  0.363508  0.626254  1
  N  N27  1  0.401193  0.636492  0.373746  1
  N  N28  1  0.750000  0.354175  0.932431  1
  N  N29  1  0.097361  0.886317  0.658555  1
  N  N30  1  0.750000  0.776951  0.735842  1
  N  N31  1  0.098807  0.636492  0.373746  1
  N  N32  1  0.588940  0.775209  0.027332  1
  N  N33  1  0.250000  0.439985  0.673504  1
  N  N34  1  0.402639  0.886317  0.658555  1
  N  N35  1  0.597361  0.113683  0.341445  1
  N  N36  1  0.088940  0.224791  0.972668  1
  N  N37  1  0.911060  0.775209  0.027332  1
