# generated using pymatgen
data_Yb3CeLuRu2
_symmetry_space_group_name_H-M   'P 1'
_cell_length_a   6.48563167
_cell_length_b   7.24884709
_cell_length_c   8.75348211
_cell_angle_alpha   94.95880988
_cell_angle_beta   111.90266504
_cell_angle_gamma   93.70687037
_symmetry_Int_Tables_number   1
_chemical_formula_structural   Yb3CeLuRu2
_chemical_formula_sum   'Yb6 Ce2 Lu2 Ru4'
_cell_volume   378.30086317
_cell_formula_units_Z   2
loop_
 _symmetry_equiv_pos_site_id
 _symmetry_equiv_pos_as_xyz
  1  'x, y, z'
loop_
 _atom_site_type_symbol
 _atom_site_label
 _atom_site_symmetry_multiplicity
 _atom_site_fract_x
 _atom_site_fract_y
 _atom_site_fract_z
 _atom_site_occupancy
  Yb  Yb0  1  0.701626  0.419640  0.179675  1
  Yb  Yb1  1  0.298374  0.580360  0.820325  1
  Yb  Yb2  1  0.295997  0.313927  0.425677  1
  Yb  Yb3  1  0.704003  0.686073  0.574323  1
  Yb  Yb4  1  0.865367  0.184310  0.575129  1
  Yb  Yb5  1  0.134633  0.815690  0.424871  1
  Ce  Ce6  1  0.501939  0.102567  0.820711  1
  Ce  Ce7  1  0.498061  0.897433  0.179289  1
  Lu  Lu8  1  0.064877  0.248888  0.003370  1
  Lu  Lu9  1  0.935123  0.751112  0.996630  1
  Ru  Ru10  1  0.328921  0.609100  0.206281  1
  Ru  Ru11  1  0.671079  0.390900  0.793719  1
  Ru  Ru12  1  0.158768  0.948553  0.801557  1
  Ru  Ru13  1  0.841232  0.051447  0.198443  1
