# generated using pymatgen
data_Pr5Nd5(Sn5Pd2)4
_symmetry_space_group_name_H-M   'P 1'
_cell_length_a   14.32719000
_cell_length_b   14.32719000
_cell_length_c   4.67114500
_cell_angle_alpha   90.00000000
_cell_angle_beta   90.00000000
_cell_angle_gamma   90.00000000
_symmetry_Int_Tables_number   1
_chemical_formula_structural   Pr5Nd5(Sn5Pd2)4
_chemical_formula_sum   'Pr5 Nd5 Sn20 Pd8'
_cell_volume   958.83833558
_cell_formula_units_Z   1
loop_
 _symmetry_equiv_pos_site_id
 _symmetry_equiv_pos_as_xyz
  1  'x, y, z'
loop_
 _atom_site_type_symbol
 _atom_site_label
 _atom_site_symmetry_multiplicity
 _atom_site_fract_x
 _atom_site_fract_y
 _atom_site_fract_z
 _atom_site_occupancy
  Pr  Pr0  1  0.000000  0.000000  0.000000  1
  Pr  Pr1  1  0.891572  0.391706  0.500000  1
  Pr  Pr2  1  0.108428  0.608294  0.500000  1
  Pr  Pr3  1  0.391706  0.108428  0.500000  1
  Pr  Pr4  1  0.608294  0.891572  0.500000  1
  Nd  Nd5  1  0.500000  0.500000  0.000000  1
  Nd  Nd6  1  0.679171  0.179327  0.500000  1
  Nd  Nd7  1  0.320829  0.820673  0.500000  1
  Nd  Nd8  1  0.179327  0.320829  0.500000  1
  Nd  Nd9  1  0.820673  0.679171  0.500000  1
  Sn  Sn10  1  0.569098  0.069343  0.000000  1
  Sn  Sn11  1  0.430902  0.930657  0.000000  1
  Sn  Sn12  1  0.069343  0.430902  0.000000  1
  Sn  Sn13  1  0.930657  0.569098  0.000000  1
  Sn  Sn14  1  0.653945  0.699901  0.000000  1
  Sn  Sn15  1  0.346055  0.300099  0.000000  1
  Sn  Sn16  1  0.154016  0.800059  0.000000  1
  Sn  Sn17  1  0.845984  0.199941  0.000000  1
  Sn  Sn18  1  0.300099  0.653945  0.000000  1
  Sn  Sn19  1  0.699901  0.346055  0.000000  1
  Sn  Sn20  1  0.199941  0.154016  0.000000  1
  Sn  Sn21  1  0.800059  0.845984  0.000000  1
  Sn  Sn22  1  0.661580  0.502711  0.500000  1
  Sn  Sn23  1  0.338420  0.497289  0.500000  1
  Sn  Sn24  1  0.162223  0.997581  0.500000  1
  Sn  Sn25  1  0.837777  0.002419  0.500000  1
  Sn  Sn26  1  0.497289  0.661580  0.500000  1
  Sn  Sn27  1  0.502711  0.338420  0.500000  1
  Sn  Sn28  1  0.002419  0.162223  0.500000  1
  Sn  Sn29  1  0.997581  0.837777  0.500000  1
  Pd  Pd30  1  0.745093  0.529753  0.000000  1
  Pd  Pd31  1  0.254907  0.470247  0.000000  1
  Pd  Pd32  1  0.245558  0.970191  0.000000  1
  Pd  Pd33  1  0.754442  0.029809  0.000000  1
  Pd  Pd34  1  0.470247  0.745093  0.000000  1
  Pd  Pd35  1  0.529753  0.254907  0.000000  1
  Pd  Pd36  1  0.029809  0.245558  0.000000  1
  Pd  Pd37  1  0.970191  0.754442  0.000000  1
