# generated using pymatgen
data_La3Nd9Ru(PtBr4)3
_symmetry_space_group_name_H-M   'P 1'
_cell_length_a   10.49862743
_cell_length_b   10.54596998
_cell_length_c   10.54587842
_cell_angle_alpha   108.79485684
_cell_angle_beta   109.43374814
_cell_angle_gamma   109.43372061
_symmetry_Int_Tables_number   1
_chemical_formula_structural   La3Nd9Ru(PtBr4)3
_chemical_formula_sum   'La3 Nd9 Ru1 Pt3 Br12'
_cell_volume   907.04536803
_cell_formula_units_Z   1
loop_
 _symmetry_equiv_pos_site_id
 _symmetry_equiv_pos_as_xyz
  1  'x, y, z'
loop_
 _atom_site_type_symbol
 _atom_site_label
 _atom_site_symmetry_multiplicity
 _atom_site_fract_x
 _atom_site_fract_y
 _atom_site_fract_z
 _atom_site_occupancy
  La  La0  1  0.749999  0.015020  0.484980  1
  La  La1  1  0.468695  0.477739  0.239341  1
  La  La2  1  0.031302  0.260653  0.022257  1
  Nd  Nd3  1  0.263019  0.750152  0.234490  1
  Nd  Nd4  1  0.484570  0.748634  0.014151  1
  Nd  Nd5  1  0.234880  0.470469  0.485682  1
  Nd  Nd6  1  0.021248  0.030975  0.260232  1
  Nd  Nd7  1  0.236980  0.265510  0.749848  1
  Nd  Nd8  1  0.015437  0.485856  0.751369  1
  Nd  Nd9  1  0.478749  0.239766  0.469024  1
  Nd  Nd10  1  0.265122  0.014315  0.029530  1
  Nd  Nd11  1  0.750000  0.236005  0.263999  1
  Ru  Ru12  1  0.250001  0.253158  0.246837  1
  Pt  Pt13  1  0.500155  0.000997  0.250676  1
  Pt  Pt14  1  0.250001  0.499379  0.000625  1
  Pt  Pt15  1  0.999843  0.249326  0.499003  1
  Br  Br16  1  0.250001  0.996668  0.503334  1
  Br  Br17  1  0.507497  0.504827  0.754367  1
  Br  Br18  1  0.250000  0.752984  0.747015  1
  Br  Br19  1  0.992501  0.745633  0.995179  1
  Br  Br20  1  0.997527  0.508568  0.256131  1
  Br  Br21  1  0.744042  0.993922  0.993622  1
  Br  Br22  1  0.754327  0.747915  0.244638  1
  Br  Br23  1  0.496769  0.753618  0.507699  1
  Br  Br24  1  0.502473  0.243869  0.991428  1
  Br  Br25  1  0.755955  0.506377  0.506077  1
  Br  Br26  1  0.745673  0.255364  0.752089  1
  Br  Br27  1  0.003233  0.992302  0.746378  1
