# generated using pymatgen
data_BiIrRuPbO7
_symmetry_space_group_name_H-M   'P 1'
_cell_length_a   7.35706097
_cell_length_b   7.37700200
_cell_length_c   7.37700285
_cell_angle_alpha   60.10750855
_cell_angle_beta   60.08937785
_cell_angle_gamma   60.08937186
_symmetry_Int_Tables_number   1
_chemical_formula_structural   BiIrRuPbO7
_chemical_formula_sum   'Bi2 Ir2 Ru2 Pb2 O14'
_cell_volume   283.71817128
_cell_formula_units_Z   2
loop_
 _symmetry_equiv_pos_site_id
 _symmetry_equiv_pos_as_xyz
  1  'x, y, z'
loop_
 _atom_site_type_symbol
 _atom_site_label
 _atom_site_symmetry_multiplicity
 _atom_site_fract_x
 _atom_site_fract_y
 _atom_site_fract_z
 _atom_site_occupancy
  Bi  Bi0  1  0.125000  0.625000  0.125000  1
  Bi  Bi1  1  0.125000  0.125000  0.625000  1
  Ir  Ir2  1  0.625000  0.125000  0.625000  1
  Ir  Ir3  1  0.625000  0.625000  0.125000  1
  Ru  Ru4  1  0.125000  0.625000  0.625000  1
  Ru  Ru5  1  0.625000  0.625000  0.625000  1
  Pb  Pb6  1  0.625000  0.125000  0.125000  1
  Pb  Pb7  1  0.125000  0.125000  0.125000  1
  O  O8  1  0.704539  0.699303  0.298187  1
  O  O9  1  0.297971  0.298187  0.699303  1
  O  O10  1  0.704539  0.298187  0.699303  1
  O  O11  1  0.297971  0.699303  0.298187  1
  O  O12  1  0.298796  0.701204  0.701204  1
  O  O13  1  0.702860  0.297140  0.297140  1
  O  O14  1  0.545461  0.550697  0.951813  1
  O  O15  1  0.952029  0.951813  0.550697  1
  O  O16  1  0.545461  0.951813  0.550697  1
  O  O17  1  0.952029  0.550697  0.951813  1
  O  O18  1  0.951204  0.548796  0.548796  1
  O  O19  1  0.547140  0.952860  0.952860  1
  O  O20  1  0.245363  0.254637  0.254637  1
  O  O21  1  0.004637  0.995363  0.995363  1
