# generated using pymatgen
data_NdPaSn5Rh3
_symmetry_space_group_name_H-M   'P 1'
_cell_length_a   13.50203800
_cell_length_b   13.50203828
_cell_length_c   7.26364100
_cell_angle_alpha   90.00000000
_cell_angle_beta   90.00000000
_cell_angle_gamma   160.98156533
_symmetry_Int_Tables_number   1
_chemical_formula_structural   NdPaSn5Rh3
_chemical_formula_sum   'Nd2 Pa2 Sn10 Rh6'
_cell_volume   431.51962356
_cell_formula_units_Z   2
loop_
 _symmetry_equiv_pos_site_id
 _symmetry_equiv_pos_as_xyz
  1  'x, y, z'
loop_
 _atom_site_type_symbol
 _atom_site_label
 _atom_site_symmetry_multiplicity
 _atom_site_fract_x
 _atom_site_fract_y
 _atom_site_fract_z
 _atom_site_occupancy
  Nd  Nd0  1  0.172362  0.827638  0.752333  1
  Nd  Nd1  1  0.827638  0.172362  0.252333  1
  Pa  Pa2  1  0.475686  0.524314  0.734999  1
  Pa  Pa3  1  0.524314  0.475686  0.234999  1
  Sn  Sn4  1  0.879008  0.120992  0.736249  1
  Sn  Sn5  1  0.120992  0.879008  0.236249  1
  Sn  Sn6  1  0.703681  0.296319  0.047011  1
  Sn  Sn7  1  0.296319  0.703681  0.547011  1
  Sn  Sn8  1  0.597082  0.402918  0.610278  1
  Sn  Sn9  1  0.402918  0.597082  0.110278  1
  Sn  Sn10  1  0.951409  0.048591  0.396325  1
  Sn  Sn11  1  0.048591  0.951409  0.896325  1
  Sn  Sn12  1  0.289397  0.710603  0.974297  1
  Sn  Sn13  1  0.710603  0.289397  0.474297  1
  Rh  Rh14  1  0.048739  0.951261  0.513806  1
  Rh  Rh15  1  0.951261  0.048739  0.013806  1
  Rh  Rh16  1  0.777345  0.222655  0.764637  1
  Rh  Rh17  1  0.222655  0.777345  0.264637  1
  Rh  Rh18  1  0.398960  0.601040  0.498065  1
  Rh  Rh19  1  0.601040  0.398960  0.998065  1
