# generated using pymatgen
data_Hf6InSiBi
_symmetry_space_group_name_H-M   'P 1'
_cell_length_a   7.60626700
_cell_length_b   7.60626636
_cell_length_c   3.93628400
_cell_angle_alpha   90.00000000
_cell_angle_beta   90.00000000
_cell_angle_gamma   119.99999843
_symmetry_Int_Tables_number   1
_chemical_formula_structural   Hf6InSiBi
_chemical_formula_sum   'Hf6 In1 Si1 Bi1'
_cell_volume   197.22418015
_cell_formula_units_Z   1
loop_
 _symmetry_equiv_pos_site_id
 _symmetry_equiv_pos_as_xyz
  1  'x, y, z'
loop_
 _atom_site_type_symbol
 _atom_site_label
 _atom_site_symmetry_multiplicity
 _atom_site_fract_x
 _atom_site_fract_y
 _atom_site_fract_z
 _atom_site_occupancy
  Hf  Hf0  1  0.615092  0.996689  0.500000  1
  Hf  Hf1  1  0.381598  0.384908  0.500000  1
  Hf  Hf2  1  0.003311  0.618402  0.500000  1
  Hf  Hf3  1  0.235569  0.994717  0.000000  1
  Hf  Hf4  1  0.759149  0.764431  0.000000  1
  Hf  Hf5  1  0.005283  0.240851  0.000000  1
  In  In6  1  0.333333  0.666667  0.000000  1
  Si  Si7  1  0.000000  0.000000  0.500000  1
  Bi  Bi8  1  0.666667  0.333333  0.000000  1
