# generated using pymatgen
data_Dy4BOs2C3
_symmetry_space_group_name_H-M   'P 1'
_cell_length_a   5.13950900
_cell_length_b   6.55600927
_cell_length_c   9.84519550
_cell_angle_alpha   90.32654004
_cell_angle_beta   90.00000000
_cell_angle_gamma   90.00000000
_symmetry_Int_Tables_number   1
_chemical_formula_structural   Dy4BOs2C3
_chemical_formula_sum   'Dy8 B2 Os4 C6'
_cell_volume   331.72521266
_cell_formula_units_Z   2
loop_
 _symmetry_equiv_pos_site_id
 _symmetry_equiv_pos_as_xyz
  1  'x, y, z'
loop_
 _atom_site_type_symbol
 _atom_site_label
 _atom_site_symmetry_multiplicity
 _atom_site_fract_x
 _atom_site_fract_y
 _atom_site_fract_z
 _atom_site_occupancy
  Dy  Dy0  1  0.250000  0.681219  0.549638  1
  Dy  Dy1  1  0.750000  0.318781  0.450362  1
  Dy  Dy2  1  0.750000  0.823998  0.052364  1
  Dy  Dy3  1  0.250000  0.176002  0.947636  1
  Dy  Dy4  1  0.250000  0.522523  0.211936  1
  Dy  Dy5  1  0.750000  0.477477  0.788064  1
  Dy  Dy6  1  0.750000  0.974515  0.715767  1
  Dy  Dy7  1  0.250000  0.025485  0.284233  1
  B  B8  1  0.250000  0.454600  0.757348  1
  B  B9  1  0.750000  0.545400  0.242652  1
  Os  Os10  1  0.250000  0.729018  0.862828  1
  Os  Os11  1  0.750000  0.270982  0.137172  1
  Os  Os12  1  0.750000  0.785226  0.369913  1
  Os  Os13  1  0.250000  0.214774  0.630087  1
  C  C14  1  0.750000  0.041684  0.260258  1
  C  C15  1  0.250000  0.958316  0.739742  1
  C  C16  1  0.250000  0.821518  0.050284  1
  C  C17  1  0.750000  0.178482  0.949716  1
  C  C18  1  0.750000  0.676410  0.552089  1
  C  C19  1  0.250000  0.323590  0.447911  1
