# generated using pymatgen
data_Pr8Dy12Ga13Si3
_symmetry_space_group_name_H-M   'P 1'
_cell_length_a   7.58726951
_cell_length_b   8.02603353
_cell_length_c   15.33414300
_cell_angle_alpha   90.00000000
_cell_angle_beta   90.00000000
_cell_angle_gamma   90.15910350
_symmetry_Int_Tables_number   1
_chemical_formula_structural   Pr8Dy12Ga13Si3
_chemical_formula_sum   'Pr8 Dy12 Ga13 Si3'
_cell_volume   933.77945722
_cell_formula_units_Z   1
loop_
 _symmetry_equiv_pos_site_id
 _symmetry_equiv_pos_as_xyz
  1  'x, y, z'
loop_
 _atom_site_type_symbol
 _atom_site_label
 _atom_site_symmetry_multiplicity
 _atom_site_fract_x
 _atom_site_fract_y
 _atom_site_fract_z
 _atom_site_occupancy
  Pr  Pr0  1  0.979736  0.819736  0.093961  1
  Pr  Pr1  1  0.480985  0.677752  0.403944  1
  Pr  Pr2  1  0.517978  0.323844  0.905043  1
  Pr  Pr3  1  0.018998  0.176074  0.594434  1
  Pr  Pr4  1  0.018998  0.176074  0.905566  1
  Pr  Pr5  1  0.517978  0.323844  0.594957  1
  Pr  Pr6  1  0.480985  0.677752  0.096056  1
  Pr  Pr7  1  0.979736  0.819736  0.406039  1
  Dy  Dy8  1  0.655455  0.991626  0.250000  1
  Dy  Dy9  1  0.159922  0.511049  0.250000  1
  Dy  Dy10  1  0.839777  0.490590  0.750000  1
  Dy  Dy11  1  0.341437  0.009508  0.750000  1
  Dy  Dy12  1  0.680188  0.822529  0.876903  1
  Dy  Dy13  1  0.180646  0.677544  0.623451  1
  Dy  Dy14  1  0.816790  0.324976  0.121606  1
  Dy  Dy15  1  0.321173  0.179291  0.378192  1
  Dy  Dy16  1  0.321173  0.179291  0.121808  1
  Dy  Dy17  1  0.816790  0.324976  0.378394  1
  Dy  Dy18  1  0.180646  0.677544  0.876549  1
  Dy  Dy19  1  0.680188  0.822529  0.623097  1
  Ga  Ga20  1  0.764790  0.618928  0.250000  1
  Ga  Ga21  1  0.264183  0.878401  0.250000  1
  Ga  Ga22  1  0.740541  0.119438  0.750000  1
  Ga  Ga23  1  0.238734  0.380998  0.750000  1
  Ga  Ga24  1  0.025320  0.115525  0.250000  1
  Ga  Ga25  1  0.850011  0.533237  0.958481  1
  Ga  Ga26  1  0.349808  0.966180  0.541120  1
  Ga  Ga27  1  0.650719  0.032037  0.040219  1
  Ga  Ga28  1  0.151229  0.466751  0.460183  1
  Ga  Ga29  1  0.151229  0.466751  0.039817  1
  Ga  Ga30  1  0.650719  0.032037  0.459781  1
  Ga  Ga31  1  0.349808  0.966180  0.958880  1
  Ga  Ga32  1  0.850011  0.533237  0.541519  1
  Si  Si33  1  0.526955  0.383485  0.250000  1
  Si  Si34  1  0.473009  0.618783  0.750000  1
  Si  Si35  1  0.973353  0.881767  0.750000  1
