# generated using pymatgen
data_DyTm3(Co5P3)4
_symmetry_space_group_name_H-M   'P 1'
_cell_length_a   3.63615900
_cell_length_b   10.25360553
_cell_length_c   11.70882561
_cell_angle_alpha   89.96310292
_cell_angle_beta   90.00000000
_cell_angle_gamma   90.00000000
_symmetry_Int_Tables_number   1
_chemical_formula_structural   DyTm3(Co5P3)4
_chemical_formula_sum   'Dy1 Tm3 Co20 P12'
_cell_volume   436.54871954
_cell_formula_units_Z   1
loop_
 _symmetry_equiv_pos_site_id
 _symmetry_equiv_pos_as_xyz
  1  'x, y, z'
loop_
 _atom_site_type_symbol
 _atom_site_label
 _atom_site_symmetry_multiplicity
 _atom_site_fract_x
 _atom_site_fract_y
 _atom_site_fract_z
 _atom_site_occupancy
  Dy  Dy0  1  0.750000  0.082954  0.797111  1
  Tm  Tm1  1  0.250000  0.582628  0.702674  1
  Tm  Tm2  1  0.250000  0.917234  0.202501  1
  Tm  Tm3  1  0.750000  0.417307  0.297403  1
  Co  Co4  1  0.250000  0.716870  0.992557  1
  Co  Co5  1  0.250000  0.782680  0.491714  1
  Co  Co6  1  0.750000  0.283072  0.008353  1
  Co  Co7  1  0.750000  0.217179  0.508100  1
  Co  Co8  1  0.250000  0.407191  0.487322  1
  Co  Co9  1  0.250000  0.092630  0.988853  1
  Co  Co10  1  0.750000  0.592684  0.512626  1
  Co  Co11  1  0.750000  0.906774  0.012985  1
  Co  Co12  1  0.250000  0.221771  0.177044  1
  Co  Co13  1  0.250000  0.279180  0.676562  1
  Co  Co14  1  0.750000  0.778280  0.823254  1
  Co  Co15  1  0.750000  0.721389  0.323153  1
  Co  Co16  1  0.250000  0.881928  0.698452  1
  Co  Co17  1  0.250000  0.616904  0.199269  1
  Co  Co18  1  0.750000  0.117249  0.300622  1
  Co  Co19  1  0.750000  0.383762  0.801118  1
  Co  Co20  1  0.250000  0.468350  0.931643  1
  Co  Co21  1  0.250000  0.032178  0.430521  1
  Co  Co22  1  0.750000  0.532412  0.068801  1
  Co  Co23  1  0.750000  0.967080  0.567531  1
  P  P24  1  0.250000  0.418703  0.112781  1
  P  P25  1  0.250000  0.081534  0.611333  1
  P  P26  1  0.750000  0.581579  0.887542  1
  P  P27  1  0.750000  0.918447  0.386574  1
  P  P28  1  0.250000  0.270884  0.870907  1
  P  P29  1  0.250000  0.230657  0.370164  1
  P  P30  1  0.750000  0.730291  0.130141  1
  P  P31  1  0.750000  0.769368  0.629826  1
  P  P32  1  0.250000  0.600879  0.390958  1
  P  P33  1  0.250000  0.897901  0.891340  1
  P  P34  1  0.750000  0.399026  0.609140  1
  P  P35  1  0.750000  0.101049  0.109126  1
