# generated using pymatgen
data_La3Y2(RhO6)2
_symmetry_space_group_name_H-M   'P 1'
_cell_length_a   7.08105570
_cell_length_b   7.08105445
_cell_length_c   7.55566520
_cell_angle_alpha   73.66281598
_cell_angle_beta   73.66281965
_cell_angle_gamma   50.84621304
_symmetry_Int_Tables_number   1
_chemical_formula_structural   La3Y2(RhO6)2
_chemical_formula_sum   'La3 Y2 Rh2 O12'
_cell_volume   279.16975640
_cell_formula_units_Z   1
loop_
 _symmetry_equiv_pos_site_id
 _symmetry_equiv_pos_as_xyz
  1  'x, y, z'
loop_
 _atom_site_type_symbol
 _atom_site_label
 _atom_site_symmetry_multiplicity
 _atom_site_fract_x
 _atom_site_fract_y
 _atom_site_fract_z
 _atom_site_occupancy
  La  La0  1  0.500000  0.500000  0.500000  1
  La  La1  1  0.193518  0.193518  0.168976  1
  La  La2  1  0.806482  0.806482  0.831024  1
  Y  Y3  1  0.802953  0.802953  0.360386  1
  Y  Y4  1  0.197047  0.197047  0.639614  1
  Rh  Rh5  1  0.747136  0.252864  0.000000  1
  Rh  Rh6  1  0.252864  0.747136  0.000000  1
  O  O7  1  0.997336  0.997336  0.182250  1
  O  O8  1  0.002664  0.002664  0.817750  1
  O  O9  1  0.497550  0.497550  0.832558  1
  O  O10  1  0.502450  0.502450  0.167442  1
  O  O11  1  0.590830  0.095956  0.566798  1
  O  O12  1  0.904044  0.409170  0.433202  1
  O  O13  1  0.409170  0.904044  0.433202  1
  O  O14  1  0.391383  0.934468  0.909882  1
  O  O15  1  0.065532  0.608617  0.090118  1
  O  O16  1  0.608617  0.065532  0.090118  1
  O  O17  1  0.934468  0.391383  0.909882  1
  O  O18  1  0.095956  0.590830  0.566798  1
