# generated using pymatgen
data_Li4CaYb3P4
_symmetry_space_group_name_H-M   'P 1'
_cell_length_a   4.16176100
_cell_length_b   7.05172612
_cell_length_c   7.79114613
_cell_angle_alpha   89.97892741
_cell_angle_beta   90.00000000
_cell_angle_gamma   90.00000000
_symmetry_Int_Tables_number   1
_chemical_formula_structural   Li4CaYb3P4
_chemical_formula_sum   'Li4 Ca1 Yb3 P4'
_cell_volume   228.65141498
_cell_formula_units_Z   1
loop_
 _symmetry_equiv_pos_site_id
 _symmetry_equiv_pos_as_xyz
  1  'x, y, z'
loop_
 _atom_site_type_symbol
 _atom_site_label
 _atom_site_symmetry_multiplicity
 _atom_site_fract_x
 _atom_site_fract_y
 _atom_site_fract_z
 _atom_site_occupancy
  Li  Li0  1  0.250000  0.640765  0.563972  1
  Li  Li1  1  0.750000  0.359297  0.436445  1
  Li  Li2  1  0.750000  0.859014  0.063422  1
  Li  Li3  1  0.250000  0.140670  0.935918  1
  Ca  Ca4  1  0.250000  0.019795  0.308734  1
  Yb  Yb5  1  0.250000  0.519823  0.191006  1
  Yb  Yb6  1  0.750000  0.480067  0.808555  1
  Yb  Yb7  1  0.750000  0.980264  0.691686  1
  P  P8  1  0.250000  0.767050  0.891431  1
  P  P9  1  0.750000  0.233715  0.107206  1
  P  P10  1  0.750000  0.731288  0.392128  1
  P  P11  1  0.250000  0.268252  0.609498  1
