# generated using pymatgen
data_Dy7HoSc11Si16Tc
_symmetry_space_group_name_H-M   'P 1'
_cell_length_a   7.02231645
_cell_length_b   7.35433200
_cell_length_c   13.90268106
_cell_angle_alpha   89.98954672
_cell_angle_beta   89.99696393
_cell_angle_gamma   90.13460717
_symmetry_Int_Tables_number   1
_chemical_formula_structural   Dy7HoSc11Si16Tc
_chemical_formula_sum   'Dy7 Ho1 Sc11 Si16 Tc1'
_cell_volume   717.99427587
_cell_formula_units_Z   1
loop_
 _symmetry_equiv_pos_site_id
 _symmetry_equiv_pos_as_xyz
  1  'x, y, z'
loop_
 _atom_site_type_symbol
 _atom_site_label
 _atom_site_symmetry_multiplicity
 _atom_site_fract_x
 _atom_site_fract_y
 _atom_site_fract_z
 _atom_site_occupancy
  Dy  Dy0  1  0.993105  0.818644  0.900668  1
  Dy  Dy1  1  0.487648  0.672268  0.901578  1
  Dy  Dy2  1  0.993114  0.818642  0.599371  1
  Dy  Dy3  1  0.511144  0.323770  0.095610  1
  Dy  Dy4  1  0.011639  0.177135  0.406309  1
  Dy  Dy5  1  0.511106  0.323822  0.404371  1
  Dy  Dy6  1  0.487650  0.672309  0.598459  1
  Ho  Ho7  1  0.011676  0.177278  0.093831  1
  Sc  Sc8  1  0.840894  0.496388  0.249958  1
  Sc  Sc9  1  0.341352  0.003622  0.249956  1
  Sc  Sc10  1  0.657867  0.996070  0.749998  1
  Sc  Sc11  1  0.326427  0.178701  0.627474  1
  Sc  Sc12  1  0.671733  0.823906  0.374706  1
  Sc  Sc13  1  0.171746  0.674740  0.376564  1
  Sc  Sc14  1  0.671741  0.823974  0.125268  1
  Sc  Sc15  1  0.828750  0.330854  0.628343  1
  Sc  Sc16  1  0.326373  0.178744  0.872546  1
  Sc  Sc17  1  0.828805  0.330777  0.871667  1
  Sc  Sc18  1  0.171727  0.674791  0.123405  1
  Si  Si19  1  0.029919  0.120515  0.750010  1
  Si  Si20  1  0.971678  0.885467  0.249941  1
  Si  Si21  1  0.468139  0.616796  0.249990  1
  Si  Si22  1  0.520307  0.393519  0.750008  1
  Si  Si23  1  0.285501  0.864130  0.749996  1
  Si  Si24  1  0.716144  0.128739  0.249887  1
  Si  Si25  1  0.213771  0.371606  0.249892  1
  Si  Si26  1  0.795105  0.628320  0.750009  1
  Si  Si27  1  0.156187  0.465776  0.547065  1
  Si  Si28  1  0.842767  0.535580  0.463099  1
  Si  Si29  1  0.345638  0.964810  0.463345  1
  Si  Si30  1  0.842830  0.535398  0.036943  1
  Si  Si31  1  0.657568  0.034522  0.540060  1
  Si  Si32  1  0.156163  0.465591  0.952992  1
  Si  Si33  1  0.657654  0.034552  0.959955  1
  Si  Si34  1  0.345341  0.964944  0.036713  1
  Tc  Tc35  1  0.150793  0.493300  0.750013  1
