# generated using pymatgen
data_Zr6Al7CuNi15
_symmetry_space_group_name_H-M   'P 1'
_cell_length_a   8.27561990
_cell_length_b   8.27461807
_cell_length_c   8.27474014
_cell_angle_alpha   60.00437385
_cell_angle_beta   60.00768893
_cell_angle_gamma   60.00725128
_symmetry_Int_Tables_number   1
_chemical_formula_structural   Zr6Al7CuNi15
_chemical_formula_sum   'Zr6 Al7 Cu1 Ni15'
_cell_volume   400.72943367
_cell_formula_units_Z   1
loop_
 _symmetry_equiv_pos_site_id
 _symmetry_equiv_pos_as_xyz
  1  'x, y, z'
loop_
 _atom_site_type_symbol
 _atom_site_label
 _atom_site_symmetry_multiplicity
 _atom_site_fract_x
 _atom_site_fract_y
 _atom_site_fract_z
 _atom_site_occupancy
  Zr  Zr0  1  0.206911  0.792903  0.792907  1
  Zr  Zr1  1  0.205045  0.796688  0.205045  1
  Zr  Zr2  1  0.796692  0.205047  0.205043  1
  Zr  Zr3  1  0.792906  0.206916  0.792903  1
  Zr  Zr4  1  0.792905  0.792901  0.206916  1
  Zr  Zr5  1  0.205045  0.205046  0.796688  1
  Al  Al6  1  0.000089  0.000081  0.499796  1
  Al  Al7  1  0.500492  0.997149  0.500501  1
  Al  Al8  1  0.501588  0.501585  0.501584  1
  Al  Al9  1  0.000088  0.499797  0.000080  1
  Al  Al10  1  0.500492  0.500501  0.997150  1
  Al  Al11  1  0.499797  0.000090  0.000090  1
  Al  Al12  1  0.997139  0.500499  0.500496  1
  Cu  Cu13  1  0.380344  0.380344  0.380346  1
  Ni  Ni14  1  0.508112  0.831038  0.831042  1
  Ni  Ni15  1  0.620452  0.620474  0.138474  1
  Ni  Ni16  1  0.168857  0.168866  0.492224  1
  Ni  Ni17  1  0.831047  0.831039  0.508090  1
  Ni  Ni18  1  0.169124  0.169145  0.169135  1
  Ni  Ni19  1  0.831368  0.831340  0.831350  1
  Ni  Ni20  1  0.379013  0.378986  0.861914  1
  Ni  Ni21  1  0.831031  0.508128  0.831027  1
  Ni  Ni22  1  0.620527  0.620552  0.620549  1
  Ni  Ni23  1  0.379010  0.861924  0.378990  1
  Ni  Ni24  1  0.138443  0.620460  0.620463  1
  Ni  Ni25  1  0.620456  0.138458  0.620476  1
  Ni  Ni26  1  0.168870  0.492188  0.168869  1
  Ni  Ni27  1  0.861953  0.378978  0.378981  1
  Ni  Ni28  1  0.492205  0.168877  0.168872  1
