# generated using pymatgen
data_Na2Li3Y3(P3Ir4)4
_symmetry_space_group_name_H-M   'P 1'
_cell_length_a   12.68175400
_cell_length_b   12.68175441
_cell_length_c   3.90126100
_cell_angle_alpha   90.00000000
_cell_angle_beta   90.00000000
_cell_angle_gamma   120.45685606
_symmetry_Int_Tables_number   1
_chemical_formula_structural   Na2Li3Y3(P3Ir4)4
_chemical_formula_sum   'Na2 Li3 Y3 P12 Ir16'
_cell_volume   540.84961482
_cell_formula_units_Z   1
loop_
 _symmetry_equiv_pos_site_id
 _symmetry_equiv_pos_as_xyz
  1  'x, y, z'
loop_
 _atom_site_type_symbol
 _atom_site_label
 _atom_site_symmetry_multiplicity
 _atom_site_fract_x
 _atom_site_fract_y
 _atom_site_fract_z
 _atom_site_occupancy
  Na  Na0  1  0.813145  0.000722  0.500000  1
  Na  Na1  1  0.000722  0.813145  0.500000  1
  Li  Li2  1  0.442275  0.002161  0.000000  1
  Li  Li3  1  0.002161  0.442275  0.000000  1
  Li  Li4  1  0.558402  0.558402  0.000000  1
  Y  Y5  1  0.332409  0.664380  0.000000  1
  Y  Y6  1  0.664380  0.332409  0.000000  1
  Y  Y7  1  0.187630  0.187630  0.500000  1
  P  P8  1  0.177526  0.997265  0.000000  1
  P  P9  1  0.997265  0.177526  0.000000  1
  P  P10  1  0.822900  0.822900  0.000000  1
  P  P11  1  0.171133  0.481216  0.500000  1
  P  P12  1  0.520339  0.691086  0.500000  1
  P  P13  1  0.309699  0.827498  0.500000  1
  P  P14  1  0.691086  0.520339  0.500000  1
  P  P15  1  0.827498  0.309699  0.500000  1
  P  P16  1  0.481216  0.171133  0.500000  1
  P  P17  1  0.628820  0.999710  0.000000  1
  P  P18  1  0.999710  0.628820  0.000000  1
  P  P19  1  0.370133  0.370133  0.000000  1
  Ir  Ir20  1  0.362996  0.492494  0.500000  1
  Ir  Ir21  1  0.507221  0.869654  0.500000  1
  Ir  Ir22  1  0.129151  0.636191  0.500000  1
  Ir  Ir23  1  0.869654  0.507221  0.500000  1
  Ir  Ir24  1  0.636191  0.129151  0.500000  1
  Ir  Ir25  1  0.492494  0.362996  0.500000  1
  Ir  Ir26  1  0.180210  0.373426  0.000000  1
  Ir  Ir27  1  0.624104  0.804728  0.000000  1
  Ir  Ir28  1  0.197203  0.818407  0.000000  1
  Ir  Ir29  1  0.804728  0.624104  0.000000  1
  Ir  Ir30  1  0.818407  0.197203  0.000000  1
  Ir  Ir31  1  0.373426  0.180210  0.000000  1
  Ir  Ir32  1  0.278364  0.998881  0.500000  1
  Ir  Ir33  1  0.998881  0.278364  0.500000  1
  Ir  Ir34  1  0.724346  0.724346  0.500000  1
  Ir  Ir35  1  0.004174  0.004174  0.000000  1
