# generated using pymatgen
data_Ca5Ge2BiF
_symmetry_space_group_name_H-M   'P 1'
_cell_length_a   9.27303419
_cell_length_b   9.27303371
_cell_length_c   9.27303372
_cell_angle_alpha   129.44670940
_cell_angle_beta   129.44670167
_cell_angle_gamma   74.29285571
_symmetry_Int_Tables_number   1
_chemical_formula_structural   Ca5Ge2BiF
_chemical_formula_sum   'Ca10 Ge4 Bi2 F2'
_cell_volume   463.52121072
_cell_formula_units_Z   2
loop_
 _symmetry_equiv_pos_site_id
 _symmetry_equiv_pos_as_xyz
  1  'x, y, z'
loop_
 _atom_site_type_symbol
 _atom_site_label
 _atom_site_symmetry_multiplicity
 _atom_site_fract_x
 _atom_site_fract_y
 _atom_site_fract_z
 _atom_site_occupancy
  Ca  Ca0  1  0.500000  0.500000  0.000000  1
  Ca  Ca1  1  0.000000  0.000000  0.000000  1
  Ca  Ca2  1  0.517775  0.017775  0.818223  1
  Ca  Ca3  1  0.199553  0.699553  0.181777  1
  Ca  Ca4  1  0.017775  0.199553  0.500000  1
  Ca  Ca5  1  0.699553  0.517775  0.500000  1
  Ca  Ca6  1  0.482225  0.982225  0.181777  1
  Ca  Ca7  1  0.800447  0.300447  0.818223  1
  Ca  Ca8  1  0.982225  0.800447  0.500000  1
  Ca  Ca9  1  0.300447  0.482225  0.500000  1
  Ge  Ge10  1  0.876617  0.376617  0.253234  1
  Ge  Ge11  1  0.123383  0.623383  0.746766  1
  Ge  Ge12  1  0.376617  0.123383  0.500000  1
  Ge  Ge13  1  0.623383  0.876617  0.500000  1
  Bi  Bi14  1  0.250000  0.250000  0.000000  1
  Bi  Bi15  1  0.750000  0.750000  0.000000  1
  F  F16  1  0.250000  0.750000  0.500000  1
  F  F17  1  0.750000  0.250000  0.500000  1
