# generated using pymatgen
data_U2Co9P7W3
_symmetry_space_group_name_H-M   'P 1'
_cell_length_a   9.08281951
_cell_length_b   9.08958930
_cell_length_c   3.72310700
_cell_angle_alpha   90.00000000
_cell_angle_beta   90.00000000
_cell_angle_gamma   120.03231369
_symmetry_Int_Tables_number   1
_chemical_formula_structural   U2Co9P7W3
_chemical_formula_sum   'U2 Co9 P7 W3'
_cell_volume   266.10901644
_cell_formula_units_Z   1
loop_
 _symmetry_equiv_pos_site_id
 _symmetry_equiv_pos_as_xyz
  1  'x, y, z'
loop_
 _atom_site_type_symbol
 _atom_site_label
 _atom_site_symmetry_multiplicity
 _atom_site_fract_x
 _atom_site_fract_y
 _atom_site_fract_z
 _atom_site_occupancy
  U  U0  1  0.333482  0.666865  0.000000  1
  U  U1  1  0.666648  0.333280  0.500000  1
  Co  Co2  1  0.437375  0.383883  0.000000  1
  Co  Co3  1  0.616407  0.053968  0.000000  1
  Co  Co4  1  0.946209  0.562378  0.000000  1
  Co  Co5  1  0.369397  0.938122  0.500000  1
  Co  Co6  1  0.062095  0.431340  0.500000  1
  Co  Co7  1  0.568451  0.630685  0.500000  1
  Co  Co8  1  0.280862  0.158833  0.500000  1
  Co  Co9  1  0.841408  0.122012  0.500000  1
  Co  Co10  1  0.877700  0.718934  0.500000  1
  P  P11  1  0.999974  0.999803  0.500000  1
  P  P12  1  0.303015  0.413276  0.500000  1
  P  P13  1  0.586924  0.889918  0.500000  1
  P  P14  1  0.110161  0.697006  0.500000  1
  P  P15  1  0.410366  0.118671  0.000000  1
  P  P16  1  0.881690  0.291890  0.000000  1
  P  P17  1  0.707846  0.589486  0.000000  1
  W  W18  1  0.122274  0.901440  0.000000  1
  W  W19  1  0.098577  0.220671  0.000000  1
  W  W20  1  0.779141  0.877538  0.000000  1
