# generated using pymatgen
data_MnFe2(TcO4)6
_symmetry_space_group_name_H-M   'P 1'
_cell_length_a   10.04212575
_cell_length_b   10.04212674
_cell_length_c   10.04212741
_cell_angle_alpha   56.50894051
_cell_angle_beta   56.50894340
_cell_angle_gamma   56.50895027
_symmetry_Int_Tables_number   1
_chemical_formula_structural   MnFe2(TcO4)6
_chemical_formula_sum   'Mn1 Fe2 Tc6 O24'
_cell_volume   658.30223853
_cell_formula_units_Z   1
loop_
 _symmetry_equiv_pos_site_id
 _symmetry_equiv_pos_as_xyz
  1  'x, y, z'
loop_
 _atom_site_type_symbol
 _atom_site_label
 _atom_site_symmetry_multiplicity
 _atom_site_fract_x
 _atom_site_fract_y
 _atom_site_fract_z
 _atom_site_occupancy
  Mn  Mn0  1  0.853076  0.853076  0.853076  1
  Fe  Fe1  1  0.357681  0.357681  0.357681  1
  Fe  Fe2  1  0.642131  0.642131  0.642131  1
  Tc  Tc3  1  0.034823  0.475241  0.735898  1
  Tc  Tc4  1  0.475241  0.735898  0.034823  1
  Tc  Tc5  1  0.735898  0.034823  0.475241  1
  Tc  Tc6  1  0.253646  0.962570  0.538414  1
  Tc  Tc7  1  0.538414  0.253646  0.962570  1
  Tc  Tc8  1  0.962570  0.538414  0.253646  1
  O  O9  1  0.134785  0.499345  0.290490  1
  O  O10  1  0.290490  0.134785  0.499345  1
  O  O11  1  0.009996  0.329736  0.939053  1
  O  O12  1  0.499345  0.290490  0.134785  1
  O  O13  1  0.013042  0.665748  0.727521  1
  O  O14  1  0.234721  0.392222  0.593165  1
  O  O15  1  0.392222  0.593165  0.234721  1
  O  O16  1  0.329736  0.939053  0.009996  1
  O  O17  1  0.593165  0.234721  0.392222  1
  O  O18  1  0.044805  0.971069  0.681662  1
  O  O19  1  0.286128  0.969667  0.349052  1
  O  O20  1  0.349052  0.286128  0.969667  1
  O  O21  1  0.665748  0.727521  0.013042  1
  O  O22  1  0.727521  0.013042  0.665748  1
  O  O23  1  0.939053  0.009996  0.329736  1
  O  O24  1  0.399721  0.770083  0.624990  1
  O  O25  1  0.681662  0.044805  0.971069  1
  O  O26  1  0.624990  0.399721  0.770083  1
  O  O27  1  0.770083  0.624990  0.399721  1
  O  O28  1  0.969667  0.349052  0.286128  1
  O  O29  1  0.518672  0.676506  0.876697  1
  O  O30  1  0.971069  0.681662  0.044805  1
  O  O31  1  0.676506  0.876697  0.518672  1
  O  O32  1  0.876697  0.518672  0.676506  1
