# generated using pymatgen
data_Nb3AlIrN
_symmetry_space_group_name_H-M   'P 1'
_cell_length_a   7.03892600
_cell_length_b   7.03892600
_cell_length_c   7.03892600
_cell_angle_alpha   90.00000000
_cell_angle_beta   90.00000000
_cell_angle_gamma   90.00000000
_symmetry_Int_Tables_number   1
_chemical_formula_structural   Nb3AlIrN
_chemical_formula_sum   'Nb12 Al4 Ir4 N4'
_cell_volume   348.75400088
_cell_formula_units_Z   4
loop_
 _symmetry_equiv_pos_site_id
 _symmetry_equiv_pos_as_xyz
  1  'x, y, z'
loop_
 _atom_site_type_symbol
 _atom_site_label
 _atom_site_symmetry_multiplicity
 _atom_site_fract_x
 _atom_site_fract_y
 _atom_site_fract_z
 _atom_site_occupancy
  Nb  Nb0  1  0.794532  0.955742  0.375728  1
  Nb  Nb1  1  0.705468  0.044258  0.875728  1
  Nb  Nb2  1  0.205468  0.455742  0.124272  1
  Nb  Nb3  1  0.294532  0.544258  0.624272  1
  Nb  Nb4  1  0.955742  0.375728  0.794532  1
  Nb  Nb5  1  0.044258  0.875728  0.705468  1
  Nb  Nb6  1  0.455742  0.124272  0.205468  1
  Nb  Nb7  1  0.544258  0.624272  0.294532  1
  Nb  Nb8  1  0.375728  0.794532  0.955742  1
  Nb  Nb9  1  0.875728  0.705468  0.044258  1
  Nb  Nb10  1  0.124272  0.205468  0.455742  1
  Nb  Nb11  1  0.624272  0.294532  0.544258  1
  Al  Al12  1  0.570385  0.429615  0.929615  1
  Al  Al13  1  0.429615  0.929615  0.570385  1
  Al  Al14  1  0.929615  0.570385  0.429615  1
  Al  Al15  1  0.070385  0.070385  0.070385  1
  Ir  Ir16  1  0.177926  0.822074  0.322074  1
  Ir  Ir17  1  0.322074  0.177926  0.822074  1
  Ir  Ir18  1  0.822074  0.322074  0.177926  1
  Ir  Ir19  1  0.677926  0.677926  0.677926  1
  N  N20  1  0.874937  0.125063  0.625063  1
  N  N21  1  0.625063  0.874937  0.125063  1
  N  N22  1  0.125063  0.625063  0.874937  1
  N  N23  1  0.374937  0.374937  0.374937  1
