# generated using pymatgen
data_YbSiPPd2
_symmetry_space_group_name_H-M   'P 1'
_cell_length_a   5.71470323
_cell_length_b   5.71470370
_cell_length_c   5.71470315
_cell_angle_alpha   137.18067643
_cell_angle_beta   137.18068557
_cell_angle_gamma   62.16017357
_symmetry_Int_Tables_number   1
_chemical_formula_structural   YbSiPPd2
_chemical_formula_sum   'Yb1 Si1 P1 Pd2'
_cell_volume   85.19367716
_cell_formula_units_Z   1
loop_
 _symmetry_equiv_pos_site_id
 _symmetry_equiv_pos_as_xyz
  1  'x, y, z'
loop_
 _atom_site_type_symbol
 _atom_site_label
 _atom_site_symmetry_multiplicity
 _atom_site_fract_x
 _atom_site_fract_y
 _atom_site_fract_z
 _atom_site_occupancy
  Yb  Yb0  1  0.002298  0.002298  0.000000  1
  Si  Si1  1  0.383557  0.383557  0.000000  1
  P  P2  1  0.611048  0.611048  0.000000  1
  Pd  Pd3  1  0.251548  0.751548  0.500000  1
  Pd  Pd4  1  0.751548  0.251548  0.500000  1
