# generated using pymatgen
data_Zr6Ga6Rh5Au
_symmetry_space_group_name_H-M   'P 1'
_cell_length_a   7.24854100
_cell_length_b   7.24854069
_cell_length_c   6.98271400
_cell_angle_alpha   90.00000000
_cell_angle_beta   90.00000000
_cell_angle_gamma   119.99999807
_symmetry_Int_Tables_number   1
_chemical_formula_structural   Zr6Ga6Rh5Au
_chemical_formula_sum   'Zr6 Ga6 Rh5 Au1'
_cell_volume   317.72842909
_cell_formula_units_Z   1
loop_
 _symmetry_equiv_pos_site_id
 _symmetry_equiv_pos_as_xyz
  1  'x, y, z'
loop_
 _atom_site_type_symbol
 _atom_site_label
 _atom_site_symmetry_multiplicity
 _atom_site_fract_x
 _atom_site_fract_y
 _atom_site_fract_z
 _atom_site_occupancy
  Zr  Zr0  1  0.395533  0.392202  0.744106  1
  Zr  Zr1  1  0.996669  0.604467  0.744106  1
  Zr  Zr2  1  0.607798  0.003331  0.744106  1
  Zr  Zr3  1  0.615809  0.017921  0.256995  1
  Zr  Zr4  1  0.982079  0.597887  0.256995  1
  Zr  Zr5  1  0.402113  0.384191  0.256995  1
  Ga  Ga6  1  0.257230  0.004743  0.998656  1
  Ga  Ga7  1  0.747513  0.742770  0.998656  1
  Ga  Ga8  1  0.995257  0.252487  0.998656  1
  Ga  Ga9  1  0.719199  0.725833  0.499675  1
  Ga  Ga10  1  0.274167  0.993366  0.499675  1
  Ga  Ga11  1  0.006634  0.280801  0.499675  1
  Rh  Rh12  1  0.666667  0.333333  0.990094  1
  Rh  Rh13  1  0.000000  0.000000  0.727881  1
  Rh  Rh14  1  0.666667  0.333333  0.510394  1
  Rh  Rh15  1  0.333333  0.666667  0.489100  1
  Rh  Rh16  1  0.000000  0.000000  0.270197  1
  Au  Au17  1  0.333333  0.666667  0.014032  1
