# generated using pymatgen
data_Li2Sn8OsPt
_symmetry_space_group_name_H-M   'P 1'
_cell_length_a   7.46463244
_cell_length_b   7.46463145
_cell_length_c   7.46463204
_cell_angle_alpha   126.39946334
_cell_angle_beta   126.39945197
_cell_angle_gamma   79.23259940
_symmetry_Int_Tables_number   1
_chemical_formula_structural   Li2Sn8OsPt
_chemical_formula_sum   'Li2 Sn8 Os1 Pt1'
_cell_volume   260.54839738
_cell_formula_units_Z   1
loop_
 _symmetry_equiv_pos_site_id
 _symmetry_equiv_pos_as_xyz
  1  'x, y, z'
loop_
 _atom_site_type_symbol
 _atom_site_label
 _atom_site_symmetry_multiplicity
 _atom_site_fract_x
 _atom_site_fract_y
 _atom_site_fract_z
 _atom_site_occupancy
  Li  Li0  1  0.497029  0.497029  0.000000  1
  Li  Li1  1  0.002971  0.002971  0.000000  1
  Sn  Sn2  1  0.711145  0.528143  0.509159  1
  Sn  Sn3  1  0.528143  0.018984  0.816997  1
  Sn  Sn4  1  0.201986  0.711145  0.183003  1
  Sn  Sn5  1  0.788855  0.298014  0.816997  1
  Sn  Sn6  1  0.481016  0.971857  0.183003  1
  Sn  Sn7  1  0.298014  0.481016  0.509159  1
  Sn  Sn8  1  0.971857  0.788855  0.490841  1
  Sn  Sn9  1  0.018984  0.201986  0.490841  1
  Os  Os10  1  0.750000  0.750000  0.000000  1
  Pt  Pt11  1  0.250000  0.250000  0.000000  1
