# generated using pymatgen
data_Li4CaYb(ErSi4)2
_symmetry_space_group_name_H-M   'P 1'
_cell_length_a   3.77722000
_cell_length_b   7.74338631
_cell_length_c   10.34612902
_cell_angle_alpha   89.99872061
_cell_angle_beta   90.00000000
_cell_angle_gamma   90.00000000
_symmetry_Int_Tables_number   1
_chemical_formula_structural   Li4CaYb(ErSi4)2
_chemical_formula_sum   'Li4 Ca1 Yb1 Er2 Si8'
_cell_volume   302.60848177
_cell_formula_units_Z   1
loop_
 _symmetry_equiv_pos_site_id
 _symmetry_equiv_pos_as_xyz
  1  'x, y, z'
loop_
 _atom_site_type_symbol
 _atom_site_label
 _atom_site_symmetry_multiplicity
 _atom_site_fract_x
 _atom_site_fract_y
 _atom_site_fract_z
 _atom_site_occupancy
  Li  Li0  1  0.250000  0.996776  0.391524  1
  Li  Li1  1  0.750000  0.009625  0.609366  1
  Li  Li2  1  0.250000  0.492821  0.109174  1
  Li  Li3  1  0.750000  0.509044  0.892468  1
  Ca  Ca4  1  0.750000  0.362859  0.364309  1
  Yb  Yb5  1  0.750000  0.861482  0.134260  1
  Er  Er6  1  0.250000  0.129913  0.863854  1
  Er  Er7  1  0.250000  0.632107  0.635754  1
  Si  Si8  1  0.750000  0.263037  0.060563  1
  Si  Si9  1  0.250000  0.736783  0.928469  1
  Si  Si10  1  0.750000  0.766423  0.438218  1
  Si  Si11  1  0.250000  0.238105  0.573064  1
  Si  Si12  1  0.750000  0.840445  0.815467  1
  Si  Si13  1  0.250000  0.156446  0.170085  1
  Si  Si14  1  0.750000  0.342683  0.685643  1
  Si  Si15  1  0.250000  0.661447  0.327784  1
