# generated using pymatgen
data_DyEr7In3Fe
_symmetry_space_group_name_H-M   'P 1'
_cell_length_a   10.29307971
_cell_length_b   10.29307959
_cell_length_c   6.98482567
_cell_angle_alpha   89.95503305
_cell_angle_beta   90.04496099
_cell_angle_gamma   120.03796726
_symmetry_Int_Tables_number   1
_chemical_formula_structural   DyEr7In3Fe
_chemical_formula_sum   'Dy2 Er14 In6 Fe2'
_cell_volume   640.63462897
_cell_formula_units_Z   2
loop_
 _symmetry_equiv_pos_site_id
 _symmetry_equiv_pos_as_xyz
  1  'x, y, z'
loop_
 _atom_site_type_symbol
 _atom_site_label
 _atom_site_symmetry_multiplicity
 _atom_site_fract_x
 _atom_site_fract_y
 _atom_site_fract_z
 _atom_site_occupancy
  Dy  Dy0  1  0.534525  0.069102  0.513494  1
  Dy  Dy1  1  0.930898  0.465475  0.513494  1
  Er  Er2  1  0.534512  0.465488  0.514113  1
  Er  Er3  1  0.464689  0.929564  0.013941  1
  Er  Er4  1  0.070436  0.535311  0.013941  1
  Er  Er5  1  0.465119  0.534881  0.014384  1
  Er  Er6  1  0.179288  0.357909  0.720547  1
  Er  Er7  1  0.642091  0.820712  0.720547  1
  Er  Er8  1  0.178627  0.821373  0.720710  1
  Er  Er9  1  0.820966  0.642485  0.219687  1
  Er  Er10  1  0.357515  0.179034  0.219687  1
  Er  Er11  1  0.821514  0.178486  0.219147  1
  Er  Er12  1  0.666401  0.333599  0.903571  1
  Er  Er13  1  0.333666  0.666334  0.402115  1
  Er  Er14  1  0.000028  0.999972  0.501104  1
  Er  Er15  1  0.000123  0.999877  0.001568  1
  In  In16  1  0.836989  0.674475  0.761088  1
  In  In17  1  0.325525  0.163011  0.761088  1
  In  In18  1  0.837364  0.162636  0.761545  1
  In  In19  1  0.162987  0.325852  0.260884  1
  In  In20  1  0.674148  0.837013  0.260884  1
  In  In21  1  0.162959  0.837041  0.260951  1
  Fe  Fe22  1  0.666269  0.333731  0.289288  1
  Fe  Fe23  1  0.333359  0.666641  0.790224  1
