# generated using pymatgen
data_Ho3V(Ni4As3)2
_symmetry_space_group_name_H-M   'P 1'
_cell_length_a   3.87150300
_cell_length_b   11.00355500
_cell_length_c   12.67669600
_cell_angle_alpha   90.00000000
_cell_angle_beta   90.00000000
_cell_angle_gamma   90.00000000
_symmetry_Int_Tables_number   1
_chemical_formula_structural   Ho3V(Ni4As3)2
_chemical_formula_sum   'Ho6 V2 Ni16 As12'
_cell_volume   540.03100435
_cell_formula_units_Z   2
loop_
 _symmetry_equiv_pos_site_id
 _symmetry_equiv_pos_as_xyz
  1  'x, y, z'
loop_
 _atom_site_type_symbol
 _atom_site_label
 _atom_site_symmetry_multiplicity
 _atom_site_fract_x
 _atom_site_fract_y
 _atom_site_fract_z
 _atom_site_occupancy
  Ho  Ho0  1  0.000000  0.500000  0.523587  1
  Ho  Ho1  1  0.500000  0.000000  0.476413  1
  Ho  Ho2  1  0.500000  0.818814  0.206232  1
  Ho  Ho3  1  0.500000  0.181186  0.206232  1
  Ho  Ho4  1  0.000000  0.681186  0.793768  1
  Ho  Ho5  1  0.000000  0.318814  0.793768  1
  V  V6  1  0.500000  0.500000  0.148129  1
  V  V7  1  0.000000  0.000000  0.851871  1
  Ni  Ni8  1  0.000000  0.500000  0.983331  1
  Ni  Ni9  1  0.500000  0.000000  0.016669  1
  Ni  Ni10  1  0.500000  0.303730  0.426134  1
  Ni  Ni11  1  0.500000  0.696270  0.426134  1
  Ni  Ni12  1  0.000000  0.196270  0.573866  1
  Ni  Ni13  1  0.000000  0.803730  0.573866  1
  Ni  Ni14  1  0.500000  0.879950  0.708470  1
  Ni  Ni15  1  0.500000  0.120050  0.708470  1
  Ni  Ni16  1  0.000000  0.620050  0.291530  1
  Ni  Ni17  1  0.000000  0.379950  0.291530  1
  Ni  Ni18  1  0.500000  0.334676  0.992208  1
  Ni  Ni19  1  0.500000  0.665324  0.992208  1
  Ni  Ni20  1  0.000000  0.165324  0.007792  1
  Ni  Ni21  1  0.000000  0.834676  0.007792  1
  Ni  Ni22  1  0.500000  0.500000  0.698185  1
  Ni  Ni23  1  0.000000  0.000000  0.301815  1
  As  As24  1  0.500000  0.314335  0.613917  1
  As  As25  1  0.500000  0.685665  0.613917  1
  As  As26  1  0.000000  0.185665  0.386083  1
  As  As27  1  0.000000  0.814335  0.386083  1
  As  As28  1  0.500000  0.500000  0.876667  1
  As  As29  1  0.000000  0.000000  0.123333  1
  As  As30  1  0.500000  0.844528  0.890490  1
  As  As31  1  0.500000  0.155472  0.890490  1
  As  As32  1  0.000000  0.655472  0.109510  1
  As  As33  1  0.000000  0.344528  0.109510  1
  As  As34  1  0.500000  0.500000  0.345434  1
  As  As35  1  0.000000  0.000000  0.654566  1
