# generated using pymatgen
data_Ti3V2Si2B4W5
_symmetry_space_group_name_H-M   'P 1'
_cell_length_a   7.00763150
_cell_length_b   7.00763049
_cell_length_c   6.99680713
_cell_angle_alpha   129.50139766
_cell_angle_beta   129.50138856
_cell_angle_gamma   74.30672776
_symmetry_Int_Tables_number   1
_chemical_formula_structural   Ti3V2Si2B4W5
_chemical_formula_sum   'Ti3 V2 Si2 B4 W5'
_cell_volume   199.30872464
_cell_formula_units_Z   1
loop_
 _symmetry_equiv_pos_site_id
 _symmetry_equiv_pos_as_xyz
  1  'x, y, z'
loop_
 _atom_site_type_symbol
 _atom_site_label
 _atom_site_symmetry_multiplicity
 _atom_site_fract_x
 _atom_site_fract_y
 _atom_site_fract_z
 _atom_site_occupancy
  Ti  Ti0  1  0.471561  0.306211  0.499486  1
  Ti  Ti1  1  0.806211  0.971561  0.499486  1
  Ti  Ti2  1  0.305648  0.805648  0.833665  1
  V  V3  1  0.998830  0.998722  0.000087  1
  V  V4  1  0.498722  0.498830  0.000087  1
  Si  Si5  1  0.249466  0.246899  0.999123  1
  Si  Si6  1  0.746899  0.749466  0.999123  1
  B  B7  1  0.618960  0.118960  0.737218  1
  B  B8  1  0.122273  0.379193  0.501121  1
  B  B9  1  0.879193  0.622273  0.501121  1
  B  B10  1  0.383183  0.883183  0.263738  1
  W  W11  1  0.531501  0.694035  0.499864  1
  W  W12  1  0.031453  0.531453  0.839131  1
  W  W13  1  0.694436  0.194436  0.164819  1
  W  W14  1  0.967627  0.467627  0.162068  1
  W  W15  1  0.194035  0.031501  0.499864  1
