# generated using pymatgen
data_DyEr2PaPt4
_symmetry_space_group_name_H-M   'P 1'
_cell_length_a   4.53953200
_cell_length_b   5.58828512
_cell_length_c   6.95357164
_cell_angle_alpha   89.06517011
_cell_angle_beta   90.00000000
_cell_angle_gamma   90.00000000
_symmetry_Int_Tables_number   1
_chemical_formula_structural   DyEr2PaPt4
_chemical_formula_sum   'Dy1 Er2 Pa1 Pt4'
_cell_volume   176.37611124
_cell_formula_units_Z   1
loop_
 _symmetry_equiv_pos_site_id
 _symmetry_equiv_pos_as_xyz
  1  'x, y, z'
loop_
 _atom_site_type_symbol
 _atom_site_label
 _atom_site_symmetry_multiplicity
 _atom_site_fract_x
 _atom_site_fract_y
 _atom_site_fract_z
 _atom_site_occupancy
  Dy  Dy0  1  0.250000  0.858789  0.683543  1
  Er  Er1  1  0.750000  0.355619  0.815514  1
  Er  Er2  1  0.750000  0.144208  0.320408  1
  Pa  Pa3  1  0.250000  0.643045  0.182327  1
  Pt  Pt4  1  0.250000  0.161975  0.050221  1
  Pt  Pt5  1  0.750000  0.832832  0.962622  1
  Pt  Pt6  1  0.750000  0.656991  0.446721  1
  Pt  Pt7  1  0.250000  0.346542  0.538646  1
