# generated using pymatgen
data_Dy3HoCo16(ReP3)4
_symmetry_space_group_name_H-M   'P 1'
_cell_length_a   3.71775500
_cell_length_b   10.33224529
_cell_length_c   11.81566933
_cell_angle_alpha   90.02697034
_cell_angle_beta   90.00000000
_cell_angle_gamma   90.00000000
_symmetry_Int_Tables_number   1
_chemical_formula_structural   Dy3HoCo16(ReP3)4
_chemical_formula_sum   'Dy3 Ho1 Co16 Re4 P12'
_cell_volume   453.87237934
_cell_formula_units_Z   1
loop_
 _symmetry_equiv_pos_site_id
 _symmetry_equiv_pos_as_xyz
  1  'x, y, z'
loop_
 _atom_site_type_symbol
 _atom_site_label
 _atom_site_symmetry_multiplicity
 _atom_site_fract_x
 _atom_site_fract_y
 _atom_site_fract_z
 _atom_site_occupancy
  Dy  Dy0  1  0.250000  0.916186  0.204728  1
  Dy  Dy1  1  0.750000  0.416059  0.295134  1
  Dy  Dy2  1  0.750000  0.083982  0.795379  1
  Ho  Ho3  1  0.250000  0.583785  0.704569  1
  Co  Co4  1  0.250000  0.405694  0.488591  1
  Co  Co5  1  0.250000  0.094557  0.988620  1
  Co  Co6  1  0.750000  0.594166  0.511808  1
  Co  Co7  1  0.750000  0.905859  0.011386  1
  Co  Co8  1  0.250000  0.222556  0.175927  1
  Co  Co9  1  0.250000  0.277571  0.675842  1
  Co  Co10  1  0.750000  0.777325  0.824005  1
  Co  Co11  1  0.750000  0.722296  0.324227  1
  Co  Co12  1  0.250000  0.885823  0.702632  1
  Co  Co13  1  0.250000  0.614050  0.202495  1
  Co  Co14  1  0.750000  0.114009  0.297490  1
  Co  Co15  1  0.750000  0.386298  0.797290  1
  Co  Co16  1  0.250000  0.464110  0.932043  1
  Co  Co17  1  0.250000  0.035938  0.432426  1
  Co  Co18  1  0.750000  0.536407  0.067368  1
  Co  Co19  1  0.750000  0.963532  0.567795  1
  Re  Re20  1  0.250000  0.710169  0.989598  1
  Re  Re21  1  0.250000  0.789730  0.489915  1
  Re  Re22  1  0.750000  0.290302  0.010482  1
  Re  Re23  1  0.750000  0.209920  0.510342  1
  P  P24  1  0.250000  0.420668  0.113348  1
  P  P25  1  0.250000  0.079352  0.613596  1
  P  P26  1  0.750000  0.579555  0.886040  1
  P  P27  1  0.750000  0.920344  0.386557  1
  P  P28  1  0.250000  0.269735  0.864902  1
  P  P29  1  0.250000  0.230291  0.364929  1
  P  P30  1  0.750000  0.730434  0.135122  1
  P  P31  1  0.750000  0.769130  0.635249  1
  P  P32  1  0.250000  0.595773  0.391157  1
  P  P33  1  0.250000  0.904233  0.891324  1
  P  P34  1  0.750000  0.404212  0.608828  1
  P  P35  1  0.750000  0.095950  0.108859  1
