# generated using pymatgen
data_Ho4Er3Lu13Bi12
_symmetry_space_group_name_H-M   'P 1'
_cell_length_a   8.16226485
_cell_length_b   9.39943400
_cell_length_c   11.87750623
_cell_angle_alpha   90.00000000
_cell_angle_beta   90.05215268
_cell_angle_gamma   90.00000000
_symmetry_Int_Tables_number   1
_chemical_formula_structural   Ho4Er3Lu13Bi12
_chemical_formula_sum   'Ho4 Er3 Lu13 Bi12'
_cell_volume   911.24985489
_cell_formula_units_Z   1
loop_
 _symmetry_equiv_pos_site_id
 _symmetry_equiv_pos_as_xyz
  1  'x, y, z'
loop_
 _atom_site_type_symbol
 _atom_site_label
 _atom_site_symmetry_multiplicity
 _atom_site_fract_x
 _atom_site_fract_y
 _atom_site_fract_z
 _atom_site_occupancy
  Ho  Ho0  1  0.313695  0.250000  0.217479  1
  Ho  Ho1  1  0.813876  0.250000  0.282577  1
  Ho  Ho2  1  0.686089  0.750000  0.782423  1
  Ho  Ho3  1  0.186345  0.750000  0.717367  1
  Er  Er4  1  0.352900  0.750000  0.217906  1
  Er  Er5  1  0.853262  0.750000  0.282008  1
  Er  Er6  1  0.646796  0.250000  0.781941  1
  Lu  Lu7  1  0.146866  0.250000  0.718156  1
  Lu  Lu8  1  0.692274  0.567225  0.059605  1
  Lu  Lu9  1  0.192111  0.932828  0.440427  1
  Lu  Lu10  1  0.307648  0.067404  0.940145  1
  Lu  Lu11  1  0.807940  0.432801  0.559606  1
  Lu  Lu12  1  0.307648  0.432596  0.940145  1
  Lu  Lu13  1  0.807940  0.067199  0.559606  1
  Lu  Lu14  1  0.692274  0.932775  0.059605  1
  Lu  Lu15  1  0.192111  0.567172  0.440427  1
  Lu  Lu16  1  0.477270  0.250000  0.489354  1
  Lu  Lu17  1  0.977604  0.250000  0.010380  1
  Lu  Lu18  1  0.522564  0.750000  0.510747  1
  Lu  Lu19  1  0.022711  0.750000  0.989382  1
  Bi  Bi20  1  0.403263  0.750000  0.958190  1
  Bi  Bi21  1  0.903054  0.750000  0.541656  1
  Bi  Bi22  1  0.596909  0.250000  0.041878  1
  Bi  Bi23  1  0.097175  0.250000  0.459162  1
  Bi  Bi24  1  0.566020  0.995719  0.326384  1
  Bi  Bi25  1  0.066064  0.504367  0.173735  1
  Bi  Bi26  1  0.433598  0.495530  0.673637  1
  Bi  Bi27  1  0.934155  0.004787  0.826159  1
  Bi  Bi28  1  0.433598  0.004470  0.673637  1
  Bi  Bi29  1  0.934155  0.495213  0.826159  1
  Bi  Bi30  1  0.566020  0.504281  0.326384  1
  Bi  Bi31  1  0.066064  0.995633  0.173735  1
