# generated using pymatgen
data_LiZn2(SbPt)2
_symmetry_space_group_name_H-M   'P 1'
_cell_length_a   4.38810200
_cell_length_b   4.38810253
_cell_length_c   15.64839100
_cell_angle_alpha   90.00000000
_cell_angle_beta   90.00000000
_cell_angle_gamma   119.99998090
_symmetry_Int_Tables_number   1
_chemical_formula_structural   LiZn2(SbPt)2
_chemical_formula_sum   'Li2 Zn4 Sb4 Pt4'
_cell_volume   260.94794755
_cell_formula_units_Z   2
loop_
 _symmetry_equiv_pos_site_id
 _symmetry_equiv_pos_as_xyz
  1  'x, y, z'
loop_
 _atom_site_type_symbol
 _atom_site_label
 _atom_site_symmetry_multiplicity
 _atom_site_fract_x
 _atom_site_fract_y
 _atom_site_fract_z
 _atom_site_occupancy
  Li  Li0  1  0.000000  0.000000  0.165908  1
  Li  Li1  1  0.000000  0.000000  0.834092  1
  Zn  Zn2  1  0.000000  0.000000  0.675205  1
  Zn  Zn3  1  0.000000  0.000000  0.324795  1
  Zn  Zn4  1  0.333333  0.666667  0.752642  1
  Zn  Zn5  1  0.666667  0.333333  0.247358  1
  Sb  Sb6  1  0.333333  0.666667  0.077136  1
  Sb  Sb7  1  0.666667  0.333333  0.922864  1
  Sb  Sb8  1  0.666667  0.333333  0.575353  1
  Sb  Sb9  1  0.333333  0.666667  0.424647  1
  Pt  Pt10  1  0.000000  0.000000  0.000000  1
  Pt  Pt11  1  0.000000  0.000000  0.500000  1
  Pt  Pt12  1  0.333333  0.666667  0.251894  1
  Pt  Pt13  1  0.666667  0.333333  0.748106  1
