# generated using pymatgen
data_Dy2Sc3Ge4
_symmetry_space_group_name_H-M   'P 1'
_cell_length_a   7.24646700
_cell_length_b   7.48566700
_cell_length_c   14.10225900
_cell_angle_alpha   90.00000000
_cell_angle_beta   90.00000000
_cell_angle_gamma   90.00000000
_symmetry_Int_Tables_number   1
_chemical_formula_structural   Dy2Sc3Ge4
_chemical_formula_sum   'Dy8 Sc12 Ge16'
_cell_volume   764.97194697
_cell_formula_units_Z   4
loop_
 _symmetry_equiv_pos_site_id
 _symmetry_equiv_pos_as_xyz
  1  'x, y, z'
loop_
 _atom_site_type_symbol
 _atom_site_label
 _atom_site_symmetry_multiplicity
 _atom_site_fract_x
 _atom_site_fract_y
 _atom_site_fract_z
 _atom_site_occupancy
  Dy  Dy0  1  0.500624  0.323755  0.096499  1
  Dy  Dy1  1  0.000624  0.176245  0.403501  1
  Dy  Dy2  1  0.499376  0.676245  0.596499  1
  Dy  Dy3  1  0.999376  0.823755  0.903501  1
  Dy  Dy4  1  0.499376  0.676245  0.903501  1
  Dy  Dy5  1  0.999376  0.823755  0.596499  1
  Dy  Dy6  1  0.500624  0.323755  0.403501  1
  Dy  Dy7  1  0.000624  0.176245  0.096499  1
  Sc  Sc8  1  0.672496  0.999526  0.750000  1
  Sc  Sc9  1  0.172496  0.500474  0.750000  1
  Sc  Sc10  1  0.327504  0.000474  0.250000  1
  Sc  Sc11  1  0.827504  0.499526  0.250000  1
  Sc  Sc12  1  0.839544  0.330694  0.624905  1
  Sc  Sc13  1  0.339544  0.169306  0.875095  1
  Sc  Sc14  1  0.160456  0.669306  0.124905  1
  Sc  Sc15  1  0.660456  0.830694  0.375095  1
  Sc  Sc16  1  0.160456  0.669306  0.375095  1
  Sc  Sc17  1  0.660456  0.830694  0.124905  1
  Sc  Sc18  1  0.839544  0.330694  0.875095  1
  Sc  Sc19  1  0.339544  0.169306  0.624905  1
  Ge  Ge20  1  0.804733  0.638574  0.750000  1
  Ge  Ge21  1  0.304733  0.861426  0.750000  1
  Ge  Ge22  1  0.195267  0.361426  0.250000  1
  Ge  Ge23  1  0.695267  0.138574  0.250000  1
  Ge  Ge24  1  0.538038  0.374763  0.750000  1
  Ge  Ge25  1  0.038038  0.125237  0.750000  1
  Ge  Ge26  1  0.461962  0.625237  0.250000  1
  Ge  Ge27  1  0.961962  0.874763  0.250000  1
  Ge  Ge28  1  0.677003  0.040431  0.541156  1
  Ge  Ge29  1  0.177003  0.459569  0.958844  1
  Ge  Ge30  1  0.322997  0.959569  0.041156  1
  Ge  Ge31  1  0.822997  0.540431  0.458844  1
  Ge  Ge32  1  0.322997  0.959569  0.458844  1
  Ge  Ge33  1  0.822997  0.540431  0.041156  1
  Ge  Ge34  1  0.677003  0.040431  0.958844  1
  Ge  Ge35  1  0.177003  0.459569  0.541156  1
