# generated using pymatgen
data_Y4TmIrPt2
_symmetry_space_group_name_H-M   'P 1'
_cell_length_a   11.08418300
_cell_length_b   11.08418300
_cell_length_c   6.33499800
_cell_angle_alpha   90.00000000
_cell_angle_beta   90.00000000
_cell_angle_gamma   90.00000000
_symmetry_Int_Tables_number   1
_chemical_formula_structural   Y4TmIrPt2
_chemical_formula_sum   'Y16 Tm4 Ir4 Pt8'
_cell_volume   778.31223373
_cell_formula_units_Z   4
loop_
 _symmetry_equiv_pos_site_id
 _symmetry_equiv_pos_as_xyz
  1  'x, y, z'
loop_
 _atom_site_type_symbol
 _atom_site_label
 _atom_site_symmetry_multiplicity
 _atom_site_fract_x
 _atom_site_fract_y
 _atom_site_fract_z
 _atom_site_occupancy
  Y  Y0  1  0.293372  0.086870  0.373969  1
  Y  Y1  1  0.293372  0.913130  0.873969  1
  Y  Y2  1  0.706628  0.086870  0.873969  1
  Y  Y3  1  0.706628  0.913130  0.373969  1
  Y  Y4  1  0.586870  0.793372  0.873969  1
  Y  Y5  1  0.586870  0.206628  0.373969  1
  Y  Y6  1  0.413130  0.793372  0.373969  1
  Y  Y7  1  0.413130  0.206628  0.873969  1
  Y  Y8  1  0.206628  0.413130  0.626031  1
  Y  Y9  1  0.206628  0.586870  0.126031  1
  Y  Y10  1  0.793372  0.413130  0.126031  1
  Y  Y11  1  0.793372  0.586870  0.626031  1
  Y  Y12  1  0.913130  0.706628  0.126031  1
  Y  Y13  1  0.913130  0.293372  0.626031  1
  Y  Y14  1  0.086870  0.706628  0.626031  1
  Y  Y15  1  0.086870  0.293372  0.126031  1
  Tm  Tm16  1  0.000000  0.000000  0.500000  1
  Tm  Tm17  1  0.000000  0.000000  0.000000  1
  Tm  Tm18  1  0.500000  0.500000  0.000000  1
  Tm  Tm19  1  0.500000  0.500000  0.500000  1
  Ir  Ir20  1  0.500000  0.000000  0.121280  1
  Ir  Ir21  1  0.500000  0.000000  0.621280  1
  Ir  Ir22  1  0.000000  0.500000  0.878720  1
  Ir  Ir23  1  0.000000  0.500000  0.378720  1
  Pt  Pt24  1  0.849384  0.150616  0.250000  1
  Pt  Pt25  1  0.849384  0.849384  0.750000  1
  Pt  Pt26  1  0.150616  0.150616  0.750000  1
  Pt  Pt27  1  0.150616  0.849384  0.250000  1
  Pt  Pt28  1  0.650616  0.349384  0.750000  1
  Pt  Pt29  1  0.650616  0.650616  0.250000  1
  Pt  Pt30  1  0.349384  0.349384  0.250000  1
  Pt  Pt31  1  0.349384  0.650616  0.750000  1
