# generated using pymatgen
data_Ti7NbAl15Ir5Rh2
_symmetry_space_group_name_H-M   'P 1'
_cell_length_a   8.65565322
_cell_length_b   8.65999193
_cell_length_c   8.65453557
_cell_angle_alpha   120.03050161
_cell_angle_beta   119.80973633
_cell_angle_gamma   90.15304997
_symmetry_Int_Tables_number   1
_chemical_formula_structural   Ti7NbAl15Ir5Rh2
_chemical_formula_sum   'Ti7 Nb1 Al15 Ir5 Rh2'
_cell_volume   459.21021086
_cell_formula_units_Z   1
loop_
 _symmetry_equiv_pos_site_id
 _symmetry_equiv_pos_as_xyz
  1  'x, y, z'
loop_
 _atom_site_type_symbol
 _atom_site_label
 _atom_site_symmetry_multiplicity
 _atom_site_fract_x
 _atom_site_fract_y
 _atom_site_fract_z
 _atom_site_occupancy
  Ti  Ti0  1  0.217275  0.291192  0.500468  1
  Ti  Ti1  1  0.207933  0.707806  0.499171  1
  Ti  Ti2  1  0.218641  0.717480  0.927741  1
  Ti  Ti3  1  0.790152  0.714866  0.497015  1
  Ti  Ti4  1  0.782612  0.282735  0.498181  1
  Ti  Ti5  1  0.379013  0.123008  0.745039  1
  Ti  Ti6  1  0.378256  0.634767  0.255572  1
  Nb  Nb7  1  0.793515  0.294256  0.081423  1
  Al  Al8  1  0.001420  0.500558  0.508467  1
  Al  Al9  1  0.154012  0.340918  0.186952  1
  Al  Al10  1  0.152262  0.962984  0.810044  1
  Al  Al11  1  0.149766  0.346289  0.802665  1
  Al  Al12  1  0.538014  0.345094  0.193000  1
  Al  Al13  1  0.846576  0.653851  0.806903  1
  Al  Al14  1  0.845280  0.035550  0.190280  1
  Al  Al15  1  0.841335  0.656439  0.184508  1
  Al  Al16  1  0.467311  0.655074  0.811712  1
  Al  Al17  1  0.379573  0.121066  0.258689  1
  Al  Al18  1  0.863463  0.121638  0.742422  1
  Al  Al19  1  0.621160  0.877843  0.257035  1
  Al  Al20  1  0.620773  0.364528  0.743075  1
  Al  Al21  1  0.620382  0.878459  0.742244  1
  Al  Al22  1  0.136761  0.878746  0.258201  1
  Ir  Ir23  1  0.001196  0.999366  0.501538  1
  Ir  Ir24  1  0.496404  0.998530  0.998436  1
  Ir  Ir25  1  0.495911  0.498458  0.999572  1
  Ir  Ir26  1  0.497717  0.499584  0.497423  1
  Ir  Ir27  1  0.002431  0.500478  0.001264  1
  Rh  Rh28  1  0.999998  0.998204  0.999716  1
  Rh  Rh29  1  0.500858  0.000227  0.501244  1
