# generated using pymatgen
data_Ho3Tm3Pa2(ReB6)4
_symmetry_space_group_name_H-M   'P 1'
_cell_length_a   3.68426700
_cell_length_b   9.13301431
_cell_length_c   11.50271312
_cell_angle_alpha   90.32930135
_cell_angle_beta   90.00000000
_cell_angle_gamma   90.00000000
_symmetry_Int_Tables_number   1
_chemical_formula_structural   Ho3Tm3Pa2(ReB6)4
_chemical_formula_sum   'Ho3 Tm3 Pa2 Re4 B24'
_cell_volume   387.04222713
_cell_formula_units_Z   1
loop_
 _symmetry_equiv_pos_site_id
 _symmetry_equiv_pos_as_xyz
  1  'x, y, z'
loop_
 _atom_site_type_symbol
 _atom_site_label
 _atom_site_symmetry_multiplicity
 _atom_site_fract_x
 _atom_site_fract_y
 _atom_site_fract_z
 _atom_site_occupancy
  Ho  Ho0  1  0.000000  0.823386  0.085490  1
  Ho  Ho1  1  0.000000  0.176610  0.914295  1
  Ho  Ho2  1  0.000000  0.944786  0.372532  1
  Tm  Tm3  1  0.000000  0.055334  0.627994  1
  Tm  Tm4  1  0.000000  0.443805  0.126219  1
  Tm  Tm5  1  0.000000  0.556216  0.873619  1
  Pa  Pa6  1  0.000000  0.321416  0.413328  1
  Pa  Pa7  1  0.000000  0.678725  0.587021  1
  Re  Re8  1  0.000000  0.634844  0.324102  1
  Re  Re9  1  0.000000  0.364483  0.675988  1
  Re  Re10  1  0.000000  0.141080  0.181381  1
  Re  Re11  1  0.000000  0.859339  0.818285  1
  B  B12  1  0.500000  0.553476  0.432871  1
  B  B13  1  0.500000  0.446206  0.567263  1
  B  B14  1  0.500000  0.053546  0.066987  1
  B  B15  1  0.500000  0.946592  0.932739  1
  B  B16  1  0.500000  0.748594  0.419417  1
  B  B17  1  0.500000  0.250833  0.580781  1
  B  B18  1  0.500000  0.248812  0.080011  1
  B  B19  1  0.500000  0.751336  0.919869  1
  B  B20  1  0.500000  0.791326  0.264970  1
  B  B21  1  0.500000  0.208102  0.734837  1
  B  B22  1  0.500000  0.292628  0.233613  1
  B  B23  1  0.500000  0.707647  0.766334  1
  B  B24  1  0.500000  0.630735  0.184723  1
  B  B25  1  0.500000  0.369036  0.815152  1
  B  B26  1  0.500000  0.131985  0.314068  1
  B  B27  1  0.500000  0.868560  0.685797  1
  B  B28  1  0.500000  0.982052  0.211790  1
  B  B29  1  0.500000  0.018252  0.787739  1
  B  B30  1  0.500000  0.482458  0.286005  1
  B  B31  1  0.500000  0.517364  0.713950  1
  B  B32  1  0.500000  0.603270  0.028812  1
  B  B33  1  0.500000  0.396723  0.971078  1
  B  B34  1  0.500000  0.108602  0.470500  1
  B  B35  1  0.500000  0.891844  0.530440  1
