# generated using pymatgen
data_Dy6MgCd22As
_symmetry_space_group_name_H-M   'P 1'
_cell_length_a   9.91960618
_cell_length_b   9.91960633
_cell_length_c   9.91960700
_cell_angle_alpha   60.00000110
_cell_angle_beta   60.00000060
_cell_angle_gamma   60.00000475
_symmetry_Int_Tables_number   1
_chemical_formula_structural   Dy6MgCd22As
_chemical_formula_sum   'Dy6 Mg1 Cd22 As1'
_cell_volume   690.18951497
_cell_formula_units_Z   1
loop_
 _symmetry_equiv_pos_site_id
 _symmetry_equiv_pos_as_xyz
  1  'x, y, z'
loop_
 _atom_site_type_symbol
 _atom_site_label
 _atom_site_symmetry_multiplicity
 _atom_site_fract_x
 _atom_site_fract_y
 _atom_site_fract_z
 _atom_site_occupancy
  Dy  Dy0  1  0.795578  0.795578  0.204422  1
  Dy  Dy1  1  0.204422  0.795578  0.204422  1
  Dy  Dy2  1  0.795578  0.204422  0.204422  1
  Dy  Dy3  1  0.204422  0.204422  0.795578  1
  Dy  Dy4  1  0.795578  0.204422  0.795578  1
  Dy  Dy5  1  0.204422  0.795578  0.795578  1
  Mg  Mg6  1  0.500000  0.500000  0.500000  1
  Cd  Cd7  1  0.835242  0.835242  0.494272  1
  Cd  Cd8  1  0.835242  0.494272  0.835242  1
  Cd  Cd9  1  0.494272  0.835242  0.835242  1
  Cd  Cd10  1  0.835242  0.835242  0.835242  1
  Cd  Cd11  1  0.164758  0.164758  0.505728  1
  Cd  Cd12  1  0.164758  0.505728  0.164758  1
  Cd  Cd13  1  0.505728  0.164758  0.164758  1
  Cd  Cd14  1  0.164758  0.164758  0.164758  1
  Cd  Cd15  1  0.620129  0.620129  0.139611  1
  Cd  Cd16  1  0.620129  0.139611  0.620129  1
  Cd  Cd17  1  0.139611  0.620129  0.620129  1
  Cd  Cd18  1  0.620129  0.620129  0.620129  1
  Cd  Cd19  1  0.379871  0.379871  0.860389  1
  Cd  Cd20  1  0.379871  0.860389  0.379871  1
  Cd  Cd21  1  0.860389  0.379871  0.379871  1
  Cd  Cd22  1  0.379871  0.379871  0.379871  1
  Cd  Cd23  1  0.000000  0.000000  0.500000  1
  Cd  Cd24  1  0.500000  0.000000  0.500000  1
  Cd  Cd25  1  0.000000  0.500000  0.500000  1
  Cd  Cd26  1  0.500000  0.500000  0.000000  1
  Cd  Cd27  1  0.000000  0.500000  0.000000  1
  Cd  Cd28  1  0.500000  0.000000  0.000000  1
  As  As29  1  0.000000  0.000000  0.000000  1
