# generated using pymatgen
data_Pr8Y11HoPb16
_symmetry_space_group_name_H-M   'P 1'
_cell_length_a   8.32118600
_cell_length_b   8.40461100
_cell_length_c   15.89972000
_cell_angle_alpha   90.00000000
_cell_angle_beta   90.00000000
_cell_angle_gamma   90.00108933
_symmetry_Int_Tables_number   1
_chemical_formula_structural   Pr8Y11HoPb16
_chemical_formula_sum   'Pr8 Y11 Ho1 Pb16'
_cell_volume   1111.96808681
_cell_formula_units_Z   1
loop_
 _symmetry_equiv_pos_site_id
 _symmetry_equiv_pos_as_xyz
  1  'x, y, z'
loop_
 _atom_site_type_symbol
 _atom_site_label
 _atom_site_symmetry_multiplicity
 _atom_site_fract_x
 _atom_site_fract_y
 _atom_site_fract_z
 _atom_site_occupancy
  Pr  Pr0  1  0.475971  0.677640  0.597336  1
  Pr  Pr1  1  0.975970  0.822362  0.902671  1
  Pr  Pr2  1  0.524070  0.322287  0.097343  1
  Pr  Pr3  1  0.023936  0.177600  0.402645  1
  Pr  Pr4  1  0.524070  0.322287  0.402657  1
  Pr  Pr5  1  0.023936  0.177600  0.097355  1
  Pr  Pr6  1  0.475971  0.677640  0.902664  1
  Pr  Pr7  1  0.975970  0.822362  0.597329  1
  Y  Y8  1  0.632828  0.158123  0.622205  1
  Y  Y9  1  0.132829  0.341867  0.877785  1
  Y  Y10  1  0.367328  0.841949  0.122261  1
  Y  Y11  1  0.867097  0.658260  0.377755  1
  Y  Y12  1  0.367328  0.841949  0.377739  1
  Y  Y13  1  0.867097  0.658260  0.122245  1
  Y  Y14  1  0.632828  0.158123  0.877795  1
  Y  Y15  1  0.132829  0.341867  0.622215  1
  Y  Y16  1  0.798456  0.495155  0.750000  1
  Y  Y17  1  0.298456  0.004858  0.750000  1
  Y  Y18  1  0.201548  0.504834  0.250000  1
  Ho  Ho19  1  0.701611  0.994997  0.250000  1
  Pb  Pb20  1  0.706222  0.959577  0.456422  1
  Pb  Pb21  1  0.206219  0.540451  0.043446  1
  Pb  Pb22  1  0.293775  0.040444  0.956555  1
  Pb  Pb23  1  0.793776  0.459554  0.543444  1
  Pb  Pb24  1  0.293775  0.040444  0.543445  1
  Pb  Pb25  1  0.793776  0.459554  0.956556  1
  Pb  Pb26  1  0.706222  0.959577  0.043578  1
  Pb  Pb27  1  0.206219  0.540451  0.456554  1
  Pb  Pb28  1  0.436542  0.370773  0.750000  1
  Pb  Pb29  1  0.936548  0.129219  0.750000  1
  Pb  Pb30  1  0.563534  0.629421  0.250000  1
  Pb  Pb31  1  0.063159  0.870907  0.250000  1
  Pb  Pb32  1  0.663014  0.850623  0.750000  1
  Pb  Pb33  1  0.163027  0.649356  0.750000  1
  Pb  Pb34  1  0.337185  0.149311  0.250000  1
  Pb  Pb35  1  0.836877  0.350320  0.250000  1
