# generated using pymatgen
data_TbNd16Lu3Sn16
_symmetry_space_group_name_H-M   'P 1'
_cell_length_a   8.20413701
_cell_length_b   8.36997901
_cell_length_c   15.89699600
_cell_angle_alpha   90.00000000
_cell_angle_beta   90.00000000
_cell_angle_gamma   89.99554058
_symmetry_Int_Tables_number   1
_chemical_formula_structural   TbNd16Lu3Sn16
_chemical_formula_sum   'Tb1 Nd16 Lu3 Sn16'
_cell_volume   1091.62214332
_cell_formula_units_Z   1
loop_
 _symmetry_equiv_pos_site_id
 _symmetry_equiv_pos_as_xyz
  1  'x, y, z'
loop_
 _atom_site_type_symbol
 _atom_site_label
 _atom_site_symmetry_multiplicity
 _atom_site_fract_x
 _atom_site_fract_y
 _atom_site_fract_z
 _atom_site_occupancy
  Tb  Tb0  1  0.197095  0.502363  0.250000  1
  Nd  Nd1  1  0.018357  0.180684  0.401936  1
  Nd  Nd2  1  0.366084  0.838684  0.121100  1
  Nd  Nd3  1  0.134311  0.338436  0.621344  1
  Nd  Nd4  1  0.481477  0.680865  0.901868  1
  Nd  Nd5  1  0.865263  0.661991  0.121169  1
  Nd  Nd6  1  0.134311  0.338436  0.878656  1
  Nd  Nd7  1  0.481477  0.680865  0.598132  1
  Nd  Nd8  1  0.634234  0.161648  0.621189  1
  Nd  Nd9  1  0.865263  0.661991  0.378831  1
  Nd  Nd10  1  0.018357  0.180684  0.098064  1
  Nd  Nd11  1  0.981545  0.819102  0.901932  1
  Nd  Nd12  1  0.634234  0.161648  0.878811  1
  Nd  Nd13  1  0.518789  0.318939  0.097997  1
  Nd  Nd14  1  0.366084  0.838684  0.378900  1
  Nd  Nd15  1  0.981545  0.819102  0.598068  1
  Nd  Nd16  1  0.518789  0.318939  0.402003  1
  Lu  Lu17  1  0.698067  0.997454  0.250000  1
  Lu  Lu18  1  0.302045  0.002370  0.750000  1
  Lu  Lu19  1  0.801963  0.497525  0.750000  1
  Sn  Sn20  1  0.793226  0.465600  0.544875  1
  Sn  Sn21  1  0.706772  0.965477  0.455220  1
  Sn  Sn22  1  0.675465  0.851384  0.750000  1
  Sn  Sn23  1  0.206717  0.534592  0.455668  1
  Sn  Sn24  1  0.293200  0.034485  0.955119  1
  Sn  Sn25  1  0.824416  0.351128  0.250000  1
  Sn  Sn26  1  0.793226  0.465600  0.955125  1
  Sn  Sn27  1  0.562865  0.616422  0.250000  1
  Sn  Sn28  1  0.206717  0.534592  0.044332  1
  Sn  Sn29  1  0.438406  0.383747  0.750000  1
  Sn  Sn30  1  0.175329  0.648765  0.750000  1
  Sn  Sn31  1  0.938341  0.116224  0.750000  1
  Sn  Sn32  1  0.293200  0.034485  0.544881  1
  Sn  Sn33  1  0.706772  0.965477  0.044780  1
  Sn  Sn34  1  0.324640  0.147507  0.250000  1
  Sn  Sn35  1  0.061417  0.884107  0.250000  1
