# generated using pymatgen
data_Ho8Zn2Si12PdRh
_symmetry_space_group_name_H-M   'P 1'
_cell_length_a   8.11193700
_cell_length_b   8.11194040
_cell_length_c   8.04317700
_cell_angle_alpha   90.00000000
_cell_angle_beta   90.00000000
_cell_angle_gamma   120.00000652
_symmetry_Int_Tables_number   1
_chemical_formula_structural   Ho8Zn2Si12PdRh
_chemical_formula_sum   'Ho8 Zn2 Si12 Pd1 Rh1'
_cell_volume   458.36088523
_cell_formula_units_Z   1
loop_
 _symmetry_equiv_pos_site_id
 _symmetry_equiv_pos_as_xyz
  1  'x, y, z'
loop_
 _atom_site_type_symbol
 _atom_site_label
 _atom_site_symmetry_multiplicity
 _atom_site_fract_x
 _atom_site_fract_y
 _atom_site_fract_z
 _atom_site_occupancy
  Ho  Ho0  1  0.497887  0.502113  0.747696  1
  Ho  Ho1  1  0.499349  0.500651  0.252342  1
  Ho  Ho2  1  0.004226  0.502113  0.747696  1
  Ho  Ho3  1  0.001303  0.500651  0.252342  1
  Ho  Ho4  1  0.497887  0.995774  0.747696  1
  Ho  Ho5  1  0.499349  0.998697  0.252342  1
  Ho  Ho6  1  0.000000  0.000000  0.748986  1
  Ho  Ho7  1  0.000000  0.000000  0.251043  1
  Zn  Zn8  1  0.666667  0.333333  0.993401  1
  Zn  Zn9  1  0.333333  0.666667  0.005709  1
  Si  Si10  1  0.833424  0.166576  0.001885  1
  Si  Si11  1  0.166490  0.833510  0.998235  1
  Si  Si12  1  0.333152  0.166576  0.001885  1
  Si  Si13  1  0.167960  0.832040  0.499397  1
  Si  Si14  1  0.667019  0.833510  0.998235  1
  Si  Si15  1  0.834804  0.165196  0.500527  1
  Si  Si16  1  0.833424  0.666848  0.001885  1
  Si  Si17  1  0.664081  0.832040  0.499397  1
  Si  Si18  1  0.166490  0.332981  0.998235  1
  Si  Si19  1  0.330392  0.165196  0.500527  1
  Si  Si20  1  0.167960  0.335919  0.499397  1
  Si  Si21  1  0.834804  0.669608  0.500527  1
  Pd  Pd22  1  0.666667  0.333333  0.501660  1
  Rh  Rh23  1  0.333333  0.666667  0.498958  1
