# generated using pymatgen
data_Dy3YLu4(ReB6)4
_symmetry_space_group_name_H-M   'P 1'
_cell_length_a   3.64737200
_cell_length_b   9.11087600
_cell_length_c   11.49702400
_cell_angle_alpha   89.99836517
_cell_angle_beta   90.00000000
_cell_angle_gamma   90.00000000
_symmetry_Int_Tables_number   1
_chemical_formula_structural   Dy3YLu4(ReB6)4
_chemical_formula_sum   'Dy3 Y1 Lu4 Re4 B24'
_cell_volume   382.05477640
_cell_formula_units_Z   1
loop_
 _symmetry_equiv_pos_site_id
 _symmetry_equiv_pos_as_xyz
  1  'x, y, z'
loop_
 _atom_site_type_symbol
 _atom_site_label
 _atom_site_symmetry_multiplicity
 _atom_site_fract_x
 _atom_site_fract_y
 _atom_site_fract_z
 _atom_site_occupancy
  Dy  Dy0  1  0.000000  0.676956  0.586048  1
  Dy  Dy1  1  0.000000  0.823070  0.086039  1
  Dy  Dy2  1  0.000000  0.176916  0.913936  1
  Y  Y3  1  0.000000  0.322659  0.413998  1
  Lu  Lu4  1  0.000000  0.943551  0.370278  1
  Lu  Lu5  1  0.000000  0.056466  0.629708  1
  Lu  Lu6  1  0.000000  0.443558  0.129697  1
  Lu  Lu7  1  0.000000  0.556522  0.870325  1
  Re  Re8  1  0.000000  0.639775  0.319776  1
  Re  Re9  1  0.000000  0.360381  0.680292  1
  Re  Re10  1  0.000000  0.139531  0.180051  1
  Re  Re11  1  0.000000  0.860419  0.819837  1
  B  B12  1  0.500000  0.553908  0.432587  1
  B  B13  1  0.500000  0.446462  0.567590  1
  B  B14  1  0.500000  0.053666  0.067385  1
  B  B15  1  0.500000  0.946285  0.932542  1
  B  B16  1  0.500000  0.751019  0.418294  1
  B  B17  1  0.500000  0.249005  0.581901  1
  B  B18  1  0.500000  0.250957  0.081638  1
  B  B19  1  0.500000  0.749068  0.918283  1
  B  B20  1  0.500000  0.793304  0.265242  1
  B  B21  1  0.500000  0.206717  0.734829  1
  B  B22  1  0.500000  0.293242  0.234568  1
  B  B23  1  0.500000  0.706762  0.765275  1
  B  B24  1  0.500000  0.630200  0.184593  1
  B  B25  1  0.500000  0.369870  0.815441  1
  B  B26  1  0.500000  0.129974  0.315235  1
  B  B27  1  0.500000  0.869840  0.684627  1
  B  B28  1  0.500000  0.981760  0.212663  1
  B  B29  1  0.500000  0.018144  0.787289  1
  B  B30  1  0.500000  0.481961  0.287183  1
  B  B31  1  0.500000  0.518219  0.712798  1
  B  B32  1  0.500000  0.597935  0.027138  1
  B  B33  1  0.500000  0.402110  0.972864  1
  B  B34  1  0.500000  0.097738  0.472904  1
  B  B35  1  0.500000  0.902054  0.527145  1
