# generated using pymatgen
data_Ho20BiOs4Pb7
_symmetry_space_group_name_H-M   'P 1'
_cell_length_a   7.82192007
_cell_length_b   9.10387185
_cell_length_c   12.33775300
_cell_angle_alpha   90.03952550
_cell_angle_beta   90.24808490
_cell_angle_gamma   89.96836409
_symmetry_Int_Tables_number   1
_chemical_formula_structural   Ho20BiOs4Pb7
_chemical_formula_sum   'Ho20 Bi1 Os4 Pb7'
_cell_volume   878.55982780
_cell_formula_units_Z   1
loop_
 _symmetry_equiv_pos_site_id
 _symmetry_equiv_pos_as_xyz
  1  'x, y, z'
loop_
 _atom_site_type_symbol
 _atom_site_label
 _atom_site_symmetry_multiplicity
 _atom_site_fract_x
 _atom_site_fract_y
 _atom_site_fract_z
 _atom_site_occupancy
  Ho  Ho0  1  0.843569  0.748377  0.786190  1
  Ho  Ho1  1  0.154451  0.250008  0.214649  1
  Ho  Ho2  1  0.349108  0.250788  0.712311  1
  Ho  Ho3  1  0.653466  0.749195  0.285950  1
  Ho  Ho4  1  0.382738  0.748356  0.693453  1
  Ho  Ho5  1  0.620937  0.250709  0.305724  1
  Ho  Ho6  1  0.877473  0.251029  0.807287  1
  Ho  Ho7  1  0.119472  0.750163  0.193705  1
  Ho  Ho8  1  0.950198  0.748284  0.502169  1
  Ho  Ho9  1  0.049293  0.251613  0.495983  1
  Ho  Ho10  1  0.450490  0.250400  0.996506  1
  Ho  Ho11  1  0.548398  0.749685  0.003440  1
  Ho  Ho12  1  0.674615  0.038264  0.569312  1
  Ho  Ho13  1  0.326032  0.964058  0.429357  1
  Ho  Ho14  1  0.175198  0.962841  0.932589  1
  Ho  Ho15  1  0.325888  0.537460  0.430291  1
  Ho  Ho16  1  0.824802  0.036739  0.070191  1
  Ho  Ho17  1  0.676389  0.463148  0.569719  1
  Ho  Ho18  1  0.825453  0.463714  0.070334  1
  Ho  Ho19  1  0.173453  0.536326  0.929519  1
  Bi  Bi20  1  0.074435  0.993784  0.670685  1
  Os  Os21  1  0.575865  0.750930  0.506529  1
  Os  Os22  1  0.425670  0.250415  0.492452  1
  Os  Os23  1  0.074833  0.249505  0.993998  1
  Os  Os24  1  0.924336  0.750281  0.006191  1
  Pb  Pb25  1  0.573552  0.494912  0.831505  1
  Pb  Pb26  1  0.424350  0.505061  0.169088  1
  Pb  Pb27  1  0.074304  0.504416  0.670206  1
  Pb  Pb28  1  0.425089  0.995245  0.168948  1
  Pb  Pb29  1  0.926824  0.495092  0.329715  1
  Pb  Pb30  1  0.573848  0.004512  0.830526  1
  Pb  Pb31  1  0.925470  0.004688  0.331477  1
