# generated using pymatgen
data_Y2ErHg5
_symmetry_space_group_name_H-M   'P 1'
_cell_length_a   6.38082648
_cell_length_b   6.38082627
_cell_length_c   10.16983400
_cell_angle_alpha   90.00000000
_cell_angle_beta   90.00000000
_cell_angle_gamma   105.11133676
_symmetry_Int_Tables_number   1
_chemical_formula_structural   Y2ErHg5
_chemical_formula_sum   'Y4 Er2 Hg10'
_cell_volume   399.74633458
_cell_formula_units_Z   2
loop_
 _symmetry_equiv_pos_site_id
 _symmetry_equiv_pos_as_xyz
  1  'x, y, z'
loop_
 _atom_site_type_symbol
 _atom_site_label
 _atom_site_symmetry_multiplicity
 _atom_site_fract_x
 _atom_site_fract_y
 _atom_site_fract_z
 _atom_site_occupancy
  Y  Y0  1  0.213271  0.786729  0.500000  1
  Y  Y1  1  0.213271  0.786729  0.000000  1
  Y  Y2  1  0.786729  0.213271  0.500000  1
  Y  Y3  1  0.786729  0.213271  0.000000  1
  Er  Er4  1  0.577880  0.577880  0.250000  1
  Er  Er5  1  0.422120  0.422120  0.750000  1
  Hg  Hg6  1  0.972814  0.972814  0.250000  1
  Hg  Hg7  1  0.027186  0.027186  0.750000  1
  Hg  Hg8  1  0.296364  0.296364  0.032350  1
  Hg  Hg9  1  0.703636  0.703636  0.967650  1
  Hg  Hg10  1  0.296364  0.296364  0.467650  1
  Hg  Hg11  1  0.703636  0.703636  0.532350  1
  Hg  Hg12  1  0.480160  0.041107  0.250000  1
  Hg  Hg13  1  0.958893  0.519840  0.750000  1
  Hg  Hg14  1  0.519840  0.958893  0.750000  1
  Hg  Hg15  1  0.041107  0.480160  0.250000  1
