# generated using pymatgen
data_Sm2Ho5Er(Si3Rh)4
_symmetry_space_group_name_H-M   'P 1'
_cell_length_a   8.17138002
_cell_length_b   8.17137985
_cell_length_c   7.94280300
_cell_angle_alpha   90.00000000
_cell_angle_beta   90.00000000
_cell_angle_gamma   119.99108818
_symmetry_Int_Tables_number   1
_chemical_formula_structural   Sm2Ho5Er(Si3Rh)4
_chemical_formula_sum   'Sm2 Ho5 Er1 Si12 Rh4'
_cell_volume   459.33995535
_cell_formula_units_Z   1
loop_
 _symmetry_equiv_pos_site_id
 _symmetry_equiv_pos_as_xyz
  1  'x, y, z'
loop_
 _atom_site_type_symbol
 _atom_site_label
 _atom_site_symmetry_multiplicity
 _atom_site_fract_x
 _atom_site_fract_y
 _atom_site_fract_z
 _atom_site_occupancy
  Sm  Sm0  1  0.000039  0.999961  0.250000  1
  Sm  Sm1  1  0.999972  0.000028  0.750000  1
  Ho  Ho2  1  0.508833  0.017732  0.250000  1
  Ho  Ho3  1  0.982268  0.491167  0.250000  1
  Ho  Ho4  1  0.491160  0.508840  0.750000  1
  Ho  Ho5  1  0.491166  0.982289  0.750000  1
  Ho  Ho6  1  0.017711  0.508834  0.750000  1
  Er  Er7  1  0.508707  0.491293  0.250000  1
  Si  Si8  1  0.167745  0.832255  0.500170  1
  Si  Si9  1  0.167853  0.335525  0.500133  1
  Si  Si10  1  0.664475  0.832147  0.500133  1
  Si  Si11  1  0.832277  0.167723  0.499782  1
  Si  Si12  1  0.832104  0.664438  0.499642  1
  Si  Si13  1  0.335562  0.167896  0.499642  1
  Si  Si14  1  0.832277  0.167723  0.000218  1
  Si  Si15  1  0.832104  0.664438  0.000358  1
  Si  Si16  1  0.335562  0.167896  0.000358  1
  Si  Si17  1  0.167745  0.832255  0.999830  1
  Si  Si18  1  0.167853  0.335525  0.999867  1
  Si  Si19  1  0.664475  0.832147  0.999867  1
  Rh  Rh20  1  0.333461  0.666539  0.465859  1
  Rh  Rh21  1  0.666596  0.333404  0.533872  1
  Rh  Rh22  1  0.666596  0.333404  0.966128  1
  Rh  Rh23  1  0.333461  0.666539  0.034141  1
