# generated using pymatgen
data_La3Nd2TmTa2O14
_symmetry_space_group_name_H-M   'P 1'
_cell_length_a   6.69411224
_cell_length_b   6.65995355
_cell_length_c   7.74254200
_cell_angle_alpha   90.00000000
_cell_angle_beta   90.00000000
_cell_angle_gamma   108.84884797
_symmetry_Int_Tables_number   1
_chemical_formula_structural   La3Nd2TmTa2O14
_chemical_formula_sum   'La3 Nd2 Tm1 Ta2 O14'
_cell_volume   326.67104059
_cell_formula_units_Z   1
loop_
 _symmetry_equiv_pos_site_id
 _symmetry_equiv_pos_as_xyz
  1  'x, y, z'
loop_
 _atom_site_type_symbol
 _atom_site_label
 _atom_site_symmetry_multiplicity
 _atom_site_fract_x
 _atom_site_fract_y
 _atom_site_fract_z
 _atom_site_occupancy
  La  La0  1  0.526219  0.519990  0.499459  1
  La  La1  1  0.526219  0.519990  0.000541  1
  La  La2  1  0.465780  0.003144  0.250000  1
  Nd  Nd3  1  0.005736  0.463912  0.750000  1
  Nd  Nd4  1  0.533514  0.002831  0.750000  1
  Tm  Tm5  1  0.002991  0.528168  0.250000  1
  Ta  Ta6  1  0.001213  0.000961  0.497894  1
  Ta  Ta7  1  0.001213  0.000961  0.002106  1
  O  O8  1  0.946297  0.058804  0.750000  1
  O  O9  1  0.055688  0.937130  0.250000  1
  O  O10  1  0.349248  0.633581  0.250000  1
  O  O11  1  0.643749  0.368903  0.750000  1
  O  O12  1  0.370872  0.632082  0.750000  1
  O  O13  1  0.650663  0.382286  0.250000  1
  O  O14  1  0.308434  0.073116  0.967036  1
  O  O15  1  0.679527  0.918287  0.476437  1
  O  O16  1  0.308434  0.073116  0.532964  1
  O  O17  1  0.679527  0.918287  0.023563  1
  O  O18  1  0.035472  0.300670  0.455315  1
  O  O19  1  0.936866  0.681556  0.978262  1
  O  O20  1  0.936866  0.681556  0.521738  1
  O  O21  1  0.035472  0.300670  0.044685  1
