# generated using pymatgen
data_Pu2Ti2O7
_symmetry_space_group_name_H-M   'P 1'
_cell_length_a   7.27954397
_cell_length_b   7.27954355
_cell_length_c   7.27954400
_cell_angle_alpha   59.99999794
_cell_angle_beta   59.99999987
_cell_angle_gamma   59.99999274
_symmetry_Int_Tables_number   1
_chemical_formula_structural   Pu2Ti2O7
_chemical_formula_sum   'Pu4 Ti4 O14'
_cell_volume   272.77054327
_cell_formula_units_Z   2
loop_
 _symmetry_equiv_pos_site_id
 _symmetry_equiv_pos_as_xyz
  1  'x, y, z'
loop_
 _atom_site_type_symbol
 _atom_site_label
 _atom_site_symmetry_multiplicity
 _atom_site_fract_x
 _atom_site_fract_y
 _atom_site_fract_z
 _atom_site_occupancy
  Pu  Pu0  1  0.125000  0.125000  0.625000  1
  Pu  Pu1  1  0.125000  0.625000  0.125000  1
  Pu  Pu2  1  0.625000  0.125000  0.125000  1
  Pu  Pu3  1  0.125000  0.125000  0.125000  1
  Ti  Ti4  1  0.625000  0.625000  0.125000  1
  Ti  Ti5  1  0.625000  0.125000  0.625000  1
  Ti  Ti6  1  0.125000  0.625000  0.625000  1
  Ti  Ti7  1  0.625000  0.625000  0.625000  1
  O  O8  1  0.250000  0.250000  0.250000  1
  O  O9  1  0.000000  0.000000  0.000000  1
  O  O10  1  0.546504  0.953496  0.546504  1
  O  O11  1  0.296504  0.703496  0.296504  1
  O  O12  1  0.546504  0.546504  0.953496  1
  O  O13  1  0.953496  0.546504  0.546504  1
  O  O14  1  0.546504  0.953496  0.953496  1
  O  O15  1  0.953496  0.953496  0.546504  1
  O  O16  1  0.953496  0.546504  0.953496  1
  O  O17  1  0.703496  0.296504  0.296504  1
  O  O18  1  0.296504  0.703496  0.703496  1
  O  O19  1  0.703496  0.296504  0.703496  1
  O  O20  1  0.296504  0.296504  0.703496  1
  O  O21  1  0.703496  0.703496  0.296504  1
