# generated using pymatgen
data_Tb3YAl16(GaIr3)2
_symmetry_space_group_name_H-M   'P 1'
_cell_length_a   7.54398921
_cell_length_b   7.54358980
_cell_length_c   9.55033600
_cell_angle_alpha   90.00000000
_cell_angle_beta   90.00000000
_cell_angle_gamma   119.39580126
_symmetry_Int_Tables_number   1
_chemical_formula_structural   Tb3YAl16(GaIr3)2
_chemical_formula_sum   'Tb3 Y1 Al16 Ga2 Ir6'
_cell_volume   473.52232324
_cell_formula_units_Z   1
loop_
 _symmetry_equiv_pos_site_id
 _symmetry_equiv_pos_as_xyz
  1  'x, y, z'
loop_
 _atom_site_type_symbol
 _atom_site_label
 _atom_site_symmetry_multiplicity
 _atom_site_fract_x
 _atom_site_fract_y
 _atom_site_fract_z
 _atom_site_occupancy
  Tb  Tb0  1  0.005470  0.324737  0.750000  1
  Tb  Tb1  1  0.675316  0.994471  0.250000  1
  Tb  Tb2  1  0.324768  0.005445  0.750000  1
  Y  Y3  1  0.994446  0.675186  0.250000  1
  Al  Al4  1  0.001888  0.336363  0.072935  1
  Al  Al5  1  0.998124  0.663794  0.927189  1
  Al  Al6  1  0.998124  0.663794  0.572811  1
  Al  Al7  1  0.336048  0.001768  0.427023  1
  Al  Al8  1  0.001888  0.336363  0.427065  1
  Al  Al9  1  0.663761  0.998090  0.572933  1
  Al  Al10  1  0.663761  0.998090  0.927067  1
  Al  Al11  1  0.336048  0.001768  0.072977  1
  Al  Al12  1  0.334504  0.334492  0.552828  1
  Al  Al13  1  0.665629  0.665465  0.447041  1
  Al  Al14  1  0.665629  0.665465  0.052959  1
  Al  Al15  1  0.334504  0.334492  0.947172  1
  Al  Al16  1  0.338084  0.549777  0.250000  1
  Al  Al17  1  0.662006  0.450414  0.750000  1
  Al  Al18  1  0.549720  0.338024  0.250000  1
  Al  Al19  1  0.450389  0.661935  0.750000  1
  Ga  Ga20  1  0.135736  0.135961  0.250000  1
  Ga  Ga21  1  0.864157  0.864089  0.750000  1
  Ir  Ir22  1  0.671727  0.328314  0.000065  1
  Ir  Ir23  1  0.328295  0.671716  0.000029  1
  Ir  Ir24  1  0.328295  0.671716  0.499971  1
  Ir  Ir25  1  0.671727  0.328314  0.499935  1
  Ir  Ir26  1  0.999978  0.999979  0.000037  1
  Ir  Ir27  1  0.999978  0.999979  0.499963  1
