# generated using pymatgen
data_Ho6Er2SiPd24
_symmetry_space_group_name_H-M   'P 1'
_cell_length_a   8.30807000
_cell_length_b   8.30807000
_cell_length_c   8.30807000
_cell_angle_alpha   89.99812416
_cell_angle_beta   90.00187584
_cell_angle_gamma   90.00187584
_symmetry_Int_Tables_number   1
_chemical_formula_structural   Ho6Er2SiPd24
_chemical_formula_sum   'Ho6 Er2 Si1 Pd24'
_cell_volume   573.45644857
_cell_formula_units_Z   1
loop_
 _symmetry_equiv_pos_site_id
 _symmetry_equiv_pos_as_xyz
  1  'x, y, z'
loop_
 _atom_site_type_symbol
 _atom_site_label
 _atom_site_symmetry_multiplicity
 _atom_site_fract_x
 _atom_site_fract_y
 _atom_site_fract_z
 _atom_site_occupancy
  Ho  Ho0  1  0.253749  0.253742  0.253742  1
  Ho  Ho1  1  0.746251  0.746258  0.746258  1
  Ho  Ho2  1  0.746258  0.746251  0.253742  1
  Ho  Ho3  1  0.746258  0.253742  0.746251  1
  Ho  Ho4  1  0.253742  0.253749  0.746258  1
  Ho  Ho5  1  0.253742  0.746258  0.253749  1
  Er  Er6  1  0.253750  0.746250  0.746250  1
  Er  Er7  1  0.746250  0.253750  0.253750  1
  Si  Si8  1  0.000000  0.000000  0.000000  1
  Pd  Pd9  1  0.257172  0.500104  0.999893  1
  Pd  Pd10  1  0.742828  0.499896  0.000107  1
  Pd  Pd11  1  0.999893  0.257172  0.499896  1
  Pd  Pd12  1  0.500104  0.257172  0.000107  1
  Pd  Pd13  1  0.000107  0.742828  0.500104  1
  Pd  Pd14  1  0.499896  0.742828  0.999893  1
  Pd  Pd15  1  0.500104  0.000107  0.257172  1
  Pd  Pd16  1  0.257172  0.999893  0.500104  1
  Pd  Pd17  1  0.499896  0.999893  0.742828  1
  Pd  Pd18  1  0.742828  0.000107  0.499896  1
  Pd  Pd19  1  0.999893  0.499896  0.257172  1
  Pd  Pd20  1  0.000107  0.500104  0.742828  1
  Pd  Pd21  1  0.252038  0.500119  0.500119  1
  Pd  Pd22  1  0.747962  0.499881  0.499881  1
  Pd  Pd23  1  0.500119  0.252038  0.499881  1
  Pd  Pd24  1  0.499881  0.747962  0.500119  1
  Pd  Pd25  1  0.500119  0.499881  0.252038  1
  Pd  Pd26  1  0.499881  0.500119  0.747962  1
  Pd  Pd27  1  0.279860  0.999888  0.999888  1
  Pd  Pd28  1  0.720140  0.000112  0.000112  1
  Pd  Pd29  1  0.999888  0.279860  0.000112  1
  Pd  Pd30  1  0.000112  0.720140  0.999888  1
  Pd  Pd31  1  0.999888  0.000112  0.279860  1
  Pd  Pd32  1  0.000112  0.999888  0.720140  1
