# generated using pymatgen
data_Dy3ThCdRh
_symmetry_space_group_name_H-M   'P 1'
_cell_length_a   9.73744721
_cell_length_b   9.73744747
_cell_length_c   9.73744900
_cell_angle_alpha   60.00000499
_cell_angle_beta   60.00000411
_cell_angle_gamma   60.00000362
_symmetry_Int_Tables_number   1
_chemical_formula_structural   Dy3ThCdRh
_chemical_formula_sum   'Dy12 Th4 Cd4 Rh4'
_cell_volume   652.86063622
_cell_formula_units_Z   4
loop_
 _symmetry_equiv_pos_site_id
 _symmetry_equiv_pos_as_xyz
  1  'x, y, z'
loop_
 _atom_site_type_symbol
 _atom_site_label
 _atom_site_symmetry_multiplicity
 _atom_site_fract_x
 _atom_site_fract_y
 _atom_site_fract_z
 _atom_site_occupancy
  Dy  Dy0  1  0.062774  0.437226  0.437226  1
  Dy  Dy1  1  0.437226  0.062774  0.062774  1
  Dy  Dy2  1  0.437226  0.062774  0.437226  1
  Dy  Dy3  1  0.062774  0.437226  0.062774  1
  Dy  Dy4  1  0.437226  0.437226  0.062774  1
  Dy  Dy5  1  0.062774  0.062774  0.437226  1
  Dy  Dy6  1  0.184871  0.815129  0.815129  1
  Dy  Dy7  1  0.815129  0.184871  0.184871  1
  Dy  Dy8  1  0.815129  0.184871  0.815129  1
  Dy  Dy9  1  0.184871  0.815129  0.184871  1
  Dy  Dy10  1  0.815129  0.815129  0.184871  1
  Dy  Dy11  1  0.184871  0.184871  0.815129  1
  Th  Th12  1  0.600199  0.600199  0.600199  1
  Th  Th13  1  0.600199  0.600199  0.199406  1
  Th  Th14  1  0.600199  0.199406  0.600199  1
  Th  Th15  1  0.199406  0.600199  0.600199  1
  Cd  Cd16  1  0.833255  0.833255  0.833255  1
  Cd  Cd17  1  0.833255  0.833255  0.500233  1
  Cd  Cd18  1  0.833255  0.500233  0.833255  1
  Cd  Cd19  1  0.500233  0.833255  0.833255  1
  Rh  Rh20  1  0.394655  0.394655  0.394655  1
  Rh  Rh21  1  0.394655  0.394655  0.816035  1
  Rh  Rh22  1  0.394655  0.816035  0.394655  1
  Rh  Rh23  1  0.816035  0.394655  0.394655  1
