# generated using pymatgen
data_Tb9Dy5(Lu3Pb8)2
_symmetry_space_group_name_H-M   'P 1'
_cell_length_a   8.16486301
_cell_length_b   8.25228309
_cell_length_c   15.60850003
_cell_angle_alpha   89.99562586
_cell_angle_beta   89.99908853
_cell_angle_gamma   90.00502552
_symmetry_Int_Tables_number   1
_chemical_formula_structural   Tb9Dy5(Lu3Pb8)2
_chemical_formula_sum   'Tb9 Dy5 Lu6 Pb16'
_cell_volume   1051.68138503
_cell_formula_units_Z   1
loop_
 _symmetry_equiv_pos_site_id
 _symmetry_equiv_pos_as_xyz
  1  'x, y, z'
loop_
 _atom_site_type_symbol
 _atom_site_label
 _atom_site_symmetry_multiplicity
 _atom_site_fract_x
 _atom_site_fract_y
 _atom_site_fract_z
 _atom_site_occupancy
  Tb  Tb0  1  0.875279  0.657341  0.878657  1
  Tb  Tb1  1  0.533579  0.323399  0.901122  1
  Tb  Tb2  1  0.033614  0.176590  0.598880  1
  Tb  Tb3  1  0.466172  0.676853  0.401750  1
  Tb  Tb4  1  0.966181  0.823165  0.098280  1
  Tb  Tb5  1  0.468751  0.678647  0.096771  1
  Tb  Tb6  1  0.968738  0.821345  0.403226  1
  Tb  Tb7  1  0.532848  0.324976  0.599752  1
  Tb  Tb8  1  0.032849  0.175002  0.900242  1
  Dy  Dy9  1  0.626912  0.157206  0.380250  1
  Dy  Dy10  1  0.126898  0.342791  0.119744  1
  Dy  Dy11  1  0.624916  0.158889  0.121487  1
  Dy  Dy12  1  0.124922  0.341110  0.378518  1
  Dy  Dy13  1  0.375276  0.842674  0.621352  1
  Lu  Lu14  1  0.372418  0.844013  0.876230  1
  Lu  Lu15  1  0.872419  0.655979  0.623757  1
  Lu  Lu16  1  0.206330  0.505568  0.749947  1
  Lu  Lu17  1  0.706261  0.994456  0.750015  1
  Lu  Lu18  1  0.793790  0.495159  0.250759  1
  Lu  Lu19  1  0.293794  0.004824  0.249245  1
  Pb  Pb20  1  0.284265  0.032824  0.041500  1
  Pb  Pb21  1  0.784264  0.467179  0.458502  1
  Pb  Pb22  1  0.719125  0.961655  0.544872  1
  Pb  Pb23  1  0.219239  0.538322  0.955145  1
  Pb  Pb24  1  0.711654  0.964141  0.955586  1
  Pb  Pb25  1  0.211717  0.535970  0.544432  1
  Pb  Pb26  1  0.284087  0.034244  0.455889  1
  Pb  Pb27  1  0.784062  0.465687  0.044173  1
  Pb  Pb28  1  0.568254  0.626300  0.750486  1
  Pb  Pb29  1  0.068387  0.873757  0.749456  1
  Pb  Pb30  1  0.431013  0.375654  0.250649  1
  Pb  Pb31  1  0.931014  0.124349  0.249353  1
  Pb  Pb32  1  0.346186  0.156217  0.750340  1
  Pb  Pb33  1  0.846189  0.343713  0.749639  1
  Pb  Pb34  1  0.654299  0.844055  0.250134  1
  Pb  Pb35  1  0.154297  0.655946  0.249861  1
