# generated using pymatgen
data_La7Pr12NdSi16
_symmetry_space_group_name_H-M   'P 1'
_cell_length_a   7.96101092
_cell_length_b   7.96376625
_cell_length_c   15.43977303
_cell_angle_alpha   90.05093882
_cell_angle_beta   89.97590970
_cell_angle_gamma   90.04372296
_symmetry_Int_Tables_number   1
_chemical_formula_structural   La7Pr12NdSi16
_chemical_formula_sum   'La7 Pr12 Nd1 Si16'
_cell_volume   978.87514020
_cell_formula_units_Z   1
loop_
 _symmetry_equiv_pos_site_id
 _symmetry_equiv_pos_as_xyz
  1  'x, y, z'
loop_
 _atom_site_type_symbol
 _atom_site_label
 _atom_site_symmetry_multiplicity
 _atom_site_fract_x
 _atom_site_fract_y
 _atom_site_fract_z
 _atom_site_occupancy
  La  La0  1  0.012916  0.378406  0.552527  1
  La  La1  1  0.622195  0.986599  0.947990  1
  La  La2  1  0.121538  0.513465  0.802954  1
  La  La3  1  0.877896  0.486848  0.302168  1
  La  La4  1  0.512749  0.121859  0.197402  1
  La  La5  1  0.486852  0.878105  0.697472  1
  La  La6  1  0.378227  0.012892  0.447281  1
  Pr  Pr7  1  0.373445  0.480932  0.373074  1
  Pr  Pr8  1  0.873239  0.018703  0.376419  1
  Pr  Pr9  1  0.980818  0.126183  0.123083  1
  Pr  Pr10  1  0.018950  0.873520  0.623225  1
  Pr  Pr11  1  0.627136  0.519956  0.873789  1
  Pr  Pr12  1  0.481045  0.373393  0.626725  1
  Pr  Pr13  1  0.519517  0.627206  0.126341  1
  Pr  Pr14  1  0.126027  0.980880  0.877082  1
  Pr  Pr15  1  0.988515  0.619616  0.053427  1
  Pr  Pr16  1  0.691524  0.691834  0.500104  1
  Pr  Pr17  1  0.808423  0.191819  0.750119  1
  Pr  Pr18  1  0.191802  0.807886  0.249877  1
  Nd  Nd19  1  0.308431  0.308614  0.000108  1
  Si  Si20  1  0.080201  0.713163  0.439699  1
  Si  Si21  1  0.920959  0.288122  0.940113  1
  Si  Si22  1  0.713445  0.080293  0.560148  1
  Si  Si23  1  0.213166  0.420356  0.189106  1
  Si  Si24  1  0.786462  0.579850  0.689842  1
  Si  Si25  1  0.419838  0.213407  0.810666  1
  Si  Si26  1  0.580502  0.786295  0.309806  1
  Si  Si27  1  0.285553  0.919739  0.060139  1
  Si  Si28  1  0.830129  0.805924  0.795683  1
  Si  Si29  1  0.168964  0.194976  0.295720  1
  Si  Si30  1  0.806065  0.829954  0.203051  1
  Si  Si31  1  0.305184  0.669277  0.546038  1
  Si  Si32  1  0.695244  0.331891  0.046293  1
  Si  Si33  1  0.669494  0.305288  0.453900  1
  Si  Si34  1  0.328806  0.693382  0.954499  1
  Si  Si35  1  0.194744  0.169367  0.704130  1
