# generated using pymatgen
data_Mg4Ge4IrRh3
_symmetry_space_group_name_H-M   'P 1'
_cell_length_a   4.15185200
_cell_length_b   6.68304453
_cell_length_c   7.23336016
_cell_angle_alpha   89.97314607
_cell_angle_beta   90.00000000
_cell_angle_gamma   90.00000000
_symmetry_Int_Tables_number   1
_chemical_formula_structural   Mg4Ge4IrRh3
_chemical_formula_sum   'Mg4 Ge4 Ir1 Rh3'
_cell_volume   200.70410750
_cell_formula_units_Z   1
loop_
 _symmetry_equiv_pos_site_id
 _symmetry_equiv_pos_as_xyz
  1  'x, y, z'
loop_
 _atom_site_type_symbol
 _atom_site_label
 _atom_site_symmetry_multiplicity
 _atom_site_fract_x
 _atom_site_fract_y
 _atom_site_fract_z
 _atom_site_occupancy
  Mg  Mg0  1  0.250000  0.010439  0.321853  1
  Mg  Mg1  1  0.250000  0.506888  0.178721  1
  Mg  Mg2  1  0.750000  0.989845  0.677154  1
  Mg  Mg3  1  0.750000  0.490892  0.823742  1
  Ge  Ge4  1  0.250000  0.287017  0.627865  1
  Ge  Ge5  1  0.250000  0.785931  0.872922  1
  Ge  Ge6  1  0.750000  0.714162  0.371457  1
  Ge  Ge7  1  0.750000  0.212931  0.127977  1
  Ir  Ir8  1  0.750000  0.344627  0.451116  1
  Rh  Rh9  1  0.250000  0.154988  0.951001  1
  Rh  Rh10  1  0.250000  0.656376  0.547827  1
  Rh  Rh11  1  0.750000  0.845902  0.048365  1
