# generated using pymatgen
data_Pr5SmHf2(Co4P3)4
_symmetry_space_group_name_H-M   'P 1'
_cell_length_a   3.78454300
_cell_length_b   10.83170473
_cell_length_c   12.61056485
_cell_angle_alpha   90.04201492
_cell_angle_beta   90.00000000
_cell_angle_gamma   90.00000000
_symmetry_Int_Tables_number   1
_chemical_formula_structural   Pr5SmHf2(Co4P3)4
_chemical_formula_sum   'Pr5 Sm1 Hf2 Co16 P12'
_cell_volume   516.94540543
_cell_formula_units_Z   1
loop_
 _symmetry_equiv_pos_site_id
 _symmetry_equiv_pos_as_xyz
  1  'x, y, z'
loop_
 _atom_site_type_symbol
 _atom_site_label
 _atom_site_symmetry_multiplicity
 _atom_site_fract_x
 _atom_site_fract_y
 _atom_site_fract_z
 _atom_site_occupancy
  Pr  Pr0  1  0.000000  0.499828  0.529283  1
  Pr  Pr1  1  0.500000  0.000239  0.471605  1
  Pr  Pr2  1  0.500000  0.821441  0.204711  1
  Pr  Pr3  1  0.500000  0.179069  0.205696  1
  Pr  Pr4  1  0.000000  0.678185  0.794340  1
  Sm  Sm5  1  0.000000  0.320637  0.795669  1
  Hf  Hf6  1  0.500000  0.499800  0.154957  1
  Hf  Hf7  1  0.000000  0.000249  0.844688  1
  Co  Co8  1  0.500000  0.497181  0.705698  1
  Co  Co9  1  0.000000  0.000291  0.295050  1
  Co  Co10  1  0.000000  0.498934  0.986853  1
  Co  Co11  1  0.500000  0.000817  0.011143  1
  Co  Co12  1  0.500000  0.331883  0.993371  1
  Co  Co13  1  0.500000  0.666901  0.993761  1
  Co  Co14  1  0.000000  0.168402  0.004252  1
  Co  Co15  1  0.000000  0.832193  0.004825  1
  Co  Co16  1  0.500000  0.295919  0.434347  1
  Co  Co17  1  0.500000  0.704221  0.432622  1
  Co  Co18  1  0.000000  0.204707  0.569387  1
  Co  Co19  1  0.000000  0.795908  0.567254  1
  Co  Co20  1  0.500000  0.881472  0.702991  1
  Co  Co21  1  0.500000  0.120383  0.705184  1
  Co  Co22  1  0.000000  0.619098  0.296553  1
  Co  Co23  1  0.000000  0.381255  0.297555  1
  P  P24  1  0.500000  0.498034  0.886211  1
  P  P25  1  0.000000  0.000609  0.111638  1
  P  P26  1  0.500000  0.500044  0.357085  1
  P  P27  1  0.000000  0.000047  0.643112  1
  P  P28  1  0.500000  0.304347  0.615951  1
  P  P29  1  0.500000  0.696657  0.612790  1
  P  P30  1  0.000000  0.197109  0.388298  1
  P  P31  1  0.000000  0.803664  0.386783  1
  P  P32  1  0.500000  0.841117  0.896805  1
  P  P33  1  0.500000  0.159954  0.894879  1
  P  P34  1  0.000000  0.658387  0.102033  1
  P  P35  1  0.000000  0.341019  0.102618  1
