# generated using pymatgen
data_SmEr5TiCo17P12
_symmetry_space_group_name_H-M   'P 1'
_cell_length_a   3.68952000
_cell_length_b   10.55214000
_cell_length_c   12.20675300
_cell_angle_alpha   90.00000000
_cell_angle_beta   90.00000000
_cell_angle_gamma   90.00000000
_symmetry_Int_Tables_number   1
_chemical_formula_structural   SmEr5TiCo17P12
_chemical_formula_sum   'Sm1 Er5 Ti1 Co17 P12'
_cell_volume   475.23735522
_cell_formula_units_Z   1
loop_
 _symmetry_equiv_pos_site_id
 _symmetry_equiv_pos_as_xyz
  1  'x, y, z'
loop_
 _atom_site_type_symbol
 _atom_site_label
 _atom_site_symmetry_multiplicity
 _atom_site_fract_x
 _atom_site_fract_y
 _atom_site_fract_z
 _atom_site_occupancy
  Sm  Sm0  1  0.750000  0.250000  0.476940  1
  Er  Er1  1  0.250000  0.750000  0.525328  1
  Er  Er2  1  0.250000  0.931573  0.796427  1
  Er  Er3  1  0.250000  0.568427  0.796427  1
  Er  Er4  1  0.750000  0.069526  0.206013  1
  Er  Er5  1  0.750000  0.430474  0.206013  1
  Ti  Ti6  1  0.750000  0.750000  0.151842  1
  Co  Co7  1  0.250000  0.250000  0.840158  1
  Co  Co8  1  0.250000  0.250000  0.294557  1
  Co  Co9  1  0.750000  0.750000  0.703125  1
  Co  Co10  1  0.750000  0.250000  0.013235  1
  Co  Co11  1  0.250000  0.750000  0.986166  1
  Co  Co12  1  0.250000  0.414828  0.004021  1
  Co  Co13  1  0.250000  0.085172  0.004021  1
  Co  Co14  1  0.750000  0.580207  0.991953  1
  Co  Co15  1  0.750000  0.919793  0.991953  1
  Co  Co16  1  0.250000  0.455108  0.570467  1
  Co  Co17  1  0.250000  0.044892  0.570467  1
  Co  Co18  1  0.750000  0.547677  0.432153  1
  Co  Co19  1  0.750000  0.952323  0.432153  1
  Co  Co20  1  0.250000  0.871402  0.291933  1
  Co  Co21  1  0.250000  0.628598  0.291933  1
  Co  Co22  1  0.750000  0.128859  0.709386  1
  Co  Co23  1  0.750000  0.371141  0.709386  1
  P  P24  1  0.250000  0.250000  0.116543  1
  P  P25  1  0.750000  0.750000  0.882068  1
  P  P26  1  0.250000  0.250000  0.657874  1
  P  P27  1  0.750000  0.750000  0.353504  1
  P  P28  1  0.250000  0.441184  0.384033  1
  P  P29  1  0.250000  0.058816  0.384033  1
  P  P30  1  0.750000  0.561252  0.617571  1
  P  P31  1  0.750000  0.938748  0.617571  1
  P  P32  1  0.250000  0.909108  0.104931  1
  P  P33  1  0.250000  0.590892  0.104931  1
  P  P34  1  0.750000  0.099174  0.890445  1
  P  P35  1  0.750000  0.400826  0.890445  1
