# generated using pymatgen
data_V2InAgO7
_symmetry_space_group_name_H-M   'P 1'
_cell_length_a   5.90601338
_cell_length_b   7.81680406
_cell_length_c   7.94637457
_cell_angle_alpha   63.75759699
_cell_angle_beta   89.46721299
_cell_angle_gamma   80.01395767
_symmetry_Int_Tables_number   1
_chemical_formula_structural   V2InAgO7
_chemical_formula_sum   'V4 In2 Ag2 O14'
_cell_volume   323.11340216
_cell_formula_units_Z   2
loop_
 _symmetry_equiv_pos_site_id
 _symmetry_equiv_pos_as_xyz
  1  'x, y, z'
loop_
 _atom_site_type_symbol
 _atom_site_label
 _atom_site_symmetry_multiplicity
 _atom_site_fract_x
 _atom_site_fract_y
 _atom_site_fract_z
 _atom_site_occupancy
  V  V0  1  0.304520  0.783573  0.205694  1
  V  V1  1  0.704121  0.226260  0.243537  1
  V  V2  1  0.295877  0.773741  0.756462  1
  V  V3  1  0.695478  0.216429  0.794305  1
  In  In4  1  0.176626  0.315516  0.473433  1
  In  In5  1  0.823375  0.684483  0.526567  1
  Ag  Ag6  1  0.827784  0.671933  0.040765  1
  Ag  Ag7  1  0.172217  0.328067  0.959235  1
  O  O8  1  0.685165  0.243451  0.009886  1
  O  O9  1  0.213112  0.017006  0.151785  1
  O  O10  1  0.916050  0.357160  0.254608  1
  O  O11  1  0.440316  0.330268  0.281805  1
  O  O12  1  0.578672  0.706803  0.313936  1
  O  O13  1  0.107699  0.639780  0.356500  1
  O  O14  1  0.777825  0.992534  0.406457  1
  O  O15  1  0.222176  0.007465  0.593544  1
  O  O16  1  0.892300  0.360219  0.643500  1
  O  O17  1  0.421326  0.293199  0.686063  1
  O  O18  1  0.559685  0.669733  0.718196  1
  O  O19  1  0.083949  0.642839  0.745391  1
  O  O20  1  0.786889  0.982994  0.848214  1
  O  O21  1  0.314836  0.756551  0.990113  1
