# generated using pymatgen
data_Y19Sc(Cd3Ni)2
_symmetry_space_group_name_H-M   'P 1'
_cell_length_a   9.60591900
_cell_length_b   9.60591885
_cell_length_c   9.75774800
_cell_angle_alpha   90.00000000
_cell_angle_beta   90.00000000
_cell_angle_gamma   119.99999706
_symmetry_Int_Tables_number   1
_chemical_formula_structural   Y19Sc(Cd3Ni)2
_chemical_formula_sum   'Y19 Sc1 Cd6 Ni2'
_cell_volume   779.75483499
_cell_formula_units_Z   1
loop_
 _symmetry_equiv_pos_site_id
 _symmetry_equiv_pos_as_xyz
  1  'x, y, z'
loop_
 _atom_site_type_symbol
 _atom_site_label
 _atom_site_symmetry_multiplicity
 _atom_site_fract_x
 _atom_site_fract_y
 _atom_site_fract_z
 _atom_site_occupancy
  Y  Y0  1  0.000000  0.000000  0.000000  1
  Y  Y1  1  0.543326  0.456674  0.250240  1
  Y  Y2  1  0.543326  0.086651  0.250240  1
  Y  Y3  1  0.913349  0.456674  0.250240  1
  Y  Y4  1  0.456674  0.543326  0.749760  1
  Y  Y5  1  0.456674  0.913349  0.749760  1
  Y  Y6  1  0.086651  0.543326  0.749760  1
  Y  Y7  1  0.209034  0.790966  0.436976  1
  Y  Y8  1  0.209034  0.418069  0.436976  1
  Y  Y9  1  0.581931  0.790966  0.436976  1
  Y  Y10  1  0.790966  0.209034  0.563024  1
  Y  Y11  1  0.790966  0.581931  0.563024  1
  Y  Y12  1  0.418069  0.209034  0.563024  1
  Y  Y13  1  0.789503  0.210497  0.938969  1
  Y  Y14  1  0.789503  0.579005  0.938969  1
  Y  Y15  1  0.420995  0.210497  0.938969  1
  Y  Y16  1  0.210497  0.789503  0.061031  1
  Y  Y17  1  0.210497  0.420995  0.061031  1
  Y  Y18  1  0.579005  0.789503  0.061031  1
  Sc  Sc19  1  0.000000  0.000000  0.500000  1
  Cd  Cd20  1  0.887284  0.112716  0.255849  1
  Cd  Cd21  1  0.887284  0.774568  0.255849  1
  Cd  Cd22  1  0.225432  0.112716  0.255849  1
  Cd  Cd23  1  0.112716  0.887284  0.744151  1
  Cd  Cd24  1  0.112716  0.225432  0.744151  1
  Cd  Cd25  1  0.774568  0.887284  0.744151  1
  Ni  Ni26  1  0.333333  0.666667  0.250148  1
  Ni  Ni27  1  0.666667  0.333333  0.749852  1
