# generated using pymatgen
data_DyLuNi6(BIr)2
_symmetry_space_group_name_H-M   'P 1'
_cell_length_a   5.13415013
_cell_length_b   5.13415018
_cell_length_c   7.06524800
_cell_angle_alpha   90.00000000
_cell_angle_beta   90.00000000
_cell_angle_gamma   122.47227516
_symmetry_Int_Tables_number   1
_chemical_formula_structural   DyLuNi6(BIr)2
_chemical_formula_sum   'Dy1 Lu1 Ni6 B2 Ir2'
_cell_volume   157.11857944
_cell_formula_units_Z   1
loop_
 _symmetry_equiv_pos_site_id
 _symmetry_equiv_pos_as_xyz
  1  'x, y, z'
loop_
 _atom_site_type_symbol
 _atom_site_label
 _atom_site_symmetry_multiplicity
 _atom_site_fract_x
 _atom_site_fract_y
 _atom_site_fract_z
 _atom_site_occupancy
  Dy  Dy0  1  0.000000  0.000000  0.000000  1
  Lu  Lu1  1  0.000000  0.000000  0.500000  1
  Ni  Ni2  1  0.331442  0.668558  0.000000  1
  Ni  Ni3  1  0.668558  0.331442  0.000000  1
  Ni  Ni4  1  0.500000  0.000000  0.292002  1
  Ni  Ni5  1  0.000000  0.500000  0.292002  1
  Ni  Ni6  1  0.500000  0.000000  0.707998  1
  Ni  Ni7  1  0.000000  0.500000  0.707998  1
  B  B8  1  0.673163  0.326837  0.500000  1
  B  B9  1  0.326837  0.673163  0.500000  1
  Ir  Ir10  1  0.500000  0.500000  0.290270  1
  Ir  Ir11  1  0.500000  0.500000  0.709730  1
