# generated using pymatgen
data_SrBiRh2O7
_symmetry_space_group_name_H-M   'P 1'
_cell_length_a   7.43219416
_cell_length_b   7.37956636
_cell_length_c   7.37956632
_cell_angle_alpha   58.97035670
_cell_angle_beta   59.76381520
_cell_angle_gamma   59.76381486
_symmetry_Int_Tables_number   1
_chemical_formula_structural   SrBiRh2O7
_chemical_formula_sum   'Sr2 Bi2 Rh4 O14'
_cell_volume   282.90076589
_cell_formula_units_Z   2
loop_
 _symmetry_equiv_pos_site_id
 _symmetry_equiv_pos_as_xyz
  1  'x, y, z'
loop_
 _atom_site_type_symbol
 _atom_site_label
 _atom_site_symmetry_multiplicity
 _atom_site_fract_x
 _atom_site_fract_y
 _atom_site_fract_z
 _atom_site_occupancy
  Sr  Sr0  1  0.125000  0.625000  0.125000  1
  Sr  Sr1  1  0.125000  0.125000  0.625000  1
  Bi  Bi2  1  0.125000  0.125000  0.125000  1
  Bi  Bi3  1  0.625000  0.125000  0.125000  1
  Rh  Rh4  1  0.625000  0.625000  0.625000  1
  Rh  Rh5  1  0.625000  0.625000  0.125000  1
  Rh  Rh6  1  0.125000  0.625000  0.625000  1
  Rh  Rh7  1  0.625000  0.125000  0.625000  1
  O  O8  1  0.267417  0.232583  0.232583  1
  O  O9  1  0.296835  0.714871  0.292879  1
  O  O10  1  0.953165  0.957121  0.535129  1
  O  O11  1  0.554585  0.957121  0.535129  1
  O  O12  1  0.695415  0.714871  0.292879  1
  O  O13  1  0.948650  0.551350  0.551350  1
  O  O14  1  0.695415  0.292879  0.714871  1
  O  O15  1  0.296835  0.292879  0.714871  1
  O  O16  1  0.704110  0.295890  0.295890  1
  O  O17  1  0.301350  0.698650  0.698650  1
  O  O18  1  0.953165  0.535129  0.957121  1
  O  O19  1  0.554585  0.535129  0.957121  1
  O  O20  1  0.982583  0.017417  0.017417  1
  O  O21  1  0.545890  0.954110  0.954110  1
