# generated using pymatgen
data_Ac3Nd(SiTc2)8
_symmetry_space_group_name_H-M   'P 1'
_cell_length_a   4.21494000
_cell_length_b   7.40297092
_cell_length_c   15.71123624
_cell_angle_alpha   89.81197714
_cell_angle_beta   90.00000000
_cell_angle_gamma   90.00000000
_symmetry_Int_Tables_number   1
_chemical_formula_structural   Ac3Nd(SiTc2)8
_chemical_formula_sum   'Ac3 Nd1 Si8 Tc16'
_cell_volume   490.23629428
_cell_formula_units_Z   1
loop_
 _symmetry_equiv_pos_site_id
 _symmetry_equiv_pos_as_xyz
  1  'x, y, z'
loop_
 _atom_site_type_symbol
 _atom_site_label
 _atom_site_symmetry_multiplicity
 _atom_site_fract_x
 _atom_site_fract_y
 _atom_site_fract_z
 _atom_site_occupancy
  Ac  Ac0  1  0.000000  0.582537  0.114771  1
  Ac  Ac1  1  0.000000  0.418836  0.882106  1
  Ac  Ac2  1  0.500000  0.080518  0.386001  1
  Nd  Nd3  1  0.500000  0.916160  0.614874  1
  Si  Si4  1  0.000000  0.805352  0.474801  1
  Si  Si5  1  0.000000  0.184004  0.530665  1
  Si  Si6  1  0.500000  0.304479  0.028935  1
  Si  Si7  1  0.500000  0.697026  0.968816  1
  Si  Si8  1  0.000000  0.303911  0.275514  1
  Si  Si9  1  0.000000  0.707322  0.722218  1
  Si  Si10  1  0.500000  0.802440  0.227011  1
  Si  Si11  1  0.500000  0.197301  0.768587  1
  Tc  Tc12  1  0.000000  0.127973  0.054638  1
  Tc  Tc13  1  0.000000  0.873537  0.943677  1
  Tc  Tc14  1  0.500000  0.626575  0.449090  1
  Tc  Tc15  1  0.500000  0.361675  0.556475  1
  Tc  Tc16  1  0.000000  0.726761  0.319540  1
  Tc  Tc17  1  0.000000  0.267417  0.680763  1
  Tc  Tc18  1  0.500000  0.229128  0.183397  1
  Tc  Tc19  1  0.500000  0.776892  0.814575  1
  Tc  Tc20  1  0.000000  0.435856  0.422434  1
  Tc  Tc21  1  0.000000  0.559808  0.583130  1
  Tc  Tc22  1  0.500000  0.939155  0.080521  1
  Tc  Tc23  1  0.500000  0.063057  0.917989  1
  Tc  Tc24  1  0.000000  0.999433  0.209378  1
  Tc  Tc25  1  0.000000  0.002550  0.789667  1
  Tc  Tc26  1  0.500000  0.500282  0.294290  1
  Tc  Tc27  1  0.500000  0.510015  0.706136  1
