# generated using pymatgen
data_SmLu9(In2Pd)4
_symmetry_space_group_name_H-M   'P 1'
_cell_length_a   3.58539100
_cell_length_b   8.04748444
_cell_length_c   18.08594993
_cell_angle_alpha   90.12022079
_cell_angle_beta   90.00000000
_cell_angle_gamma   90.00000000
_symmetry_Int_Tables_number   1
_chemical_formula_structural   SmLu9(In2Pd)4
_chemical_formula_sum   'Sm1 Lu9 In8 Pd4'
_cell_volume   521.83960616
_cell_formula_units_Z   1
loop_
 _symmetry_equiv_pos_site_id
 _symmetry_equiv_pos_as_xyz
  1  'x, y, z'
loop_
 _atom_site_type_symbol
 _atom_site_label
 _atom_site_symmetry_multiplicity
 _atom_site_fract_x
 _atom_site_fract_y
 _atom_site_fract_z
 _atom_site_occupancy
  Sm  Sm0  1  0.000000  0.500000  0.500000  1
  Lu  Lu1  1  0.000000  0.000000  0.000000  1
  Lu  Lu2  1  0.000000  0.742507  0.278878  1
  Lu  Lu3  1  0.000000  0.257493  0.721122  1
  Lu  Lu4  1  0.000000  0.758354  0.781040  1
  Lu  Lu5  1  0.000000  0.241646  0.218960  1
  Lu  Lu6  1  0.000000  0.617379  0.084056  1
  Lu  Lu7  1  0.000000  0.382621  0.915944  1
  Lu  Lu8  1  0.000000  0.880000  0.585408  1
  Lu  Lu9  1  0.000000  0.120000  0.414592  1
  In  In10  1  0.500000  0.708044  0.933201  1
  In  In11  1  0.500000  0.291956  0.066799  1
  In  In12  1  0.500000  0.798477  0.431228  1
  In  In13  1  0.500000  0.201523  0.568772  1
  In  In14  1  0.500000  0.579821  0.652077  1
  In  In15  1  0.500000  0.420179  0.347923  1
  In  In16  1  0.500000  0.920940  0.148203  1
  In  In17  1  0.500000  0.079060  0.851797  1
  Pd  Pd18  1  0.500000  0.525737  0.194591  1
  Pd  Pd19  1  0.500000  0.474263  0.805409  1
  Pd  Pd20  1  0.500000  0.973948  0.697369  1
  Pd  Pd21  1  0.500000  0.026052  0.302631  1
