# generated using pymatgen
data_DyEr15(In3Os)2
_symmetry_space_group_name_H-M   'P 1'
_cell_length_a   10.32278100
_cell_length_b   10.31956370
_cell_length_c   7.04567456
_cell_angle_alpha   89.95415553
_cell_angle_beta   90.00000000
_cell_angle_gamma   120.01030409
_symmetry_Int_Tables_number   1
_chemical_formula_structural   DyEr15(In3Os)2
_chemical_formula_sum   'Dy1 Er15 In6 Os2'
_cell_volume   649.92908528
_cell_formula_units_Z   1
loop_
 _symmetry_equiv_pos_site_id
 _symmetry_equiv_pos_as_xyz
  1  'x, y, z'
loop_
 _atom_site_type_symbol
 _atom_site_label
 _atom_site_symmetry_multiplicity
 _atom_site_fract_x
 _atom_site_fract_y
 _atom_site_fract_z
 _atom_site_occupancy
  Dy  Dy0  1  0.532948  0.065894  0.793322  1
  Er  Er1  1  0.933791  0.466985  0.793799  1
  Er  Er2  1  0.533195  0.466985  0.793799  1
  Er  Er3  1  0.466528  0.933057  0.293566  1
  Er  Er4  1  0.066531  0.533313  0.293819  1
  Er  Er5  1  0.466782  0.533313  0.293819  1
  Er  Er6  1  0.822684  0.645366  0.498705  1
  Er  Er7  1  0.354246  0.177307  0.498487  1
  Er  Er8  1  0.823062  0.177307  0.498487  1
  Er  Er9  1  0.177391  0.354783  0.998853  1
  Er  Er10  1  0.645675  0.822580  0.999087  1
  Er  Er11  1  0.176905  0.822580  0.999087  1
  Er  Er12  1  0.666902  0.333802  0.173089  1
  Er  Er13  1  0.333074  0.666147  0.672893  1
  Er  Er14  1  0.999985  0.999969  0.777932  1
  Er  Er15  1  0.999956  0.999910  0.278021  1
  In  In16  1  0.836844  0.673689  0.039540  1
  In  In17  1  0.326024  0.163301  0.039851  1
  In  In18  1  0.837275  0.163301  0.039851  1
  In  In19  1  0.163157  0.326314  0.539518  1
  In  In20  1  0.673665  0.836727  0.539594  1
  In  In21  1  0.163063  0.836727  0.539594  1
  Os  Os22  1  0.666967  0.333932  0.570447  1
  Os  Os23  1  0.333354  0.666710  0.070745  1
