# generated using pymatgen
data_Pr3HoAu5
_symmetry_space_group_name_H-M   'P 1'
_cell_length_a   8.22897587
_cell_length_b   8.22897593
_cell_length_c   8.22897600
_cell_angle_alpha   65.54896636
_cell_angle_beta   65.54896616
_cell_angle_gamma   65.54894089
_symmetry_Int_Tables_number   1
_chemical_formula_structural   Pr3HoAu5
_chemical_formula_sum   'Pr6 Ho2 Au10'
_cell_volume   441.53547817
_cell_formula_units_Z   2
loop_
 _symmetry_equiv_pos_site_id
 _symmetry_equiv_pos_as_xyz
  1  'x, y, z'
loop_
 _atom_site_type_symbol
 _atom_site_label
 _atom_site_symmetry_multiplicity
 _atom_site_fract_x
 _atom_site_fract_y
 _atom_site_fract_z
 _atom_site_occupancy
  Pr  Pr0  1  0.892303  0.185296  0.621271  1
  Pr  Pr1  1  0.621271  0.892303  0.185296  1
  Pr  Pr2  1  0.185296  0.621271  0.892303  1
  Pr  Pr3  1  0.107697  0.814704  0.378729  1
  Pr  Pr4  1  0.378729  0.107697  0.814704  1
  Pr  Pr5  1  0.814704  0.378729  0.107697  1
  Ho  Ho6  1  0.657670  0.657670  0.657670  1
  Ho  Ho7  1  0.342330  0.342330  0.342330  1
  Au  Au8  1  0.000000  0.000000  0.000000  1
  Au  Au9  1  0.500000  0.500000  0.500000  1
  Au  Au10  1  0.804870  0.804870  0.804870  1
  Au  Au11  1  0.195130  0.195130  0.195130  1
  Au  Au12  1  0.940125  0.547465  0.320077  1
  Au  Au13  1  0.320077  0.940125  0.547465  1
  Au  Au14  1  0.547465  0.320077  0.940125  1
  Au  Au15  1  0.059875  0.452535  0.679923  1
  Au  Au16  1  0.679923  0.059875  0.452535  1
  Au  Au17  1  0.452535  0.679923  0.059875  1
