# generated using pymatgen
data_Lu17Hf2InIr12
_symmetry_space_group_name_H-M   'P 1'
_cell_length_a   10.62431500
_cell_length_b   10.62431500
_cell_length_c   6.14024600
_cell_angle_alpha   90.00000000
_cell_angle_beta   90.00000000
_cell_angle_gamma   90.00000000
_symmetry_Int_Tables_number   1
_chemical_formula_structural   Lu17Hf2InIr12
_chemical_formula_sum   'Lu17 Hf2 In1 Ir12'
_cell_volume   693.08683252
_cell_formula_units_Z   1
loop_
 _symmetry_equiv_pos_site_id
 _symmetry_equiv_pos_as_xyz
  1  'x, y, z'
loop_
 _atom_site_type_symbol
 _atom_site_label
 _atom_site_symmetry_multiplicity
 _atom_site_fract_x
 _atom_site_fract_y
 _atom_site_fract_z
 _atom_site_occupancy
  Lu  Lu0  1  0.285505  0.083438  0.376893  1
  Lu  Lu1  1  0.292329  0.912428  0.876876  1
  Lu  Lu2  1  0.707671  0.087572  0.876876  1
  Lu  Lu3  1  0.714495  0.916562  0.376893  1
  Lu  Lu4  1  0.586956  0.789423  0.877505  1
  Lu  Lu5  1  0.586202  0.210313  0.374211  1
  Lu  Lu6  1  0.413798  0.789687  0.374211  1
  Lu  Lu7  1  0.413044  0.210577  0.877505  1
  Lu  Lu8  1  0.210313  0.413798  0.625789  1
  Lu  Lu9  1  0.210577  0.586956  0.122495  1
  Lu  Lu10  1  0.789423  0.413044  0.122495  1
  Lu  Lu11  1  0.789687  0.586202  0.625789  1
  Lu  Lu12  1  0.912428  0.707671  0.123124  1
  Lu  Lu13  1  0.916562  0.285505  0.623107  1
  Lu  Lu14  1  0.083438  0.714495  0.623107  1
  Lu  Lu15  1  0.087572  0.292329  0.123124  1
  Lu  Lu16  1  0.000000  0.000000  0.000000  1
  Hf  Hf17  1  0.500000  0.500000  0.000000  1
  Hf  Hf18  1  0.500000  0.500000  0.500000  1
  In  In19  1  0.000000  0.000000  0.500000  1
  Ir  Ir20  1  0.844081  0.158832  0.243085  1
  Ir  Ir21  1  0.841168  0.844081  0.756915  1
  Ir  Ir22  1  0.158832  0.155919  0.756915  1
  Ir  Ir23  1  0.155919  0.841168  0.243085  1
  Ir  Ir24  1  0.645372  0.355718  0.747461  1
  Ir  Ir25  1  0.644282  0.645372  0.252539  1
  Ir  Ir26  1  0.355718  0.354628  0.252539  1
  Ir  Ir27  1  0.354628  0.644282  0.747461  1
  Ir  Ir28  1  0.500000  0.000000  0.127258  1
  Ir  Ir29  1  0.500000  0.000000  0.622295  1
  Ir  Ir30  1  0.000000  0.500000  0.872742  1
  Ir  Ir31  1  0.000000  0.500000  0.377705  1
