# generated using pymatgen
data_CaYb11(TmGe2)8
_symmetry_space_group_name_H-M   'P 1'
_cell_length_a   7.35968802
_cell_length_b   7.87448808
_cell_length_c   15.09520915
_cell_angle_alpha   90.01509060
_cell_angle_beta   90.00508439
_cell_angle_gamma   90.00625699
_symmetry_Int_Tables_number   1
_chemical_formula_structural   CaYb11(TmGe2)8
_chemical_formula_sum   'Ca1 Yb11 Tm8 Ge16'
_cell_volume   874.82432404
_cell_formula_units_Z   1
loop_
 _symmetry_equiv_pos_site_id
 _symmetry_equiv_pos_as_xyz
  1  'x, y, z'
loop_
 _atom_site_type_symbol
 _atom_site_label
 _atom_site_symmetry_multiplicity
 _atom_site_fract_x
 _atom_site_fract_y
 _atom_site_fract_z
 _atom_site_occupancy
  Ca  Ca0  1  0.981684  0.813512  0.405985  1
  Yb  Yb1  1  0.481487  0.686895  0.094287  1
  Yb  Yb2  1  0.518482  0.313150  0.594301  1
  Yb  Yb3  1  0.018518  0.186902  0.905703  1
  Yb  Yb4  1  0.018565  0.186903  0.594320  1
  Yb  Yb5  1  0.518495  0.313110  0.905703  1
  Yb  Yb6  1  0.481479  0.686805  0.405690  1
  Yb  Yb7  1  0.981470  0.813094  0.094293  1
  Yb  Yb8  1  0.342838  0.020685  0.750009  1
  Yb  Yb9  1  0.842860  0.479346  0.750018  1
  Yb  Yb10  1  0.157245  0.520492  0.249901  1
  Yb  Yb11  1  0.656988  0.979398  0.249905  1
  Tm  Tm12  1  0.318153  0.171463  0.121349  1
  Tm  Tm13  1  0.818097  0.328517  0.378639  1
  Tm  Tm14  1  0.181854  0.671429  0.878651  1
  Tm  Tm15  1  0.681821  0.828563  0.621389  1
  Tm  Tm16  1  0.318319  0.171618  0.378583  1
  Tm  Tm17  1  0.818120  0.328593  0.121328  1
  Tm  Tm18  1  0.181974  0.671339  0.621431  1
  Tm  Tm19  1  0.681873  0.828586  0.878654  1
  Ge  Ge20  1  0.843567  0.533759  0.540348  1
  Ge  Ge21  1  0.343685  0.965676  0.959909  1
  Ge  Ge22  1  0.655434  0.034983  0.460031  1
  Ge  Ge23  1  0.156303  0.465673  0.040095  1
  Ge  Ge24  1  0.156617  0.464965  0.460079  1
  Ge  Ge25  1  0.656294  0.034304  0.040097  1
  Ge  Ge26  1  0.343844  0.965798  0.540211  1
  Ge  Ge27  1  0.843678  0.534308  0.959905  1
  Ge  Ge28  1  0.976981  0.874482  0.750008  1
  Ge  Ge29  1  0.476990  0.625506  0.750001  1
  Ge  Ge30  1  0.522971  0.374428  0.250028  1
  Ge  Ge31  1  0.023175  0.125839  0.249821  1
  Ge  Ge32  1  0.237251  0.387212  0.749998  1
  Ge  Ge33  1  0.737252  0.112770  0.749985  1
  Ge  Ge34  1  0.263242  0.887392  0.249706  1
  Ge  Ge35  1  0.762397  0.612505  0.249639  1
