# generated using pymatgen
data_ZrSc3(CrB4)4
_symmetry_space_group_name_H-M   'P 1'
_cell_length_a   5.82076404
_cell_length_b   11.23236962
_cell_length_c   3.30939000
_cell_angle_alpha   90.00000000
_cell_angle_beta   90.00000000
_cell_angle_gamma   89.93078506
_symmetry_Int_Tables_number   1
_chemical_formula_structural   ZrSc3(CrB4)4
_chemical_formula_sum   'Zr1 Sc3 Cr4 B16'
_cell_volume   216.37098108
_cell_formula_units_Z   1
loop_
 _symmetry_equiv_pos_site_id
 _symmetry_equiv_pos_as_xyz
  1  'x, y, z'
loop_
 _atom_site_type_symbol
 _atom_site_label
 _atom_site_symmetry_multiplicity
 _atom_site_fract_x
 _atom_site_fract_y
 _atom_site_fract_z
 _atom_site_occupancy
  Zr  Zr0  1  0.626655  0.349046  0.000000  1
  Sc  Sc1  1  0.373217  0.651318  0.000000  1
  Sc  Sc2  1  0.126093  0.149322  0.000000  1
  Sc  Sc3  1  0.873285  0.850121  0.000000  1
  Cr  Cr4  1  0.626825  0.082752  0.000000  1
  Cr  Cr5  1  0.372351  0.917618  0.000000  1
  Cr  Cr6  1  0.127617  0.416845  0.000000  1
  Cr  Cr7  1  0.872066  0.582360  0.000000  1
  B  B8  1  0.789508  0.185305  0.500000  1
  B  B9  1  0.211209  0.814237  0.500000  1
  B  B10  1  0.287391  0.313232  0.500000  1
  B  B11  1  0.711872  0.686681  0.500000  1
  B  B12  1  0.867023  0.031986  0.500000  1
  B  B13  1  0.132602  0.967501  0.500000  1
  B  B14  1  0.367251  0.468163  0.500000  1
  B  B15  1  0.633411  0.533301  0.500000  1
  B  B16  1  0.886216  0.452240  0.500000  1
  B  B17  1  0.117199  0.549380  0.500000  1
  B  B18  1  0.383416  0.048024  0.500000  1
  B  B19  1  0.616176  0.951312  0.500000  1
  B  B20  1  0.978687  0.304926  0.500000  1
  B  B21  1  0.021693  0.695146  0.500000  1
  B  B22  1  0.476666  0.193635  0.500000  1
  B  B23  1  0.521570  0.805548  0.500000  1
