# generated using pymatgen
data_Zr6Al13Zn3Pd7
_symmetry_space_group_name_H-M   'P 1'
_cell_length_a   8.80349490
_cell_length_b   8.80349553
_cell_length_c   8.80349520
_cell_angle_alpha   59.98013811
_cell_angle_beta   59.98013547
_cell_angle_gamma   59.98013835
_symmetry_Int_Tables_number   1
_chemical_formula_structural   Zr6Al13Zn3Pd7
_chemical_formula_sum   'Zr6 Al13 Zn3 Pd7'
_cell_volume   482.23058508
_cell_formula_units_Z   1
loop_
 _symmetry_equiv_pos_site_id
 _symmetry_equiv_pos_as_xyz
  1  'x, y, z'
loop_
 _atom_site_type_symbol
 _atom_site_label
 _atom_site_symmetry_multiplicity
 _atom_site_fract_x
 _atom_site_fract_y
 _atom_site_fract_z
 _atom_site_occupancy
  Zr  Zr0  1  0.685063  0.685063  0.314989  1
  Zr  Zr1  1  0.314441  0.686070  0.314441  1
  Zr  Zr2  1  0.686070  0.314441  0.314441  1
  Zr  Zr3  1  0.314441  0.314441  0.686070  1
  Zr  Zr4  1  0.685063  0.314989  0.685063  1
  Zr  Zr5  1  0.314989  0.685063  0.685063  1
  Al  Al6  1  0.879555  0.879555  0.879555  1
  Al  Al7  1  0.120312  0.120312  0.642304  1
  Al  Al8  1  0.120312  0.642304  0.120312  1
  Al  Al9  1  0.642304  0.120312  0.120312  1
  Al  Al10  1  0.118823  0.118823  0.118823  1
  Al  Al11  1  0.664253  0.664253  0.002981  1
  Al  Al12  1  0.664253  0.002981  0.664253  1
  Al  Al13  1  0.002981  0.664253  0.664253  1
  Al  Al14  1  0.666451  0.666451  0.666451  1
  Al  Al15  1  0.334537  0.334537  0.995468  1
  Al  Al16  1  0.334537  0.995468  0.334537  1
  Al  Al17  1  0.995468  0.334537  0.334537  1
  Al  Al18  1  0.335021  0.335021  0.335021  1
  Zn  Zn19  1  0.879815  0.879815  0.361247  1
  Zn  Zn20  1  0.879815  0.361247  0.879815  1
  Zn  Zn21  1  0.361247  0.879815  0.879815  1
  Pd  Pd22  1  0.997602  0.997602  0.997602  1
  Pd  Pd23  1  0.001017  0.001017  0.503990  1
  Pd  Pd24  1  0.497195  0.002231  0.497195  1
  Pd  Pd25  1  0.002231  0.497195  0.497195  1
  Pd  Pd26  1  0.497195  0.497195  0.002231  1
  Pd  Pd27  1  0.001017  0.503990  0.001017  1
  Pd  Pd28  1  0.503990  0.001017  0.001017  1
