# generated using pymatgen
data_Tb4DyTm7Co5Bi
_symmetry_space_group_name_H-M   'P 1'
_cell_length_a   8.24961621
_cell_length_b   8.24961747
_cell_length_c   8.23604706
_cell_angle_alpha   111.22148419
_cell_angle_beta   110.61852393
_cell_angle_gamma   106.68180768
_symmetry_Int_Tables_number   1
_chemical_formula_structural   Tb4DyTm7Co5Bi
_chemical_formula_sum   'Tb4 Dy1 Tm7 Co5 Bi1'
_cell_volume   430.31526605
_cell_formula_units_Z   1
loop_
 _symmetry_equiv_pos_site_id
 _symmetry_equiv_pos_as_xyz
  1  'x, y, z'
loop_
 _atom_site_type_symbol
 _atom_site_label
 _atom_site_symmetry_multiplicity
 _atom_site_fract_x
 _atom_site_fract_y
 _atom_site_fract_z
 _atom_site_occupancy
  Tb  Tb0  1  0.596361  0.792705  0.805220  1
  Tb  Tb1  1  0.401434  0.206262  0.194255  1
  Tb  Tb2  1  0.987994  0.792824  0.194255  1
  Tb  Tb3  1  0.012517  0.208859  0.805220  1
  Dy  Dy4  1  0.815907  0.709940  0.525846  1
  Tm  Tm5  1  0.182709  0.289879  0.472588  1
  Tm  Tm6  1  0.183549  0.709200  0.892749  1
  Tm  Tm7  1  0.817423  0.289892  0.107313  1
  Tm  Tm8  1  0.687350  0.377252  0.690330  1
  Tm  Tm9  1  0.311210  0.622009  0.309414  1
  Tm  Tm10  1  0.687405  0.998204  0.309414  1
  Tm  Tm11  1  0.313078  0.002980  0.690330  1
  Co  Co12  1  0.623347  0.000567  0.623914  1
  Co  Co13  1  0.376635  0.000104  0.376740  1
  Co  Co14  1  0.113233  0.610624  0.500620  1
  Co  Co15  1  0.889996  0.387386  0.500620  1
  Co  Co16  1  0.999597  0.001215  0.000812  1
  Bi  Bi17  1  0.500257  0.500102  0.000360  1
