# generated using pymatgen
data_Sm3HoEr2(Si3Ru)8
_symmetry_space_group_name_H-M   'P 1'
_cell_length_a   10.14307161
_cell_length_b   10.14307064
_cell_length_c   8.17771400
_cell_angle_alpha   90.09628670
_cell_angle_beta   89.90371183
_cell_angle_gamma   132.49049796
_symmetry_Int_Tables_number   1
_chemical_formula_structural   Sm3HoEr2(Si3Ru)8
_chemical_formula_sum   'Sm3 Ho1 Er2 Si24 Ru8'
_cell_volume   620.39315705
_cell_formula_units_Z   1
loop_
 _symmetry_equiv_pos_site_id
 _symmetry_equiv_pos_as_xyz
  1  'x, y, z'
loop_
 _atom_site_type_symbol
 _atom_site_label
 _atom_site_symmetry_multiplicity
 _atom_site_fract_x
 _atom_site_fract_y
 _atom_site_fract_z
 _atom_site_occupancy
  Sm  Sm0  1  0.497543  0.997543  0.250000  1
  Sm  Sm1  1  0.002424  0.502424  0.750000  1
  Sm  Sm2  1  0.502942  0.002942  0.750000  1
  Ho  Ho3  1  0.997727  0.497727  0.250000  1
  Er  Er4  1  0.499957  0.499995  0.499775  1
  Er  Er5  1  0.999995  0.999957  0.000225  1
  Si  Si6  1  0.387434  0.154260  0.004680  1
  Si  Si7  1  0.654260  0.887434  0.495320  1
  Si  Si8  1  0.111709  0.343554  0.503300  1
  Si  Si9  1  0.843554  0.611709  0.996700  1
  Si  Si10  1  0.612735  0.845863  0.995187  1
  Si  Si11  1  0.345863  0.112735  0.504813  1
  Si  Si12  1  0.888187  0.655901  0.494235  1
  Si  Si13  1  0.155901  0.388187  0.005765  1
  Si  Si14  1  0.612573  0.379576  0.227762  1
  Si  Si15  1  0.879576  0.112573  0.272238  1
  Si  Si16  1  0.886601  0.119994  0.728880  1
  Si  Si17  1  0.619994  0.386601  0.771120  1
  Si  Si18  1  0.388334  0.622017  0.771613  1
  Si  Si19  1  0.122017  0.888334  0.728387  1
  Si  Si20  1  0.706446  0.295828  0.001298  1
  Si  Si21  1  0.795828  0.206446  0.498702  1
  Si  Si22  1  0.293647  0.704426  0.001390  1
  Si  Si23  1  0.204426  0.793647  0.498610  1
  Si  Si24  1  0.168038  0.167911  0.333055  1
  Si  Si25  1  0.667911  0.668038  0.166945  1
  Si  Si26  1  0.332127  0.332036  0.832846  1
  Si  Si27  1  0.832036  0.832127  0.667154  1
  Si  Si28  1  0.378736  0.612085  0.228342  1
  Si  Si29  1  0.112085  0.878736  0.271658  1
  Ru  Ru30  1  0.625249  0.625431  0.873124  1
  Ru  Ru31  1  0.125431  0.125249  0.626876  1
  Ru  Ru32  1  0.874389  0.874511  0.373408  1
  Ru  Ru33  1  0.374511  0.374389  0.126592  1
  Ru  Ru34  1  0.329434  0.665268  0.499200  1
  Ru  Ru35  1  0.165268  0.829434  0.000800  1
  Ru  Ru36  1  0.670499  0.334610  0.497983  1
  Ru  Ru37  1  0.834610  0.170499  0.002017  1
