# generated using pymatgen
data_La8TlPd24
_symmetry_space_group_name_H-M   'P 1'
_cell_length_a   8.63278200
_cell_length_b   8.63278200
_cell_length_c   8.63278200
_cell_angle_alpha   90.00000000
_cell_angle_beta   90.00000000
_cell_angle_gamma   90.00000000
_symmetry_Int_Tables_number   1
_chemical_formula_structural   La8TlPd24
_chemical_formula_sum   'La8 Tl1 Pd24'
_cell_volume   643.35743161
_cell_formula_units_Z   1
loop_
 _symmetry_equiv_pos_site_id
 _symmetry_equiv_pos_as_xyz
  1  'x, y, z'
loop_
 _atom_site_type_symbol
 _atom_site_label
 _atom_site_symmetry_multiplicity
 _atom_site_fract_x
 _atom_site_fract_y
 _atom_site_fract_z
 _atom_site_occupancy
  La  La0  1  0.251721  0.251721  0.251721  1
  La  La1  1  0.748279  0.748279  0.748279  1
  La  La2  1  0.748279  0.748279  0.251721  1
  La  La3  1  0.748279  0.251721  0.748279  1
  La  La4  1  0.251721  0.251721  0.748279  1
  La  La5  1  0.251721  0.748279  0.251721  1
  La  La6  1  0.251721  0.748279  0.748279  1
  La  La7  1  0.748279  0.251721  0.251721  1
  Tl  Tl8  1  0.000000  0.000000  0.000000  1
  Pd  Pd9  1  0.267972  0.500000  0.000000  1
  Pd  Pd10  1  0.732028  0.500000  0.000000  1
  Pd  Pd11  1  0.000000  0.267972  0.500000  1
  Pd  Pd12  1  0.500000  0.267972  0.000000  1
  Pd  Pd13  1  0.000000  0.732028  0.500000  1
  Pd  Pd14  1  0.500000  0.732028  0.000000  1
  Pd  Pd15  1  0.500000  0.000000  0.267972  1
  Pd  Pd16  1  0.267972  0.000000  0.500000  1
  Pd  Pd17  1  0.500000  0.000000  0.732028  1
  Pd  Pd18  1  0.732028  0.000000  0.500000  1
  Pd  Pd19  1  0.000000  0.500000  0.267972  1
  Pd  Pd20  1  0.000000  0.500000  0.732028  1
  Pd  Pd21  1  0.255497  0.500000  0.500000  1
  Pd  Pd22  1  0.744503  0.500000  0.500000  1
  Pd  Pd23  1  0.500000  0.255497  0.500000  1
  Pd  Pd24  1  0.500000  0.744503  0.500000  1
  Pd  Pd25  1  0.500000  0.500000  0.255497  1
  Pd  Pd26  1  0.500000  0.500000  0.744503  1
  Pd  Pd27  1  0.319364  0.000000  0.000000  1
  Pd  Pd28  1  0.680636  0.000000  0.000000  1
  Pd  Pd29  1  0.000000  0.319364  0.000000  1
  Pd  Pd30  1  0.000000  0.680636  0.000000  1
  Pd  Pd31  1  0.000000  0.000000  0.319364  1
  Pd  Pd32  1  0.000000  0.000000  0.680636  1
