# generated using pymatgen
data_TaBe4Re
_symmetry_space_group_name_H-M   'P 1'
_cell_length_a   4.48926789
_cell_length_b   4.48926801
_cell_length_c   4.48926800
_cell_angle_alpha   60.00000007
_cell_angle_beta   59.99999916
_cell_angle_gamma   60.00000035
_symmetry_Int_Tables_number   1
_chemical_formula_structural   TaBe4Re
_chemical_formula_sum   'Ta1 Be4 Re1'
_cell_volume   63.97519062
_cell_formula_units_Z   1
loop_
 _symmetry_equiv_pos_site_id
 _symmetry_equiv_pos_as_xyz
  1  'x, y, z'
loop_
 _atom_site_type_symbol
 _atom_site_label
 _atom_site_symmetry_multiplicity
 _atom_site_fract_x
 _atom_site_fract_y
 _atom_site_fract_z
 _atom_site_occupancy
  Ta  Ta0  1  0.250000  0.250000  0.250000  1
  Be  Be1  1  0.626037  0.626037  0.121890  1
  Be  Be2  1  0.626037  0.121890  0.626037  1
  Be  Be3  1  0.121890  0.626037  0.626037  1
  Be  Be4  1  0.626037  0.626037  0.626037  1
  Re  Re5  1  0.000000  0.000000  0.000000  1
