# generated using pymatgen
data_ErTm2Sc2Sb3
_symmetry_space_group_name_H-M   'P 1'
_cell_length_a   8.72547623
_cell_length_b   8.72896164
_cell_length_c   6.06217700
_cell_angle_alpha   90.00000000
_cell_angle_beta   90.00000000
_cell_angle_gamma   120.01320558
_symmetry_Int_Tables_number   1
_chemical_formula_structural   ErTm2Sc2Sb3
_chemical_formula_sum   'Er2 Tm4 Sc4 Sb6'
_cell_volume   399.80954920
_cell_formula_units_Z   2
loop_
 _symmetry_equiv_pos_site_id
 _symmetry_equiv_pos_as_xyz
  1  'x, y, z'
loop_
 _atom_site_type_symbol
 _atom_site_label
 _atom_site_symmetry_multiplicity
 _atom_site_fract_x
 _atom_site_fract_y
 _atom_site_fract_z
 _atom_site_occupancy
  Er  Er0  1  0.245410  0.245490  0.750000  1
  Er  Er1  1  0.245410  0.999920  0.250000  1
  Tm  Tm2  1  0.999877  0.754395  0.750000  1
  Tm  Tm3  1  0.999877  0.245481  0.250000  1
  Tm  Tm4  1  0.754567  0.754601  0.250000  1
  Tm  Tm5  1  0.754567  0.999966  0.750000  1
  Sc  Sc6  1  0.333350  0.666675  0.500000  1
  Sc  Sc7  1  0.666657  0.333328  0.000000  1
  Sc  Sc8  1  0.666657  0.333328  0.500000  1
  Sc  Sc9  1  0.333350  0.666675  0.000000  1
  Sb  Sb10  1  0.394231  0.999790  0.750000  1
  Sb  Sb11  1  0.394231  0.394442  0.250000  1
  Sb  Sb12  1  0.999770  0.605561  0.250000  1
  Sb  Sb13  1  0.999770  0.394210  0.750000  1
  Sb  Sb14  1  0.606137  0.606115  0.750000  1
  Sb  Sb15  1  0.606137  0.000022  0.250000  1
