# generated using pymatgen
data_Sc12Co4IrPb
_symmetry_space_group_name_H-M   'P 1'
_cell_length_a   7.74539058
_cell_length_b   7.74538988
_cell_length_c   7.74539055
_cell_angle_alpha   111.04540481
_cell_angle_beta   111.20474541
_cell_angle_gamma   106.21190511
_symmetry_Int_Tables_number   1
_chemical_formula_structural   Sc12Co4IrPb
_chemical_formula_sum   'Sc12 Co4 Ir1 Pb1'
_cell_volume   356.82846365
_cell_formula_units_Z   1
loop_
 _symmetry_equiv_pos_site_id
 _symmetry_equiv_pos_as_xyz
  1  'x, y, z'
loop_
 _atom_site_type_symbol
 _atom_site_label
 _atom_site_symmetry_multiplicity
 _atom_site_fract_x
 _atom_site_fract_y
 _atom_site_fract_z
 _atom_site_occupancy
  Sc  Sc0  1  0.423210  0.222966  0.200245  1
  Sc  Sc1  1  0.576790  0.777034  0.799755  1
  Sc  Sc2  1  0.022722  0.222966  0.799755  1
  Sc  Sc3  1  0.977278  0.777034  0.200245  1
  Sc  Sc4  1  0.312269  0.615562  0.303292  1
  Sc  Sc5  1  0.687731  0.384438  0.696708  1
  Sc  Sc6  1  0.312269  0.008976  0.696708  1
  Sc  Sc7  1  0.687731  0.991024  0.303292  1
  Sc  Sc8  1  0.184097  0.276877  0.460974  1
  Sc  Sc9  1  0.815903  0.723122  0.539026  1
  Sc  Sc10  1  0.184097  0.723122  0.907220  1
  Sc  Sc11  1  0.815903  0.276877  0.092780  1
  Co  Co12  1  0.366404  0.000000  0.366404  1
  Co  Co13  1  0.633596  0.000000  0.633596  1
  Co  Co14  1  0.117458  0.617458  0.500000  1
  Co  Co15  1  0.882542  0.382542  0.500000  1
  Ir  Ir16  1  0.000000  0.000000  0.000000  1
  Pb  Pb17  1  0.500000  0.500000  0.000000  1
