# generated using pymatgen
data_Tm6Cr7P12Rh11
_symmetry_space_group_name_H-M   'P 1'
_cell_length_a   3.81076200
_cell_length_b   10.96706837
_cell_length_c   12.90062190
_cell_angle_alpha   90.10108980
_cell_angle_beta   90.00000000
_cell_angle_gamma   90.00000000
_symmetry_Int_Tables_number   1
_chemical_formula_structural   Tm6Cr7P12Rh11
_chemical_formula_sum   'Tm6 Cr7 P12 Rh11'
_cell_volume   539.15339926
_cell_formula_units_Z   1
loop_
 _symmetry_equiv_pos_site_id
 _symmetry_equiv_pos_as_xyz
  1  'x, y, z'
loop_
 _atom_site_type_symbol
 _atom_site_label
 _atom_site_symmetry_multiplicity
 _atom_site_fract_x
 _atom_site_fract_y
 _atom_site_fract_z
 _atom_site_occupancy
  Tm  Tm0  1  0.000000  0.500434  0.519917  1
  Tm  Tm1  1  0.500000  0.998443  0.479747  1
  Tm  Tm2  1  0.500000  0.819534  0.201002  1
  Tm  Tm3  1  0.500000  0.182134  0.205651  1
  Tm  Tm4  1  0.000000  0.678429  0.798226  1
  Tm  Tm5  1  0.000000  0.320914  0.791793  1
  Cr  Cr6  1  0.500000  0.498537  0.160687  1
  Cr  Cr7  1  0.000000  0.004243  0.841352  1
  Cr  Cr8  1  0.000000  0.485862  0.990247  1
  Cr  Cr9  1  0.500000  0.011683  0.007847  1
  Cr  Cr10  1  0.500000  0.328967  0.999224  1
  Cr  Cr11  1  0.500000  0.659287  0.996060  1
  Cr  Cr12  1  0.000000  0.181334  0.000953  1
  P  P13  1  0.500000  0.495685  0.882359  1
  P  P14  1  0.000000  0.010589  0.114703  1
  P  P15  1  0.500000  0.501394  0.348445  1
  P  P16  1  0.000000  0.998340  0.652523  1
  P  P17  1  0.500000  0.314206  0.617071  1
  P  P18  1  0.500000  0.685096  0.619544  1
  P  P19  1  0.000000  0.183112  0.381575  1
  P  P20  1  0.000000  0.815620  0.379934  1
  P  P21  1  0.500000  0.845835  0.893881  1
  P  P22  1  0.500000  0.160529  0.886098  1
  P  P23  1  0.000000  0.645687  0.106648  1
  P  P24  1  0.000000  0.345033  0.116960  1
  Rh  Rh25  1  0.500000  0.499303  0.700555  1
  Rh  Rh26  1  0.000000  0.999621  0.295755  1
  Rh  Rh27  1  0.000000  0.832078  0.007430  1
  Rh  Rh28  1  0.500000  0.293419  0.432387  1
  Rh  Rh29  1  0.500000  0.704788  0.431782  1
  Rh  Rh30  1  0.000000  0.202874  0.567353  1
  Rh  Rh31  1  0.000000  0.795952  0.568405  1
  Rh  Rh32  1  0.500000  0.873383  0.713583  1
  Rh  Rh33  1  0.500000  0.124218  0.708533  1
  Rh  Rh34  1  0.000000  0.627003  0.287670  1
  Rh  Rh35  1  0.000000  0.376436  0.294099  1
