# generated using pymatgen
data_Er3Lu7(ZnIn3)2
_symmetry_space_group_name_H-M   'P 1'
_cell_length_a   9.00319200
_cell_length_b   9.01320890
_cell_length_c   6.61729500
_cell_angle_alpha   90.00000000
_cell_angle_beta   90.00000000
_cell_angle_gamma   119.87035654
_symmetry_Int_Tables_number   1
_chemical_formula_structural   Er3Lu7(ZnIn3)2
_chemical_formula_sum   'Er3 Lu7 Zn2 In6'
_cell_volume   465.64285780
_cell_formula_units_Z   1
loop_
 _symmetry_equiv_pos_site_id
 _symmetry_equiv_pos_as_xyz
  1  'x, y, z'
loop_
 _atom_site_type_symbol
 _atom_site_label
 _atom_site_symmetry_multiplicity
 _atom_site_fract_x
 _atom_site_fract_y
 _atom_site_fract_z
 _atom_site_occupancy
  Er  Er0  1  0.275888  0.002247  0.749899  1
  Er  Er1  1  0.725125  0.001307  0.249956  1
  Er  Er2  1  0.000592  0.269438  0.749878  1
  Lu  Lu3  1  0.333377  0.666803  0.500114  1
  Lu  Lu4  1  0.666204  0.337024  0.500128  1
  Lu  Lu5  1  0.666153  0.336995  0.999903  1
  Lu  Lu6  1  0.333293  0.666776  0.999892  1
  Lu  Lu7  1  0.998990  0.720551  0.250025  1
  Lu  Lu8  1  0.727340  0.728751  0.749972  1
  Lu  Lu9  1  0.272635  0.274744  0.249970  1
  Zn  Zn10  1  0.000506  0.993977  0.494140  1
  Zn  Zn11  1  0.000503  0.993971  0.005833  1
  In  In12  1  0.619222  0.999842  0.750008  1
  In  In13  1  0.376218  0.000444  0.250098  1
  In  In14  1  0.999435  0.620977  0.749946  1
  In  In15  1  0.000866  0.381459  0.250263  1
  In  In16  1  0.383090  0.383893  0.750037  1
  In  In17  1  0.620561  0.620799  0.249938  1
