# generated using pymatgen
data_Nd8Y12Si15Bi
_symmetry_space_group_name_H-M   'P 1'
_cell_length_a   7.79277103
_cell_length_b   7.80991801
_cell_length_c   14.51688800
_cell_angle_alpha   89.87755732
_cell_angle_beta   90.00516876
_cell_angle_gamma   90.08783374
_symmetry_Int_Tables_number   1
_chemical_formula_structural   Nd8Y12Si15Bi
_chemical_formula_sum   'Nd8 Y12 Si15 Bi1'
_cell_volume   883.50785079
_cell_formula_units_Z   1
loop_
 _symmetry_equiv_pos_site_id
 _symmetry_equiv_pos_as_xyz
  1  'x, y, z'
loop_
 _atom_site_type_symbol
 _atom_site_label
 _atom_site_symmetry_multiplicity
 _atom_site_fract_x
 _atom_site_fract_y
 _atom_site_fract_z
 _atom_site_occupancy
  Nd  Nd0  1  0.644916  0.990010  0.451848  1
  Nd  Nd1  1  0.363603  0.007968  0.958219  1
  Nd  Nd2  1  0.989141  0.632348  0.544371  1
  Nd  Nd3  1  0.491502  0.859665  0.207265  1
  Nd  Nd4  1  0.519760  0.153207  0.717347  1
  Nd  Nd5  1  0.864872  0.494251  0.796961  1
  Nd  Nd6  1  0.135174  0.503140  0.288941  1
  Nd  Nd7  1  0.008297  0.360787  0.042988  1
  Y  Y8  1  0.490157  0.361928  0.123794  1
  Y  Y9  1  0.974564  0.151528  0.633107  1
  Y  Y10  1  0.862926  0.011582  0.875873  1
  Y  Y11  1  0.137592  0.984810  0.368387  1
  Y  Y12  1  0.513537  0.631114  0.625120  1
  Y  Y13  1  0.361293  0.490312  0.877435  1
  Y  Y14  1  0.642853  0.505917  0.372950  1
  Y  Y15  1  0.009680  0.863088  0.125169  1
  Y  Y16  1  0.312133  0.330923  0.495668  1
  Y  Y17  1  0.182680  0.815201  0.759017  1
  Y  Y18  1  0.816136  0.182941  0.248515  1
  Y  Y19  1  0.684062  0.684268  0.000293  1
  Si  Si20  1  0.710496  0.065987  0.061464  1
  Si  Si21  1  0.935489  0.285090  0.437862  1
  Si  Si22  1  0.434707  0.205346  0.310238  1
  Si  Si23  1  0.564784  0.790495  0.811291  1
  Si  Si24  1  0.210411  0.438855  0.689359  1
  Si  Si25  1  0.787930  0.564553  0.186859  1
  Si  Si26  1  0.064399  0.708921  0.942041  1
  Si  Si27  1  0.798162  0.843076  0.692519  1
  Si  Si28  1  0.204311  0.154605  0.188987  1
  Si  Si29  1  0.844165  0.796814  0.305702  1
  Si  Si30  1  0.347322  0.688485  0.425351  1
  Si  Si31  1  0.654276  0.296942  0.940490  1
  Si  Si32  1  0.694402  0.339746  0.554581  1
  Si  Si33  1  0.296804  0.654967  0.060177  1
  Si  Si34  1  0.157487  0.201596  0.811581  1
  Bi  Bi35  1  0.289978  0.949536  0.568229  1
