# generated using pymatgen
data_Zr2Mn11P7W
_symmetry_space_group_name_H-M   'P 1'
_cell_length_a   9.18261242
_cell_length_b   9.19959629
_cell_length_c   3.59293100
_cell_angle_alpha   90.00000000
_cell_angle_beta   90.00000000
_cell_angle_gamma   120.16374231
_symmetry_Int_Tables_number   1
_chemical_formula_structural   Zr2Mn11P7W
_chemical_formula_sum   'Zr2 Mn11 P7 W1'
_cell_volume   262.41918897
_cell_formula_units_Z   1
loop_
 _symmetry_equiv_pos_site_id
 _symmetry_equiv_pos_as_xyz
  1  'x, y, z'
loop_
 _atom_site_type_symbol
 _atom_site_label
 _atom_site_symmetry_multiplicity
 _atom_site_fract_x
 _atom_site_fract_y
 _atom_site_fract_z
 _atom_site_occupancy
  Zr  Zr0  1  0.000049  0.000754  0.000000  1
  Zr  Zr1  1  0.332518  0.666341  0.500000  1
  Mn  Mn2  1  0.290321  0.383252  0.000000  1
  Mn  Mn3  1  0.098193  0.712233  0.000000  1
  Mn  Mn4  1  0.545516  0.436391  0.500000  1
  Mn  Mn5  1  0.386427  0.174129  0.000000  1
  Mn  Mn6  1  0.782841  0.615610  0.000000  1
  Mn  Mn7  1  0.825101  0.211347  0.000000  1
  Mn  Mn8  1  0.231890  0.942753  0.500000  1
  Mn  Mn9  1  0.058883  0.286472  0.500000  1
  Mn  Mn10  1  0.710048  0.769300  0.500000  1
  Mn  Mn11  1  0.567657  0.108179  0.500000  1
  Mn  Mn12  1  0.615930  0.905817  0.000000  1
  P  P13  1  0.660848  0.331237  0.000000  1
  P  P14  1  0.086379  0.456139  0.000000  1
  P  P15  1  0.255474  0.203987  0.500000  1
  P  P16  1  0.795836  0.047707  0.500000  1
  P  P17  1  0.951119  0.749852  0.500000  1
  P  P18  1  0.540667  0.624584  0.000000  1
  P  P19  1  0.378088  0.920802  0.000000  1
  W  W20  1  0.886213  0.453112  0.500000  1
