# generated using pymatgen
data_TbEr5Tm10(CdIr)4
_symmetry_space_group_name_H-M   'P 1'
_cell_length_a   9.52646551
_cell_length_b   9.52987711
_cell_length_c   9.52987825
_cell_angle_alpha   59.99736802
_cell_angle_beta   60.01183653
_cell_angle_gamma   60.01184392
_symmetry_Int_Tables_number   1
_chemical_formula_structural   TbEr5Tm10(CdIr)4
_chemical_formula_sum   'Tb1 Er5 Tm10 Cd4 Ir4'
_cell_volume   611.87190481
_cell_formula_units_Z   1
loop_
 _symmetry_equiv_pos_site_id
 _symmetry_equiv_pos_as_xyz
  1  'x, y, z'
loop_
 _atom_site_type_symbol
 _atom_site_label
 _atom_site_symmetry_multiplicity
 _atom_site_fract_x
 _atom_site_fract_y
 _atom_site_fract_z
 _atom_site_occupancy
  Tb  Tb0  1  0.187644  0.812356  0.812356  1
  Er  Er1  1  0.812266  0.187734  0.187734  1
  Er  Er2  1  0.811929  0.188182  0.812182  1
  Er  Er3  1  0.187707  0.812182  0.188182  1
  Er  Er4  1  0.811929  0.812182  0.188182  1
  Er  Er5  1  0.187707  0.188182  0.812182  1
  Tm  Tm6  1  0.599309  0.598951  0.598951  1
  Tm  Tm7  1  0.599165  0.598962  0.202709  1
  Tm  Tm8  1  0.599165  0.202709  0.598962  1
  Tm  Tm9  1  0.202789  0.598951  0.598951  1
  Tm  Tm10  1  0.060792  0.439208  0.439208  1
  Tm  Tm11  1  0.439197  0.060803  0.060803  1
  Tm  Tm12  1  0.439386  0.060958  0.438969  1
  Tm  Tm13  1  0.060687  0.438969  0.060958  1
  Tm  Tm14  1  0.439386  0.438969  0.060958  1
  Tm  Tm15  1  0.060687  0.060958  0.438969  1
  Cd  Cd16  1  0.830675  0.831088  0.831088  1
  Cd  Cd17  1  0.831095  0.831075  0.506734  1
  Cd  Cd18  1  0.831095  0.506734  0.831075  1
  Cd  Cd19  1  0.507147  0.831088  0.831088  1
  Ir  Ir20  1  0.391818  0.391814  0.391814  1
  Ir  Ir21  1  0.391934  0.391487  0.824644  1
  Ir  Ir22  1  0.391934  0.824644  0.391487  1
  Ir  Ir23  1  0.824553  0.391814  0.391814  1
