# generated using pymatgen
data_HfZr(SiRu)2
_symmetry_space_group_name_H-M   'P 1'
_cell_length_a   7.62852887
_cell_length_b   7.63188910
_cell_length_c   7.62852792
_cell_angle_alpha   127.89177514
_cell_angle_beta   122.01610379
_cell_angle_gamma   81.68955871
_symmetry_Int_Tables_number   1
_chemical_formula_structural   HfZr(SiRu)2
_chemical_formula_sum   'Hf3 Zr3 Si6 Ru6'
_cell_volume   286.09904482
_cell_formula_units_Z   3
loop_
 _symmetry_equiv_pos_site_id
 _symmetry_equiv_pos_as_xyz
  1  'x, y, z'
loop_
 _atom_site_type_symbol
 _atom_site_label
 _atom_site_symmetry_multiplicity
 _atom_site_fract_x
 _atom_site_fract_y
 _atom_site_fract_z
 _atom_site_occupancy
  Hf  Hf0  1  0.252663  0.836485  0.083823  1
  Hf  Hf1  1  0.052016  0.255516  0.703499  1
  Hf  Hf2  1  0.946496  0.651990  0.205494  1
  Zr  Zr3  1  0.470156  0.698028  0.727872  1
  Zr  Zr4  1  0.530302  0.258573  0.228271  1
  Zr  Zr5  1  0.746702  0.830005  0.583303  1
  Si  Si6  1  0.276428  0.266228  0.489800  1
  Si  Si7  1  0.726028  0.223280  0.997253  1
  Si  Si8  1  0.323957  0.587531  0.246992  1
  Si  Si9  1  0.673711  0.922826  0.261724  1
  Si  Si10  1  0.161102  0.922826  0.749114  1
  Si  Si11  1  0.840540  0.587531  0.763574  1
  Ru  Ru12  1  0.492778  0.498786  0.992001  1
  Ru  Ru13  1  0.006786  0.498786  0.506008  1
  Ru  Ru14  1  0.095057  0.253766  0.101259  1
  Ru  Ru15  1  0.905552  0.006839  0.159619  1
  Ru  Ru16  1  0.347220  0.006839  0.601287  1
  Ru  Ru17  1  0.652508  0.253766  0.658710  1
