# generated using pymatgen
data_La4PrPb3Cl
_symmetry_space_group_name_H-M   'P 1'
_cell_length_a   9.72846800
_cell_length_b   9.72846676
_cell_length_c   6.97300500
_cell_angle_alpha   90.00000000
_cell_angle_beta   90.00000000
_cell_angle_gamma   120.00000420
_symmetry_Int_Tables_number   1
_chemical_formula_structural   La4PrPb3Cl
_chemical_formula_sum   'La8 Pr2 Pb6 Cl2'
_cell_volume   571.53054268
_cell_formula_units_Z   2
loop_
 _symmetry_equiv_pos_site_id
 _symmetry_equiv_pos_as_xyz
  1  'x, y, z'
loop_
 _atom_site_type_symbol
 _atom_site_label
 _atom_site_symmetry_multiplicity
 _atom_site_fract_x
 _atom_site_fract_y
 _atom_site_fract_z
 _atom_site_occupancy
  La  La0  1  0.260119  0.000000  0.248600  1
  La  La1  1  0.739881  0.000000  0.751400  1
  La  La2  1  0.000000  0.260119  0.248600  1
  La  La3  1  0.000000  0.739881  0.751400  1
  La  La4  1  0.739881  0.739881  0.248600  1
  La  La5  1  0.260119  0.260119  0.751400  1
  La  La6  1  0.666667  0.333333  0.500000  1
  La  La7  1  0.333333  0.666667  0.500000  1
  Pr  Pr8  1  0.333333  0.666667  0.000000  1
  Pr  Pr9  1  0.666667  0.333333  0.000000  1
  Pb  Pb10  1  0.610812  0.000000  0.246753  1
  Pb  Pb11  1  0.389188  0.000000  0.753247  1
  Pb  Pb12  1  0.000000  0.610812  0.246753  1
  Pb  Pb13  1  0.000000  0.389188  0.753247  1
  Pb  Pb14  1  0.389188  0.389188  0.246753  1
  Pb  Pb15  1  0.610812  0.610812  0.753247  1
  Cl  Cl16  1  0.000000  0.000000  0.000000  1
  Cl  Cl17  1  0.000000  0.000000  0.500000  1
