# generated using pymatgen
data_Tb3AlCd2PdPt2
_symmetry_space_group_name_H-M   'P 1'
_cell_length_a   7.59860000
_cell_length_b   7.64545415
_cell_length_c   3.82692000
_cell_angle_alpha   90.00000000
_cell_angle_beta   90.00000000
_cell_angle_gamma   119.79748146
_symmetry_Int_Tables_number   1
_chemical_formula_structural   Tb3AlCd2PdPt2
_chemical_formula_sum   'Tb3 Al1 Cd2 Pd1 Pt2'
_cell_volume   192.92990218
_cell_formula_units_Z   1
loop_
 _symmetry_equiv_pos_site_id
 _symmetry_equiv_pos_as_xyz
  1  'x, y, z'
loop_
 _atom_site_type_symbol
 _atom_site_label
 _atom_site_symmetry_multiplicity
 _atom_site_fract_x
 _atom_site_fract_y
 _atom_site_fract_z
 _atom_site_occupancy
  Tb  Tb0  1  0.581854  0.000000  0.000000  1
  Tb  Tb1  1  0.001064  0.592679  0.000000  1
  Tb  Tb2  1  0.408385  0.407321  0.000000  1
  Al  Al3  1  0.258059  0.000000  0.500000  1
  Cd  Cd4  1  0.996387  0.250681  0.500000  1
  Cd  Cd5  1  0.745706  0.749319  0.500000  1
  Pd  Pd6  1  0.036523  0.000000  0.000000  1
  Pt  Pt7  1  0.326389  0.680757  0.500000  1
  Pt  Pt8  1  0.645632  0.319243  0.500000  1
