# generated using pymatgen
data_PrTh7(AlRu)8
_symmetry_space_group_name_H-M   'P 1'
_cell_length_a   4.15703500
_cell_length_b   7.30387104
_cell_length_c   16.18899888
_cell_angle_alpha   89.52121598
_cell_angle_beta   90.00000000
_cell_angle_gamma   90.00000000
_symmetry_Int_Tables_number   1
_chemical_formula_structural   PrTh7(AlRu)8
_chemical_formula_sum   'Pr1 Th7 Al8 Ru8'
_cell_volume   491.52046765
_cell_formula_units_Z   1
loop_
 _symmetry_equiv_pos_site_id
 _symmetry_equiv_pos_as_xyz
  1  'x, y, z'
loop_
 _atom_site_type_symbol
 _atom_site_label
 _atom_site_symmetry_multiplicity
 _atom_site_fract_x
 _atom_site_fract_y
 _atom_site_fract_z
 _atom_site_occupancy
  Pr  Pr0  1  0.250000  0.540321  0.717554  1
  Th  Th1  1  0.750000  0.958476  0.217996  1
  Th  Th2  1  0.250000  0.165653  0.562279  1
  Th  Th3  1  0.750000  0.834285  0.438883  1
  Th  Th4  1  0.750000  0.458725  0.282126  1
  Th  Th5  1  0.750000  0.334177  0.061273  1
  Th  Th6  1  0.250000  0.667068  0.937546  1
  Th  Th7  1  0.250000  0.039517  0.781864  1
  Al  Al8  1  0.750000  0.502535  0.563495  1
  Al  Al9  1  0.750000  0.365782  0.849055  1
  Al  Al10  1  0.750000  0.005861  0.938589  1
  Al  Al11  1  0.750000  0.862060  0.648688  1
  Al  Al12  1  0.250000  0.496966  0.438555  1
  Al  Al13  1  0.250000  0.996927  0.061259  1
  Al  Al14  1  0.250000  0.636070  0.148993  1
  Al  Al15  1  0.250000  0.136638  0.351336  1
  Ru  Ru16  1  0.750000  0.754518  0.821366  1
  Ru  Ru17  1  0.250000  0.241452  0.935436  1
  Ru  Ru18  1  0.750000  0.261674  0.435838  1
  Ru  Ru19  1  0.250000  0.755877  0.315128  1
  Ru  Ru20  1  0.750000  0.761323  0.064920  1
  Ru  Ru21  1  0.750000  0.228055  0.683289  1
  Ru  Ru22  1  0.250000  0.253065  0.183852  1
  Ru  Ru23  1  0.250000  0.742977  0.560678  1
