# generated using pymatgen
data_Na4LiCu3F12
_symmetry_space_group_name_H-M   'P 1'
_cell_length_a   5.39485288
_cell_length_b   5.52225971
_cell_length_c   7.78321600
_cell_angle_alpha   89.42164336
_cell_angle_beta   89.90209000
_cell_angle_gamma   90.24128855
_symmetry_Int_Tables_number   1
_chemical_formula_structural   Na4LiCu3F12
_chemical_formula_sum   'Na4 Li1 Cu3 F12'
_cell_volume   231.86162370
_cell_formula_units_Z   1
loop_
 _symmetry_equiv_pos_site_id
 _symmetry_equiv_pos_as_xyz
  1  'x, y, z'
loop_
 _atom_site_type_symbol
 _atom_site_label
 _atom_site_symmetry_multiplicity
 _atom_site_fract_x
 _atom_site_fract_y
 _atom_site_fract_z
 _atom_site_occupancy
  Na  Na0  1  0.015661  0.940404  0.733686  1
  Na  Na1  1  0.511578  0.548777  0.266894  1
  Na  Na2  1  0.488422  0.451223  0.733106  1
  Na  Na3  1  0.984339  0.059596  0.266314  1
  Li  Li4  1  0.000000  0.500000  0.500000  1
  Cu  Cu5  1  0.500000  0.000000  0.500000  1
  Cu  Cu6  1  0.500000  0.000000  0.000000  1
  Cu  Cu7  1  0.000000  0.500000  0.000000  1
  F  F8  1  0.698489  0.285969  0.458053  1
  F  F9  1  0.213725  0.200038  0.542517  1
  F  F10  1  0.799223  0.804348  0.056608  1
  F  F11  1  0.294843  0.689715  0.940220  1
  F  F12  1  0.301511  0.714031  0.541947  1
  F  F13  1  0.786275  0.799962  0.457483  1
  F  F14  1  0.200777  0.195652  0.943392  1
  F  F15  1  0.705157  0.310285  0.059780  1
  F  F16  1  0.097247  0.470389  0.237118  1
  F  F17  1  0.601791  0.032284  0.769775  1
  F  F18  1  0.398209  0.967716  0.230225  1
  F  F19  1  0.902753  0.529611  0.762882  1
