# generated using pymatgen
data_Ho(TiZn2)2
_symmetry_space_group_name_H-M   'P 1'
_cell_length_a   5.49660841
_cell_length_b   5.49660860
_cell_length_c   5.49660946
_cell_angle_alpha   101.15178406
_cell_angle_beta   101.15179147
_cell_angle_gamma   127.81996629
_symmetry_Int_Tables_number   1
_chemical_formula_structural   Ho(TiZn2)2
_chemical_formula_sum   'Ho1 Ti2 Zn4'
_cell_volume   117.81648891
_cell_formula_units_Z   1
loop_
 _symmetry_equiv_pos_site_id
 _symmetry_equiv_pos_as_xyz
  1  'x, y, z'
loop_
 _atom_site_type_symbol
 _atom_site_label
 _atom_site_symmetry_multiplicity
 _atom_site_fract_x
 _atom_site_fract_y
 _atom_site_fract_z
 _atom_site_occupancy
  Ho  Ho0  1  0.000000  0.000000  0.000000  1
  Ti  Ti1  1  0.250000  0.750000  0.500000  1
  Ti  Ti2  1  0.750000  0.250000  0.500000  1
  Zn  Zn3  1  0.307483  0.307483  0.614966  1
  Zn  Zn4  1  0.692517  0.692517  0.385034  1
  Zn  Zn5  1  0.692517  0.307483  0.000000  1
  Zn  Zn6  1  0.307483  0.692517  0.000000  1
