# generated using pymatgen
data_Sm3Tm6ThPb8
_symmetry_space_group_name_H-M   'P 1'
_cell_length_a   8.24776800
_cell_length_b   8.37692400
_cell_length_c   15.79168700
_cell_angle_alpha   89.96042540
_cell_angle_beta   90.00000000
_cell_angle_gamma   90.00000000
_symmetry_Int_Tables_number   1
_chemical_formula_structural   Sm3Tm6ThPb8
_chemical_formula_sum   'Sm6 Tm12 Th2 Pb16'
_cell_volume   1091.06201279
_cell_formula_units_Z   2
loop_
 _symmetry_equiv_pos_site_id
 _symmetry_equiv_pos_as_xyz
  1  'x, y, z'
loop_
 _atom_site_type_symbol
 _atom_site_label
 _atom_site_symmetry_multiplicity
 _atom_site_fract_x
 _atom_site_fract_y
 _atom_site_fract_z
 _atom_site_occupancy
  Sm  Sm0  1  0.478395  0.676480  0.402326  1
  Sm  Sm1  1  0.978395  0.823520  0.097674  1
  Sm  Sm2  1  0.478608  0.677620  0.097970  1
  Sm  Sm3  1  0.978608  0.822380  0.402030  1
  Sm  Sm4  1  0.525267  0.322642  0.597471  1
  Sm  Sm5  1  0.025267  0.177358  0.902529  1
  Tm  Tm6  1  0.359823  0.841679  0.876292  1
  Tm  Tm7  1  0.859823  0.658321  0.623708  1
  Tm  Tm8  1  0.640644  0.158180  0.375966  1
  Tm  Tm9  1  0.140644  0.341820  0.124034  1
  Tm  Tm10  1  0.638344  0.159827  0.124316  1
  Tm  Tm11  1  0.138344  0.340173  0.375684  1
  Tm  Tm12  1  0.360294  0.838249  0.623706  1
  Tm  Tm13  1  0.860294  0.661751  0.876294  1
  Tm  Tm14  1  0.192297  0.503765  0.749326  1
  Tm  Tm15  1  0.692297  0.996235  0.750674  1
  Tm  Tm16  1  0.806689  0.496431  0.249449  1
  Tm  Tm17  1  0.306689  0.003569  0.250551  1
  Th  Th18  1  0.520230  0.323078  0.903984  1
  Th  Th19  1  0.020230  0.176922  0.596016  1
  Pb  Pb20  1  0.296858  0.041766  0.042104  1
  Pb  Pb21  1  0.796858  0.458234  0.457896  1
  Pb  Pb22  1  0.702464  0.958218  0.542576  1
  Pb  Pb23  1  0.202464  0.541782  0.957424  1
  Pb  Pb24  1  0.705095  0.963319  0.956656  1
  Pb  Pb25  1  0.205095  0.536681  0.543344  1
  Pb  Pb26  1  0.296183  0.039984  0.457720  1
  Pb  Pb27  1  0.796183  0.460016  0.042280  1
  Pb  Pb28  1  0.554278  0.628444  0.751634  1
  Pb  Pb29  1  0.054278  0.871556  0.748366  1
  Pb  Pb30  1  0.444573  0.371792  0.250957  1
  Pb  Pb31  1  0.944573  0.128208  0.249043  1
  Pb  Pb32  1  0.333409  0.152039  0.748601  1
  Pb  Pb33  1  0.833409  0.347961  0.751399  1
  Pb  Pb34  1  0.666550  0.846203  0.250125  1
  Pb  Pb35  1  0.166550  0.653797  0.249875  1
