# generated using pymatgen
data_Y6Zn23P
_symmetry_space_group_name_H-M   'P 1'
_cell_length_a   9.04759515
_cell_length_b   9.04760890
_cell_length_c   9.04758500
_cell_angle_alpha   59.99975560
_cell_angle_beta   59.99923697
_cell_angle_gamma   59.99971430
_symmetry_Int_Tables_number   1
_chemical_formula_structural   Y6Zn23P
_chemical_formula_sum   'Y6 Zn23 P1'
_cell_volume   523.69738810
_cell_formula_units_Z   1
loop_
 _symmetry_equiv_pos_site_id
 _symmetry_equiv_pos_as_xyz
  1  'x, y, z'
loop_
 _atom_site_type_symbol
 _atom_site_label
 _atom_site_symmetry_multiplicity
 _atom_site_fract_x
 _atom_site_fract_y
 _atom_site_fract_z
 _atom_site_occupancy
  Y  Y0  1  0.712029  0.287970  0.287971  1
  Y  Y1  1  0.712033  0.287969  0.712033  1
  Y  Y2  1  0.712030  0.712028  0.287970  1
  Y  Y3  1  0.287971  0.712030  0.712029  1
  Y  Y4  1  0.287967  0.712031  0.287967  1
  Y  Y5  1  0.287970  0.287972  0.712030  1
  Zn  Zn6  1  0.623383  0.125539  0.125538  1
  Zn  Zn7  1  0.125537  0.623384  0.125539  1
  Zn  Zn8  1  0.125538  0.125540  0.623383  1
  Zn  Zn9  1  0.125540  0.125539  0.125540  1
  Zn  Zn10  1  0.376617  0.874461  0.874462  1
  Zn  Zn11  1  0.874463  0.376616  0.874461  1
  Zn  Zn12  1  0.874462  0.874460  0.376617  1
  Zn  Zn13  1  0.874460  0.874461  0.874460  1
  Zn  Zn14  1  0.500000  0.000000  0.000000  1
  Zn  Zn15  1  0.500000  0.000000  0.500000  1
  Zn  Zn16  1  0.500000  0.500000  0.000000  1
  Zn  Zn17  1  0.000000  0.500000  0.500000  1
  Zn  Zn18  1  0.000000  0.500000  0.000000  1
  Zn  Zn19  1  0.000000  0.000000  0.500000  1
  Zn  Zn20  1  0.000000  0.000000  0.000000  1
  Zn  Zn21  1  0.012639  0.329120  0.329122  1
  Zn  Zn22  1  0.329120  0.012639  0.329120  1
  Zn  Zn23  1  0.329121  0.329121  0.012638  1
  Zn  Zn24  1  0.329117  0.329118  0.329117  1
  Zn  Zn25  1  0.987361  0.670880  0.670878  1
  Zn  Zn26  1  0.670880  0.987361  0.670880  1
  Zn  Zn27  1  0.670879  0.670879  0.987362  1
  Zn  Zn28  1  0.670883  0.670882  0.670883  1
  P  P29  1  0.500000  0.500000  0.500000  1
