# generated using pymatgen
data_La2Tb6ZnPd24
_symmetry_space_group_name_H-M   'P 1'
_cell_length_a   8.41854639
_cell_length_b   8.41854639
_cell_length_c   8.41854639
_cell_angle_alpha   90.15977254
_cell_angle_beta   89.84022746
_cell_angle_gamma   89.84022746
_symmetry_Int_Tables_number   1
_chemical_formula_structural   La2Tb6ZnPd24
_chemical_formula_sum   'La2 Tb6 Zn1 Pd24'
_cell_volume   596.63160174
_cell_formula_units_Z   1
loop_
 _symmetry_equiv_pos_site_id
 _symmetry_equiv_pos_as_xyz
  1  'x, y, z'
loop_
 _atom_site_type_symbol
 _atom_site_label
 _atom_site_symmetry_multiplicity
 _atom_site_fract_x
 _atom_site_fract_y
 _atom_site_fract_z
 _atom_site_occupancy
  La  La0  1  0.251921  0.748079  0.748079  1
  La  La1  1  0.748079  0.251921  0.251921  1
  Tb  Tb2  1  0.251084  0.250170  0.250170  1
  Tb  Tb3  1  0.748916  0.749830  0.749830  1
  Tb  Tb4  1  0.749830  0.748916  0.250170  1
  Tb  Tb5  1  0.749830  0.250170  0.748916  1
  Tb  Tb6  1  0.250170  0.251084  0.749830  1
  Tb  Tb7  1  0.250170  0.749830  0.251084  1
  Zn  Zn8  1  0.000000  0.000000  0.000000  1
  Pd  Pd9  1  0.261199  0.497889  0.004313  1
  Pd  Pd10  1  0.738801  0.502111  0.995687  1
  Pd  Pd11  1  0.004313  0.261199  0.502111  1
  Pd  Pd12  1  0.497889  0.261199  0.995687  1
  Pd  Pd13  1  0.995687  0.738801  0.497889  1
  Pd  Pd14  1  0.502111  0.738801  0.004313  1
  Pd  Pd15  1  0.497889  0.995687  0.261199  1
  Pd  Pd16  1  0.261199  0.004313  0.497889  1
  Pd  Pd17  1  0.502111  0.004313  0.738801  1
  Pd  Pd18  1  0.738801  0.995687  0.502111  1
  Pd  Pd19  1  0.004313  0.502111  0.261199  1
  Pd  Pd20  1  0.995687  0.497889  0.738801  1
  Pd  Pd21  1  0.253440  0.496360  0.496360  1
  Pd  Pd22  1  0.746560  0.503640  0.503640  1
  Pd  Pd23  1  0.496360  0.253440  0.503640  1
  Pd  Pd24  1  0.503640  0.746560  0.496360  1
  Pd  Pd25  1  0.496360  0.503640  0.253440  1
  Pd  Pd26  1  0.503640  0.496360  0.746560  1
  Pd  Pd27  1  0.294812  0.003274  0.003274  1
  Pd  Pd28  1  0.705188  0.996726  0.996726  1
  Pd  Pd29  1  0.003274  0.294812  0.996726  1
  Pd  Pd30  1  0.996726  0.705188  0.003274  1
  Pd  Pd31  1  0.003274  0.996726  0.294812  1
  Pd  Pd32  1  0.996726  0.003274  0.705188  1
