# generated using pymatgen
data_Yb2(FeN)3
_symmetry_space_group_name_H-M   'P 1'
_cell_length_a   6.16529164
_cell_length_b   6.16529246
_cell_length_c   6.02010934
_cell_angle_alpha   87.64438084
_cell_angle_beta   87.64438144
_cell_angle_gamma   117.97246956
_symmetry_Int_Tables_number   1
_chemical_formula_structural   Yb2(FeN)3
_chemical_formula_sum   'Yb4 Fe6 N6'
_cell_volume   201.45185914
_cell_formula_units_Z   2
loop_
 _symmetry_equiv_pos_site_id
 _symmetry_equiv_pos_as_xyz
  1  'x, y, z'
loop_
 _atom_site_type_symbol
 _atom_site_label
 _atom_site_symmetry_multiplicity
 _atom_site_fract_x
 _atom_site_fract_y
 _atom_site_fract_z
 _atom_site_occupancy
  Yb  Yb0  1  0.828818  0.677232  0.898200  1
  Yb  Yb1  1  0.322768  0.171182  0.601800  1
  Yb  Yb2  1  0.171182  0.322768  0.101800  1
  Yb  Yb3  1  0.677232  0.828818  0.398200  1
  Fe  Fe4  1  0.812694  0.187306  0.750000  1
  Fe  Fe5  1  0.187306  0.812694  0.250000  1
  Fe  Fe6  1  0.559598  0.163813  0.111117  1
  Fe  Fe7  1  0.440402  0.836187  0.888883  1
  Fe  Fe8  1  0.836187  0.440402  0.388883  1
  Fe  Fe9  1  0.163813  0.559598  0.611117  1
  N  N10  1  0.423216  0.576784  0.750000  1
  N  N11  1  0.576784  0.423216  0.250000  1
  N  N12  1  0.010242  0.745373  0.518223  1
  N  N13  1  0.745373  0.010242  0.018223  1
  N  N14  1  0.989758  0.254627  0.481777  1
  N  N15  1  0.254627  0.989758  0.981777  1
