# generated using pymatgen
data_Dy5Lu7Tc4
_symmetry_space_group_name_H-M   'P 1'
_cell_length_a   6.18229000
_cell_length_b   7.41748161
_cell_length_c   8.94342488
_cell_angle_alpha   90.07148323
_cell_angle_beta   90.19437509
_cell_angle_gamma   89.95848456
_symmetry_Int_Tables_number   1
_chemical_formula_structural   Dy5Lu7Tc4
_chemical_formula_sum   'Dy5 Lu7 Tc4'
_cell_volume   410.11604876
_cell_formula_units_Z   1
loop_
 _symmetry_equiv_pos_site_id
 _symmetry_equiv_pos_as_xyz
  1  'x, y, z'
loop_
 _atom_site_type_symbol
 _atom_site_label
 _atom_site_symmetry_multiplicity
 _atom_site_fract_x
 _atom_site_fract_y
 _atom_site_fract_z
 _atom_site_occupancy
  Dy  Dy0  1  0.652553  0.176949  0.437596  1
  Dy  Dy1  1  0.875664  0.958695  0.750799  1
  Dy  Dy2  1  0.374017  0.542215  0.249564  1
  Dy  Dy3  1  0.624252  0.459824  0.750674  1
  Dy  Dy4  1  0.124780  0.039644  0.248887  1
  Lu  Lu5  1  0.651631  0.175178  0.061945  1
  Lu  Lu6  1  0.150974  0.324488  0.937386  1
  Lu  Lu7  1  0.848037  0.674350  0.437569  1
  Lu  Lu8  1  0.347524  0.824108  0.562835  1
  Lu  Lu9  1  0.348843  0.824728  0.937592  1
  Lu  Lu10  1  0.848693  0.675305  0.062850  1
  Lu  Lu11  1  0.153780  0.325274  0.562533  1
  Tc  Tc12  1  0.045660  0.616459  0.749755  1
  Tc  Tc13  1  0.545816  0.882427  0.249369  1
  Tc  Tc14  1  0.452030  0.116406  0.752244  1
  Tc  Tc15  1  0.955749  0.383952  0.248405  1
