# generated using pymatgen
data_Th6OsPdAu6
_symmetry_space_group_name_H-M   'P 1'
_cell_length_a   8.27660264
_cell_length_b   8.27660334
_cell_length_c   8.27660454
_cell_angle_alpha   114.12450633
_cell_angle_beta   114.12451162
_cell_angle_gamma   114.12448829
_symmetry_Int_Tables_number   1
_chemical_formula_structural   Th6OsPdAu6
_chemical_formula_sum   'Th6 Os1 Pd1 Au6'
_cell_volume   341.25758374
_cell_formula_units_Z   1
loop_
 _symmetry_equiv_pos_site_id
 _symmetry_equiv_pos_as_xyz
  1  'x, y, z'
loop_
 _atom_site_type_symbol
 _atom_site_label
 _atom_site_symmetry_multiplicity
 _atom_site_fract_x
 _atom_site_fract_y
 _atom_site_fract_z
 _atom_site_occupancy
  Th  Th0  1  0.027235  0.383818  0.273362  1
  Th  Th1  1  0.383818  0.273362  0.027235  1
  Th  Th2  1  0.726638  0.972765  0.616182  1
  Th  Th3  1  0.273362  0.027235  0.383818  1
  Th  Th4  1  0.616182  0.726638  0.972765  1
  Th  Th5  1  0.972765  0.616182  0.726638  1
  Os  Os6  1  0.000000  0.000000  0.000000  1
  Pd  Pd7  1  0.500000  0.500000  0.500000  1
  Au  Au8  1  0.419072  0.924631  0.760997  1
  Au  Au9  1  0.924631  0.760997  0.419072  1
  Au  Au10  1  0.239003  0.580928  0.075369  1
  Au  Au11  1  0.760997  0.419072  0.924631  1
  Au  Au12  1  0.075369  0.239003  0.580928  1
  Au  Au13  1  0.580928  0.075369  0.239003  1
