# generated using pymatgen
data_Dy5YU4O20
_symmetry_space_group_name_H-M   'P 1'
_cell_length_a   6.65427045
_cell_length_b   7.49975298
_cell_length_c   8.41402505
_cell_angle_alpha   100.84197808
_cell_angle_beta   97.66995516
_cell_angle_gamma   107.26012437
_symmetry_Int_Tables_number   1
_chemical_formula_structural   Dy5YU4O20
_chemical_formula_sum   'Dy5 Y1 U4 O20'
_cell_volume   385.73489136
_cell_formula_units_Z   1
loop_
 _symmetry_equiv_pos_site_id
 _symmetry_equiv_pos_as_xyz
  1  'x, y, z'
loop_
 _atom_site_type_symbol
 _atom_site_label
 _atom_site_symmetry_multiplicity
 _atom_site_fract_x
 _atom_site_fract_y
 _atom_site_fract_z
 _atom_site_occupancy
  Dy  Dy0  1  0.614516  0.703587  0.699380  1
  Dy  Dy1  1  0.385484  0.296413  0.300620  1
  Dy  Dy2  1  0.197526  0.896483  0.891601  1
  Dy  Dy3  1  0.000000  0.500000  0.500000  1
  Dy  Dy4  1  0.802474  0.103517  0.108399  1
  Y  Y5  1  0.000000  0.000000  0.500000  1
  U  U6  1  0.401505  0.804183  0.301809  1
  U  U7  1  0.199093  0.399852  0.899352  1
  U  U8  1  0.800907  0.600148  0.100648  1
  U  U9  1  0.598495  0.195817  0.698191  1
  O  O10  1  0.439791  0.531666  0.137643  1
  O  O11  1  0.555378  0.987161  0.841459  1
  O  O12  1  0.268167  0.143959  0.745195  1
  O  O13  1  0.360263  0.594193  0.442646  1
  O  O14  1  0.054279  0.728599  0.332897  1
  O  O15  1  0.444622  0.012839  0.158541  1
  O  O16  1  0.150083  0.183264  0.032378  1
  O  O17  1  0.560209  0.468334  0.862357  1
  O  O18  1  0.854137  0.336282  0.950993  1
  O  O19  1  0.257495  0.606720  0.758810  1
  O  O20  1  0.953483  0.771767  0.652255  1
  O  O21  1  0.353925  0.062935  0.453063  1
  O  O22  1  0.646075  0.937065  0.546937  1
  O  O23  1  0.046517  0.228233  0.347745  1
  O  O24  1  0.742505  0.393280  0.241190  1
  O  O25  1  0.145863  0.663718  0.049007  1
  O  O26  1  0.849917  0.816736  0.967622  1
  O  O27  1  0.945721  0.271401  0.667103  1
  O  O28  1  0.639737  0.405807  0.557354  1
  O  O29  1  0.731833  0.856041  0.254805  1
