# generated using pymatgen
data_Zr2PSe
_symmetry_space_group_name_H-M   'P 1'
_cell_length_a   3.79662400
_cell_length_b   3.79662414
_cell_length_c   12.71958300
_cell_angle_alpha   90.00000000
_cell_angle_beta   90.00000000
_cell_angle_gamma   119.99999874
_symmetry_Int_Tables_number   1
_chemical_formula_structural   Zr2PSe
_chemical_formula_sum   'Zr4 P2 Se2'
_cell_volume   158.78106293
_cell_formula_units_Z   2
loop_
 _symmetry_equiv_pos_site_id
 _symmetry_equiv_pos_as_xyz
  1  'x, y, z'
loop_
 _atom_site_type_symbol
 _atom_site_label
 _atom_site_symmetry_multiplicity
 _atom_site_fract_x
 _atom_site_fract_y
 _atom_site_fract_z
 _atom_site_occupancy
  Zr  Zr0  1  0.666667  0.333333  0.605000  1
  Zr  Zr1  1  0.333333  0.666667  0.395000  1
  Zr  Zr2  1  0.333333  0.666667  0.105000  1
  Zr  Zr3  1  0.666667  0.333333  0.895000  1
  P  P4  1  0.000000  0.000000  0.500000  1
  P  P5  1  0.000000  0.000000  0.000000  1
  Se  Se6  1  0.666667  0.333333  0.250000  1
  Se  Se7  1  0.333333  0.666667  0.750000  1
