# generated using pymatgen
data_Hf3AlSi2Ir3
_symmetry_space_group_name_H-M   'P 1'
_cell_length_a   7.61779999
_cell_length_b   7.61779964
_cell_length_c   7.61780069
_cell_angle_alpha   129.71678913
_cell_angle_beta   116.17216765
_cell_angle_gamma   85.40779992
_symmetry_Int_Tables_number   1
_chemical_formula_structural   Hf3AlSi2Ir3
_chemical_formula_sum   'Hf6 Al2 Si4 Ir6'
_cell_volume   291.85336348
_cell_formula_units_Z   2
loop_
 _symmetry_equiv_pos_site_id
 _symmetry_equiv_pos_as_xyz
  1  'x, y, z'
loop_
 _atom_site_type_symbol
 _atom_site_label
 _atom_site_symmetry_multiplicity
 _atom_site_fract_x
 _atom_site_fract_y
 _atom_site_fract_z
 _atom_site_occupancy
  Hf  Hf0  1  0.471837  0.698265  0.726428  1
  Hf  Hf1  1  0.528163  0.254590  0.226428  1
  Hf  Hf2  1  0.750137  0.814188  0.564051  1
  Hf  Hf3  1  0.249863  0.813916  0.064051  1
  Hf  Hf4  1  0.032925  0.252690  0.719764  1
  Hf  Hf5  1  0.967075  0.686839  0.219764  1
  Al  Al6  1  0.253829  0.256345  0.502517  1
  Al  Al7  1  0.746171  0.248688  0.002517  1
  Si  Si8  1  0.332436  0.586684  0.252396  1
  Si  Si9  1  0.667564  0.919960  0.254248  1
  Si  Si10  1  0.165712  0.919960  0.752396  1
  Si  Si11  1  0.834288  0.586684  0.754248  1
  Ir  Ir12  1  0.500000  0.504387  0.004387  1
  Ir  Ir13  1  0.000000  0.504387  0.504387  1
  Ir  Ir14  1  0.122983  0.253534  0.125458  1
  Ir  Ir15  1  0.877017  0.002475  0.130551  1
  Ir  Ir16  1  0.371924  0.002475  0.625458  1
  Ir  Ir17  1  0.628076  0.253534  0.630551  1
