# generated using pymatgen
data_La2SmCCl5
_symmetry_space_group_name_H-M   'P 1'
_cell_length_a   7.46297394
_cell_length_b   8.85918767
_cell_length_c   8.95881100
_cell_angle_alpha   108.53832138
_cell_angle_beta   97.18983457
_cell_angle_gamma   106.29560041
_symmetry_Int_Tables_number   1
_chemical_formula_structural   La2SmCCl5
_chemical_formula_sum   'La4 Sm2 C2 Cl10'
_cell_volume   523.85556081
_cell_formula_units_Z   2
loop_
 _symmetry_equiv_pos_site_id
 _symmetry_equiv_pos_as_xyz
  1  'x, y, z'
loop_
 _atom_site_type_symbol
 _atom_site_label
 _atom_site_symmetry_multiplicity
 _atom_site_fract_x
 _atom_site_fract_y
 _atom_site_fract_z
 _atom_site_occupancy
  La  La0  1  0.029541  0.706182  0.909944  1
  La  La1  1  0.970459  0.293818  0.090056  1
  La  La2  1  0.599078  0.837430  0.781077  1
  La  La3  1  0.400922  0.162570  0.218923  1
  Sm  Sm4  1  0.882127  0.952204  0.229906  1
  Sm  Sm5  1  0.117873  0.047796  0.770094  1
  C  C6  1  0.905152  0.963897  0.950339  1
  C  C7  1  0.094848  0.036103  0.049661  1
  Cl  Cl8  1  0.769115  0.919360  0.535630  1
  Cl  Cl9  1  0.230885  0.080640  0.464370  1
  Cl  Cl10  1  0.463916  0.825184  0.082664  1
  Cl  Cl11  1  0.536084  0.174816  0.917336  1
  Cl  Cl12  1  0.824004  0.256992  0.360857  1
  Cl  Cl13  1  0.175996  0.743008  0.639143  1
  Cl  Cl14  1  0.903423  0.633410  0.175367  1
  Cl  Cl15  1  0.096577  0.366590  0.824633  1
  Cl  Cl16  1  0.650990  0.525452  0.713877  1
  Cl  Cl17  1  0.349010  0.474548  0.286123  1
