# generated using pymatgen
data_TbPrCo4(B2Ru)4
_symmetry_space_group_name_H-M   'P 1'
_cell_length_a   7.26772020
_cell_length_b   7.24744315
_cell_length_c   3.91364800
_cell_angle_alpha   90.00000000
_cell_angle_beta   90.00000000
_cell_angle_gamma   89.93482309
_symmetry_Int_Tables_number   1
_chemical_formula_structural   TbPrCo4(B2Ru)4
_chemical_formula_sum   'Tb1 Pr1 Co4 B8 Ru4'
_cell_volume   206.14105636
_cell_formula_units_Z   1
loop_
 _symmetry_equiv_pos_site_id
 _symmetry_equiv_pos_as_xyz
  1  'x, y, z'
loop_
 _atom_site_type_symbol
 _atom_site_label
 _atom_site_symmetry_multiplicity
 _atom_site_fract_x
 _atom_site_fract_y
 _atom_site_fract_z
 _atom_site_occupancy
  Tb  Tb0  1  0.000000  0.000000  0.089054  1
  Pr  Pr1  1  0.500000  0.500000  0.579102  1
  Co  Co2  1  0.623033  0.115958  0.377255  1
  Co  Co3  1  0.376967  0.884042  0.377255  1
  Co  Co4  1  0.617910  0.878736  0.877751  1
  Co  Co5  1  0.382090  0.121264  0.877751  1
  B  B6  1  0.339593  0.822040  0.881822  1
  B  B7  1  0.660407  0.177960  0.881822  1
  B  B8  1  0.316055  0.156488  0.379340  1
  B  B9  1  0.683945  0.843512  0.379340  1
  B  B10  1  0.171258  0.734587  0.598584  1
  B  B11  1  0.828742  0.265413  0.598584  1
  B  B12  1  0.224382  0.324933  0.097674  1
  B  B13  1  0.775618  0.675067  0.097674  1
  Ru  Ru14  1  0.843542  0.388395  0.101714  1
  Ru  Ru15  1  0.156458  0.611605  0.101714  1
  Ru  Ru16  1  0.890757  0.662341  0.601781  1
  Ru  Ru17  1  0.109243  0.337659  0.601781  1
