# generated using pymatgen
data_Dy3YCoB14
_symmetry_space_group_name_H-M   'P 1'
_cell_length_a   7.22344800
_cell_length_b   7.22344400
_cell_length_c   7.51283700
_cell_angle_alpha   90.00000000
_cell_angle_beta   90.00000000
_cell_angle_gamma   89.99996827
_symmetry_Int_Tables_number   1
_chemical_formula_structural   Dy3YCoB14
_chemical_formula_sum   'Dy6 Y2 Co2 B28'
_cell_volume   392.00610206
_cell_formula_units_Z   2
loop_
 _symmetry_equiv_pos_site_id
 _symmetry_equiv_pos_as_xyz
  1  'x, y, z'
loop_
 _atom_site_type_symbol
 _atom_site_label
 _atom_site_symmetry_multiplicity
 _atom_site_fract_x
 _atom_site_fract_y
 _atom_site_fract_z
 _atom_site_occupancy
  Dy  Dy0  1  0.329949  0.806949  0.000000  1
  Dy  Dy1  1  0.692969  0.170041  0.500000  1
  Dy  Dy2  1  0.307059  0.829909  0.500000  1
  Dy  Dy3  1  0.806990  0.670094  0.000000  1
  Dy  Dy4  1  0.829917  0.692961  0.500000  1
  Dy  Dy5  1  0.170051  0.307050  0.500000  1
  Y  Y6  1  0.192988  0.330183  0.000000  1
  Y  Y7  1  0.669853  0.192947  0.000000  1
  Co  Co8  1  0.000077  0.999672  0.000000  1
  Co  Co9  1  0.500016  0.499993  0.500000  1
  B  B10  1  0.174195  0.038817  0.231032  1
  B  B11  1  0.961095  0.174163  0.231115  1
  B  B12  1  0.038913  0.825814  0.230977  1
  B  B13  1  0.674172  0.461150  0.269080  1
  B  B14  1  0.325867  0.538979  0.269084  1
  B  B15  1  0.825847  0.961000  0.231061  1
  B  B16  1  0.538908  0.674171  0.268993  1
  B  B17  1  0.461080  0.325867  0.269170  1
  B  B18  1  0.825847  0.961000  0.768939  1
  B  B19  1  0.038913  0.825814  0.769023  1
  B  B20  1  0.961095  0.174163  0.768885  1
  B  B21  1  0.325867  0.538979  0.730916  1
  B  B22  1  0.674172  0.461150  0.730920  1
  B  B23  1  0.174195  0.038817  0.768968  1
  B  B24  1  0.461080  0.325867  0.730830  1
  B  B25  1  0.538908  0.674171  0.731007  1
  B  B26  1  0.088333  0.588407  0.250121  1
  B  B27  1  0.411639  0.088277  0.250225  1
  B  B28  1  0.588350  0.911579  0.250115  1
  B  B29  1  0.911637  0.411697  0.250220  1
  B  B30  1  0.911637  0.411697  0.749780  1
  B  B31  1  0.588350  0.911579  0.749885  1
  B  B32  1  0.411639  0.088277  0.749775  1
  B  B33  1  0.088333  0.588407  0.749879  1
  B  B34  1  0.000010  0.000027  0.388330  1
  B  B35  1  0.500019  0.500154  0.111675  1
  B  B36  1  0.000010  0.000027  0.611670  1
  B  B37  1  0.500019  0.500154  0.888325  1
