# generated using pymatgen
data_Ba7Er2Mn3Cr2O20
_symmetry_space_group_name_H-M   'P 1'
_cell_length_a   5.90006702
_cell_length_b   5.90006695
_cell_length_c   17.60511057
_cell_angle_alpha   80.35362151
_cell_angle_beta   99.64638279
_cell_angle_gamma   120.00000241
_symmetry_Int_Tables_number   1
_chemical_formula_structural   Ba7Er2Mn3Cr2O20
_chemical_formula_sum   'Ba7 Er2 Mn3 Cr2 O20'
_cell_volume   520.71198540
_cell_formula_units_Z   1
loop_
 _symmetry_equiv_pos_site_id
 _symmetry_equiv_pos_as_xyz
  1  'x, y, z'
loop_
 _atom_site_type_symbol
 _atom_site_label
 _atom_site_symmetry_multiplicity
 _atom_site_fract_x
 _atom_site_fract_y
 _atom_site_fract_z
 _atom_site_occupancy
  Ba  Ba0  1  0.000000  0.000000  0.000000  1
  Ba  Ba1  1  0.385231  0.614771  0.155692  1
  Ba  Ba2  1  0.771329  0.228670  0.313991  1
  Ba  Ba3  1  0.145415  0.854585  0.436245  1
  Ba  Ba4  1  0.854584  0.145415  0.563755  1
  Ba  Ba5  1  0.228670  0.771330  0.686009  1
  Ba  Ba6  1  0.614770  0.385232  0.844308  1
  Er  Er7  1  0.073232  0.926768  0.219698  1
  Er  Er8  1  0.926767  0.073232  0.780302  1
  Mn  Mn9  1  0.450296  0.549706  0.350889  1
  Mn  Mn10  1  0.500000  0.500001  0.500000  1
  Mn  Mn11  1  0.549705  0.450297  0.649111  1
  Cr  Cr12  1  0.698067  0.301931  0.094205  1
  Cr  Cr13  1  0.301932  0.698069  0.905795  1
  O  O14  1  0.335309  0.664693  0.005923  1
  O  O15  1  0.876023  0.123486  0.135109  1
  O  O16  1  0.382572  0.123977  0.135109  1
  O  O17  1  0.876514  0.617428  0.135109  1
  O  O18  1  0.273399  0.255345  0.291820  1
  O  O19  1  0.744656  0.726235  0.291820  1
  O  O20  1  0.273766  0.726602  0.291820  1
  O  O21  1  0.622071  0.377616  0.428735  1
  O  O22  1  0.184279  0.377928  0.428735  1
  O  O23  1  0.622383  0.815718  0.428735  1
  O  O24  1  0.377616  0.184280  0.571264  1
  O  O25  1  0.815720  0.622071  0.571264  1
  O  O26  1  0.377927  0.622384  0.571264  1
  O  O27  1  0.726235  0.273399  0.708180  1
  O  O28  1  0.255343  0.273765  0.708180  1
  O  O29  1  0.726602  0.744656  0.708180  1
  O  O30  1  0.123486  0.382572  0.864892  1
  O  O31  1  0.617429  0.876023  0.864892  1
  O  O32  1  0.123976  0.876514  0.864892  1
  O  O33  1  0.664692  0.335309  0.994077  1
