# generated using pymatgen
data_La2Pu2O7
_symmetry_space_group_name_H-M   'P 1'
_cell_length_a   7.87265369
_cell_length_b   7.87265381
_cell_length_c   7.87265300
_cell_angle_alpha   59.99999920
_cell_angle_beta   59.99999869
_cell_angle_gamma   60.00000206
_symmetry_Int_Tables_number   1
_chemical_formula_structural   La2Pu2O7
_chemical_formula_sum   'La4 Pu4 O14'
_cell_volume   345.02329111
_cell_formula_units_Z   2
loop_
 _symmetry_equiv_pos_site_id
 _symmetry_equiv_pos_as_xyz
  1  'x, y, z'
loop_
 _atom_site_type_symbol
 _atom_site_label
 _atom_site_symmetry_multiplicity
 _atom_site_fract_x
 _atom_site_fract_y
 _atom_site_fract_z
 _atom_site_occupancy
  La  La0  1  0.625000  0.125000  0.125000  1
  La  La1  1  0.125000  0.125000  0.125000  1
  La  La2  1  0.125000  0.625000  0.125000  1
  La  La3  1  0.125000  0.125000  0.625000  1
  Pu  Pu4  1  0.625000  0.625000  0.125000  1
  Pu  Pu5  1  0.625000  0.625000  0.625000  1
  Pu  Pu6  1  0.625000  0.125000  0.625000  1
  Pu  Pu7  1  0.125000  0.625000  0.625000  1
  O  O8  1  0.717066  0.282934  0.282934  1
  O  O9  1  0.717066  0.717066  0.282934  1
  O  O10  1  0.282934  0.717066  0.282934  1
  O  O11  1  0.000000  0.000000  0.000000  1
  O  O12  1  0.717066  0.282934  0.717066  1
  O  O13  1  0.967066  0.532934  0.532934  1
  O  O14  1  0.282934  0.717066  0.717066  1
  O  O15  1  0.532934  0.967066  0.532934  1
  O  O16  1  0.250000  0.250000  0.250000  1
  O  O17  1  0.967066  0.532934  0.967066  1
  O  O18  1  0.532934  0.532934  0.967066  1
  O  O19  1  0.967066  0.967066  0.532934  1
  O  O20  1  0.532934  0.967066  0.967066  1
  O  O21  1  0.282934  0.282934  0.717066  1
