# generated using pymatgen
data_NdIn(NiPt)2
_symmetry_space_group_name_H-M   'P 1'
_cell_length_a   5.24248978
_cell_length_b   5.24249002
_cell_length_c   5.45975300
_cell_angle_alpha   58.61934265
_cell_angle_beta   58.61934105
_cell_angle_gamma   59.04378322
_symmetry_Int_Tables_number   1
_chemical_formula_structural   NdIn(NiPt)2
_chemical_formula_sum   'Nd1 In1 Ni2 Pt2'
_cell_volume   103.09710241
_cell_formula_units_Z   1
loop_
 _symmetry_equiv_pos_site_id
 _symmetry_equiv_pos_as_xyz
  1  'x, y, z'
loop_
 _atom_site_type_symbol
 _atom_site_label
 _atom_site_symmetry_multiplicity
 _atom_site_fract_x
 _atom_site_fract_y
 _atom_site_fract_z
 _atom_site_occupancy
  Nd  Nd0  1  0.248193  0.248193  0.251807  1
  In  In1  1  0.008574  0.008574  0.991426  1
  Ni  Ni2  1  0.621156  0.121727  0.628559  1
  Ni  Ni3  1  0.121727  0.621156  0.628559  1
  Pt  Pt4  1  0.625176  0.625176  0.626171  1
  Pt  Pt5  1  0.625176  0.625176  0.123479  1
