# generated using pymatgen
data_ErTm11Tl2Fe2Ir
_symmetry_space_group_name_H-M   'P 1'
_cell_length_a   8.27034523
_cell_length_b   8.26921048
_cell_length_c   8.27358942
_cell_angle_alpha   108.69233488
_cell_angle_beta   108.72588810
_cell_angle_gamma   111.02878055
_symmetry_Int_Tables_number   1
_chemical_formula_structural   ErTm11Tl2Fe2Ir
_chemical_formula_sum   'Er1 Tm11 Tl2 Fe2 Ir1'
_cell_volume   435.21292791
_cell_formula_units_Z   1
loop_
 _symmetry_equiv_pos_site_id
 _symmetry_equiv_pos_as_xyz
  1  'x, y, z'
loop_
 _atom_site_type_symbol
 _atom_site_label
 _atom_site_symmetry_multiplicity
 _atom_site_fract_x
 _atom_site_fract_y
 _atom_site_fract_z
 _atom_site_occupancy
  Er  Er0  1  0.193927  0.433114  0.239207  1
  Tm  Tm1  1  0.806128  0.567970  0.761861  1
  Tm  Tm2  1  0.193425  0.954622  0.761208  1
  Tm  Tm3  1  0.955311  0.193430  0.761599  1
  Tm  Tm4  1  0.806145  0.044336  0.238175  1
  Tm  Tm5  1  0.044851  0.806740  0.238135  1
  Tm  Tm6  1  0.431947  0.193431  0.238161  1
  Tm  Tm7  1  0.568393  0.806701  0.761774  1
  Tm  Tm8  1  0.308035  0.307893  0.616281  1
  Tm  Tm9  1  0.692635  0.692022  0.384040  1
  Tm  Tm10  1  0.691695  0.307886  0.999905  1
  Tm  Tm11  1  0.308050  0.691971  0.999426  1
  Tl  Tl12  1  0.998727  0.499239  0.500109  1
  Tl  Tl13  1  0.500262  0.000726  0.500529  1
  Fe  Fe14  1  0.386715  0.386318  0.000006  1
  Fe  Fe15  1  0.613904  0.614037  0.000022  1
  Ir  Ir16  1  0.999849  0.999562  0.999561  1
