# generated using pymatgen
data_Er8Si12PtRh3
_symmetry_space_group_name_H-M   'P 1'
_cell_length_a   8.14677300
_cell_length_b   8.14677242
_cell_length_c   7.82323800
_cell_angle_alpha   90.00000000
_cell_angle_beta   90.00000000
_cell_angle_gamma   119.99999828
_symmetry_Int_Tables_number   1
_chemical_formula_structural   Er8Si12PtRh3
_chemical_formula_sum   'Er8 Si12 Pt1 Rh3'
_cell_volume   449.66427176
_cell_formula_units_Z   1
loop_
 _symmetry_equiv_pos_site_id
 _symmetry_equiv_pos_as_xyz
  1  'x, y, z'
loop_
 _atom_site_type_symbol
 _atom_site_label
 _atom_site_symmetry_multiplicity
 _atom_site_fract_x
 _atom_site_fract_y
 _atom_site_fract_z
 _atom_site_occupancy
  Er  Er0  1  0.979636  0.489819  0.252022  1
  Er  Er1  1  0.510181  0.489819  0.252022  1
  Er  Er2  1  0.491492  0.982983  0.748153  1
  Er  Er3  1  0.017017  0.508508  0.748153  1
  Er  Er4  1  0.491492  0.508508  0.748153  1
  Er  Er5  1  0.510181  0.020364  0.252022  1
  Er  Er6  1  0.000000  0.000000  0.748892  1
  Er  Er7  1  0.000000  0.000000  0.250439  1
  Si  Si8  1  0.166767  0.833233  0.499624  1
  Si  Si9  1  0.166767  0.333533  0.499624  1
  Si  Si10  1  0.666467  0.833233  0.499624  1
  Si  Si11  1  0.335211  0.167606  0.000020  1
  Si  Si12  1  0.833299  0.666599  0.500431  1
  Si  Si13  1  0.832394  0.167606  0.000020  1
  Si  Si14  1  0.832394  0.664789  0.000020  1
  Si  Si15  1  0.164295  0.328590  0.999924  1
  Si  Si16  1  0.671410  0.835705  0.999924  1
  Si  Si17  1  0.333401  0.166701  0.500431  1
  Si  Si18  1  0.833299  0.166701  0.500431  1
  Si  Si19  1  0.164295  0.835705  0.999924  1
  Pt  Pt20  1  0.333333  0.666667  0.034245  1
  Rh  Rh21  1  0.666667  0.333333  0.964794  1
  Rh  Rh22  1  0.666667  0.333333  0.535166  1
  Rh  Rh23  1  0.333333  0.666667  0.465941  1
