# generated using pymatgen
data_Rb4Zr6SI18
_symmetry_space_group_name_H-M   'P 1'
_cell_length_a   11.47598350
_cell_length_b   11.47598445
_cell_length_c   11.21833185
_cell_angle_alpha   77.23903031
_cell_angle_beta   77.23902961
_cell_angle_gamma   117.62906484
_symmetry_Int_Tables_number   1
_chemical_formula_structural   Rb4Zr6SI18
_chemical_formula_sum   'Rb4 Zr6 S1 I18'
_cell_volume   1183.89258729
_cell_formula_units_Z   1
loop_
 _symmetry_equiv_pos_site_id
 _symmetry_equiv_pos_as_xyz
  1  'x, y, z'
loop_
 _atom_site_type_symbol
 _atom_site_label
 _atom_site_symmetry_multiplicity
 _atom_site_fract_x
 _atom_site_fract_y
 _atom_site_fract_z
 _atom_site_occupancy
  Rb  Rb0  1  0.769765  0.445763  0.678090  1
  Rb  Rb1  1  0.554237  0.230235  0.321910  1
  Rb  Rb2  1  0.230235  0.554237  0.321910  1
  Rb  Rb3  1  0.445763  0.769765  0.678090  1
  Zr  Zr4  1  0.121251  0.121251  0.135691  1
  Zr  Zr5  1  0.878749  0.878749  0.864309  1
  Zr  Zr6  1  0.950881  0.771103  0.144212  1
  Zr  Zr7  1  0.228897  0.049119  0.855788  1
  Zr  Zr8  1  0.049119  0.228897  0.855788  1
  Zr  Zr9  1  0.771103  0.950881  0.144212  1
  S  S10  1  0.000000  0.000000  0.000000  1
  I  I11  1  0.803325  0.592833  0.010179  1
  I  I12  1  0.407168  0.196675  0.989821  1
  I  I13  1  0.196675  0.407168  0.989821  1
  I  I14  1  0.592832  0.803325  0.010179  1
  I  I15  1  0.209567  0.790433  0.000000  1
  I  I16  1  0.790433  0.209567  0.000000  1
  I  I17  1  0.325732  0.325732  0.665856  1
  I  I18  1  0.674268  0.674268  0.334144  1
  I  I19  1  0.888410  0.487771  0.326530  1
  I  I20  1  0.512229  0.111590  0.673470  1
  I  I21  1  0.111590  0.512229  0.673470  1
  I  I22  1  0.487771  0.888410  0.326530  1
  I  I23  1  0.266766  0.266766  0.300482  1
  I  I24  1  0.733234  0.733234  0.699518  1
  I  I25  1  0.081206  0.872897  0.324464  1
  I  I26  1  0.127103  0.918794  0.675536  1
  I  I27  1  0.918794  0.127103  0.675536  1
  I  I28  1  0.872897  0.081206  0.324464  1
