# generated using pymatgen
data_TbEu6HoSb6
_symmetry_space_group_name_H-M   'P 1'
_cell_length_a   8.26684297
_cell_length_b   8.26331234
_cell_length_c   8.35101920
_cell_angle_alpha   109.55216787
_cell_angle_beta   109.56061286
_cell_angle_gamma   109.05525707
_symmetry_Int_Tables_number   1
_chemical_formula_structural   TbEu6HoSb6
_chemical_formula_sum   'Tb1 Eu6 Ho1 Sb6'
_cell_volume   440.46629767
_cell_formula_units_Z   1
loop_
 _symmetry_equiv_pos_site_id
 _symmetry_equiv_pos_as_xyz
  1  'x, y, z'
loop_
 _atom_site_type_symbol
 _atom_site_label
 _atom_site_symmetry_multiplicity
 _atom_site_fract_x
 _atom_site_fract_y
 _atom_site_fract_z
 _atom_site_occupancy
  Tb  Tb0  1  0.358052  0.499583  0.998797  1
  Eu  Eu1  1  0.500899  0.003451  0.357841  1
  Eu  Eu2  1  0.503235  0.000809  0.857646  1
  Eu  Eu3  1  0.643176  0.642831  0.646206  1
  Eu  Eu4  1  0.996569  0.356043  0.496336  1
  Eu  Eu5  1  0.142678  0.143010  0.146269  1
  Eu  Eu6  1  0.855929  0.496605  0.996492  1
  Ho  Ho7  1  0.999568  0.858495  0.498801  1
  Sb  Sb8  1  0.127583  0.748177  0.870742  1
  Sb  Sb9  1  0.887066  0.123648  0.748184  1
  Sb  Sb10  1  0.624734  0.387377  0.249102  1
  Sb  Sb11  1  0.365384  0.245942  0.630729  1
  Sb  Sb12  1  0.747453  0.866159  0.131730  1
  Sb  Sb13  1  0.247672  0.627869  0.371126  1
