# generated using pymatgen
data_ErSc4In4HgRh
_symmetry_space_group_name_H-M   'P 1'
_cell_length_a   3.48485800
_cell_length_b   7.90382747
_cell_length_c   17.90255864
_cell_angle_alpha   89.99544693
_cell_angle_beta   90.00000000
_cell_angle_gamma   90.00000000
_symmetry_Int_Tables_number   1
_chemical_formula_structural   ErSc4In4HgRh
_chemical_formula_sum   'Er2 Sc8 In8 Hg2 Rh2'
_cell_volume   493.10299632
_cell_formula_units_Z   2
loop_
 _symmetry_equiv_pos_site_id
 _symmetry_equiv_pos_as_xyz
  1  'x, y, z'
loop_
 _atom_site_type_symbol
 _atom_site_label
 _atom_site_symmetry_multiplicity
 _atom_site_fract_x
 _atom_site_fract_y
 _atom_site_fract_z
 _atom_site_occupancy
  Er  Er0  1  0.000000  0.732715  0.788116  1
  Er  Er1  1  0.000000  0.267285  0.211884  1
  Sc  Sc2  1  0.000000  0.000000  0.000000  1
  Sc  Sc3  1  0.000000  0.500000  0.500000  1
  Sc  Sc4  1  0.000000  0.280194  0.724570  1
  Sc  Sc5  1  0.000000  0.719806  0.275430  1
  Sc  Sc6  1  0.000000  0.870891  0.574279  1
  Sc  Sc7  1  0.000000  0.129109  0.425721  1
  Sc  Sc8  1  0.000000  0.376941  0.916463  1
  Sc  Sc9  1  0.000000  0.623059  0.083537  1
  In  In10  1  0.500000  0.789989  0.434551  1
  In  In11  1  0.500000  0.210011  0.565449  1
  In  In12  1  0.500000  0.302376  0.060299  1
  In  In13  1  0.500000  0.697624  0.939701  1
  In  In14  1  0.500000  0.915641  0.144751  1
  In  In15  1  0.500000  0.084359  0.855249  1
  In  In16  1  0.500000  0.429392  0.353565  1
  In  In17  1  0.500000  0.570608  0.646435  1
  Hg  Hg18  1  0.500000  0.973565  0.695620  1
  Hg  Hg19  1  0.500000  0.026435  0.304380  1
  Rh  Rh20  1  0.500000  0.458720  0.807413  1
  Rh  Rh21  1  0.500000  0.541280  0.192587  1
