# generated using pymatgen
data_Tb2Yb6Al(Si4Pd)3
_symmetry_space_group_name_H-M   'P 1'
_cell_length_a   8.25093500
_cell_length_b   8.25093411
_cell_length_c   8.20316300
_cell_angle_alpha   90.00000000
_cell_angle_beta   90.00000000
_cell_angle_gamma   120.00000757
_symmetry_Int_Tables_number   1
_chemical_formula_structural   Tb2Yb6Al(Si4Pd)3
_chemical_formula_sum   'Tb2 Yb6 Al1 Si12 Pd3'
_cell_volume   483.63555902
_cell_formula_units_Z   1
loop_
 _symmetry_equiv_pos_site_id
 _symmetry_equiv_pos_as_xyz
  1  'x, y, z'
loop_
 _atom_site_type_symbol
 _atom_site_label
 _atom_site_symmetry_multiplicity
 _atom_site_fract_x
 _atom_site_fract_y
 _atom_site_fract_z
 _atom_site_occupancy
  Tb  Tb0  1  0.000000  0.000000  0.251336  1
  Tb  Tb1  1  0.000000  0.000000  0.747592  1
  Yb  Yb2  1  0.503536  0.007070  0.256910  1
  Yb  Yb3  1  0.501038  0.002078  0.743345  1
  Yb  Yb4  1  0.992930  0.496464  0.256910  1
  Yb  Yb5  1  0.997922  0.498962  0.743345  1
  Yb  Yb6  1  0.503536  0.496464  0.256910  1
  Yb  Yb7  1  0.501038  0.498962  0.743345  1
  Al  Al8  1  0.333333  0.666667  0.007908  1
  Si  Si9  1  0.160449  0.320899  0.998286  1
  Si  Si10  1  0.833795  0.667590  0.000804  1
  Si  Si11  1  0.679101  0.839551  0.998286  1
  Si  Si12  1  0.836748  0.673496  0.500644  1
  Si  Si13  1  0.332410  0.166205  0.000804  1
  Si  Si14  1  0.164483  0.328967  0.499393  1
  Si  Si15  1  0.160449  0.839551  0.998286  1
  Si  Si16  1  0.326504  0.163252  0.500644  1
  Si  Si17  1  0.833795  0.166205  0.000804  1
  Si  Si18  1  0.671033  0.835517  0.499393  1
  Si  Si19  1  0.836748  0.163252  0.500644  1
  Si  Si20  1  0.164483  0.835517  0.499393  1
  Pd  Pd21  1  0.666667  0.333333  0.996514  1
  Pd  Pd22  1  0.666667  0.333333  0.502585  1
  Pd  Pd23  1  0.333333  0.666667  0.495915  1
