# generated using pymatgen
data_TbHo3(As4O9)2
_symmetry_space_group_name_H-M   'P 1'
_cell_length_a   6.74133529
_cell_length_b   7.54172204
_cell_length_c   9.81359714
_cell_angle_alpha   94.86948634
_cell_angle_beta   104.13892067
_cell_angle_gamma   104.76184673
_symmetry_Int_Tables_number   1
_chemical_formula_structural   TbHo3(As4O9)2
_chemical_formula_sum   'Tb1 Ho3 As8 O18'
_cell_volume   462.05705438
_cell_formula_units_Z   1
loop_
 _symmetry_equiv_pos_site_id
 _symmetry_equiv_pos_as_xyz
  1  'x, y, z'
loop_
 _atom_site_type_symbol
 _atom_site_label
 _atom_site_symmetry_multiplicity
 _atom_site_fract_x
 _atom_site_fract_y
 _atom_site_fract_z
 _atom_site_occupancy
  Tb  Tb0  1  0.243687  0.939618  0.615281  1
  Ho  Ho1  1  0.755940  0.061349  0.384546  1
  Ho  Ho2  1  0.720683  0.529531  0.409383  1
  Ho  Ho3  1  0.278938  0.470133  0.590283  1
  As  As4  1  0.682325  0.774749  0.078467  1
  As  As5  1  0.317838  0.225960  0.922280  1
  As  As6  1  0.171001  0.752097  0.912742  1
  As  As7  1  0.828732  0.247457  0.087531  1
  As  As8  1  0.744538  0.915039  0.709145  1
  As  As9  1  0.256077  0.084918  0.290325  1
  As  As10  1  0.809968  0.351136  0.701185  1
  As  As11  1  0.190529  0.648578  0.298484  1
  O  O12  1  0.722702  0.749315  0.259168  1
  O  O13  1  0.277534  0.252213  0.741685  1
  O  O14  1  0.316580  0.978948  0.870881  1
  O  O15  1  0.684100  0.021464  0.130988  1
  O  O16  1  0.607988  0.324727  0.985484  1
  O  O17  1  0.392043  0.675245  0.014608  1
  O  O18  1  0.128413  0.646014  0.737682  1
  O  O19  1  0.871482  0.353745  0.262356  1
  O  O20  1  0.845388  0.874917  0.557808  1
  O  O21  1  0.151809  0.126492  0.439881  1
  O  O22  1  0.484158  0.767012  0.666603  1
  O  O23  1  0.517496  0.231744  0.334031  1
  O  O24  1  0.373222  0.533662  0.380161  1
  O  O25  1  0.626949  0.465898  0.619575  1
  O  O26  1  0.088375  0.667747  0.453306  1
  O  O27  1  0.910631  0.330076  0.545736  1
  O  O28  1  0.376938  0.899562  0.359500  1
  O  O29  1  0.623934  0.100657  0.640896  1
