# generated using pymatgen
data_Rb2PrTcN4
_symmetry_space_group_name_H-M   'P 1'
_cell_length_a   11.24998161
_cell_length_b   10.90065219
_cell_length_c   8.31327003
_cell_angle_alpha   70.20680875
_cell_angle_beta   65.74192939
_cell_angle_gamma   44.05126060
_symmetry_Int_Tables_number   1
_chemical_formula_structural   Rb2PrTcN4
_chemical_formula_sum   'Rb8 Pr4 Tc4 N16'
_cell_volume   644.74184692
_cell_formula_units_Z   4
loop_
 _symmetry_equiv_pos_site_id
 _symmetry_equiv_pos_as_xyz
  1  'x, y, z'
loop_
 _atom_site_type_symbol
 _atom_site_label
 _atom_site_symmetry_multiplicity
 _atom_site_fract_x
 _atom_site_fract_y
 _atom_site_fract_z
 _atom_site_occupancy
  Rb  Rb0  1  0.560664  0.939336  0.939336  1
  Rb  Rb1  1  0.939336  0.560664  0.560664  1
  Rb  Rb2  1  0.310664  0.689336  0.689336  1
  Rb  Rb3  1  0.109319  0.109319  0.890681  1
  Rb  Rb4  1  0.140681  0.140681  0.359319  1
  Rb  Rb5  1  0.359319  0.359319  0.140681  1
  Rb  Rb6  1  0.689336  0.310664  0.310664  1
  Rb  Rb7  1  0.890681  0.890681  0.109319  1
  Pr  Pr8  1  0.340472  0.340472  0.659528  1
  Pr  Pr9  1  0.909528  0.909528  0.590472  1
  Pr  Pr10  1  0.659528  0.659528  0.340472  1
  Pr  Pr11  1  0.590472  0.590472  0.909528  1
  Tc  Tc12  1  0.503341  0.996659  0.503341  1
  Tc  Tc13  1  0.996659  0.503341  0.996659  1
  Tc  Tc14  1  0.746659  0.253341  0.746659  1
  Tc  Tc15  1  0.253341  0.746659  0.253341  1
  N  N16  1  0.013651  0.646736  0.812934  1
  N  N17  1  0.693689  0.299093  0.968774  1
  N  N18  1  0.646736  0.013651  0.526678  1
  N  N19  1  0.526678  0.812934  0.646736  1
  N  N20  1  0.236349  0.603264  0.437066  1
  N  N21  1  0.723322  0.437066  0.603264  1
  N  N22  1  0.968774  0.038445  0.693689  1
  N  N23  1  0.556311  0.950907  0.281226  1
  N  N24  1  0.437066  0.723322  0.236349  1
  N  N25  1  0.950907  0.556311  0.211555  1
  N  N26  1  0.299093  0.693689  0.038445  1
  N  N27  1  0.812934  0.526678  0.013651  1
  N  N28  1  0.211555  0.281226  0.950907  1
  N  N29  1  0.603264  0.236349  0.723322  1
  N  N30  1  0.281226  0.211555  0.556311  1
  N  N31  1  0.038445  0.968774  0.299093  1
