# generated using pymatgen
data_Pr3Nd(Sn2Rh)4
_symmetry_space_group_name_H-M   'P 1'
_cell_length_a   8.84671294
_cell_length_b   8.84671322
_cell_length_c   9.70062900
_cell_angle_alpha   90.00000000
_cell_angle_beta   90.00000000
_cell_angle_gamma   149.26949732
_symmetry_Int_Tables_number   1
_chemical_formula_structural   Pr3Nd(Sn2Rh)4
_chemical_formula_sum   'Pr3 Nd1 Sn8 Rh4'
_cell_volume   387.95843247
_cell_formula_units_Z   1
loop_
 _symmetry_equiv_pos_site_id
 _symmetry_equiv_pos_as_xyz
  1  'x, y, z'
loop_
 _atom_site_type_symbol
 _atom_site_label
 _atom_site_symmetry_multiplicity
 _atom_site_fract_x
 _atom_site_fract_y
 _atom_site_fract_z
 _atom_site_occupancy
  Pr  Pr0  1  0.703544  0.296456  0.750000  1
  Pr  Pr1  1  0.500185  0.499815  0.501239  1
  Pr  Pr2  1  0.500185  0.499815  0.998761  1
  Nd  Nd3  1  0.296020  0.703980  0.250000  1
  Sn  Sn4  1  0.697212  0.302788  0.409326  1
  Sn  Sn5  1  0.303170  0.696830  0.589698  1
  Sn  Sn6  1  0.303170  0.696830  0.910302  1
  Sn  Sn7  1  0.697212  0.302788  0.090674  1
  Sn  Sn8  1  0.908377  0.091623  0.750000  1
  Sn  Sn9  1  0.091325  0.908675  0.250000  1
  Sn  Sn10  1  0.075099  0.924901  0.750000  1
  Sn  Sn11  1  0.924666  0.075334  0.250000  1
  Rh  Rh12  1  0.852279  0.147721  0.494636  1
  Rh  Rh13  1  0.147640  0.852360  0.504269  1
  Rh  Rh14  1  0.147640  0.852360  0.995731  1
  Rh  Rh15  1  0.852279  0.147721  0.005364  1
