# generated using pymatgen
data_Th2BeP3Ru4
_symmetry_space_group_name_H-M   'P 1'
_cell_length_a   7.57829300
_cell_length_b   4.12421700
_cell_length_c   10.41446200
_cell_angle_alpha   90.00000000
_cell_angle_beta   90.00000000
_cell_angle_gamma   90.00000000
_symmetry_Int_Tables_number   1
_chemical_formula_structural   Th2BeP3Ru4
_chemical_formula_sum   'Th4 Be2 P6 Ru8'
_cell_volume   325.49906108
_cell_formula_units_Z   2
loop_
 _symmetry_equiv_pos_site_id
 _symmetry_equiv_pos_as_xyz
  1  'x, y, z'
loop_
 _atom_site_type_symbol
 _atom_site_label
 _atom_site_symmetry_multiplicity
 _atom_site_fract_x
 _atom_site_fract_y
 _atom_site_fract_z
 _atom_site_occupancy
  Th  Th0  1  0.260911  0.249999  0.327957  1
  Th  Th1  1  0.239089  0.749998  0.827958  1
  Th  Th2  1  0.760726  0.249999  0.169474  1
  Th  Th3  1  0.739274  0.749998  0.669475  1
  Be  Be4  1  0.095255  0.249999  0.028704  1
  Be  Be5  1  0.404746  0.749998  0.528704  1
  P  P6  1  0.582809  0.249999  0.473913  1
  P  P7  1  0.917191  0.749998  0.973913  1
  P  P8  1  0.045563  0.249999  0.658234  1
  P  P9  1  0.454437  0.749998  0.158234  1
  P  P10  1  0.538201  0.249999  0.840339  1
  P  P11  1  0.961799  0.749998  0.340339  1
  Ru  Ru12  1  0.391862  0.249999  0.045423  1
  Ru  Ru13  1  0.108138  0.749998  0.545423  1
  Ru  Ru14  1  0.884211  0.249999  0.454267  1
  Ru  Ru15  1  0.615788  0.749998  0.954267  1
  Ru  Ru16  1  0.371440  0.249999  0.637107  1
  Ru  Ru17  1  0.128559  0.749998  0.137108  1
  Ru  Ru18  1  0.868603  0.249999  0.864581  1
  Ru  Ru19  1  0.631396  0.749998  0.364581  1
