# generated using pymatgen
data_Ta2Ti17Si16Mo
_symmetry_space_group_name_H-M   'P 1'
_cell_length_a   6.69603264
_cell_length_b   6.69603304
_cell_length_c   12.23540700
_cell_angle_alpha   89.97681171
_cell_angle_beta   90.02318823
_cell_angle_gamma   89.98719157
_symmetry_Int_Tables_number   1
_chemical_formula_structural   Ta2Ti17Si16Mo
_chemical_formula_sum   'Ta2 Ti17 Si16 Mo1'
_cell_volume   548.59707594
_cell_formula_units_Z   1
loop_
 _symmetry_equiv_pos_site_id
 _symmetry_equiv_pos_as_xyz
  1  'x, y, z'
loop_
 _atom_site_type_symbol
 _atom_site_label
 _atom_site_symmetry_multiplicity
 _atom_site_fract_x
 _atom_site_fract_y
 _atom_site_fract_z
 _atom_site_occupancy
  Ta  Ta0  1  0.328633  0.670815  0.249472  1
  Ta  Ta1  1  0.670815  0.328633  0.750528  1
  Ti  Ti2  1  0.995256  0.149823  0.622254  1
  Ti  Ti3  1  0.350969  0.495558  0.871573  1
  Ti  Ti4  1  0.649380  0.504740  0.371682  1
  Ti  Ti5  1  0.495558  0.350969  0.128427  1
  Ti  Ti6  1  0.504740  0.649380  0.628318  1
  Ti  Ti7  1  0.005892  0.849887  0.120935  1
  Ti  Ti8  1  0.149823  0.995256  0.377746  1
  Ti  Ti9  1  0.849887  0.005892  0.879065  1
  Ti  Ti10  1  0.003566  0.344561  0.220646  1
  Ti  Ti11  1  0.157046  0.503683  0.469260  1
  Ti  Ti12  1  0.840217  0.496618  0.970189  1
  Ti  Ti13  1  0.503683  0.157046  0.530740  1
  Ti  Ti14  1  0.496618  0.840217  0.029811  1
  Ti  Ti15  1  0.996502  0.657564  0.720391  1
  Ti  Ti16  1  0.344561  0.003566  0.779354  1
  Ti  Ti17  1  0.657564  0.996502  0.279609  1
  Ti  Ti18  1  0.829870  0.829870  0.500000  1
  Si  Si19  1  0.046849  0.301262  0.814021  1
  Si  Si20  1  0.196340  0.541154  0.061785  1
  Si  Si21  1  0.803645  0.457464  0.561916  1
  Si  Si22  1  0.541154  0.196340  0.938215  1
  Si  Si23  1  0.457464  0.803645  0.438084  1
  Si  Si24  1  0.953152  0.699390  0.314421  1
  Si  Si25  1  0.301262  0.046849  0.185979  1
  Si  Si26  1  0.699390  0.953152  0.685579  1
  Si  Si27  1  0.292711  0.359001  0.672142  1
  Si  Si28  1  0.141494  0.794642  0.921751  1
  Si  Si29  1  0.858106  0.204975  0.423432  1
  Si  Si30  1  0.794642  0.141494  0.078249  1
  Si  Si31  1  0.204975  0.858106  0.576568  1
  Si  Si32  1  0.707507  0.641493  0.172558  1
  Si  Si33  1  0.359001  0.292711  0.327858  1
  Si  Si34  1  0.641493  0.707507  0.827442  1
  Mo  Mo35  1  0.170236  0.170236  0.000000  1
