# generated using pymatgen
data_LiY4Al17(Ni2Pd)2
_symmetry_space_group_name_H-M   'P 1'
_cell_length_a   7.47285413
_cell_length_b   7.47285301
_cell_length_c   9.38605400
_cell_angle_alpha   90.00000000
_cell_angle_beta   90.00000000
_cell_angle_gamma   118.86730717
_symmetry_Int_Tables_number   1
_chemical_formula_structural   LiY4Al17(Ni2Pd)2
_chemical_formula_sum   'Li1 Y4 Al17 Ni4 Pd2'
_cell_volume   459.01962234
_cell_formula_units_Z   1
loop_
 _symmetry_equiv_pos_site_id
 _symmetry_equiv_pos_as_xyz
  1  'x, y, z'
loop_
 _atom_site_type_symbol
 _atom_site_label
 _atom_site_symmetry_multiplicity
 _atom_site_fract_x
 _atom_site_fract_y
 _atom_site_fract_z
 _atom_site_occupancy
  Li  Li0  1  0.134952  0.134952  0.250000  1
  Y  Y1  1  0.995026  0.669574  0.250000  1
  Y  Y2  1  0.007070  0.326344  0.750000  1
  Y  Y3  1  0.669574  0.995026  0.250000  1
  Y  Y4  1  0.326344  0.007071  0.750000  1
  Al  Al5  1  0.860642  0.860642  0.750000  1
  Al  Al6  1  0.999877  0.335762  0.076983  1
  Al  Al7  1  0.002088  0.658138  0.927582  1
  Al  Al8  1  0.002088  0.658138  0.572418  1
  Al  Al9  1  0.335762  0.999877  0.423017  1
  Al  Al10  1  0.999877  0.335762  0.423017  1
  Al  Al11  1  0.658138  0.002088  0.572418  1
  Al  Al12  1  0.658138  0.002088  0.927582  1
  Al  Al13  1  0.335762  0.999877  0.076983  1
  Al  Al14  1  0.339622  0.339622  0.542553  1
  Al  Al15  1  0.665872  0.665871  0.445506  1
  Al  Al16  1  0.665872  0.665871  0.054494  1
  Al  Al17  1  0.339622  0.339622  0.957447  1
  Al  Al18  1  0.340071  0.549619  0.250000  1
  Al  Al19  1  0.659507  0.444748  0.750000  1
  Al  Al20  1  0.549619  0.340070  0.250000  1
  Al  Al21  1  0.444748  0.659507  0.750000  1
  Ni  Ni22  1  0.673378  0.331472  0.000187  1
  Ni  Ni23  1  0.331472  0.673378  0.000186  1
  Ni  Ni24  1  0.331472  0.673378  0.499814  1
  Ni  Ni25  1  0.673378  0.331472  0.499813  1
  Pd  Pd26  1  0.000014  0.000014  0.994084  1
  Pd  Pd27  1  0.000014  0.000014  0.505916  1
